MODEL 1
REMARK VINA RESULT:     -12.4      0.000      0.000
REMARK SMILES Cc1nsc(NC(=O)c2ccc(N)cc2)c1C(=O)NCCCCNC(=O)c1ccc(-c2c3nc(c(-c4c(F)cc(S(=O)(=O)[O-])cc4F)c4ccc([nH]4)c(-c4c(F)cc(S(=O)(=O)[O-])cc4F)c4nc(c(-c5c(F)cc(S(=O)(=O)[O-])cc5F)c5ccc2[nH]5)C=C4)C=C3)cc1
REMARK SMILES IDX 21 1 20 2 19 3 17 4 18 5 16 7 1 8 2 9 3 10 4 11 5 12 6 13
REMARK SMILES IDX 7 14 8 16 9 17 10 18 15 19 11 20 14 21 12 22 13 23 22 26
REMARK SMILES IDX 23 27 24 28 25 29 26 31 27 32 28 33 92 34 29 35 91 36 30 37
REMARK SMILES IDX 31 38 32 39 85 40 33 41 90 42 84 43 86 44 34 45 89 46 83 47
REMARK SMILES IDX 82 48 35 50 69 51 48 52 68 53 49 54 52 55 67 56 87 57 50 58
REMARK SMILES IDX 51 59 66 61 88 62 53 63 36 64 37 65 46 66 38 67 39 68 45 69
REMARK SMILES IDX 47 70 40 71 41 72 42 73 43 74 44 75 70 76 71 77 80 78 72 79
REMARK SMILES IDX 73 80 79 81 81 82 74 83 75 84 76 85 77 86 78 87 54 88 55 89
REMARK SMILES IDX 64 90 56 91 57 92 63 93 65 94 58 95 59 96 60 97 61 98 62 99
REMARK H PARENT 19 6 6 15 13 24 13 25 24 30 86 49 52 60
REMARK Flexibility Score: inf
ROOT
ATOM      1  C   UNL A   1      38.838  23.158  26.488  1.00  0.00     0.023 C 
ENDROOT
BRANCH   1   2
ATOM      2  C   UNL A   1      37.593  23.672  25.774  1.00  0.00     0.116 C 
BRANCH   2   3
ATOM      3  N   UNL A   1      37.415  23.306  24.391  1.00  0.00    -0.352 N 
ATOM      4  C   UNL A   1      36.278  23.130  23.632  1.00  0.00     0.256 C 
ATOM      5  O   UNL A   1      36.473  22.916  22.432  1.00  0.00    -0.269 OA
ATOM      6  H   UNL A   1      38.256  23.154  23.903  1.00  0.00     0.163 HD
BRANCH   4   7
ATOM      7  C   UNL A   1      34.915  23.042  24.186  1.00  0.00     0.097 A 
ATOM      8  C   UNL A   1      34.956  21.671  26.496  1.00  0.00     0.069 C 
ATOM      9  C   UNL A   1      34.320  22.332  25.316  1.00  0.00     0.066 A 
ATOM     10  N   UNL A   1      32.986  22.274  25.327  1.00  0.00    -0.195 NA
ATOM     11  S   UNL A   1      32.403  23.226  24.126  1.00  0.00    -0.017 S 
ATOM     12  C   UNL A   1      33.909  23.877  23.679  1.00  0.00     0.129 A 
BRANCH  12  13
ATOM     13  N   UNL A   1      34.027  24.970  22.831  1.00  0.00    -0.312 N 
ATOM     14  C   UNL A   1      33.519  26.252  22.928  1.00  0.00     0.256 C 
ATOM     15  H   UNL A   1      34.563  24.804  22.023  1.00  0.00     0.171 HD
ATOM     16  O   UNL A   1      33.547  27.009  21.957  1.00  0.00    -0.269 OA
BRANCH  14  17
ATOM     17  C   UNL A   1      32.962  26.784  24.192  1.00  0.00     0.040 A 
ATOM     18  C   UNL A   1      33.786  27.124  25.269  1.00  0.00     0.016 A 
ATOM     19  C   UNL A   1      31.575  26.906  24.307  1.00  0.00     0.016 A 
ATOM     20  C   UNL A   1      33.209  27.446  26.503  1.00  0.00     0.026 A 
ATOM     21  C   UNL A   1      31.011  27.249  25.539  1.00  0.00     0.026 A 
ATOM     22  C   UNL A   1      31.820  27.495  26.652  1.00  0.00     0.031 A 
BRANCH  22  23
ATOM     23  N   UNL A   1      31.254  27.696  27.898  1.00  0.00    -0.399 N 
ATOM     24  H   UNL A   1      31.201  26.951  28.540  1.00  0.00     0.156 HD
ATOM     25  H   UNL A   1      30.906  28.583  28.143  1.00  0.00     0.156 HD
ENDBRANCH  22  23
ENDBRANCH  14  17
ENDBRANCH  12  13
ENDBRANCH   4   7
ENDBRANCH   2   3
ENDBRANCH   1   2
BRANCH   1  26
ATOM     26  C   UNL A   1      39.361  21.774  26.114  1.00  0.00     0.023 C 
BRANCH  26  27
ATOM     27  C   UNL A   1      40.210  21.082  27.172  1.00  0.00     0.116 C 
BRANCH  27  28
ATOM     28  N   UNL A   1      41.414  20.441  26.646  1.00  0.00    -0.352 N 
ATOM     29  C   UNL A   1      42.533  21.089  26.157  1.00  0.00     0.251 C 
ATOM     30  H   UNL A   1      41.429  19.458  26.640  1.00  0.00     0.163 HD
ATOM     31  O   UNL A   1      43.294  20.519  25.371  1.00  0.00    -0.269 OA
BRANCH  29  32
ATOM     32  C   UNL A   1      42.804  22.471  26.595  1.00  0.00     0.039 A 
ATOM     33  C   UNL A   1      42.621  23.553  25.733  1.00  0.00     0.014 A 
ATOM     34  C   UNL A   1      43.205  22.676  27.917  1.00  0.00     0.014 A 
ATOM     35  C   UNL A   1      42.754  24.843  26.244  1.00  0.00     0.010 A 
ATOM     36  C   UNL A   1      43.222  23.947  28.449  1.00  0.00     0.010 A 
ATOM     37  C   UNL A   1      43.016  25.040  27.617  1.00  0.00    -0.014 A 
BRANCH  37  38
ATOM     38  C   UNL A   1      42.827  26.368  28.211  1.00  0.00     0.031 A 
ATOM     39  C   UNL A   1      43.960  27.277  27.891  1.00  0.00     0.074 A 
ATOM     40  C   UNL A   1      41.695  26.815  28.807  1.00  0.00     0.049 A 
ATOM     41  N   UNL A   1      44.951  27.575  28.664  1.00  0.00    -0.248 NA
ATOM     42  C   UNL A   1      44.160  27.714  26.496  1.00  0.00     0.031 C 
ATOM     43  C   UNL A   1      40.410  26.112  28.901  1.00  0.00     0.029 A 
ATOM     44  N   UNL A   1      41.408  28.025  29.385  1.00  0.00    -0.354 N 
ATOM     45  C   UNL A   1      45.680  28.529  27.962  1.00  0.00     0.074 A 
ATOM     46  C   UNL A   1      45.333  28.351  26.581  1.00  0.00     0.031 C 
ATOM     47  C   UNL A   1      39.438  26.977  29.273  1.00  0.00     0.029 A 
ATOM     48  C   UNL A   1      40.046  28.251  29.614  1.00  0.00     0.049 A 
ATOM     49  H   UNL A   1      42.103  28.682  29.619  1.00  0.00     0.167 HD
ATOM     50  C   UNL A   1      46.151  29.623  28.626  1.00  0.00     0.037 A 
ATOM     51  C   UNL A   1      39.452  29.385  30.077  1.00  0.00     0.037 A 
ATOM     52  C   UNL A   1      46.071  29.404  30.052  1.00  0.00     0.049 A 
ATOM     53  C   UNL A   1      40.481  30.134  30.832  1.00  0.00     0.074 A 
ATOM     54  C   UNL A   1      46.692  28.617  30.996  1.00  0.00     0.029 A 
ATOM     55  N   UNL A   1      44.872  29.802  30.579  1.00  0.00    -0.354 N 
ATOM     56  N   UNL A   1      40.996  29.703  31.950  1.00  0.00    -0.248 NA
ATOM     57  C   UNL A   1      41.222  31.200  30.170  1.00  0.00     0.031 C 
ATOM     58  C   UNL A   1      45.761  28.467  32.069  1.00  0.00     0.029 A 
ATOM     59  C   UNL A   1      44.625  29.220  31.788  1.00  0.00     0.049 A 
ATOM     60  H   UNL A   1      44.262  30.434  30.137  1.00  0.00     0.167 HD
ATOM     61  C   UNL A   1      42.314  30.099  31.885  1.00  0.00     0.074 A 
ATOM     62  C   UNL A   1      42.350  31.159  30.883  1.00  0.00     0.031 C 
ATOM     63  C   UNL A   1      43.303  29.294  32.370  1.00  0.00     0.037 A 
BRANCH  50  64
ATOM     64  C   UNL A   1      46.120  31.048  28.084  1.00  0.00     0.058 A 
ATOM     65  C   UNL A   1      44.890  31.566  27.618  1.00  0.00     0.135 A 
ATOM     66  C   UNL A   1      47.262  31.792  27.708  1.00  0.00     0.135 A 
ATOM     67  F   UNL A   1      43.736  30.937  27.895  1.00  0.00    -0.206 F 
ATOM     68  C   UNL A   1      44.809  32.694  26.797  1.00  0.00     0.059 A 
ATOM     69  C   UNL A   1      47.199  32.943  26.930  1.00  0.00     0.059 A 
ATOM     70  F   UNL A   1      48.508  31.402  27.993  1.00  0.00    -0.206 F 
ATOM     71  C   UNL A   1      45.973  33.371  26.454  1.00  0.00     0.060 A 
BRANCH  71  72
ATOM     72  S   UNL A   1      45.885  34.807  25.370  1.00  0.00     0.124 S 
ATOM     73  O   UNL A   1      45.317  35.811  26.260  1.00  0.00    -0.237 OA
ATOM     74  O   UNL A   1      47.286  34.989  25.003  1.00  0.00    -0.237 OA
ATOM     75  O   UNL A   1      45.016  34.353  24.287  1.00  0.00    -0.744 OA
ENDBRANCH  71  72
ENDBRANCH  50  64
BRANCH  51  76
ATOM     76  C   UNL A   1      38.119  29.982  29.775  1.00  0.00     0.058 A 
ATOM     77  C   UNL A   1      37.271  30.450  30.802  1.00  0.00     0.135 A 
ATOM     78  C   UNL A   1      37.789  30.397  28.472  1.00  0.00     0.135 A 
ATOM     79  F   UNL A   1      37.504  30.111  32.079  1.00  0.00    -0.206 F 
ATOM     80  C   UNL A   1      36.213  31.337  30.559  1.00  0.00     0.059 A 
ATOM     81  C   UNL A   1      36.736  31.277  28.205  1.00  0.00     0.059 A 
ATOM     82  F   UNL A   1      38.545  30.032  27.425  1.00  0.00    -0.206 F 
ATOM     83  C   UNL A   1      35.972  31.768  29.257  1.00  0.00     0.060 A 
BRANCH  83  84
ATOM     84  S   UNL A   1      34.743  33.067  28.960  1.00  0.00     0.124 S 
ATOM     85  O   UNL A   1      33.925  32.475  27.907  1.00  0.00    -0.237 OA
ATOM     86  O   UNL A   1      34.104  33.196  30.265  1.00  0.00    -0.237 OA
ATOM     87  O   UNL A   1      35.553  34.211  28.550  1.00  0.00    -0.744 OA
ENDBRANCH  83  84
ENDBRANCH  51  76
BRANCH  63  88
ATOM     88  C   UNL A   1      42.962  28.375  33.504  1.00  0.00     0.058 A 
ATOM     89  C   UNL A   1      42.949  26.971  33.449  1.00  0.00     0.135 A 
ATOM     90  C   UNL A   1      42.673  28.977  34.738  1.00  0.00     0.135 A 
ATOM     91  F   UNL A   1      43.297  26.319  32.330  1.00  0.00    -0.206 F 
ATOM     92  C   UNL A   1      42.611  26.205  34.567  1.00  0.00     0.059 A 
ATOM     93  C   UNL A   1      42.369  28.234  35.870  1.00  0.00     0.059 A 
ATOM     94  F   UNL A   1      42.712  30.314  34.861  1.00  0.00    -0.206 F 
ATOM     95  C   UNL A   1      42.319  26.847  35.772  1.00  0.00     0.060 A 
BRANCH  95  96
ATOM     96  S   UNL A   1      41.905  25.862  37.226  1.00  0.00     0.124 S 
ATOM     97  O   UNL A   1      42.057  24.499  36.727  1.00  0.00    -0.237 OA
ATOM     98  O   UNL A   1      42.905  26.298  38.197  1.00  0.00    -0.237 OA
ATOM     99  O   UNL A   1      40.534  26.264  37.533  1.00  0.00    -0.744 OA
ENDBRANCH  95  96
ENDBRANCH  63  88
ENDBRANCH  37  38
ENDBRANCH  29  32
ENDBRANCH  27  28
ENDBRANCH  26  27
ENDBRANCH   1  26
TORSDOF 17
ENDMDL
MODEL 2
REMARK VINA RESULT:     -12.3      1.521      2.023
REMARK SMILES Cc1nsc(NC(=O)c2ccc(N)cc2)c1C(=O)NCCCCNC(=O)c1ccc(-c2c3nc(c(-c4c(F)cc(S(=O)(=O)[O-])cc4F)c4ccc([nH]4)c(-c4c(F)cc(S(=O)(=O)[O-])cc4F)c4nc(c(-c5c(F)cc(S(=O)(=O)[O-])cc5F)c5ccc2[nH]5)C=C4)C=C3)cc1
REMARK SMILES IDX 21 1 20 2 19 3 17 4 18 5 16 7 1 8 2 9 3 10 4 11 5 12 6 13
REMARK SMILES IDX 7 14 8 16 9 17 10 18 15 19 11 20 14 21 12 22 13 23 22 26
REMARK SMILES IDX 23 27 24 28 25 29 26 31 27 32 28 33 92 34 29 35 91 36 30 37
REMARK SMILES IDX 31 38 32 39 85 40 33 41 90 42 84 43 86 44 34 45 89 46 83 47
REMARK SMILES IDX 82 48 35 50 69 51 48 52 68 53 49 54 52 55 67 56 87 57 50 58
REMARK SMILES IDX 51 59 66 61 88 62 53 63 36 64 37 65 46 66 38 67 39 68 45 69
REMARK SMILES IDX 47 70 40 71 41 72 42 73 43 74 44 75 70 76 71 77 80 78 72 79
REMARK SMILES IDX 73 80 79 81 81 82 74 83 75 84 76 85 77 86 78 87 54 88 55 89
REMARK SMILES IDX 64 90 56 91 57 92 63 93 65 94 58 95 59 96 60 97 61 98 62 99
REMARK H PARENT 19 6 6 15 13 24 13 25 24 30 86 49 52 60
REMARK Flexibility Score: inf
ROOT
ATOM      1  C   UNL A   1      38.582  21.757  25.795  1.00  0.00     0.023 C 
ENDROOT
BRANCH   1   2
ATOM      2  C   UNL A   1      37.110  21.749  25.400  1.00  0.00     0.116 C 
BRANCH   2   3
ATOM      3  N   UNL A   1      36.145  22.122  26.404  1.00  0.00    -0.352 N 
ATOM      4  C   UNL A   1      34.825  22.508  26.304  1.00  0.00     0.256 C 
ATOM      5  O   UNL A   1      34.238  22.661  27.380  1.00  0.00    -0.269 OA
ATOM      6  H   UNL A   1      36.491  22.097  27.325  1.00  0.00     0.163 HD
BRANCH   4   7
ATOM      7  C   UNL A   1      34.161  22.874  25.041  1.00  0.00     0.097 A 
ATOM      8  C   UNL A   1      32.830  20.756  24.063  1.00  0.00     0.069 C 
ATOM      9  C   UNL A   1      33.425  22.125  24.024  1.00  0.00     0.066 A 
ATOM     10  N   UNL A   1      33.220  22.764  22.869  1.00  0.00    -0.195 NA
ATOM     11  S   UNL A   1      33.705  24.322  23.030  1.00  0.00    -0.017 S 
ATOM     12  C   UNL A   1      34.031  24.227  24.696  1.00  0.00     0.129 A 
BRANCH  12  13
ATOM     13  N   UNL A   1      34.261  25.352  25.476  1.00  0.00    -0.312 N 
ATOM     14  C   UNL A   1      33.474  26.463  25.719  1.00  0.00     0.256 C 
ATOM     15  H   UNL A   1      35.132  25.361  25.934  1.00  0.00     0.171 HD
ATOM     16  O   UNL A   1      33.954  27.460  26.260  1.00  0.00    -0.269 OA
BRANCH  14  17
ATOM     17  C   UNL A   1      32.034  26.496  25.384  1.00  0.00     0.040 A 
ATOM     18  C   UNL A   1      31.101  25.728  26.087  1.00  0.00     0.016 A 
ATOM     19  C   UNL A   1      31.619  27.289  24.311  1.00  0.00     0.016 A 
ATOM     20  C   UNL A   1      29.784  25.646  25.621  1.00  0.00     0.026 A 
ATOM     21  C   UNL A   1      30.296  27.216  23.868  1.00  0.00     0.026 A 
ATOM     22  C   UNL A   1      29.375  26.375  24.500  1.00  0.00     0.031 A 
BRANCH  22  23
ATOM     23  N   UNL A   1      28.108  26.200  23.973  1.00  0.00    -0.399 N 
ATOM     24  H   UNL A   1      27.518  26.978  23.845  1.00  0.00     0.156 HD
ATOM     25  H   UNL A   1      27.798  25.300  23.727  1.00  0.00     0.156 HD
ENDBRANCH  22  23
ENDBRANCH  14  17
ENDBRANCH  12  13
ENDBRANCH   4   7
ENDBRANCH   2   3
ENDBRANCH   1   2
BRANCH   1  26
ATOM     26  C   UNL A   1      39.378  20.465  25.630  1.00  0.00     0.023 C 
BRANCH  26  27
ATOM     27  C   UNL A   1      40.395  20.172  26.725  1.00  0.00     0.116 C 
BRANCH  27  28
ATOM     28  N   UNL A   1      41.602  19.498  26.252  1.00  0.00    -0.352 N 
ATOM     29  C   UNL A   1      42.729  20.112  25.738  1.00  0.00     0.251 C 
ATOM     30  H   UNL A   1      41.614  18.516  26.305  1.00  0.00     0.163 HD
ATOM     31  O   UNL A   1      43.497  19.494  24.997  1.00  0.00    -0.269 OA
BRANCH  29  32
ATOM     32  C   UNL A   1      42.999  21.518  26.095  1.00  0.00     0.039 A 
ATOM     33  C   UNL A   1      42.764  22.553  25.191  1.00  0.00     0.014 A 
ATOM     34  C   UNL A   1      43.455  21.792  27.387  1.00  0.00     0.014 A 
ATOM     35  C   UNL A   1      42.901  23.868  25.631  1.00  0.00     0.010 A 
ATOM     36  C   UNL A   1      43.477  23.088  27.855  1.00  0.00     0.010 A 
ATOM     37  C   UNL A   1      43.219  24.136  26.980  1.00  0.00    -0.014 A 
BRANCH  37  38
ATOM     38  C   UNL A   1      43.038  25.490  27.516  1.00  0.00     0.031 A 
ATOM     39  C   UNL A   1      44.137  26.398  27.092  1.00  0.00     0.074 A 
ATOM     40  C   UNL A   1      41.930  25.950  28.147  1.00  0.00     0.049 A 
ATOM     41  N   UNL A   1      45.161  26.750  27.797  1.00  0.00    -0.248 NA
ATOM     42  C   UNL A   1      44.257  26.766  25.669  1.00  0.00     0.031 C 
ATOM     43  C   UNL A   1      40.664  25.233  28.343  1.00  0.00     0.029 A 
ATOM     44  N   UNL A   1      41.652  27.183  28.678  1.00  0.00    -0.354 N 
ATOM     45  C   UNL A   1      45.836  27.678  27.011  1.00  0.00     0.074 A 
ATOM     46  C   UNL A   1      45.422  27.425  25.661  1.00  0.00     0.031 C 
ATOM     47  C   UNL A   1      39.697  26.101  28.721  1.00  0.00     0.029 A 
ATOM     48  C   UNL A   1      40.299  27.399  28.966  1.00  0.00     0.049 A 
ATOM     49  H   UNL A   1      42.347  27.861  28.842  1.00  0.00     0.167 HD
ATOM     50  C   UNL A   1      46.322  28.811  27.594  1.00  0.00     0.037 A 
ATOM     51  C   UNL A   1      39.710  28.547  29.402  1.00  0.00     0.037 A 
ATOM     52  C   UNL A   1      46.318  28.663  29.031  1.00  0.00     0.049 A 
ATOM     53  C   UNL A   1      40.763  29.348  30.065  1.00  0.00     0.074 A 
ATOM     54  C   UNL A   1      47.000  27.934  29.980  1.00  0.00     0.029 A 
ATOM     55  N   UNL A   1      45.141  29.069  29.599  1.00  0.00    -0.354 N 
ATOM     56  N   UNL A   1      41.342  28.982  31.174  1.00  0.00    -0.248 NA
ATOM     57  C   UNL A   1      41.450  30.391  29.312  1.00  0.00     0.031 C 
ATOM     58  C   UNL A   1      46.128  27.826  31.107  1.00  0.00     0.029 A 
ATOM     59  C   UNL A   1      44.966  28.547  30.847  1.00  0.00     0.049 A 
ATOM     60  H   UNL A   1      44.498  29.669  29.159  1.00  0.00     0.167 HD
ATOM     61  C   UNL A   1      42.649  29.394  31.021  1.00  0.00     0.074 A 
ATOM     62  C   UNL A   1      42.614  30.402  29.966  1.00  0.00     0.031 C 
ATOM     63  C   UNL A   1      43.675  28.629  31.494  1.00  0.00     0.037 A 
BRANCH  50  64
ATOM     64  C   UNL A   1      46.237  30.206  26.984  1.00  0.00     0.058 A 
ATOM     65  C   UNL A   1      47.404  31.003  26.957  1.00  0.00     0.135 A 
ATOM     66  C   UNL A   1      45.032  30.901  26.729  1.00  0.00     0.135 A 
ATOM     67  F   UNL A   1      48.607  30.460  27.201  1.00  0.00    -0.206 F 
ATOM     68  C   UNL A   1      47.368  32.386  26.754  1.00  0.00     0.059 A 
ATOM     69  C   UNL A   1      44.980  32.268  26.479  1.00  0.00     0.059 A 
ATOM     70  F   UNL A   1      43.831  30.320  26.796  1.00  0.00    -0.206 F 
ATOM     71  C   UNL A   1      46.147  33.009  26.522  1.00  0.00     0.060 A 
BRANCH  71  72
ATOM     72  S   UNL A   1      46.085  34.794  26.291  1.00  0.00     0.124 S 
ATOM     73  O   UNL A   1      44.658  35.057  26.435  1.00  0.00    -0.237 OA
ATOM     74  O   UNL A   1      46.940  35.264  27.376  1.00  0.00    -0.237 OA
ATOM     75  O   UNL A   1      46.632  34.975  24.950  1.00  0.00    -0.744 OA
ENDBRANCH  71  72
ENDBRANCH  50  64
BRANCH  51  76
ATOM     76  C   UNL A   1      38.353  29.107  29.141  1.00  0.00     0.058 A 
ATOM     77  C   UNL A   1      37.459  29.396  30.194  1.00  0.00     0.135 A 
ATOM     78  C   UNL A   1      38.030  29.668  27.892  1.00  0.00     0.135 A 
ATOM     79  F   UNL A   1      37.683  28.908  31.424  1.00  0.00    -0.206 F 
ATOM     80  C   UNL A   1      36.360  30.251  30.036  1.00  0.00     0.059 A 
ATOM     81  C   UNL A   1      36.936  30.519  27.709  1.00  0.00     0.059 A 
ATOM     82  F   UNL A   1      38.827  29.480  26.829  1.00  0.00    -0.206 F 
ATOM     83  C   UNL A   1      36.123  30.832  28.793  1.00  0.00     0.060 A 
BRANCH  83  84
ATOM     84  S   UNL A   1      34.831  32.092  28.628  1.00  0.00     0.124 S 
ATOM     85  O   UNL A   1      34.609  32.482  30.016  1.00  0.00    -0.237 OA
ATOM     86  O   UNL A   1      35.476  33.091  27.783  1.00  0.00    -0.237 OA
ATOM     87  O   UNL A   1      33.729  31.367  28.001  1.00  0.00    -0.744 OA
ENDBRANCH  83  84
ENDBRANCH  51  76
BRANCH  63  88
ATOM     88  C   UNL A   1      43.409  27.764  32.688  1.00  0.00     0.058 A 
ATOM     89  C   UNL A   1      43.462  26.361  32.715  1.00  0.00     0.135 A 
ATOM     90  C   UNL A   1      43.125  28.424  33.893  1.00  0.00     0.135 A 
ATOM     91  F   UNL A   1      43.810  25.660  31.625  1.00  0.00    -0.206 F 
ATOM     92  C   UNL A   1      43.191  25.647  33.884  1.00  0.00     0.059 A 
ATOM     93  C   UNL A   1      42.886  27.736  35.075  1.00  0.00     0.059 A 
ATOM     94  F   UNL A   1      43.102  29.766  33.938  1.00  0.00    -0.206 F 
ATOM     95  C   UNL A   1      42.901  26.345  35.059  1.00  0.00     0.060 A 
BRANCH  95  96
ATOM     96  S   UNL A   1      42.573  25.429  36.579  1.00  0.00     0.124 S 
ATOM     97  O   UNL A   1      43.858  24.786  36.832  1.00  0.00    -0.237 OA
ATOM     98  O   UNL A   1      42.198  26.489  37.510  1.00  0.00    -0.237 OA
ATOM     99  O   UNL A   1      41.487  24.526  36.206  1.00  0.00    -0.744 OA
ENDBRANCH  95  96
ENDBRANCH  63  88
ENDBRANCH  37  38
ENDBRANCH  29  32
ENDBRANCH  27  28
ENDBRANCH  26  27
ENDBRANCH   1  26
TORSDOF 17
ENDMDL
MODEL 3
REMARK VINA RESULT:     -12.2      2.225      3.093
REMARK SMILES Cc1nsc(NC(=O)c2ccc(N)cc2)c1C(=O)NCCCCNC(=O)c1ccc(-c2c3nc(c(-c4c(F)cc(S(=O)(=O)[O-])cc4F)c4ccc([nH]4)c(-c4c(F)cc(S(=O)(=O)[O-])cc4F)c4nc(c(-c5c(F)cc(S(=O)(=O)[O-])cc5F)c5ccc2[nH]5)C=C4)C=C3)cc1
REMARK SMILES IDX 21 1 20 2 19 3 17 4 18 5 16 7 1 8 2 9 3 10 4 11 5 12 6 13
REMARK SMILES IDX 7 14 8 16 9 17 10 18 15 19 11 20 14 21 12 22 13 23 22 26
REMARK SMILES IDX 23 27 24 28 25 29 26 31 27 32 28 33 92 34 29 35 91 36 30 37
REMARK SMILES IDX 31 38 32 39 85 40 33 41 90 42 84 43 86 44 34 45 89 46 83 47
REMARK SMILES IDX 82 48 35 50 69 51 48 52 68 53 49 54 52 55 67 56 87 57 50 58
REMARK SMILES IDX 51 59 66 61 88 62 53 63 36 64 37 65 46 66 38 67 39 68 45 69
REMARK SMILES IDX 47 70 40 71 41 72 42 73 43 74 44 75 70 76 71 77 80 78 72 79
REMARK SMILES IDX 73 80 79 81 81 82 74 83 75 84 76 85 77 86 78 87 54 88 55 89
REMARK SMILES IDX 64 90 56 91 57 92 63 93 65 94 58 95 59 96 60 97 61 98 62 99
REMARK H PARENT 19 6 6 15 13 24 13 25 24 30 86 49 52 60
REMARK Flexibility Score: inf
ROOT
ATOM      1  C   UNL A   1      35.593  23.448  25.598  1.00  0.00     0.023 C 
ENDROOT
BRANCH   1   2
ATOM      2  C   UNL A   1      35.098  22.402  26.590  1.00  0.00     0.116 C 
BRANCH   2   3
ATOM      3  N   UNL A   1      33.842  22.650  27.252  1.00  0.00    -0.352 N 
ATOM      4  C   UNL A   1      32.539  22.518  26.818  1.00  0.00     0.256 C 
ATOM      5  O   UNL A   1      31.675  22.715  27.678  1.00  0.00    -0.269 OA
ATOM      6  H   UNL A   1      33.929  22.971  28.178  1.00  0.00     0.163 HD
BRANCH   4   7
ATOM      7  C   UNL A   1      32.149  22.311  25.413  1.00  0.00     0.097 A 
ATOM      8  C   UNL A   1      33.036  19.923  24.562  1.00  0.00     0.069 C 
ATOM      9  C   UNL A   1      32.453  21.290  24.412  1.00  0.00     0.066 A 
ATOM     10  N   UNL A   1      32.140  21.602  23.152  1.00  0.00    -0.195 NA
ATOM     11  S   UNL A   1      31.301  23.010  23.146  1.00  0.00    -0.017 S 
ATOM     12  C   UNL A   1      31.177  23.142  24.836  1.00  0.00     0.129 A 
BRANCH  12  13
ATOM     13  N   UNL A   1      30.331  24.053  25.454  1.00  0.00    -0.312 N 
ATOM     14  C   UNL A   1      30.500  25.394  25.747  1.00  0.00     0.256 C 
ATOM     15  H   UNL A   1      29.464  23.681  25.733  1.00  0.00     0.171 HD
ATOM     16  O   UNL A   1      29.719  25.969  26.506  1.00  0.00    -0.269 OA
BRANCH  14  17
ATOM     17  C   UNL A   1      31.583  26.200  25.143  1.00  0.00     0.040 A 
ATOM     18  C   UNL A   1      32.850  26.280  25.729  1.00  0.00     0.016 A 
ATOM     19  C   UNL A   1      31.305  26.922  23.980  1.00  0.00     0.016 A 
ATOM     20  C   UNL A   1      33.783  27.195  25.231  1.00  0.00     0.026 A 
ATOM     21  C   UNL A   1      32.254  27.817  23.478  1.00  0.00     0.026 A 
ATOM     22  C   UNL A   1      33.488  27.982  24.113  1.00  0.00     0.031 A 
BRANCH  22  23
ATOM     23  N   UNL A   1      34.365  28.967  23.696  1.00  0.00    -0.399 N 
ATOM     24  H   UNL A   1      34.272  29.885  24.039  1.00  0.00     0.156 HD
ATOM     25  H   UNL A   1      35.081  28.749  23.057  1.00  0.00     0.156 HD
ENDBRANCH  22  23
ENDBRANCH  14  17
ENDBRANCH  12  13
ENDBRANCH   4   7
ENDBRANCH   2   3
ENDBRANCH   1   2
BRANCH   1  26
ATOM     26  C   UNL A   1      37.087  23.493  25.286  1.00  0.00     0.023 C 
BRANCH  26  27
ATOM     27  C   UNL A   1      38.012  23.557  26.495  1.00  0.00     0.116 C 
BRANCH  27  28
ATOM     28  N   UNL A   1      39.146  22.638  26.426  1.00  0.00    -0.352 N 
ATOM     29  C   UNL A   1      40.480  22.996  26.346  1.00  0.00     0.251 C 
ATOM     30  H   UNL A   1      38.942  21.676  26.437  1.00  0.00     0.163 HD
ATOM     31  O   UNL A   1      41.312  22.214  25.879  1.00  0.00    -0.269 OA
BRANCH  29  32
ATOM     32  C   UNL A   1      40.890  24.326  26.833  1.00  0.00     0.039 A 
ATOM     33  C   UNL A   1      40.495  25.492  26.177  1.00  0.00     0.014 A 
ATOM     34  C   UNL A   1      41.651  24.392  28.003  1.00  0.00     0.014 A 
ATOM     35  C   UNL A   1      40.791  26.721  26.763  1.00  0.00     0.010 A 
ATOM     36  C   UNL A   1      41.841  25.599  28.640  1.00  0.00     0.010 A 
ATOM     37  C   UNL A   1      41.432  26.773  28.019  1.00  0.00    -0.014 A 
BRANCH  37  38
ATOM     38  C   UNL A   1      41.444  28.028  28.780  1.00  0.00     0.031 A 
ATOM     39  C   UNL A   1      42.568  28.909  28.364  1.00  0.00     0.074 A 
ATOM     40  C   UNL A   1      40.466  28.458  29.613  1.00  0.00     0.049 A 
ATOM     41  N   UNL A   1      43.696  29.060  28.975  1.00  0.00    -0.248 NA
ATOM     42  C   UNL A   1      42.556  29.499  27.012  1.00  0.00     0.031 C 
ATOM     43  C   UNL A   1      39.169  27.816  29.858  1.00  0.00     0.029 A 
ATOM     44  N   UNL A   1      40.370  29.603  30.362  1.00  0.00    -0.354 N 
ATOM     45  C   UNL A   1      44.361  30.053  28.263  1.00  0.00     0.074 A 
ATOM     46  C   UNL A   1      43.770  30.061  26.955  1.00  0.00     0.031 C 
ATOM     47  C   UNL A   1      38.340  28.679  30.490  1.00  0.00     0.029 A 
ATOM     48  C   UNL A   1      39.087  29.869  30.854  1.00  0.00     0.049 A 
ATOM     49  H   UNL A   1      41.141  30.189  30.538  1.00  0.00     0.167 HD
ATOM     50  C   UNL A   1      45.016  31.032  28.948  1.00  0.00     0.037 A 
ATOM     51  C   UNL A   1      38.665  30.969  31.537  1.00  0.00     0.037 A 
ATOM     52  C   UNL A   1      45.166  30.647  30.332  1.00  0.00     0.049 A 
ATOM     53  C   UNL A   1      39.859  31.567  32.174  1.00  0.00     0.074 A 
ATOM     54  C   UNL A   1      45.881  29.721  31.059  1.00  0.00     0.029 A 
ATOM     55  N   UNL A   1      44.107  31.041  31.105  1.00  0.00    -0.354 N 
ATOM     56  N   UNL A   1      40.526  30.978  33.128  1.00  0.00    -0.248 NA
ATOM     57  C   UNL A   1      40.551  32.666  31.511  1.00  0.00     0.031 C 
ATOM     58  C   UNL A   1      45.139  29.492  32.258  1.00  0.00     0.029 A 
ATOM     59  C   UNL A   1      44.029  30.332  32.268  1.00  0.00     0.049 A 
ATOM     60  H   UNL A   1      43.477  31.752  30.851  1.00  0.00     0.167 HD
ATOM     61  C   UNL A   1      41.839  31.311  32.872  1.00  0.00     0.074 A 
ATOM     62  C   UNL A   1      41.779  32.480  32.001  1.00  0.00     0.031 C 
ATOM     63  C   UNL A   1      42.836  30.402  33.082  1.00  0.00     0.037 A 
BRANCH  50  64
ATOM     64  C   UNL A   1      44.995  32.512  28.579  1.00  0.00     0.058 A 
ATOM     65  C   UNL A   1      46.226  33.194  28.450  1.00  0.00     0.135 A 
ATOM     66  C   UNL A   1      43.856  33.346  28.664  1.00  0.00     0.135 A 
ATOM     67  F   UNL A   1      47.380  32.511  28.378  1.00  0.00    -0.206 F 
ATOM     68  C   UNL A   1      46.322  34.588  28.465  1.00  0.00     0.059 A 
ATOM     69  C   UNL A   1      43.926  34.735  28.635  1.00  0.00     0.059 A 
ATOM     70  F   UNL A   1      42.624  32.873  28.871  1.00  0.00    -0.206 F 
ATOM     71  C   UNL A   1      45.163  35.349  28.565  1.00  0.00     0.060 A 
BRANCH  71  72
ATOM     72  S   UNL A   1      45.275  37.146  28.619  1.00  0.00     0.124 S 
ATOM     73  O   UNL A   1      45.592  37.460  27.231  1.00  0.00    -0.237 OA
ATOM     74  O   UNL A   1      43.939  37.514  29.074  1.00  0.00    -0.237 OA
ATOM     75  O   UNL A   1      46.345  37.383  29.584  1.00  0.00    -0.744 OA
ENDBRANCH  71  72
ENDBRANCH  50  64
BRANCH  51  76
ATOM     76  C   UNL A   1      37.347  31.666  31.546  1.00  0.00     0.058 A 
ATOM     77  C   UNL A   1      36.637  31.887  32.745  1.00  0.00     0.135 A 
ATOM     78  C   UNL A   1      36.912  32.407  30.432  1.00  0.00     0.135 A 
ATOM     79  F   UNL A   1      36.978  31.229  33.864  1.00  0.00    -0.206 F 
ATOM     80  C   UNL A   1      35.615  32.841  32.852  1.00  0.00     0.059 A 
ATOM     81  C   UNL A   1      35.892  33.360  30.512  1.00  0.00     0.059 A 
ATOM     82  F   UNL A   1      37.535  32.294  29.249  1.00  0.00    -0.206 F 
ATOM     83  C   UNL A   1      35.269  33.595  31.733  1.00  0.00     0.060 A 
BRANCH  83  84
ATOM     84  S   UNL A   1      34.097  34.966  31.907  1.00  0.00     0.124 S 
ATOM     85  O   UNL A   1      33.820  35.307  30.516  1.00  0.00    -0.237 OA
ATOM     86  O   UNL A   1      32.999  34.345  32.641  1.00  0.00    -0.237 OA
ATOM     87  O   UNL A   1      34.855  35.965  32.654  1.00  0.00    -0.744 OA
ENDBRANCH  83  84
ENDBRANCH  51  76
BRANCH  63  88
ATOM     88  C   UNL A   1      42.628  29.373  34.151  1.00  0.00     0.058 A 
ATOM     89  C   UNL A   1      42.791  29.576  35.531  1.00  0.00     0.135 A 
ATOM     90  C   UNL A   1      42.191  28.108  33.730  1.00  0.00     0.135 A 
ATOM     91  F   UNL A   1      43.123  30.781  36.019  1.00  0.00    -0.206 F 
ATOM     92  C   UNL A   1      42.576  28.544  36.447  1.00  0.00     0.059 A 
ATOM     93  C   UNL A   1      41.938  27.077  34.626  1.00  0.00     0.059 A 
ATOM     94  F   UNL A   1      41.978  27.867  32.426  1.00  0.00    -0.206 F 
ATOM     95  C   UNL A   1      42.153  27.296  35.983  1.00  0.00     0.060 A 
BRANCH  95  96
ATOM     96  S   UNL A   1      41.850  25.965  37.163  1.00  0.00     0.124 S 
ATOM     97  O   UNL A   1      42.864  26.221  38.180  1.00  0.00    -0.237 OA
ATOM     98  O   UNL A   1      40.469  26.211  37.567  1.00  0.00    -0.237 OA
ATOM     99  O   UNL A   1      42.053  24.754  36.371  1.00  0.00    -0.744 OA
ENDBRANCH  95  96
ENDBRANCH  63  88
ENDBRANCH  37  38
ENDBRANCH  29  32
ENDBRANCH  27  28
ENDBRANCH  26  27
ENDBRANCH   1  26
TORSDOF 17
ENDMDL
