MODEL 1
REMARK VINA RESULT:     -11.4      0.000      0.000
REMARK SMILES C[C@H]1[C@H](C(=O)NCCCCNC(=O)c2ccc(-c3c4nc(c(-c5c(F)cc(S(=O)(=O)[O-])cc5F)c5ccc([nH]5)c(-c5c(F)cc(S(=O)(=O)[O-])cc5F)c5nc(c(-c6c(F)cc(S(=O)(=O)[O-])cc6F)c6ccc3[nH]6)C=C5)C=C4)cc2)CCN1S(=O)(=O)C(F)(F)F
REMARK SMILES IDX 9 1 8 2 7 3 6 4 4 5 5 6 3 8 1 9 2 10 82 11 80 12 81 13 83 14
REMARK SMILES IDX 84 15 85 16 86 17 87 18 88 19 89 20 10 21 11 22 12 23 13 25
REMARK SMILES IDX 14 26 15 27 79 28 16 29 78 30 17 31 18 32 19 33 72 34 20 35
REMARK SMILES IDX 77 36 71 37 73 38 21 39 76 40 70 41 69 42 22 44 56 45 35 46
REMARK SMILES IDX 55 47 36 48 39 49 54 50 74 51 37 52 38 53 53 55 75 56 40 57
REMARK SMILES IDX 23 58 24 59 33 60 25 61 26 62 32 63 34 64 27 65 28 66 29 67
REMARK SMILES IDX 30 68 31 69 57 70 58 71 67 72 59 73 60 74 66 75 68 76 61 77
REMARK SMILES IDX 62 78 63 79 64 80 65 81 41 82 42 83 51 84 43 85 44 86 50 87
REMARK SMILES IDX 52 88 45 89 46 90 47 91 48 92 49 93
REMARK H PARENT 6 7 11 24 73 43 39 54
REMARK Flexibility Score: inf
ROOT
ATOM      1  C   UNL A   1      32.256  27.900  27.333  1.00  0.00     0.023 C 
ENDROOT
BRANCH   1   2
ATOM      2  C   UNL A   1      31.425  27.932  26.056  1.00  0.00     0.023 C 
BRANCH   2   3
ATOM      3  C   UNL A   1      30.917  26.570  25.583  1.00  0.00     0.116 C 
BRANCH   3   4
ATOM      4  N   UNL A   1      31.035  25.545  26.603  1.00  0.00    -0.356 N 
ATOM      5  C   UNL A   1      31.528  24.278  26.541  1.00  0.00     0.224 C 
ATOM      6  O   UNL A   1      31.535  23.621  27.587  1.00  0.00    -0.275 OA
ATOM      7  H   UNL A   1      30.702  25.810  27.490  1.00  0.00     0.163 HD
BRANCH   5   8
ATOM      8  C   UNL A   1      32.047  23.640  25.256  1.00  0.00     0.098 C 
ATOM      9  C   UNL A   1      33.941  24.907  24.173  1.00  0.00     0.026 C 
ATOM     10  C   UNL A   1      33.567  23.748  25.098  1.00  0.00     0.082 C 
ATOM     11  N   UNL A   1      34.024  22.480  24.454  1.00  0.00    -0.190 NA
ATOM     12  C   UNL A   1      31.713  22.172  25.063  1.00  0.00     0.032 C 
ATOM     13  C   UNL A   1      32.817  21.658  24.152  1.00  0.00     0.104 C 
BRANCH  11  14
ATOM     14  S   UNL A   1      35.327  21.601  25.149  1.00  0.00     0.314 S 
ATOM     15  O   UNL A   1      35.313  21.934  26.564  1.00  0.00    -0.203 OA
ATOM     16  O   UNL A   1      35.098  20.218  24.764  1.00  0.00    -0.203 OA
BRANCH  14  17
ATOM     17  C   UNL A   1      36.913  22.239  24.361  1.00  0.00     0.511 C 
ATOM     18  F   UNL A   1      37.947  21.364  24.502  1.00  0.00    -0.155 F 
ATOM     19  F   UNL A   1      36.772  22.468  23.024  1.00  0.00    -0.155 F 
ATOM     20  F   UNL A   1      37.307  23.421  24.913  1.00  0.00    -0.155 F 
ENDBRANCH  14  17
ENDBRANCH  11  14
ENDBRANCH   5   8
ENDBRANCH   3   4
ENDBRANCH   2   3
ENDBRANCH   1   2
BRANCH   1  21
ATOM     21  C   UNL A   1      33.590  28.633  27.258  1.00  0.00     0.116 C 
BRANCH  21  22
ATOM     22  N   UNL A   1      33.549  30.006  27.745  1.00  0.00    -0.352 N 
ATOM     23  C   UNL A   1      34.567  30.726  28.332  1.00  0.00     0.251 C 
ATOM     24  H   UNL A   1      32.690  30.476  27.640  1.00  0.00     0.163 HD
ATOM     25  O   UNL A   1      34.371  31.852  28.766  1.00  0.00    -0.269 OA
BRANCH  23  26
ATOM     26  C   UNL A   1      35.895  30.089  28.471  1.00  0.00     0.039 A 
ATOM     27  C   UNL A   1      36.793  30.155  27.404  1.00  0.00     0.014 A 
ATOM     28  C   UNL A   1      36.277  29.512  29.686  1.00  0.00     0.014 A 
ATOM     29  C   UNL A   1      38.109  29.725  27.589  1.00  0.00     0.010 A 
ATOM     30  C   UNL A   1      37.606  29.164  29.891  1.00  0.00     0.010 A 
ATOM     31  C   UNL A   1      38.538  29.275  28.849  1.00  0.00    -0.014 A 
BRANCH  31  32
ATOM     32  C   UNL A   1      39.960  28.930  29.107  1.00  0.00     0.031 A 
ATOM     33  C   UNL A   1      40.892  29.964  29.677  1.00  0.00     0.074 A 
ATOM     34  C   UNL A   1      40.431  27.720  28.746  1.00  0.00     0.049 A 
ATOM     35  N   UNL A   1      42.182  29.891  29.879  1.00  0.00    -0.248 NA
ATOM     36  C   UNL A   1      40.301  31.266  30.030  1.00  0.00     0.031 C 
ATOM     37  C   UNL A   1      39.643  26.653  28.123  1.00  0.00     0.029 A 
ATOM     38  N   UNL A   1      41.692  27.185  28.839  1.00  0.00    -0.354 N 
ATOM     39  C   UNL A   1      42.560  31.139  30.361  1.00  0.00     0.074 A 
ATOM     40  C   UNL A   1      41.372  31.966  30.371  1.00  0.00     0.031 C 
ATOM     41  C   UNL A   1      40.432  25.587  27.912  1.00  0.00     0.029 A 
ATOM     42  C   UNL A   1      41.786  25.902  28.352  1.00  0.00     0.049 A 
ATOM     43  H   UNL A   1      42.457  27.675  29.218  1.00  0.00     0.167 HD
ATOM     44  C   UNL A   1      43.779  31.550  30.781  1.00  0.00     0.037 A 
ATOM     45  C   UNL A   1      42.847  25.075  28.267  1.00  0.00     0.037 A 
ATOM     46  C   UNL A   1      44.947  30.711  30.810  1.00  0.00     0.049 A 
ATOM     47  C   UNL A   1      44.183  25.542  28.773  1.00  0.00     0.074 A 
ATOM     48  C   UNL A   1      46.211  31.012  31.283  1.00  0.00     0.029 A 
ATOM     49  N   UNL A   1      44.992  29.402  30.352  1.00  0.00    -0.354 N 
ATOM     50  N   UNL A   1      44.509  26.705  29.286  1.00  0.00    -0.248 NA
ATOM     51  C   UNL A   1      45.296  24.585  28.698  1.00  0.00     0.031 C 
ATOM     52  C   UNL A   1      47.029  29.894  31.086  1.00  0.00     0.029 A 
ATOM     53  C   UNL A   1      46.265  28.885  30.521  1.00  0.00     0.049 A 
ATOM     54  H   UNL A   1      44.231  28.913  29.963  1.00  0.00     0.167 HD
ATOM     55  C   UNL A   1      45.856  26.612  29.614  1.00  0.00     0.074 A 
ATOM     56  C   UNL A   1      46.283  25.276  29.253  1.00  0.00     0.031 C 
ATOM     57  C   UNL A   1      46.668  27.549  30.164  1.00  0.00     0.037 A 
BRANCH  44  58
ATOM     58  C   UNL A   1      43.904  32.971  31.258  1.00  0.00     0.058 A 
ATOM     59  C   UNL A   1      43.813  33.298  32.620  1.00  0.00     0.135 A 
ATOM     60  C   UNL A   1      44.135  34.014  30.347  1.00  0.00     0.135 A 
ATOM     61  F   UNL A   1      43.575  32.341  33.531  1.00  0.00    -0.206 F 
ATOM     62  C   UNL A   1      43.912  34.614  33.060  1.00  0.00     0.059 A 
ATOM     63  C   UNL A   1      44.264  35.334  30.768  1.00  0.00     0.059 A 
ATOM     64  F   UNL A   1      44.229  33.756  29.033  1.00  0.00    -0.206 F 
ATOM     65  C   UNL A   1      44.134  35.625  32.124  1.00  0.00     0.060 A 
BRANCH  65  66
ATOM     66  S   UNL A   1      44.257  37.330  32.709  1.00  0.00     0.124 S 
ATOM     67  O   UNL A   1      43.041  37.450  33.508  1.00  0.00    -0.237 OA
ATOM     68  O   UNL A   1      45.509  37.314  33.459  1.00  0.00    -0.237 OA
ATOM     69  O   UNL A   1      44.279  38.109  31.477  1.00  0.00    -0.744 OA
ENDBRANCH  65  66
ENDBRANCH  44  58
BRANCH  45  70
ATOM     70  C   UNL A   1      42.680  23.708  27.709  1.00  0.00     0.058 A 
ATOM     71  C   UNL A   1      42.449  22.612  28.552  1.00  0.00     0.135 A 
ATOM     72  C   UNL A   1      42.730  23.471  26.327  1.00  0.00     0.135 A 
ATOM     73  F   UNL A   1      42.399  22.788  29.882  1.00  0.00    -0.206 F 
ATOM     74  C   UNL A   1      42.290  21.325  28.050  1.00  0.00     0.059 A 
ATOM     75  C   UNL A   1      42.552  22.196  25.797  1.00  0.00     0.059 A 
ATOM     76  F   UNL A   1      42.929  24.490  25.477  1.00  0.00    -0.206 F 
ATOM     77  C   UNL A   1      42.342  21.128  26.668  1.00  0.00     0.060 A 
BRANCH  77  78
ATOM     78  S   UNL A   1      42.081  19.462  26.019  1.00  0.00     0.124 S 
ATOM     79  O   UNL A   1      42.896  19.487  24.811  1.00  0.00    -0.237 OA
ATOM     80  O   UNL A   1      42.578  18.625  27.107  1.00  0.00    -0.237 OA
ATOM     81  O   UNL A   1      40.637  19.409  25.808  1.00  0.00    -0.744 OA
ENDBRANCH  77  78
ENDBRANCH  45  70
BRANCH  57  82
ATOM     82  C   UNL A   1      48.090  27.153  30.439  1.00  0.00     0.058 A 
ATOM     83  C   UNL A   1      49.105  27.354  29.490  1.00  0.00     0.135 A 
ATOM     84  C   UNL A   1      48.451  26.617  31.685  1.00  0.00     0.135 A 
ATOM     85  F   UNL A   1      48.809  27.857  28.281  1.00  0.00    -0.206 F 
ATOM     86  C   UNL A   1      50.427  27.020  29.762  1.00  0.00     0.059 A 
ATOM     87  C   UNL A   1      49.770  26.297  31.986  1.00  0.00     0.059 A 
ATOM     88  F   UNL A   1      47.519  26.414  32.629  1.00  0.00    -0.206 F 
ATOM     89  C   UNL A   1      50.751  26.492  31.014  1.00  0.00     0.060 A 
BRANCH  89  90
ATOM     90  S   UNL A   1      52.476  26.097  31.369  1.00  0.00     0.124 S 
ATOM     91  O   UNL A   1      52.825  27.143  32.324  1.00  0.00    -0.237 OA
ATOM     92  O   UNL A   1      52.384  24.746  31.915  1.00  0.00    -0.237 OA
ATOM     93  O   UNL A   1      53.121  26.195  30.063  1.00  0.00    -0.744 OA
ENDBRANCH  89  90
ENDBRANCH  57  82
ENDBRANCH  31  32
ENDBRANCH  23  26
ENDBRANCH  21  22
ENDBRANCH   1  21
TORSDOF 16
ENDMDL
MODEL 2
REMARK VINA RESULT:     -11.2      1.326      1.619
REMARK SMILES C[C@H]1[C@H](C(=O)NCCCCNC(=O)c2ccc(-c3c4nc(c(-c5c(F)cc(S(=O)(=O)[O-])cc5F)c5ccc([nH]5)c(-c5c(F)cc(S(=O)(=O)[O-])cc5F)c5nc(c(-c6c(F)cc(S(=O)(=O)[O-])cc6F)c6ccc3[nH]6)C=C5)C=C4)cc2)CCN1S(=O)(=O)C(F)(F)F
REMARK SMILES IDX 9 1 8 2 7 3 6 4 4 5 5 6 3 8 1 9 2 10 82 11 80 12 81 13 83 14
REMARK SMILES IDX 84 15 85 16 86 17 87 18 88 19 89 20 10 21 11 22 12 23 13 25
REMARK SMILES IDX 14 26 15 27 79 28 16 29 78 30 17 31 18 32 19 33 72 34 20 35
REMARK SMILES IDX 77 36 71 37 73 38 21 39 76 40 70 41 69 42 22 44 56 45 35 46
REMARK SMILES IDX 55 47 36 48 39 49 54 50 74 51 37 52 38 53 53 55 75 56 40 57
REMARK SMILES IDX 23 58 24 59 33 60 25 61 26 62 32 63 34 64 27 65 28 66 29 67
REMARK SMILES IDX 30 68 31 69 57 70 58 71 67 72 59 73 60 74 66 75 68 76 61 77
REMARK SMILES IDX 62 78 63 79 64 80 65 81 41 82 42 83 51 84 43 85 44 86 50 87
REMARK SMILES IDX 52 88 45 89 46 90 47 91 48 92 49 93
REMARK H PARENT 6 7 11 24 73 43 39 54
REMARK Flexibility Score: inf
ROOT
ATOM      1  C   UNL A   1      32.401  28.270  26.311  1.00  0.00     0.023 C 
ENDROOT
BRANCH   1   2
ATOM      2  C   UNL A   1      31.594  27.054  26.748  1.00  0.00     0.023 C 
BRANCH   2   3
ATOM      3  C   UNL A   1      31.953  25.751  26.032  1.00  0.00     0.116 C 
BRANCH   3   4
ATOM      4  N   UNL A   1      31.736  24.580  26.860  1.00  0.00    -0.356 N 
ATOM      5  C   UNL A   1      32.152  23.293  26.712  1.00  0.00     0.224 C 
ATOM      6  O   UNL A   1      31.843  22.492  27.599  1.00  0.00    -0.275 OA
ATOM      7  H   UNL A   1      31.196  24.744  27.667  1.00  0.00     0.163 HD
BRANCH   5   8
ATOM      8  C   UNL A   1      32.954  22.803  25.510  1.00  0.00     0.098 C 
ATOM      9  C   UNL A   1      35.070  21.572  26.119  1.00  0.00     0.026 C 
ATOM     10  C   UNL A   1      33.598  21.431  25.731  1.00  0.00     0.082 C 
ATOM     11  N   UNL A   1      33.535  20.711  24.423  1.00  0.00    -0.190 NA
ATOM     12  C   UNL A   1      32.190  22.698  24.202  1.00  0.00     0.032 C 
ATOM     13  C   UNL A   1      32.948  21.640  23.415  1.00  0.00     0.104 C 
BRANCH  11  14
ATOM     14  S   UNL A   1      32.905  19.112  24.368  1.00  0.00     0.314 S 
ATOM     15  O   UNL A   1      32.170  18.938  25.610  1.00  0.00    -0.203 OA
ATOM     16  O   UNL A   1      32.171  19.038  23.116  1.00  0.00    -0.203 OA
BRANCH  14  17
ATOM     17  C   UNL A   1      34.374  17.936  24.330  1.00  0.00     0.511 C 
ATOM     18  F   UNL A   1      34.259  16.936  25.248  1.00  0.00    -0.155 F 
ATOM     19  F   UNL A   1      34.526  17.335  23.115  1.00  0.00    -0.155 F 
ATOM     20  F   UNL A   1      35.544  18.585  24.586  1.00  0.00    -0.155 F 
ENDBRANCH  14  17
ENDBRANCH  11  14
ENDBRANCH   5   8
ENDBRANCH   3   4
ENDBRANCH   2   3
ENDBRANCH   1   2
BRANCH   1  21
ATOM     21  C   UNL A   1      33.559  28.644  27.228  1.00  0.00     0.116 C 
BRANCH  21  22
ATOM     22  N   UNL A   1      33.508  30.008  27.736  1.00  0.00    -0.352 N 
ATOM     23  C   UNL A   1      34.518  30.724  28.343  1.00  0.00     0.251 C 
ATOM     24  H   UNL A   1      32.647  30.476  27.632  1.00  0.00     0.163 HD
ATOM     25  O   UNL A   1      34.312  31.842  28.793  1.00  0.00    -0.269 OA
BRANCH  23  26
ATOM     26  C   UNL A   1      35.848  30.092  28.483  1.00  0.00     0.039 A 
ATOM     27  C   UNL A   1      36.719  30.098  27.392  1.00  0.00     0.014 A 
ATOM     28  C   UNL A   1      36.259  29.579  29.716  1.00  0.00     0.014 A 
ATOM     29  C   UNL A   1      38.038  29.676  27.566  1.00  0.00     0.010 A 
ATOM     30  C   UNL A   1      37.592  29.238  29.906  1.00  0.00     0.010 A 
ATOM     31  C   UNL A   1      38.498  29.292  28.837  1.00  0.00    -0.014 A 
BRANCH  31  32
ATOM     32  C   UNL A   1      39.925  28.957  29.078  1.00  0.00     0.031 A 
ATOM     33  C   UNL A   1      40.859  30.001  29.626  1.00  0.00     0.074 A 
ATOM     34  C   UNL A   1      40.398  27.746  28.719  1.00  0.00     0.049 A 
ATOM     35  N   UNL A   1      42.152  29.937  29.810  1.00  0.00    -0.248 NA
ATOM     36  C   UNL A   1      40.266  31.301  29.978  1.00  0.00     0.031 C 
ATOM     37  C   UNL A   1      39.608  26.670  28.116  1.00  0.00     0.029 A 
ATOM     38  N   UNL A   1      41.664  27.220  28.798  1.00  0.00    -0.354 N 
ATOM     39  C   UNL A   1      42.530  31.191  30.277  1.00  0.00     0.074 A 
ATOM     40  C   UNL A   1      41.337  32.011  30.298  1.00  0.00     0.031 C 
ATOM     41  C   UNL A   1      40.400  25.607  27.902  1.00  0.00     0.029 A 
ATOM     42  C   UNL A   1      41.759  25.934  28.320  1.00  0.00     0.049 A 
ATOM     43  H   UNL A   1      42.431  27.717  29.163  1.00  0.00     0.167 HD
ATOM     44  C   UNL A   1      43.752  31.612  30.677  1.00  0.00     0.037 A 
ATOM     45  C   UNL A   1      42.823  25.113  28.226  1.00  0.00     0.037 A 
ATOM     46  C   UNL A   1      44.925  30.780  30.695  1.00  0.00     0.049 A 
ATOM     47  C   UNL A   1      44.163  25.591  28.710  1.00  0.00     0.074 A 
ATOM     48  C   UNL A   1      46.195  31.091  31.149  1.00  0.00     0.029 A 
ATOM     49  N   UNL A   1      44.972  29.468  30.247  1.00  0.00    -0.354 N 
ATOM     50  N   UNL A   1      44.490  26.760  29.209  1.00  0.00    -0.248 NA
ATOM     51  C   UNL A   1      45.280  24.640  28.626  1.00  0.00     0.031 C 
ATOM     52  C   UNL A   1      47.017  29.977  30.949  1.00  0.00     0.029 A 
ATOM     53  C   UNL A   1      46.250  28.960  30.402  1.00  0.00     0.049 A 
ATOM     54  H   UNL A   1      44.208  28.972  29.873  1.00  0.00     0.167 HD
ATOM     55  C   UNL A   1      45.842  26.677  29.519  1.00  0.00     0.074 A 
ATOM     56  C   UNL A   1      46.271  25.340  29.162  1.00  0.00     0.031 C 
ATOM     57  C   UNL A   1      46.655  27.623  30.050  1.00  0.00     0.037 A 
BRANCH  44  58
ATOM     58  C   UNL A   1      43.876  33.037  31.141  1.00  0.00     0.058 A 
ATOM     59  C   UNL A   1      43.718  33.385  32.491  1.00  0.00     0.135 A 
ATOM     60  C   UNL A   1      44.172  34.064  30.230  1.00  0.00     0.135 A 
ATOM     61  F   UNL A   1      43.416  32.445  33.401  1.00  0.00    -0.206 F 
ATOM     62  C   UNL A   1      43.816  34.705  32.919  1.00  0.00     0.059 A 
ATOM     63  C   UNL A   1      44.301  35.387  30.639  1.00  0.00     0.059 A 
ATOM     64  F   UNL A   1      44.332  33.785  28.926  1.00  0.00    -0.206 F 
ATOM     65  C   UNL A   1      44.104  35.700  31.983  1.00  0.00     0.060 A 
BRANCH  65  66
ATOM     66  S   UNL A   1      44.224  37.410  32.551  1.00  0.00     0.124 S 
ATOM     67  O   UNL A   1      43.909  38.143  31.329  1.00  0.00    -0.237 OA
ATOM     68  O   UNL A   1      43.211  37.464  33.600  1.00  0.00    -0.237 OA
ATOM     69  O   UNL A   1      45.604  37.517  33.011  1.00  0.00    -0.744 OA
ENDBRANCH  65  66
ENDBRANCH  44  58
BRANCH  45  70
ATOM     70  C   UNL A   1      42.656  23.739  27.681  1.00  0.00     0.058 A 
ATOM     71  C   UNL A   1      42.467  22.646  28.537  1.00  0.00     0.135 A 
ATOM     72  C   UNL A   1      42.665  23.496  26.300  1.00  0.00     0.135 A 
ATOM     73  F   UNL A   1      42.456  22.829  29.867  1.00  0.00    -0.206 F 
ATOM     74  C   UNL A   1      42.308  21.354  28.047  1.00  0.00     0.059 A 
ATOM     75  C   UNL A   1      42.487  22.215  25.783  1.00  0.00     0.059 A 
ATOM     76  F   UNL A   1      42.825  24.512  25.438  1.00  0.00    -0.206 F 
ATOM     77  C   UNL A   1      42.319  21.149  26.666  1.00  0.00     0.060 A 
BRANCH  77  78
ATOM     78  S   UNL A   1      42.059  19.477  26.035  1.00  0.00     0.124 S 
ATOM     79  O   UNL A   1      42.896  19.480  24.841  1.00  0.00    -0.237 OA
ATOM     80  O   UNL A   1      42.531  18.652  27.143  1.00  0.00    -0.237 OA
ATOM     81  O   UNL A   1      40.619  19.430  25.798  1.00  0.00    -0.744 OA
ENDBRANCH  77  78
ENDBRANCH  45  70
BRANCH  57  82
ATOM     82  C   UNL A   1      48.084  27.237  30.307  1.00  0.00     0.058 A 
ATOM     83  C   UNL A   1      49.092  27.477  29.360  1.00  0.00     0.135 A 
ATOM     84  C   UNL A   1      48.457  26.671  31.537  1.00  0.00     0.135 A 
ATOM     85  F   UNL A   1      48.784  28.010  28.167  1.00  0.00    -0.206 F 
ATOM     86  C   UNL A   1      50.419  27.152  29.617  1.00  0.00     0.059 A 
ATOM     87  C   UNL A   1      49.782  26.360  31.823  1.00  0.00     0.059 A 
ATOM     88  F   UNL A   1      47.532  26.431  32.479  1.00  0.00    -0.206 F 
ATOM     89  C   UNL A   1      50.755  26.594  30.852  1.00  0.00     0.060 A 
BRANCH  89  90
ATOM     90  S   UNL A   1      52.487  26.211  31.189  1.00  0.00     0.124 S 
ATOM     91  O   UNL A   1      52.376  24.921  31.862  1.00  0.00    -0.237 OA
ATOM     92  O   UNL A   1      53.069  26.180  29.851  1.00  0.00    -0.237 OA
ATOM     93  O   UNL A   1      52.922  27.323  32.029  1.00  0.00    -0.744 OA
ENDBRANCH  89  90
ENDBRANCH  57  82
ENDBRANCH  31  32
ENDBRANCH  23  26
ENDBRANCH  21  22
ENDBRANCH   1  21
TORSDOF 16
ENDMDL
MODEL 3
REMARK VINA RESULT:     -10.9      2.798      3.435
REMARK SMILES C[C@H]1[C@H](C(=O)NCCCCNC(=O)c2ccc(-c3c4nc(c(-c5c(F)cc(S(=O)(=O)[O-])cc5F)c5ccc([nH]5)c(-c5c(F)cc(S(=O)(=O)[O-])cc5F)c5nc(c(-c6c(F)cc(S(=O)(=O)[O-])cc6F)c6ccc3[nH]6)C=C5)C=C4)cc2)CCN1S(=O)(=O)C(F)(F)F
REMARK SMILES IDX 9 1 8 2 7 3 6 4 4 5 5 6 3 8 1 9 2 10 82 11 80 12 81 13 83 14
REMARK SMILES IDX 84 15 85 16 86 17 87 18 88 19 89 20 10 21 11 22 12 23 13 25
REMARK SMILES IDX 14 26 15 27 79 28 16 29 78 30 17 31 18 32 19 33 72 34 20 35
REMARK SMILES IDX 77 36 71 37 73 38 21 39 76 40 70 41 69 42 22 44 56 45 35 46
REMARK SMILES IDX 55 47 36 48 39 49 54 50 74 51 37 52 38 53 53 55 75 56 40 57
REMARK SMILES IDX 23 58 24 59 33 60 25 61 26 62 32 63 34 64 27 65 28 66 29 67
REMARK SMILES IDX 30 68 31 69 57 70 58 71 67 72 59 73 60 74 66 75 68 76 61 77
REMARK SMILES IDX 62 78 63 79 64 80 65 81 41 82 42 83 51 84 43 85 44 86 50 87
REMARK SMILES IDX 52 88 45 89 46 90 47 91 48 92 49 93
REMARK H PARENT 6 7 11 24 73 43 39 54
REMARK Flexibility Score: inf
ROOT
ATOM      1  C   UNL A   1      33.093  27.885  26.970  1.00  0.00     0.023 C 
ENDROOT
BRANCH   1   2
ATOM      2  C   UNL A   1      31.586  27.845  26.746  1.00  0.00     0.023 C 
BRANCH   2   3
ATOM      3  C   UNL A   1      31.074  26.597  26.025  1.00  0.00     0.116 C 
BRANCH   3   4
ATOM      4  N   UNL A   1      31.079  25.420  26.873  1.00  0.00    -0.356 N 
ATOM      5  C   UNL A   1      31.541  24.160  26.647  1.00  0.00     0.224 C 
ATOM      6  O   UNL A   1      31.443  23.347  27.570  1.00  0.00    -0.275 OA
ATOM      7  H   UNL A   1      30.680  25.556  27.763  1.00  0.00     0.163 HD
BRANCH   5   8
ATOM      8  C   UNL A   1      32.148  23.714  25.320  1.00  0.00     0.098 C 
ATOM      9  C   UNL A   1      34.175  25.041  24.618  1.00  0.00     0.026 C 
ATOM     10  C   UNL A   1      33.678  23.769  25.306  1.00  0.00     0.082 C 
ATOM     11  N   UNL A   1      34.144  22.600  24.500  1.00  0.00    -0.190 NA
ATOM     12  C   UNL A   1      31.778  22.314  24.860  1.00  0.00     0.032 C 
ATOM     13  C   UNL A   1      32.939  21.900  23.969  1.00  0.00     0.104 C 
BRANCH  11  14
ATOM     14  S   UNL A   1      35.347  21.556  25.143  1.00  0.00     0.314 S 
ATOM     15  O   UNL A   1      35.327  21.772  26.580  1.00  0.00    -0.203 OA
ATOM     16  O   UNL A   1      35.008  20.234  24.640  1.00  0.00    -0.203 OA
BRANCH  14  17
ATOM     17  C   UNL A   1      37.002  22.112  24.440  1.00  0.00     0.511 C 
ATOM     18  F   UNL A   1      36.973  22.230  23.083  1.00  0.00    -0.155 F 
ATOM     19  F   UNL A   1      37.393  23.323  24.930  1.00  0.00    -0.155 F 
ATOM     20  F   UNL A   1      37.998  21.235  24.746  1.00  0.00    -0.155 F 
ENDBRANCH  14  17
ENDBRANCH  11  14
ENDBRANCH   5   8
ENDBRANCH   3   4
ENDBRANCH   2   3
ENDBRANCH   1   2
BRANCH   1  21
ATOM     21  C   UNL A   1      33.854  28.867  26.088  1.00  0.00     0.116 C 
BRANCH  21  22
ATOM     22  N   UNL A   1      33.733  30.261  26.497  1.00  0.00    -0.352 N 
ATOM     23  C   UNL A   1      34.544  30.963  27.362  1.00  0.00     0.251 C 
ATOM     24  H   UNL A   1      32.980  30.761  26.106  1.00  0.00     0.163 HD
ATOM     25  O   UNL A   1      34.279  32.114  27.677  1.00  0.00    -0.269 OA
BRANCH  23  26
ATOM     26  C   UNL A   1      35.720  30.277  27.943  1.00  0.00     0.039 A 
ATOM     27  C   UNL A   1      36.929  30.298  27.245  1.00  0.00     0.014 A 
ATOM     28  C   UNL A   1      35.643  29.699  29.213  1.00  0.00     0.014 A 
ATOM     29  C   UNL A   1      38.085  29.821  27.865  1.00  0.00     0.010 A 
ATOM     30  C   UNL A   1      36.808  29.302  29.857  1.00  0.00     0.010 A 
ATOM     31  C   UNL A   1      38.043  29.368  29.194  1.00  0.00    -0.014 A 
BRANCH  31  32
ATOM     32  C   UNL A   1      39.277  28.972  29.920  1.00  0.00     0.031 A 
ATOM     33  C   UNL A   1      39.689  29.714  31.162  1.00  0.00     0.074 A 
ATOM     34  C   UNL A   1      40.072  28.009  29.411  1.00  0.00     0.049 A 
ATOM     35  N   UNL A   1      40.777  29.588  31.876  1.00  0.00    -0.248 NA
ATOM     36  C   UNL A   1      38.772  30.761  31.642  1.00  0.00     0.031 C 
ATOM     37  C   UNL A   1      39.817  27.261  28.177  1.00  0.00     0.029 A 
ATOM     38  N   UNL A   1      41.265  27.501  29.862  1.00  0.00    -0.354 N 
ATOM     39  C   UNL A   1      40.687  30.551  32.874  1.00  0.00     0.074 A 
ATOM     40  C   UNL A   1      39.463  31.288  32.642  1.00  0.00     0.031 C 
ATOM     41  C   UNL A   1      40.809  26.377  27.984  1.00  0.00     0.029 A 
ATOM     42  C   UNL A   1      41.787  26.515  29.058  1.00  0.00     0.049 A 
ATOM     43  H   UNL A   1      41.706  27.815  30.685  1.00  0.00     0.167 HD
ATOM     44  C   UNL A   1      41.533  30.783  33.905  1.00  0.00     0.037 A 
ATOM     45  C   UNL A   1      42.927  25.806  29.173  1.00  0.00     0.037 A 
ATOM     46  C   UNL A   1      42.725  30.019  34.157  1.00  0.00     0.049 A 
ATOM     47  C   UNL A   1      43.832  26.057  30.346  1.00  0.00     0.074 A 
ATOM     48  C   UNL A   1      43.611  30.129  35.214  1.00  0.00     0.029 A 
ATOM     49  N   UNL A   1      43.196  28.997  33.345  1.00  0.00    -0.354 N 
ATOM     50  N   UNL A   1      43.700  26.930  31.317  1.00  0.00    -0.248 NA
ATOM     51  C   UNL A   1      45.039  25.225  30.446  1.00  0.00     0.031 C 
ATOM     52  C   UNL A   1      44.634  29.193  35.027  1.00  0.00     0.029 A 
ATOM     53  C   UNL A   1      44.365  28.476  33.872  1.00  0.00     0.049 A 
ATOM     54  H   UNL A   1      42.762  28.688  32.517  1.00  0.00     0.167 HD
ATOM     55  C   UNL A   1      44.792  26.737  32.154  1.00  0.00     0.074 A 
ATOM     56  C   UNL A   1      45.571  25.657  31.582  1.00  0.00     0.031 C 
ATOM     57  C   UNL A   1      45.121  27.394  33.293  1.00  0.00     0.037 A 
BRANCH  44  58
ATOM     58  C   UNL A   1      41.186  31.904  34.846  1.00  0.00     0.058 A 
ATOM     59  C   UNL A   1      40.337  31.701  35.946  1.00  0.00     0.135 A 
ATOM     60  C   UNL A   1      41.721  33.188  34.658  1.00  0.00     0.135 A 
ATOM     61  F   UNL A   1      39.784  30.497  36.161  1.00  0.00    -0.206 F 
ATOM     62  C   UNL A   1      40.003  32.741  36.807  1.00  0.00     0.059 A 
ATOM     63  C   UNL A   1      41.421  34.236  35.523  1.00  0.00     0.059 A 
ATOM     64  F   UNL A   1      42.537  33.436  33.621  1.00  0.00    -0.206 F 
ATOM     65  C   UNL A   1      40.548  34.006  36.584  1.00  0.00     0.060 A 
BRANCH  65  66
ATOM     66  S   UNL A   1      40.102  35.348  37.708  1.00  0.00     0.124 S 
ATOM     67  O   UNL A   1      39.913  36.455  36.776  1.00  0.00    -0.237 OA
ATOM     68  O   UNL A   1      38.889  34.838  38.340  1.00  0.00    -0.237 OA
ATOM     69  O   UNL A   1      41.263  35.455  38.585  1.00  0.00    -0.744 OA
ENDBRANCH  65  66
ENDBRANCH  44  58
BRANCH  45  70
ATOM     70  C   UNL A   1      43.259  24.765  28.164  1.00  0.00     0.058 A 
ATOM     71  C   UNL A   1      42.900  23.426  28.370  1.00  0.00     0.135 A 
ATOM     72  C   UNL A   1      43.923  25.089  26.971  1.00  0.00     0.135 A 
ATOM     73  F   UNL A   1      42.268  23.067  29.498  1.00  0.00    -0.206 F 
ATOM     74  C   UNL A   1      43.201  22.438  27.438  1.00  0.00     0.059 A 
ATOM     75  C   UNL A   1      44.216  24.123  26.013  1.00  0.00     0.059 A 
ATOM     76  F   UNL A   1      44.271  26.361  26.719  1.00  0.00    -0.206 F 
ATOM     77  C   UNL A   1      43.860  22.798  26.260  1.00  0.00     0.060 A 
BRANCH  77  78
ATOM     78  S   UNL A   1      44.200  21.519  25.031  1.00  0.00     0.124 S 
ATOM     79  O   UNL A   1      45.553  21.116  25.394  1.00  0.00    -0.237 OA
ATOM     80  O   UNL A   1      43.149  20.543  25.302  1.00  0.00    -0.237 OA
ATOM     81  O   UNL A   1      44.070  22.232  23.763  1.00  0.00    -0.744 OA
ENDBRANCH  77  78
ENDBRANCH  45  70
BRANCH  57  82
ATOM     82  C   UNL A   1      46.360  26.945  34.014  1.00  0.00     0.058 A 
ATOM     83  C   UNL A   1      46.319  25.929  34.982  1.00  0.00     0.135 A 
ATOM     84  C   UNL A   1      47.609  27.500  33.694  1.00  0.00     0.135 A 
ATOM     85  F   UNL A   1      45.148  25.373  35.328  1.00  0.00    -0.206 F 
ATOM     86  C   UNL A   1      47.474  25.491  35.621  1.00  0.00     0.059 A 
ATOM     87  C   UNL A   1      48.779  27.061  34.303  1.00  0.00     0.059 A 
ATOM     88  F   UNL A   1      47.702  28.467  32.767  1.00  0.00    -0.206 F 
ATOM     89  C   UNL A   1      48.700  26.063  35.275  1.00  0.00     0.060 A 
BRANCH  89  90
ATOM     90  S   UNL A   1      50.198  25.461  36.084  1.00  0.00     0.124 S 
ATOM     91  O   UNL A   1      51.238  26.115  35.298  1.00  0.00    -0.237 OA
ATOM     92  O   UNL A   1      50.035  25.948  37.450  1.00  0.00    -0.237 OA
ATOM     93  O   UNL A   1      50.107  24.012  35.927  1.00  0.00    -0.744 OA
ENDBRANCH  89  90
ENDBRANCH  57  82
ENDBRANCH  31  32
ENDBRANCH  23  26
ENDBRANCH  21  22
ENDBRANCH   1  21
TORSDOF 16
ENDMDL
