MODEL 1
REMARK VINA RESULT:     -11.9      0.000      0.000
REMARK SMILES C[C@@H]1OCC[C@@H]1C(=O)Nc1ccc(C(=O)NCCCCNC(=O)c2ccc(-c3c4nc(c(-c5c(F)cc(S(=O)(=O)[O-])cc5F)c5ccc([nH]5)c(-c5c(F)cc(S(=O)(=O)[O-])cc5F)c5nc(c(-c6c(F)cc(S(=O)(=O)[O-])cc6F)c6ccc3[nH]6)C=C5)C=C4)cc2)cc1F
REMARK SMILES IDX 19 1 18 2 17 3 16 4 14 5 15 6 13 8 10 9 11 10 91 11 12 12
REMARK SMILES IDX 90 13 92 14 9 15 7 16 8 17 6 19 1 20 2 21 3 22 4 23 5 24
REMARK SMILES IDX 20 25 21 26 22 27 23 29 24 30 25 31 89 32 26 33 88 34 27 35
REMARK SMILES IDX 28 36 29 37 82 38 30 39 87 40 81 41 83 42 31 43 86 44 80 45
REMARK SMILES IDX 79 46 32 48 66 49 45 50 65 51 46 52 49 53 64 54 84 55 47 56
REMARK SMILES IDX 48 57 63 59 85 60 50 61 33 62 34 63 43 64 35 65 36 66 42 67
REMARK SMILES IDX 44 68 37 69 38 70 39 71 40 72 41 73 67 74 68 75 77 76 69 77
REMARK SMILES IDX 70 78 76 79 78 80 71 81 72 82 73 83 74 84 75 85 51 86 52 87
REMARK SMILES IDX 61 88 53 89 54 90 60 91 62 92 55 93 56 94 57 95 58 96 59 97
REMARK H PARENT 16 7 9 18 21 28 83 47 49 58
REMARK Flexibility Score: inf
ROOT
ATOM      1  C   UNL A   1      33.267  28.339  25.664  1.00  0.00     0.023 C 
ENDROOT
BRANCH   1   2
ATOM      2  C   UNL A   1      32.723  29.626  25.050  1.00  0.00     0.023 C 
BRANCH   2   3
ATOM      3  C   UNL A   1      31.187  29.703  25.034  1.00  0.00     0.116 C 
BRANCH   3   4
ATOM      4  N   UNL A   1      30.666  29.858  23.679  1.00  0.00    -0.352 N 
ATOM      5  C   UNL A   1      30.423  28.975  22.651  1.00  0.00     0.251 C 
ATOM      6  O   UNL A   1      29.912  29.413  21.619  1.00  0.00    -0.269 OA
ATOM      7  H   UNL A   1      30.443  30.790  23.453  1.00  0.00     0.163 HD
BRANCH   5   8
ATOM      8  C   UNL A   1      30.715  27.514  22.726  1.00  0.00     0.042 A 
ATOM      9  C   UNL A   1      31.322  24.726  22.964  1.00  0.00     0.077 A 
ATOM     10  C   UNL A   1      30.237  25.296  23.650  1.00  0.00     0.030 A 
ATOM     11  C   UNL A   1      32.093  25.603  22.217  1.00  0.00     0.147 A 
ATOM     12  C   UNL A   1      29.956  26.678  23.556  1.00  0.00     0.016 A 
ATOM     13  C   UNL A   1      31.738  26.923  22.020  1.00  0.00     0.055 A 
ATOM     14  F   UNL A   1      33.270  25.297  21.685  1.00  0.00    -0.205 F 
BRANCH   9  15
ATOM     15  N   UNL A   1      31.498  23.328  23.063  1.00  0.00    -0.323 N 
ATOM     16  C   UNL A   1      32.267  22.495  23.833  1.00  0.00     0.230 C 
ATOM     17  O   UNL A   1      32.201  21.288  23.571  1.00  0.00    -0.274 OA
ATOM     18  H   UNL A   1      30.932  22.833  22.427  1.00  0.00     0.170 HD
BRANCH  16  19
ATOM     19  C   UNL A   1      33.137  22.983  24.971  1.00  0.00     0.110 C 
ATOM     20  C   UNL A   1      35.168  23.154  23.366  1.00  0.00     0.039 C 
ATOM     21  C   UNL A   1      34.444  23.697  24.590  1.00  0.00     0.127 C 
ATOM     22  O   UNL A   1      35.332  23.546  25.723  1.00  0.00    -0.378 OA
ATOM     23  C   UNL A   1      34.678  22.714  26.690  1.00  0.00     0.161 C 
ATOM     24  C   UNL A   1      33.664  21.909  25.908  1.00  0.00     0.044 C 
ENDBRANCH  16  19
ENDBRANCH   9  15
ENDBRANCH   5   8
ENDBRANCH   3   4
ENDBRANCH   2   3
ENDBRANCH   1   2
BRANCH   1  25
ATOM     25  C   UNL A   1      33.778  28.519  27.087  1.00  0.00     0.116 C 
BRANCH  25  26
ATOM     26  N   UNL A   1      33.649  29.881  27.582  1.00  0.00    -0.352 N 
ATOM     27  C   UNL A   1      34.620  30.631  28.220  1.00  0.00     0.251 C 
ATOM     28  H   UNL A   1      32.776  30.317  27.448  1.00  0.00     0.163 HD
ATOM     29  O   UNL A   1      34.367  31.726  28.684  1.00  0.00    -0.269 OA
BRANCH  27  30
ATOM     30  C   UNL A   1      35.968  30.035  28.368  1.00  0.00     0.039 A 
ATOM     31  C   UNL A   1      36.861  30.108  27.297  1.00  0.00     0.014 A 
ATOM     32  C   UNL A   1      36.365  29.490  29.591  1.00  0.00     0.014 A 
ATOM     33  C   UNL A   1      38.185  29.701  27.480  1.00  0.00     0.010 A 
ATOM     34  C   UNL A   1      37.698  29.150  29.789  1.00  0.00     0.010 A 
ATOM     35  C   UNL A   1      38.622  29.257  28.739  1.00  0.00    -0.014 A 
BRANCH  35  36
ATOM     36  C   UNL A   1      40.036  28.882  28.989  1.00  0.00     0.031 A 
ATOM     37  C   UNL A   1      40.986  29.908  29.542  1.00  0.00     0.074 A 
ATOM     38  C   UNL A   1      40.482  27.658  28.643  1.00  0.00     0.049 A 
ATOM     39  N   UNL A   1      42.282  29.839  29.685  1.00  0.00    -0.248 NA
ATOM     40  C   UNL A   1      40.401  31.192  29.961  1.00  0.00     0.031 C 
ATOM     41  C   UNL A   1      39.663  26.585  28.074  1.00  0.00     0.029 A 
ATOM     42  N   UNL A   1      41.741  27.112  28.708  1.00  0.00    -0.354 N 
ATOM     43  C   UNL A   1      42.672  31.074  30.186  1.00  0.00     0.074 A 
ATOM     44  C   UNL A   1      41.481  31.888  30.286  1.00  0.00     0.031 C 
ATOM     45  C   UNL A   1      40.435  25.507  27.860  1.00  0.00     0.029 A 
ATOM     46  C   UNL A   1      41.811  25.823  28.234  1.00  0.00     0.049 A 
ATOM     47  H   UNL A   1      42.520  27.599  29.059  1.00  0.00     0.167 HD
ATOM     48  C   UNL A   1      43.908  31.484  30.553  1.00  0.00     0.037 A 
ATOM     49  C   UNL A   1      42.866  24.994  28.107  1.00  0.00     0.037 A 
ATOM     50  C   UNL A   1      45.082  30.654  30.496  1.00  0.00     0.049 A 
ATOM     51  C   UNL A   1      44.231  25.472  28.525  1.00  0.00     0.074 A 
ATOM     52  C   UNL A   1      46.373  30.966  30.880  1.00  0.00     0.029 A 
ATOM     53  N   UNL A   1      45.102  29.344  30.041  1.00  0.00    -0.354 N 
ATOM     54  N   UNL A   1      44.579  26.638  29.014  1.00  0.00    -0.248 NA
ATOM     55  C   UNL A   1      45.347  24.527  28.374  1.00  0.00     0.031 C 
ATOM     56  C   UNL A   1      47.182  29.852  30.636  1.00  0.00     0.029 A 
ATOM     57  C   UNL A   1      46.386  28.835  30.133  1.00  0.00     0.049 A 
ATOM     58  H   UNL A   1      44.322  28.850  29.702  1.00  0.00     0.167 HD
ATOM     59  C   UNL A   1      45.945  26.556  29.256  1.00  0.00     0.074 A 
ATOM     60  C   UNL A   1      46.363  25.228  28.861  1.00  0.00     0.031 C 
ATOM     61  C   UNL A   1      46.777  27.498  29.762  1.00  0.00     0.037 A 
BRANCH  48  62
ATOM     62  C   UNL A   1      44.060  32.886  31.070  1.00  0.00     0.058 A 
ATOM     63  C   UNL A   1      43.865  33.171  32.429  1.00  0.00     0.135 A 
ATOM     64  C   UNL A   1      44.337  33.957  30.206  1.00  0.00     0.135 A 
ATOM     65  F   UNL A   1      43.608  32.181  33.299  1.00  0.00    -0.206 F 
ATOM     66  C   UNL A   1      43.924  34.474  32.913  1.00  0.00     0.059 A 
ATOM     67  C   UNL A   1      44.422  35.264  30.671  1.00  0.00     0.059 A 
ATOM     68  F   UNL A   1      44.555  33.732  28.900  1.00  0.00    -0.206 F 
ATOM     69  C   UNL A   1      44.198  35.514  32.025  1.00  0.00     0.060 A 
BRANCH  69  70
ATOM     70  S   UNL A   1      44.300  37.197  32.671  1.00  0.00     0.124 S 
ATOM     71  O   UNL A   1      43.205  37.213  33.635  1.00  0.00    -0.237 OA
ATOM     72  O   UNL A   1      45.646  37.230  33.234  1.00  0.00    -0.237 OA
ATOM     73  O   UNL A   1      44.108  38.026  31.484  1.00  0.00    -0.744 OA
ENDBRANCH  69  70
ENDBRANCH  48  62
BRANCH  49  74
ATOM     74  C   UNL A   1      42.670  23.617  27.584  1.00  0.00     0.058 A 
ATOM     75  C   UNL A   1      42.431  22.532  28.443  1.00  0.00     0.135 A 
ATOM     76  C   UNL A   1      42.737  23.357  26.207  1.00  0.00     0.135 A 
ATOM     77  F   UNL A   1      42.368  22.725  29.770  1.00  0.00    -0.206 F 
ATOM     78  C   UNL A   1      42.282  21.238  27.956  1.00  0.00     0.059 A 
ATOM     79  C   UNL A   1      42.570  22.075  25.694  1.00  0.00     0.059 A 
ATOM     80  F   UNL A   1      42.951  24.365  25.347  1.00  0.00    -0.206 F 
ATOM     81  C   UNL A   1      42.357  21.019  26.579  1.00  0.00     0.060 A 
BRANCH  81  82
ATOM     82  S   UNL A   1      42.161  19.331  25.965  1.00  0.00     0.124 S 
ATOM     83  O   UNL A   1      42.961  19.372  24.745  1.00  0.00    -0.237 OA
ATOM     84  O   UNL A   1      42.712  18.539  27.060  1.00  0.00    -0.237 OA
ATOM     85  O   UNL A   1      40.719  19.210  25.770  1.00  0.00    -0.744 OA
ENDBRANCH  81  82
ENDBRANCH  49  74
BRANCH  61  86
ATOM     86  C   UNL A   1      48.218  27.133  29.966  1.00  0.00     0.058 A 
ATOM     87  C   UNL A   1      48.633  26.547  31.174  1.00  0.00     0.135 A 
ATOM     88  C   UNL A   1      49.202  27.476  29.028  1.00  0.00     0.135 A 
ATOM     89  F   UNL A   1      47.728  26.203  32.105  1.00  0.00    -0.206 F 
ATOM     90  C   UNL A   1      49.977  26.345  31.457  1.00  0.00     0.059 A 
ATOM     91  C   UNL A   1      50.553  27.265  29.282  1.00  0.00     0.059 A 
ATOM     92  F   UNL A   1      48.851  28.028  27.855  1.00  0.00    -0.206 F 
ATOM     93  C   UNL A   1      50.932  26.721  30.510  1.00  0.00     0.060 A 
BRANCH  93  94
ATOM     94  S   UNL A   1      52.677  26.489  30.910  1.00  0.00     0.124 S 
ATOM     95  O   UNL A   1      52.636  25.294  31.746  1.00  0.00    -0.237 OA
ATOM     96  O   UNL A   1      53.277  26.321  29.590  1.00  0.00    -0.237 OA
ATOM     97  O   UNL A   1      53.034  27.726  31.599  1.00  0.00    -0.744 OA
ENDBRANCH  93  94
ENDBRANCH  61  86
ENDBRANCH  35  36
ENDBRANCH  27  30
ENDBRANCH  25  26
ENDBRANCH   1  25
TORSDOF 16
ENDMDL
MODEL 2
REMARK VINA RESULT:     -11.6      3.825      6.743
REMARK SMILES C[C@@H]1OCC[C@@H]1C(=O)Nc1ccc(C(=O)NCCCCNC(=O)c2ccc(-c3c4nc(c(-c5c(F)cc(S(=O)(=O)[O-])cc5F)c5ccc([nH]5)c(-c5c(F)cc(S(=O)(=O)[O-])cc5F)c5nc(c(-c6c(F)cc(S(=O)(=O)[O-])cc6F)c6ccc3[nH]6)C=C5)C=C4)cc2)cc1F
REMARK SMILES IDX 19 1 18 2 17 3 16 4 14 5 15 6 13 8 10 9 11 10 91 11 12 12
REMARK SMILES IDX 90 13 92 14 9 15 7 16 8 17 6 19 1 20 2 21 3 22 4 23 5 24
REMARK SMILES IDX 20 25 21 26 22 27 23 29 24 30 25 31 89 32 26 33 88 34 27 35
REMARK SMILES IDX 28 36 29 37 82 38 30 39 87 40 81 41 83 42 31 43 86 44 80 45
REMARK SMILES IDX 79 46 32 48 66 49 45 50 65 51 46 52 49 53 64 54 84 55 47 56
REMARK SMILES IDX 48 57 63 59 85 60 50 61 33 62 34 63 43 64 35 65 36 66 42 67
REMARK SMILES IDX 44 68 37 69 38 70 39 71 40 72 41 73 67 74 68 75 77 76 69 77
REMARK SMILES IDX 70 78 76 79 78 80 71 81 72 82 73 83 74 84 75 85 51 86 52 87
REMARK SMILES IDX 61 88 53 89 54 90 60 91 62 92 55 93 56 94 57 95 58 96 59 97
REMARK H PARENT 16 7 9 18 21 28 83 47 49 58
REMARK Flexibility Score: inf
ROOT
ATOM      1  C   UNL A   1      35.936  33.594  29.491  1.00  0.00     0.023 C 
ENDROOT
BRANCH   1   2
ATOM      2  C   UNL A   1      37.437  33.417  29.283  1.00  0.00     0.023 C 
BRANCH   2   3
ATOM      3  C   UNL A   1      38.292  33.968  30.437  1.00  0.00     0.116 C 
BRANCH   3   4
ATOM      4  N   UNL A   1      37.475  34.641  31.443  1.00  0.00    -0.352 N 
ATOM      5  C   UNL A   1      37.252  34.421  32.785  1.00  0.00     0.251 C 
ATOM      6  O   UNL A   1      36.536  35.218  33.391  1.00  0.00    -0.269 OA
ATOM      7  H   UNL A   1      36.979  35.413  31.088  1.00  0.00     0.163 HD
BRANCH   5   8
ATOM      8  C   UNL A   1      37.852  33.290  33.550  1.00  0.00     0.042 A 
ATOM      9  C   UNL A   1      39.090  31.126  34.958  1.00  0.00     0.077 A 
ATOM     10  C   UNL A   1      39.449  32.459  35.212  1.00  0.00     0.030 A 
ATOM     11  C   UNL A   1      38.148  30.933  33.961  1.00  0.00     0.147 A 
ATOM     12  C   UNL A   1      38.859  33.526  34.496  1.00  0.00     0.016 A 
ATOM     13  C   UNL A   1      37.477  31.980  33.358  1.00  0.00     0.055 A 
ATOM     14  F   UNL A   1      37.848  29.753  33.433  1.00  0.00    -0.205 F 
BRANCH   9  15
ATOM     15  N   UNL A   1      39.682  30.124  35.759  1.00  0.00    -0.323 N 
ATOM     16  C   UNL A   1      40.830  29.379  35.697  1.00  0.00     0.230 C 
ATOM     17  O   UNL A   1      40.975  28.519  36.574  1.00  0.00    -0.274 OA
ATOM     18  H   UNL A   1      39.140  29.911  36.554  1.00  0.00     0.170 HD
BRANCH  16  19
ATOM     19  C   UNL A   1      41.900  29.588  34.648  1.00  0.00     0.110 C 
ATOM     20  C   UNL A   1      40.641  28.002  33.025  1.00  0.00     0.039 C 
ATOM     21  C   UNL A   1      41.535  29.222  33.200  1.00  0.00     0.127 C 
ATOM     22  O   UNL A   1      42.786  28.945  32.525  1.00  0.00    -0.378 OA
ATOM     23  C   UNL A   1      43.838  29.024  33.495  1.00  0.00     0.161 C 
ATOM     24  C   UNL A   1      43.173  28.778  34.831  1.00  0.00     0.044 C 
ENDBRANCH  16  19
ENDBRANCH   9  15
ENDBRANCH   5   8
ENDBRANCH   3   4
ENDBRANCH   2   3
ENDBRANCH   1   2
BRANCH   1  25
ATOM     25  C   UNL A   1      35.262  32.369  30.096  1.00  0.00     0.116 C 
BRANCH  25  26
ATOM     26  N   UNL A   1      34.367  31.686  29.175  1.00  0.00    -0.352 N 
ATOM     27  C   UNL A   1      34.672  30.610  28.362  1.00  0.00     0.251 C 
ATOM     28  H   UNL A   1      33.444  32.026  29.124  1.00  0.00     0.163 HD
ATOM     29  O   UNL A   1      33.870  30.184  27.553  1.00  0.00    -0.269 OA
BRANCH  27  30
ATOM     30  C   UNL A   1      36.028  30.024  28.470  1.00  0.00     0.039 A 
ATOM     31  C   UNL A   1      36.904  30.140  27.389  1.00  0.00     0.014 A 
ATOM     32  C   UNL A   1      36.449  29.445  29.669  1.00  0.00     0.014 A 
ATOM     33  C   UNL A   1      38.235  29.742  27.539  1.00  0.00     0.010 A 
ATOM     34  C   UNL A   1      37.788  29.113  29.837  1.00  0.00     0.010 A 
ATOM     35  C   UNL A   1      38.695  29.263  28.776  1.00  0.00    -0.014 A 
BRANCH  35  36
ATOM     36  C   UNL A   1      40.116  28.895  28.993  1.00  0.00     0.031 A 
ATOM     37  C   UNL A   1      41.075  29.927  29.519  1.00  0.00     0.074 A 
ATOM     38  C   UNL A   1      40.560  27.672  28.640  1.00  0.00     0.049 A 
ATOM     39  N   UNL A   1      42.375  29.864  29.631  1.00  0.00    -0.248 NA
ATOM     40  C   UNL A   1      40.495  31.210  29.949  1.00  0.00     0.031 C 
ATOM     41  C   UNL A   1      39.732  26.594  28.095  1.00  0.00     0.029 A 
ATOM     42  N   UNL A   1      41.822  27.132  28.675  1.00  0.00    -0.354 N 
ATOM     43  C   UNL A   1      42.770  31.103  30.119  1.00  0.00     0.074 A 
ATOM     44  C   UNL A   1      41.579  31.912  30.245  1.00  0.00     0.031 C 
ATOM     45  C   UNL A   1      40.504  25.519  27.864  1.00  0.00     0.029 A 
ATOM     46  C   UNL A   1      41.887  25.842  28.204  1.00  0.00     0.049 A 
ATOM     47  H   UNL A   1      42.608  27.624  29.006  1.00  0.00     0.167 HD
ATOM     48  C   UNL A   1      44.014  31.519  30.453  1.00  0.00     0.037 A 
ATOM     49  C   UNL A   1      42.942  25.017  28.054  1.00  0.00     0.037 A 
ATOM     50  C   UNL A   1      45.189  30.695  30.371  1.00  0.00     0.049 A 
ATOM     51  C   UNL A   1      44.314  25.503  28.437  1.00  0.00     0.074 A 
ATOM     52  C   UNL A   1      46.488  31.014  30.723  1.00  0.00     0.029 A 
ATOM     53  N   UNL A   1      45.205  29.383  29.919  1.00  0.00    -0.354 N 
ATOM     54  N   UNL A   1      44.669  26.672  28.913  1.00  0.00    -0.248 NA
ATOM     55  C   UNL A   1      45.431  24.562  28.262  1.00  0.00     0.031 C 
ATOM     56  C   UNL A   1      47.296  29.903  30.461  1.00  0.00     0.029 A 
ATOM     57  C   UNL A   1      46.493  28.881  29.982  1.00  0.00     0.049 A 
ATOM     58  H   UNL A   1      44.418  28.885  29.601  1.00  0.00     0.167 HD
ATOM     59  C   UNL A   1      46.041  26.597  29.122  1.00  0.00     0.074 A 
ATOM     60  C   UNL A   1      46.456  25.269  28.722  1.00  0.00     0.031 C 
ATOM     61  C   UNL A   1      46.880  27.544  29.605  1.00  0.00     0.037 A 
BRANCH  48  62
ATOM     62  C   UNL A   1      44.171  32.924  30.962  1.00  0.00     0.058 A 
ATOM     63  C   UNL A   1      44.001  33.214  32.324  1.00  0.00     0.135 A 
ATOM     64  C   UNL A   1      44.430  33.992  30.089  1.00  0.00     0.135 A 
ATOM     65  F   UNL A   1      43.761  32.227  33.202  1.00  0.00    -0.206 F 
ATOM     66  C   UNL A   1      44.065  34.519  32.802  1.00  0.00     0.059 A 
ATOM     67  C   UNL A   1      44.521  35.302  30.548  1.00  0.00     0.059 A 
ATOM     68  F   UNL A   1      44.626  33.763  28.781  1.00  0.00    -0.206 F 
ATOM     69  C   UNL A   1      44.321  35.556  31.905  1.00  0.00     0.060 A 
BRANCH  69  70
ATOM     70  S   UNL A   1      44.430  37.242  32.543  1.00  0.00     0.124 S 
ATOM     71  O   UNL A   1      44.296  38.031  31.323  1.00  0.00    -0.237 OA
ATOM     72  O   UNL A   1      43.300  37.296  33.465  1.00  0.00    -0.237 OA
ATOM     73  O   UNL A   1      45.745  37.278  33.177  1.00  0.00    -0.744 OA
ENDBRANCH  69  70
ENDBRANCH  48  62
BRANCH  49  74
ATOM     74  C   UNL A   1      42.740  23.637  27.541  1.00  0.00     0.058 A 
ATOM     75  C   UNL A   1      42.393  22.579  28.395  1.00  0.00     0.135 A 
ATOM     76  C   UNL A   1      42.909  23.348  26.178  1.00  0.00     0.135 A 
ATOM     77  F   UNL A   1      42.229  22.801  29.709  1.00  0.00    -0.206 F 
ATOM     78  C   UNL A   1      42.237  21.281  27.920  1.00  0.00     0.059 A 
ATOM     79  C   UNL A   1      42.738  22.062  25.675  1.00  0.00     0.059 A 
ATOM     80  F   UNL A   1      43.228  24.331  25.321  1.00  0.00    -0.206 F 
ATOM     81  C   UNL A   1      42.417  21.032  26.558  1.00  0.00     0.060 A 
BRANCH  81  82
ATOM     82  S   UNL A   1      42.210  19.341  25.958  1.00  0.00     0.124 S 
ATOM     83  O   UNL A   1      43.038  19.356  24.757  1.00  0.00    -0.237 OA
ATOM     84  O   UNL A   1      42.724  18.554  27.075  1.00  0.00    -0.237 OA
ATOM     85  O   UNL A   1      40.772  19.238  25.731  1.00  0.00    -0.744 OA
ENDBRANCH  81  82
ENDBRANCH  49  74
BRANCH  61  86
ATOM     86  C   UNL A   1      48.328  27.186  29.775  1.00  0.00     0.058 A 
ATOM     87  C   UNL A   1      48.798  26.717  31.014  1.00  0.00     0.135 A 
ATOM     88  C   UNL A   1      49.267  27.426  28.762  1.00  0.00     0.135 A 
ATOM     89  F   UNL A   1      47.937  26.475  32.016  1.00  0.00    -0.206 F 
ATOM     90  C   UNL A   1      50.153  26.531  31.250  1.00  0.00     0.059 A 
ATOM     91  C   UNL A   1      50.627  27.227  28.971  1.00  0.00     0.059 A 
ATOM     92  F   UNL A   1      48.863  27.864  27.559  1.00  0.00    -0.206 F 
ATOM     93  C   UNL A   1      51.062  26.803  30.227  1.00  0.00     0.060 A 
BRANCH  93  94
ATOM     94  S   UNL A   1      52.824  26.593  30.564  1.00  0.00     0.124 S 
ATOM     95  O   UNL A   1      52.822  25.443  31.462  1.00  0.00    -0.237 OA
ATOM     96  O   UNL A   1      53.368  26.357  29.230  1.00  0.00    -0.237 OA
ATOM     97  O   UNL A   1      53.206  27.865  31.172  1.00  0.00    -0.744 OA
ENDBRANCH  93  94
ENDBRANCH  61  86
ENDBRANCH  35  36
ENDBRANCH  27  30
ENDBRANCH  25  26
ENDBRANCH   1  25
TORSDOF 16
ENDMDL
MODEL 3
REMARK VINA RESULT:     -11.5      1.547      2.467
REMARK SMILES C[C@@H]1OCC[C@@H]1C(=O)Nc1ccc(C(=O)NCCCCNC(=O)c2ccc(-c3c4nc(c(-c5c(F)cc(S(=O)(=O)[O-])cc5F)c5ccc([nH]5)c(-c5c(F)cc(S(=O)(=O)[O-])cc5F)c5nc(c(-c6c(F)cc(S(=O)(=O)[O-])cc6F)c6ccc3[nH]6)C=C5)C=C4)cc2)cc1F
REMARK SMILES IDX 19 1 18 2 17 3 16 4 14 5 15 6 13 8 10 9 11 10 91 11 12 12
REMARK SMILES IDX 90 13 92 14 9 15 7 16 8 17 6 19 1 20 2 21 3 22 4 23 5 24
REMARK SMILES IDX 20 25 21 26 22 27 23 29 24 30 25 31 89 32 26 33 88 34 27 35
REMARK SMILES IDX 28 36 29 37 82 38 30 39 87 40 81 41 83 42 31 43 86 44 80 45
REMARK SMILES IDX 79 46 32 48 66 49 45 50 65 51 46 52 49 53 64 54 84 55 47 56
REMARK SMILES IDX 48 57 63 59 85 60 50 61 33 62 34 63 43 64 35 65 36 66 42 67
REMARK SMILES IDX 44 68 37 69 38 70 39 71 40 72 41 73 67 74 68 75 77 76 69 77
REMARK SMILES IDX 70 78 76 79 78 80 71 81 72 82 73 83 74 84 75 85 51 86 52 87
REMARK SMILES IDX 61 88 53 89 54 90 60 91 62 92 55 93 56 94 57 95 58 96 59 97
REMARK H PARENT 16 7 9 18 21 28 83 47 49 58
REMARK Flexibility Score: inf
ROOT
ATOM      1  C   UNL A   1      33.317  28.476  25.789  1.00  0.00     0.023 C 
ENDROOT
BRANCH   1   2
ATOM      2  C   UNL A   1      32.815  27.073  25.461  1.00  0.00     0.023 C 
BRANCH   2   3
ATOM      3  C   UNL A   1      31.455  27.054  24.743  1.00  0.00     0.116 C 
BRANCH   3   4
ATOM      4  N   UNL A   1      30.425  26.405  25.548  1.00  0.00    -0.352 N 
ATOM      5  C   UNL A   1      30.295  25.142  26.082  1.00  0.00     0.251 C 
ATOM      6  O   UNL A   1      29.311  24.907  26.783  1.00  0.00    -0.269 OA
ATOM      7  H   UNL A   1      29.663  26.993  25.752  1.00  0.00     0.163 HD
BRANCH   5   8
ATOM      8  C   UNL A   1      31.293  24.051  25.883  1.00  0.00     0.042 A 
ATOM      9  C   UNL A   1      33.129  21.886  25.509  1.00  0.00     0.077 A 
ATOM     10  C   UNL A   1      32.322  22.346  24.456  1.00  0.00     0.030 A 
ATOM     11  C   UNL A   1      32.941  22.510  26.731  1.00  0.00     0.147 A 
ATOM     12  C   UNL A   1      31.394  23.395  24.648  1.00  0.00     0.016 A 
ATOM     13  C   UNL A   1      32.133  23.620  26.884  1.00  0.00     0.055 A 
ATOM     14  F   UNL A   1      33.445  22.073  27.879  1.00  0.00    -0.205 F 
BRANCH   9  15
ATOM     15  N   UNL A   1      34.073  20.876  25.217  1.00  0.00    -0.323 N 
ATOM     16  C   UNL A   1      35.440  20.789  25.224  1.00  0.00     0.230 C 
ATOM     17  O   UNL A   1      35.924  19.724  24.821  1.00  0.00    -0.274 OA
ATOM     18  H   UNL A   1      33.645  20.031  24.944  1.00  0.00     0.170 HD
BRANCH  16  19
ATOM     19  C   UNL A   1      36.341  21.899  25.718  1.00  0.00     0.110 C 
ATOM     20  C   UNL A   1      36.116  23.118  23.439  1.00  0.00     0.039 C 
ATOM     21  C   UNL A   1      36.294  23.228  24.947  1.00  0.00     0.127 C 
ATOM     22  O   UNL A   1      37.563  23.882  25.189  1.00  0.00    -0.378 OA
ATOM     23  C   UNL A   1      38.379  22.989  25.957  1.00  0.00     0.161 C 
ATOM     24  C   UNL A   1      37.832  21.606  25.685  1.00  0.00     0.044 C 
ENDBRANCH  16  19
ENDBRANCH   9  15
ENDBRANCH   5   8
ENDBRANCH   3   4
ENDBRANCH   2   3
ENDBRANCH   1   2
BRANCH   1  25
ATOM     25  C   UNL A   1      33.796  28.625  27.227  1.00  0.00     0.116 C 
BRANCH  25  26
ATOM     26  N   UNL A   1      33.671  29.981  27.742  1.00  0.00    -0.352 N 
ATOM     27  C   UNL A   1      34.646  30.722  28.382  1.00  0.00     0.251 C 
ATOM     28  H   UNL A   1      32.796  30.418  27.621  1.00  0.00     0.163 HD
ATOM     29  O   UNL A   1      34.397  31.810  28.863  1.00  0.00    -0.269 OA
BRANCH  27  30
ATOM     30  C   UNL A   1      35.996  30.124  28.509  1.00  0.00     0.039 A 
ATOM     31  C   UNL A   1      36.872  30.195  27.425  1.00  0.00     0.014 A 
ATOM     32  C   UNL A   1      36.411  29.581  29.727  1.00  0.00     0.014 A 
ATOM     33  C   UNL A   1      38.199  29.787  27.588  1.00  0.00     0.010 A 
ATOM     34  C   UNL A   1      37.746  29.239  29.906  1.00  0.00     0.010 A 
ATOM     35  C   UNL A   1      38.654  29.344  28.841  1.00  0.00    -0.014 A 
BRANCH  35  36
ATOM     36  C   UNL A   1      40.071  28.967  29.070  1.00  0.00     0.031 A 
ATOM     37  C   UNL A   1      41.031  29.993  29.604  1.00  0.00     0.074 A 
ATOM     38  C   UNL A   1      40.510  27.741  28.722  1.00  0.00     0.049 A 
ATOM     39  N   UNL A   1      42.330  29.923  29.727  1.00  0.00    -0.248 NA
ATOM     40  C   UNL A   1      40.456  31.281  30.028  1.00  0.00     0.031 C 
ATOM     41  C   UNL A   1      39.680  26.667  28.170  1.00  0.00     0.029 A 
ATOM     42  N   UNL A   1      41.769  27.194  28.768  1.00  0.00    -0.354 N 
ATOM     43  C   UNL A   1      42.729  31.159  30.217  1.00  0.00     0.074 A 
ATOM     44  C   UNL A   1      41.542  31.976  30.332  1.00  0.00     0.031 C 
ATOM     45  C   UNL A   1      40.447  25.587  27.948  1.00  0.00     0.029 A 
ATOM     46  C   UNL A   1      41.829  25.903  28.299  1.00  0.00     0.049 A 
ATOM     47  H   UNL A   1      42.555  27.681  29.106  1.00  0.00     0.167 HD
ATOM     48  C   UNL A   1      43.973  31.569  30.562  1.00  0.00     0.037 A 
ATOM     49  C   UNL A   1      42.881  25.071  28.158  1.00  0.00     0.037 A 
ATOM     50  C   UNL A   1      45.143  30.737  30.489  1.00  0.00     0.049 A 
ATOM     51  C   UNL A   1      44.253  25.549  28.552  1.00  0.00     0.074 A 
ATOM     52  C   UNL A   1      46.441  31.048  30.852  1.00  0.00     0.029 A 
ATOM     53  N   UNL A   1      45.155  29.425  30.039  1.00  0.00    -0.354 N 
ATOM     54  N   UNL A   1      44.610  26.716  29.031  1.00  0.00    -0.248 NA
ATOM     55  C   UNL A   1      45.365  24.601  28.387  1.00  0.00     0.031 C 
ATOM     56  C   UNL A   1      47.244  29.932  30.599  1.00  0.00     0.029 A 
ATOM     57  C   UNL A   1      46.439  28.915  30.113  1.00  0.00     0.049 A 
ATOM     58  H   UNL A   1      44.368  28.931  29.714  1.00  0.00     0.167 HD
ATOM     59  C   UNL A   1      45.980  26.633  29.251  1.00  0.00     0.074 A 
ATOM     60  C   UNL A   1      46.390  25.302  28.856  1.00  0.00     0.031 C 
ATOM     61  C   UNL A   1      46.821  27.575  29.741  1.00  0.00     0.037 A 
BRANCH  48  62
ATOM     62  C   UNL A   1      44.134  32.972  31.071  1.00  0.00     0.058 A 
ATOM     63  C   UNL A   1      44.429  34.023  30.190  1.00  0.00     0.135 A 
ATOM     64  C   UNL A   1      44.057  33.265  32.441  1.00  0.00     0.135 A 
ATOM     65  F   UNL A   1      44.504  33.798  28.868  1.00  0.00    -0.206 F 
ATOM     66  C   UNL A   1      44.660  35.315  30.651  1.00  0.00     0.059 A 
ATOM     67  C   UNL A   1      44.261  34.554  32.923  1.00  0.00     0.059 A 
ATOM     68  F   UNL A   1      43.753  32.299  33.323  1.00  0.00    -0.206 F 
ATOM     69  C   UNL A   1      44.578  35.569  32.020  1.00  0.00     0.060 A 
BRANCH  69  70
ATOM     70  S   UNL A   1      44.851  37.256  32.604  1.00  0.00     0.124 S 
ATOM     71  O   UNL A   1      43.969  38.021  31.729  1.00  0.00    -0.237 OA
ATOM     72  O   UNL A   1      44.443  37.168  34.002  1.00  0.00    -0.237 OA
ATOM     73  O   UNL A   1      46.282  37.458  32.391  1.00  0.00    -0.744 OA
ENDBRANCH  69  70
ENDBRANCH  48  62
BRANCH  49  74
ATOM     74  C   UNL A   1      42.674  23.692  27.644  1.00  0.00     0.058 A 
ATOM     75  C   UNL A   1      42.604  23.424  26.268  1.00  0.00     0.135 A 
ATOM     76  C   UNL A   1      42.523  22.613  28.529  1.00  0.00     0.135 A 
ATOM     77  F   UNL A   1      42.732  24.423  25.380  1.00  0.00    -0.206 F 
ATOM     78  C   UNL A   1      42.375  22.139  25.788  1.00  0.00     0.059 A 
ATOM     79  C   UNL A   1      42.315  21.315  28.072  1.00  0.00     0.059 A 
ATOM     80  F   UNL A   1      42.596  22.820  29.853  1.00  0.00    -0.206 F 
ATOM     81  C   UNL A   1      42.227  21.091  26.699  1.00  0.00     0.060 A 
BRANCH  81  82
ATOM     82  S   UNL A   1      41.932  19.429  26.057  1.00  0.00     0.124 S 
ATOM     83  O   UNL A   1      42.774  19.424  24.865  1.00  0.00    -0.237 OA
ATOM     84  O   UNL A   1      42.387  18.588  27.161  1.00  0.00    -0.237 OA
ATOM     85  O   UNL A   1      40.493  19.413  25.813  1.00  0.00    -0.744 OA
ENDBRANCH  81  82
ENDBRANCH  49  74
BRANCH  61  86
ATOM     86  C   UNL A   1      48.266  27.208  29.923  1.00  0.00     0.058 A 
ATOM     87  C   UNL A   1      48.706  26.665  31.142  1.00  0.00     0.135 A 
ATOM     88  C   UNL A   1      49.227  27.510  28.949  1.00  0.00     0.135 A 
ATOM     89  F   UNL A   1      47.823  26.362  32.107  1.00  0.00    -0.206 F 
ATOM     90  C   UNL A   1      50.056  26.466  31.399  1.00  0.00     0.059 A 
ATOM     91  C   UNL A   1      50.583  27.299  29.178  1.00  0.00     0.059 A 
ATOM     92  F   UNL A   1      48.851  28.020  27.765  1.00  0.00    -0.206 F 
ATOM     93  C   UNL A   1      50.989  26.800  30.416  1.00  0.00     0.060 A 
BRANCH  93  94
ATOM     94  S   UNL A   1      52.742  26.571  30.781  1.00  0.00     0.124 S 
ATOM     95  O   UNL A   1      53.097  27.862  31.362  1.00  0.00    -0.237 OA
ATOM     96  O   UNL A   1      52.722  25.443  31.706  1.00  0.00    -0.237 OA
ATOM     97  O   UNL A   1      53.326  26.288  29.473  1.00  0.00    -0.744 OA
ENDBRANCH  93  94
ENDBRANCH  61  86
ENDBRANCH  35  36
ENDBRANCH  27  30
ENDBRANCH  25  26
ENDBRANCH   1  25
TORSDOF 16
ENDMDL
