MODEL 1
REMARK VINA RESULT:     -11.9      0.000      0.000
REMARK SMILES Cc1nn(C)c2c1nc(SCC(=O)NCCCCNC(=O)c1ccc(-c3c4nc(c(-c5c(F)cc(S(=O)(=O)[O-])cc5F)c5ccc([nH]5)c(-c5c(F)cc(S(=O)(=O)[O-])cc5F)c5nc(c(-c6c(F)cc(S(=O)(=O)[O-])cc6F)c6ccc3[nH]6)C=C5)C=C4)cc1)n2[C@H]1CC[N@@H+](C)C1
REMARK SMILES IDX 16 1 15 2 14 3 12 4 13 5 11 7 10 8 9 9 1 10 2 11 3 12 7 13
REMARK SMILES IDX 4 14 6 15 8 16 5 17 88 18 89 19 90 20 94 21 91 22 92 23
REMARK SMILES IDX 93 24 17 26 18 27 19 28 20 29 21 31 22 32 23 33 87 34 24 35
REMARK SMILES IDX 86 36 25 37 26 38 27 39 80 40 28 41 85 42 79 43 81 44 29 45
REMARK SMILES IDX 84 46 78 47 77 48 30 50 64 51 43 52 63 53 44 54 47 55 62 56
REMARK SMILES IDX 82 57 45 58 46 59 61 61 83 62 48 63 31 64 32 65 41 66 33 67
REMARK SMILES IDX 34 68 40 69 42 70 35 71 36 72 37 73 38 74 39 75 65 76 66 77
REMARK SMILES IDX 75 78 67 79 68 80 74 81 76 82 69 83 70 84 71 85 72 86 73 87
REMARK SMILES IDX 49 88 50 89 59 90 51 91 52 92 58 93 60 94 53 95 54 96 55 97
REMARK SMILES IDX 56 98 57 99
REMARK H PARENT 14 6 92 25 19 30 81 49 47 60
REMARK Flexibility Score: inf
ROOT
ATOM      1  C   UNL A   1      39.863  21.325  26.258  1.00  0.00     0.023 C 
ENDROOT
BRANCH   1   2
ATOM      2  C   UNL A   1      38.556  21.444  25.461  1.00  0.00     0.116 C 
BRANCH   2   3
ATOM      3  N   UNL A   1      37.610  22.342  26.097  1.00  0.00    -0.355 N 
ATOM      4  C   UNL A   1      36.257  22.472  25.956  1.00  0.00     0.230 C 
ATOM      5  O   UNL A   1      35.710  23.358  26.619  1.00  0.00    -0.274 OA
ATOM      6  H   UNL A   1      38.013  22.966  26.742  1.00  0.00     0.163 HD
BRANCH   4   7
ATOM      7  C   UNL A   1      35.437  21.489  25.147  1.00  0.00     0.178 C 
BRANCH   7   8
ATOM      8  S   UNL A   1      34.459  22.216  23.825  1.00  0.00    -0.078 SA
BRANCH   8   9
ATOM      9  C   UNL A   1      33.114  22.985  24.603  1.00  0.00     0.171 A 
ATOM     10  C   UNL A   1      29.473  22.577  27.274  1.00  0.00     0.071 C 
ATOM     11  C   UNL A   1      30.262  23.563  26.510  1.00  0.00     0.087 A 
ATOM     12  N   UNL A   1      29.900  24.859  26.505  1.00  0.00    -0.174 NA
ATOM     13  C   UNL A   1      31.403  23.395  25.726  1.00  0.00     0.132 A 
ATOM     14  N   UNL A   1      30.842  25.478  25.749  1.00  0.00    -0.250 N 
ATOM     15  C   UNL A   1      31.756  24.604  25.231  1.00  0.00     0.159 A 
ATOM     16  N   UNL A   1      32.212  22.385  25.352  1.00  0.00    -0.219 NA
ATOM     17  C   UNL A   1      30.714  26.910  25.629  1.00  0.00     0.176 C 
ATOM     18  N   UNL A   1      32.865  24.359  24.455  1.00  0.00    -0.295 N 
BRANCH  18  19
ATOM     19  C   UNL A   1      33.708  25.275  23.693  1.00  0.00     0.152 C 
ATOM     20  C   UNL A   1      33.231  25.567  22.253  1.00  0.00     0.093 C 
ATOM     21  C   UNL A   1      33.865  26.674  24.283  1.00  0.00     0.288 C 
ATOM     22  C   UNL A   1      32.948  27.059  22.202  1.00  0.00     0.264 C 
ATOM     23  N   UNL A   1      33.907  27.614  23.159  1.00  0.00    -0.336 N 
ATOM     24  C   UNL A   1      33.499  28.950  23.596  1.00  0.00     0.332 C 
ATOM     25  H   UNL A   1      34.839  27.719  22.761  1.00  0.00     0.347 HD
ENDBRANCH  18  19
ENDBRANCH   8   9
ENDBRANCH   7   8
ENDBRANCH   4   7
ENDBRANCH   2   3
ENDBRANCH   1   2
BRANCH   1  26
ATOM     26  C   UNL A   1      40.572  19.963  26.181  1.00  0.00     0.023 C 
BRANCH  26  27
ATOM     27  C   UNL A   1      41.930  19.912  26.866  1.00  0.00     0.116 C 
BRANCH  27  28
ATOM     28  N   UNL A   1      43.023  19.588  25.949  1.00  0.00    -0.352 N 
ATOM     29  C   UNL A   1      43.754  20.462  25.161  1.00  0.00     0.251 C 
ATOM     30  H   UNL A   1      43.266  18.637  25.883  1.00  0.00     0.163 HD
ATOM     31  O   UNL A   1      44.334  20.070  24.163  1.00  0.00    -0.269 OA
BRANCH  29  32
ATOM     32  C   UNL A   1      43.824  21.881  25.565  1.00  0.00     0.039 A 
ATOM     33  C   UNL A   1      43.023  22.858  24.967  1.00  0.00     0.014 A 
ATOM     34  C   UNL A   1      44.698  22.213  26.596  1.00  0.00     0.014 A 
ATOM     35  C   UNL A   1      43.048  24.154  25.482  1.00  0.00     0.010 A 
ATOM     36  C   UNL A   1      44.601  23.439  27.203  1.00  0.00     0.010 A 
ATOM     37  C   UNL A   1      43.823  24.433  26.620  1.00  0.00    -0.014 A 
BRANCH  37  38
ATOM     38  C   UNL A   1      43.690  25.706  27.334  1.00  0.00     0.031 A 
ATOM     39  C   UNL A   1      44.759  26.677  26.972  1.00  0.00     0.074 A 
ATOM     40  C   UNL A   1      42.574  26.050  28.022  1.00  0.00     0.049 A 
ATOM     41  N   UNL A   1      45.759  27.065  27.695  1.00  0.00    -0.248 NA
ATOM     42  C   UNL A   1      44.862  27.109  25.563  1.00  0.00     0.031 C 
ATOM     43  C   UNL A   1      41.335  25.266  28.139  1.00  0.00     0.029 A 
ATOM     44  N   UNL A   1      42.239  27.213  28.655  1.00  0.00    -0.354 N 
ATOM     45  C   UNL A   1      46.402  28.041  26.935  1.00  0.00     0.074 A 
ATOM     46  C   UNL A   1      46.000  27.807  25.578  1.00  0.00     0.031 C 
ATOM     47  C   UNL A   1      40.325  26.060  28.555  1.00  0.00     0.029 A 
ATOM     48  C   UNL A   1      40.873  27.353  28.916  1.00  0.00     0.049 A 
ATOM     49  H   UNL A   1      42.903  27.894  28.908  1.00  0.00     0.167 HD
ATOM     50  C   UNL A   1      46.858  29.177  27.538  1.00  0.00     0.037 A 
ATOM     51  C   UNL A   1      40.226  28.448  29.396  1.00  0.00     0.037 A 
ATOM     52  C   UNL A   1      46.882  28.992  28.970  1.00  0.00     0.049 A 
ATOM     53  C   UNL A   1      41.244  29.285  30.071  1.00  0.00     0.074 A 
ATOM     54  C   UNL A   1      47.599  28.252  29.882  1.00  0.00     0.029 A 
ATOM     55  N   UNL A   1      45.716  29.377  29.578  1.00  0.00    -0.354 N 
ATOM     56  N   UNL A   1      41.886  28.907  31.144  1.00  0.00    -0.248 NA
ATOM     57  C   UNL A   1      41.845  30.395  29.343  1.00  0.00     0.031 C 
ATOM     58  C   UNL A   1      46.737  28.069  31.006  1.00  0.00     0.029 A 
ATOM     59  C   UNL A   1      45.544  28.754  30.778  1.00  0.00     0.049 A 
ATOM     60  H   UNL A   1      45.080  30.025  29.194  1.00  0.00     0.167 HD
ATOM     61  C   UNL A   1      43.159  29.416  30.978  1.00  0.00     0.074 A 
ATOM     62  C   UNL A   1      43.028  30.453  29.961  1.00  0.00     0.031 C 
ATOM     63  C   UNL A   1      44.247  28.721  31.420  1.00  0.00     0.037 A 
BRANCH  50  64
ATOM     64  C   UNL A   1      46.719  30.591  26.966  1.00  0.00     0.058 A 
ATOM     65  C   UNL A   1      47.850  31.441  27.005  1.00  0.00     0.135 A 
ATOM     66  C   UNL A   1      45.494  31.247  26.710  1.00  0.00     0.135 A 
ATOM     67  F   UNL A   1      49.077  30.938  27.216  1.00  0.00    -0.206 F 
ATOM     68  C   UNL A   1      47.753  32.833  26.915  1.00  0.00     0.059 A 
ATOM     69  C   UNL A   1      45.381  32.627  26.579  1.00  0.00     0.059 A 
ATOM     70  F   UNL A   1      44.322  30.608  26.653  1.00  0.00    -0.206 F 
ATOM     71  C   UNL A   1      46.507  33.417  26.725  1.00  0.00     0.060 A 
BRANCH  71  72
ATOM     72  S   UNL A   1      46.355  35.211  26.702  1.00  0.00     0.124 S 
ATOM     73  O   UNL A   1      46.838  35.526  25.363  1.00  0.00    -0.237 OA
ATOM     74  O   UNL A   1      44.924  35.391  26.928  1.00  0.00    -0.237 OA
ATOM     75  O   UNL A   1      47.216  35.633  27.803  1.00  0.00    -0.744 OA
ENDBRANCH  71  72
ENDBRANCH  50  64
BRANCH  51  76
ATOM     76  C   UNL A   1      38.847  28.935  29.119  1.00  0.00     0.058 A 
ATOM     77  C   UNL A   1      37.894  29.090  30.145  1.00  0.00     0.135 A 
ATOM     78  C   UNL A   1      38.523  29.529  27.884  1.00  0.00     0.135 A 
ATOM     79  F   UNL A   1      38.123  28.572  31.361  1.00  0.00    -0.206 F 
ATOM     80  C   UNL A   1      36.715  29.828  29.970  1.00  0.00     0.059 A 
ATOM     81  C   UNL A   1      37.354  30.266  27.684  1.00  0.00     0.059 A 
ATOM     82  F   UNL A   1      39.383  29.481  26.854  1.00  0.00    -0.206 F 
ATOM     83  C   UNL A   1      36.463  30.431  28.739  1.00  0.00     0.060 A 
BRANCH  83  84
ATOM     84  S   UNL A   1      35.019  31.510  28.551  1.00  0.00     0.124 S 
ATOM     85  O   UNL A   1      34.797  31.959  29.921  1.00  0.00    -0.237 OA
ATOM     86  O   UNL A   1      35.505  32.521  27.621  1.00  0.00    -0.237 OA
ATOM     87  O   UNL A   1      33.994  30.615  28.018  1.00  0.00    -0.744 OA
ENDBRANCH  83  84
ENDBRANCH  51  76
BRANCH  63  88
ATOM     88  C   UNL A   1      44.062  27.776  32.568  1.00  0.00     0.058 A 
ATOM     89  C   UNL A   1      43.857  28.144  33.907  1.00  0.00     0.135 A 
ATOM     90  C   UNL A   1      43.989  26.410  32.252  1.00  0.00     0.135 A 
ATOM     91  F   UNL A   1      43.833  29.433  34.274  1.00  0.00    -0.206 F 
ATOM     92  C   UNL A   1      43.622  27.185  34.895  1.00  0.00     0.059 A 
ATOM     93  C   UNL A   1      43.724  25.444  33.211  1.00  0.00     0.059 A 
ATOM     94  F   UNL A   1      44.132  26.006  30.979  1.00  0.00    -0.206 F 
ATOM     95  C   UNL A   1      43.554  25.836  34.535  1.00  0.00     0.060 A 
BRANCH  95  96
ATOM     96  S   UNL A   1      43.186  24.598  35.795  1.00  0.00     0.124 S 
ATOM     97  O   UNL A   1      44.366  24.670  36.651  1.00  0.00    -0.237 OA
ATOM     98  O   UNL A   1      41.946  25.100  36.379  1.00  0.00    -0.237 OA
ATOM     99  O   UNL A   1      43.047  23.361  35.029  1.00  0.00    -0.744 OA
ENDBRANCH  95  96
ENDBRANCH  63  88
ENDBRANCH  37  38
ENDBRANCH  29  32
ENDBRANCH  27  28
ENDBRANCH  26  27
ENDBRANCH   1  26
TORSDOF 17
ENDMDL
MODEL 2
REMARK VINA RESULT:     -11.8      1.055      2.283
REMARK SMILES Cc1nn(C)c2c1nc(SCC(=O)NCCCCNC(=O)c1ccc(-c3c4nc(c(-c5c(F)cc(S(=O)(=O)[O-])cc5F)c5ccc([nH]5)c(-c5c(F)cc(S(=O)(=O)[O-])cc5F)c5nc(c(-c6c(F)cc(S(=O)(=O)[O-])cc6F)c6ccc3[nH]6)C=C5)C=C4)cc1)n2[C@H]1CC[N@@H+](C)C1
REMARK SMILES IDX 16 1 15 2 14 3 12 4 13 5 11 7 10 8 9 9 1 10 2 11 3 12 7 13
REMARK SMILES IDX 4 14 6 15 8 16 5 17 88 18 89 19 90 20 94 21 91 22 92 23
REMARK SMILES IDX 93 24 17 26 18 27 19 28 20 29 21 31 22 32 23 33 87 34 24 35
REMARK SMILES IDX 86 36 25 37 26 38 27 39 80 40 28 41 85 42 79 43 81 44 29 45
REMARK SMILES IDX 84 46 78 47 77 48 30 50 64 51 43 52 63 53 44 54 47 55 62 56
REMARK SMILES IDX 82 57 45 58 46 59 61 61 83 62 48 63 31 64 32 65 41 66 33 67
REMARK SMILES IDX 34 68 40 69 42 70 35 71 36 72 37 73 38 74 39 75 65 76 66 77
REMARK SMILES IDX 75 78 67 79 68 80 74 81 76 82 69 83 70 84 71 85 72 86 73 87
REMARK SMILES IDX 49 88 50 89 59 90 51 91 52 92 58 93 60 94 53 95 54 96 55 97
REMARK SMILES IDX 56 98 57 99
REMARK H PARENT 14 6 92 25 19 30 81 49 47 60
REMARK Flexibility Score: inf
ROOT
ATOM      1  C   UNL A   1      40.750  21.703  27.520  1.00  0.00     0.023 C 
ENDROOT
BRANCH   1   2
ATOM      2  C   UNL A   1      39.671  22.576  26.862  1.00  0.00     0.116 C 
BRANCH   2   3
ATOM      3  N   UNL A   1      38.955  21.864  25.821  1.00  0.00    -0.355 N 
ATOM      4  C   UNL A   1      37.769  22.134  25.197  1.00  0.00     0.230 C 
ATOM      5  O   UNL A   1      37.386  21.320  24.352  1.00  0.00    -0.274 OA
ATOM      6  H   UNL A   1      39.400  21.043  25.510  1.00  0.00     0.163 HD
BRANCH   4   7
ATOM      7  C   UNL A   1      37.029  23.437  25.413  1.00  0.00     0.178 C 
BRANCH   7   8
ATOM      8  S   UNL A   1      35.936  23.925  24.072  1.00  0.00    -0.078 SA
BRANCH   8   9
ATOM      9  C   UNL A   1      34.380  24.170  24.798  1.00  0.00     0.171 A 
ATOM     10  C   UNL A   1      31.221  27.097  26.217  1.00  0.00     0.071 C 
ATOM     11  C   UNL A   1      31.514  25.655  26.096  1.00  0.00     0.087 A 
ATOM     12  N   UNL A   1      30.614  24.746  26.512  1.00  0.00    -0.174 NA
ATOM     13  C   UNL A   1      32.639  25.001  25.595  1.00  0.00     0.132 A 
ATOM     14  N   UNL A   1      31.178  23.545  26.229  1.00  0.00    -0.250 N 
ATOM     15  C   UNL A   1      32.431  23.667  25.697  1.00  0.00     0.159 A 
ATOM     16  N   UNL A   1      33.826  25.338  25.055  1.00  0.00    -0.219 NA
ATOM     17  C   UNL A   1      30.377  22.384  26.530  1.00  0.00     0.176 C 
ATOM     18  N   UNL A   1      33.582  23.092  25.209  1.00  0.00    -0.295 N 
BRANCH  18  19
ATOM     19  C   UNL A   1      33.937  21.687  25.037  1.00  0.00     0.152 C 
ATOM     20  C   UNL A   1      33.409  20.733  26.131  1.00  0.00     0.093 C 
ATOM     21  C   UNL A   1      33.435  21.031  23.753  1.00  0.00     0.288 C 
ATOM     22  C   UNL A   1      32.485  19.757  25.423  1.00  0.00     0.264 C 
ATOM     23  N   UNL A   1      33.072  19.651  24.086  1.00  0.00    -0.336 N 
ATOM     24  C   UNL A   1      32.098  19.133  23.123  1.00  0.00     0.332 C 
ATOM     25  H   UNL A   1      33.865  19.011  24.057  1.00  0.00     0.347 HD
ENDBRANCH  18  19
ENDBRANCH   8   9
ENDBRANCH   7   8
ENDBRANCH   4   7
ENDBRANCH   2   3
ENDBRANCH   1   2
BRANCH   1  26
ATOM     26  C   UNL A   1      41.148  20.435  26.746  1.00  0.00     0.023 C 
BRANCH  26  27
ATOM     27  C   UNL A   1      42.455  19.798  27.196  1.00  0.00     0.116 C 
BRANCH  27  28
ATOM     28  N   UNL A   1      43.378  19.542  26.090  1.00  0.00    -0.352 N 
ATOM     29  C   UNL A   1      43.894  20.461  25.190  1.00  0.00     0.251 C 
ATOM     30  H   UNL A   1      43.667  18.609  25.972  1.00  0.00     0.163 HD
ATOM     31  O   UNL A   1      44.305  20.104  24.098  1.00  0.00    -0.269 OA
BRANCH  29  32
ATOM     32  C   UNL A   1      43.946  21.882  25.588  1.00  0.00     0.039 A 
ATOM     33  C   UNL A   1      43.107  22.840  25.011  1.00  0.00     0.014 A 
ATOM     34  C   UNL A   1      44.842  22.236  26.592  1.00  0.00     0.014 A 
ATOM     35  C   UNL A   1      43.120  24.138  25.520  1.00  0.00     0.010 A 
ATOM     36  C   UNL A   1      44.737  23.461  27.197  1.00  0.00     0.010 A 
ATOM     37  C   UNL A   1      43.922  24.438  26.635  1.00  0.00    -0.014 A 
BRANCH  37  38
ATOM     38  C   UNL A   1      43.782  25.709  27.348  1.00  0.00     0.031 A 
ATOM     39  C   UNL A   1      44.850  26.684  26.991  1.00  0.00     0.074 A 
ATOM     40  C   UNL A   1      42.662  26.051  28.031  1.00  0.00     0.049 A 
ATOM     41  N   UNL A   1      45.846  27.073  27.719  1.00  0.00    -0.248 NA
ATOM     42  C   UNL A   1      44.958  27.116  25.583  1.00  0.00     0.031 C 
ATOM     43  C   UNL A   1      41.425  25.264  28.143  1.00  0.00     0.029 A 
ATOM     44  N   UNL A   1      42.322  27.213  28.664  1.00  0.00    -0.354 N 
ATOM     45  C   UNL A   1      46.489  28.052  26.961  1.00  0.00     0.074 A 
ATOM     46  C   UNL A   1      46.094  27.817  25.603  1.00  0.00     0.031 C 
ATOM     47  C   UNL A   1      40.411  26.055  28.554  1.00  0.00     0.029 A 
ATOM     48  C   UNL A   1      40.954  27.349  28.918  1.00  0.00     0.049 A 
ATOM     49  H   UNL A   1      42.983  27.895  28.919  1.00  0.00     0.167 HD
ATOM     50  C   UNL A   1      46.941  29.189  27.566  1.00  0.00     0.037 A 
ATOM     51  C   UNL A   1      40.303  28.443  29.396  1.00  0.00     0.037 A 
ATOM     52  C   UNL A   1      46.959  29.003  28.998  1.00  0.00     0.049 A 
ATOM     53  C   UNL A   1      41.315  29.282  30.075  1.00  0.00     0.074 A 
ATOM     54  C   UNL A   1      47.673  28.264  29.913  1.00  0.00     0.029 A 
ATOM     55  N   UNL A   1      45.789  29.385  29.601  1.00  0.00    -0.354 N 
ATOM     56  N   UNL A   1      41.953  28.905  31.152  1.00  0.00    -0.248 NA
ATOM     57  C   UNL A   1      41.917  30.394  29.350  1.00  0.00     0.031 C 
ATOM     58  C   UNL A   1      46.808  28.079  31.034  1.00  0.00     0.029 A 
ATOM     59  C   UNL A   1      45.613  28.761  30.800  1.00  0.00     0.049 A 
ATOM     60  H   UNL A   1      45.154  30.032  29.215  1.00  0.00     0.167 HD
ATOM     61  C   UNL A   1      43.226  29.417  30.990  1.00  0.00     0.074 A 
ATOM     62  C   UNL A   1      43.097  30.454  29.973  1.00  0.00     0.031 C 
ATOM     63  C   UNL A   1      44.314  28.725  31.437  1.00  0.00     0.037 A 
BRANCH  50  64
ATOM     64  C   UNL A   1      46.800  30.603  26.994  1.00  0.00     0.058 A 
ATOM     65  C   UNL A   1      47.922  31.463  27.059  1.00  0.00     0.135 A 
ATOM     66  C   UNL A   1      45.575  31.247  26.714  1.00  0.00     0.135 A 
ATOM     67  F   UNL A   1      49.150  30.970  27.294  1.00  0.00    -0.206 F 
ATOM     68  C   UNL A   1      47.815  32.853  26.969  1.00  0.00     0.059 A 
ATOM     69  C   UNL A   1      45.452  32.627  26.583  1.00  0.00     0.059 A 
ATOM     70  F   UNL A   1      44.411  30.598  26.632  1.00  0.00    -0.206 F 
ATOM     71  C   UNL A   1      46.568  33.426  26.754  1.00  0.00     0.060 A 
BRANCH  71  72
ATOM     72  S   UNL A   1      46.400  35.219  26.731  1.00  0.00     0.124 S 
ATOM     73  O   UNL A   1      47.392  35.616  27.723  1.00  0.00    -0.237 OA
ATOM     74  O   UNL A   1      46.719  35.531  25.341  1.00  0.00    -0.237 OA
ATOM     75  O   UNL A   1      45.006  35.428  27.111  1.00  0.00    -0.744 OA
ENDBRANCH  71  72
ENDBRANCH  50  64
BRANCH  51  76
ATOM     76  C   UNL A   1      38.923  28.926  29.113  1.00  0.00     0.058 A 
ATOM     77  C   UNL A   1      37.998  29.178  30.145  1.00  0.00     0.135 A 
ATOM     78  C   UNL A   1      38.576  29.423  27.841  1.00  0.00     0.135 A 
ATOM     79  F   UNL A   1      38.251  28.756  31.393  1.00  0.00    -0.206 F 
ATOM     80  C   UNL A   1      36.825  29.917  29.939  1.00  0.00     0.059 A 
ATOM     81  C   UNL A   1      37.412  30.159  27.610  1.00  0.00     0.059 A 
ATOM     82  F   UNL A   1      39.410  29.279  26.799  1.00  0.00    -0.206 F 
ATOM     83  C   UNL A   1      36.550  30.422  28.669  1.00  0.00     0.060 A 
BRANCH  83  84
ATOM     84  S   UNL A   1      35.116  31.503  28.429  1.00  0.00     0.124 S 
ATOM     85  O   UNL A   1      34.168  30.607  27.777  1.00  0.00    -0.237 OA
ATOM     86  O   UNL A   1      34.788  31.894  29.794  1.00  0.00    -0.237 OA
ATOM     87  O   UNL A   1      35.638  32.575  27.584  1.00  0.00    -0.744 OA
ENDBRANCH  83  84
ENDBRANCH  51  76
BRANCH  63  88
ATOM     88  C   UNL A   1      44.126  27.780  32.584  1.00  0.00     0.058 A 
ATOM     89  C   UNL A   1      43.926  28.146  33.924  1.00  0.00     0.135 A 
ATOM     90  C   UNL A   1      44.046  26.414  32.267  1.00  0.00     0.135 A 
ATOM     91  F   UNL A   1      43.910  29.435  34.293  1.00  0.00    -0.206 F 
ATOM     92  C   UNL A   1      43.688  27.187  34.911  1.00  0.00     0.059 A 
ATOM     93  C   UNL A   1      43.777  25.448  33.225  1.00  0.00     0.059 A 
ATOM     94  F   UNL A   1      44.183  26.011  30.992  1.00  0.00    -0.206 F 
ATOM     95  C   UNL A   1      43.612  25.839  34.550  1.00  0.00     0.060 A 
BRANCH  95  96
ATOM     96  S   UNL A   1      43.240  24.601  35.809  1.00  0.00     0.124 S 
ATOM     97  O   UNL A   1      42.232  23.781  35.144  1.00  0.00    -0.237 OA
ATOM     98  O   UNL A   1      44.537  23.967  36.021  1.00  0.00    -0.237 OA
ATOM     99  O   UNL A   1      42.753  25.395  36.935  1.00  0.00    -0.744 OA
ENDBRANCH  95  96
ENDBRANCH  63  88
ENDBRANCH  37  38
ENDBRANCH  29  32
ENDBRANCH  27  28
ENDBRANCH  26  27
ENDBRANCH   1  26
TORSDOF 17
ENDMDL
MODEL 3
REMARK VINA RESULT:     -11.8      2.565      3.781
REMARK SMILES Cc1nn(C)c2c1nc(SCC(=O)NCCCCNC(=O)c1ccc(-c3c4nc(c(-c5c(F)cc(S(=O)(=O)[O-])cc5F)c5ccc([nH]5)c(-c5c(F)cc(S(=O)(=O)[O-])cc5F)c5nc(c(-c6c(F)cc(S(=O)(=O)[O-])cc6F)c6ccc3[nH]6)C=C5)C=C4)cc1)n2[C@H]1CC[N@@H+](C)C1
REMARK SMILES IDX 16 1 15 2 14 3 12 4 13 5 11 7 10 8 9 9 1 10 2 11 3 12 7 13
REMARK SMILES IDX 4 14 6 15 8 16 5 17 88 18 89 19 90 20 94 21 91 22 92 23
REMARK SMILES IDX 93 24 17 26 18 27 19 28 20 29 21 31 22 32 23 33 87 34 24 35
REMARK SMILES IDX 86 36 25 37 26 38 27 39 80 40 28 41 85 42 79 43 81 44 29 45
REMARK SMILES IDX 84 46 78 47 77 48 30 50 64 51 43 52 63 53 44 54 47 55 62 56
REMARK SMILES IDX 82 57 45 58 46 59 61 61 83 62 48 63 31 64 32 65 41 66 33 67
REMARK SMILES IDX 34 68 40 69 42 70 35 71 36 72 37 73 38 74 39 75 65 76 66 77
REMARK SMILES IDX 75 78 67 79 68 80 74 81 76 82 69 83 70 84 71 85 72 86 73 87
REMARK SMILES IDX 49 88 50 89 59 90 51 91 52 92 58 93 60 94 53 95 54 96 55 97
REMARK SMILES IDX 56 98 57 99
REMARK H PARENT 14 6 92 25 19 30 81 49 47 60
REMARK Flexibility Score: inf
ROOT
ATOM      1  C   UNL A   1      35.712  21.733  24.351  1.00  0.00     0.023 C 
ENDROOT
BRANCH   1   2
ATOM      2  C   UNL A   1      34.403  22.506  24.128  1.00  0.00     0.116 C 
BRANCH   2   3
ATOM      3  N   UNL A   1      33.235  21.683  24.380  1.00  0.00    -0.355 N 
ATOM      4  C   UNL A   1      32.285  21.742  25.361  1.00  0.00     0.230 C 
ATOM      5  O   UNL A   1      31.405  20.876  25.338  1.00  0.00    -0.274 OA
ATOM      6  H   UNL A   1      33.105  20.953  23.732  1.00  0.00     0.163 HD
BRANCH   4   7
ATOM      7  C   UNL A   1      32.216  22.895  26.340  1.00  0.00     0.178 C 
BRANCH   7   8
ATOM      8  S   UNL A   1      31.045  24.190  25.914  1.00  0.00    -0.078 SA
BRANCH   8   9
ATOM      9  C   UNL A   1      31.760  25.052  24.589  1.00  0.00     0.171 A 
ATOM     10  C   UNL A   1      32.668  25.205  20.149  1.00  0.00     0.071 C 
ATOM     11  C   UNL A   1      32.829  25.963  21.406  1.00  0.00     0.087 A 
ATOM     12  N   UNL A   1      33.448  27.156  21.399  1.00  0.00    -0.174 NA
ATOM     13  C   UNL A   1      32.431  25.651  22.705  1.00  0.00     0.132 A 
ATOM     14  N   UNL A   1      33.393  27.582  22.686  1.00  0.00    -0.250 N 
ATOM     15  C   UNL A   1      32.806  26.669  23.516  1.00  0.00     0.159 A 
ATOM     16  N   UNL A   1      31.796  24.645  23.336  1.00  0.00    -0.219 NA
ATOM     17  C   UNL A   1      33.947  28.889  22.944  1.00  0.00     0.176 C 
ATOM     18  N   UNL A   1      32.405  26.284  24.774  1.00  0.00    -0.295 N 
BRANCH  18  19
ATOM     19  C   UNL A   1      32.507  26.981  26.053  1.00  0.00     0.152 C 
ATOM     20  C   UNL A   1      33.917  27.494  26.415  1.00  0.00     0.093 C 
ATOM     21  C   UNL A   1      31.649  28.235  26.191  1.00  0.00     0.288 C 
ATOM     22  C   UNL A   1      33.798  29.006  26.514  1.00  0.00     0.264 C 
ATOM     23  N   UNL A   1      32.423  29.204  26.974  1.00  0.00    -0.336 N 
ATOM     24  C   UNL A   1      31.966  30.566  26.696  1.00  0.00     0.332 C 
ATOM     25  H   UNL A   1      32.325  29.072  27.980  1.00  0.00     0.347 HD
ENDBRANCH  18  19
ENDBRANCH   8   9
ENDBRANCH   7   8
ENDBRANCH   4   7
ENDBRANCH   2   3
ENDBRANCH   1   2
BRANCH   1  26
ATOM     26  C   UNL A   1      37.006  22.542  24.164  1.00  0.00     0.023 C 
BRANCH  26  27
ATOM     27  C   UNL A   1      37.570  23.146  25.443  1.00  0.00     0.116 C 
BRANCH  27  28
ATOM     28  N   UNL A   1      38.383  22.203  26.211  1.00  0.00    -0.352 N 
ATOM     29  C   UNL A   1      39.595  22.445  26.838  1.00  0.00     0.251 C 
ATOM     30  H   UNL A   1      38.027  21.289  26.293  1.00  0.00     0.163 HD
ATOM     31  O   UNL A   1      40.364  21.532  27.086  1.00  0.00    -0.269 OA
BRANCH  29  32
ATOM     32  C   UNL A   1      39.928  23.835  27.209  1.00  0.00     0.039 A 
ATOM     33  C   UNL A   1      38.976  24.858  27.166  1.00  0.00     0.014 A 
ATOM     34  C   UNL A   1      41.225  24.091  27.643  1.00  0.00     0.014 A 
ATOM     35  C   UNL A   1      39.323  26.119  27.649  1.00  0.00     0.010 A 
ATOM     36  C   UNL A   1      41.514  25.278  28.265  1.00  0.00     0.010 A 
ATOM     37  C   UNL A   1      40.591  26.317  28.223  1.00  0.00    -0.014 A 
BRANCH  37  38
ATOM     38  C   UNL A   1      40.906  27.545  28.957  1.00  0.00     0.031 A 
ATOM     39  C   UNL A   1      42.059  28.281  28.368  1.00  0.00     0.074 A 
ATOM     40  C   UNL A   1      40.075  28.083  29.883  1.00  0.00     0.049 A 
ATOM     41  N   UNL A   1      43.254  28.400  28.849  1.00  0.00    -0.248 NA
ATOM     42  C   UNL A   1      41.943  28.761  26.977  1.00  0.00     0.031 C 
ATOM     43  C   UNL A   1      38.749  27.580  30.273  1.00  0.00     0.029 A 
ATOM     44  N   UNL A   1      40.157  29.252  30.585  1.00  0.00    -0.354 N 
ATOM     45  C   UNL A   1      43.916  29.257  27.969  1.00  0.00     0.074 A 
ATOM     46  C   UNL A   1      43.183  29.194  26.737  1.00  0.00     0.031 C 
ATOM     47  C   UNL A   1      38.059  28.548  30.913  1.00  0.00     0.029 A 
ATOM     48  C   UNL A   1      38.948  29.669  31.150  1.00  0.00     0.049 A 
ATOM     49  H   UNL A   1      40.995  29.757  30.684  1.00  0.00     0.167 HD
ATOM     50  C   UNL A   1      44.737  30.230  28.460  1.00  0.00     0.037 A 
ATOM     51  C   UNL A   1      38.685  30.849  31.772  1.00  0.00     0.037 A 
ATOM     52  C   UNL A   1      45.033  29.962  29.848  1.00  0.00     0.049 A 
ATOM     53  C   UNL A   1      39.988  31.405  32.204  1.00  0.00     0.074 A 
ATOM     54  C   UNL A   1      45.748  29.033  30.568  1.00  0.00     0.029 A 
ATOM     55  N   UNL A   1      44.146  30.555  30.708  1.00  0.00    -0.354 N 
ATOM     56  N   UNL A   1      40.748  30.835  33.101  1.00  0.00    -0.248 NA
ATOM     57  C   UNL A   1      40.647  32.399  31.366  1.00  0.00     0.031 C 
ATOM     58  C   UNL A   1      45.136  28.976  31.857  1.00  0.00     0.029 A 
ATOM     59  C   UNL A   1      44.106  29.915  31.911  1.00  0.00     0.049 A 
ATOM     60  H   UNL A   1      43.603  31.346  30.484  1.00  0.00     0.167 HD
ATOM     61  C   UNL A   1      42.034  31.065  32.653  1.00  0.00     0.074 A 
ATOM     62  C   UNL A   1      41.919  32.163  31.700  1.00  0.00     0.031 C 
ATOM     63  C   UNL A   1      43.009  30.127  32.831  1.00  0.00     0.037 A 
BRANCH  50  64
ATOM     64  C   UNL A   1      44.795  31.672  27.945  1.00  0.00     0.058 A 
ATOM     65  C   UNL A   1      46.026  32.148  27.434  1.00  0.00     0.135 A 
ATOM     66  C   UNL A   1      43.845  32.677  28.234  1.00  0.00     0.135 A 
ATOM     67  F   UNL A   1      47.005  31.291  27.097  1.00  0.00    -0.206 F 
ATOM     68  C   UNL A   1      46.326  33.509  27.331  1.00  0.00     0.059 A 
ATOM     69  C   UNL A   1      44.110  34.036  28.102  1.00  0.00     0.059 A 
ATOM     70  F   UNL A   1      42.636  32.414  28.737  1.00  0.00    -0.206 F 
ATOM     71  C   UNL A   1      45.366  34.446  27.691  1.00  0.00     0.060 A 
BRANCH  71  72
ATOM     72  S   UNL A   1      45.769  36.200  27.654  1.00  0.00     0.124 S 
ATOM     73  O   UNL A   1      46.227  36.363  26.280  1.00  0.00    -0.237 OA
ATOM     74  O   UNL A   1      44.483  36.809  27.981  1.00  0.00    -0.237 OA
ATOM     75  O   UNL A   1      46.796  36.328  28.684  1.00  0.00    -0.744 OA
ENDBRANCH  71  72
ENDBRANCH  50  64
BRANCH  51  76
ATOM     76  C   UNL A   1      37.424  31.638  31.820  1.00  0.00     0.058 A 
ATOM     77  C   UNL A   1      36.812  31.988  33.039  1.00  0.00     0.135 A 
ATOM     78  C   UNL A   1      36.945  32.308  30.677  1.00  0.00     0.135 A 
ATOM     79  F   UNL A   1      37.213  31.413  34.183  1.00  0.00    -0.206 F 
ATOM     80  C   UNL A   1      35.820  32.975  33.126  1.00  0.00     0.059 A 
ATOM     81  C   UNL A   1      35.957  33.293  30.737  1.00  0.00     0.059 A 
ATOM     82  F   UNL A   1      37.492  32.083  29.472  1.00  0.00    -0.206 F 
ATOM     83  C   UNL A   1      35.413  33.638  31.970  1.00  0.00     0.060 A 
BRANCH  83  84
ATOM     84  S   UNL A   1      34.244  35.017  32.095  1.00  0.00     0.124 S 
ATOM     85  O   UNL A   1      33.122  34.399  32.793  1.00  0.00    -0.237 OA
ATOM     86  O   UNL A   1      35.003  36.001  32.856  1.00  0.00    -0.237 OA
ATOM     87  O   UNL A   1      33.988  35.372  30.701  1.00  0.00    -0.744 OA
ENDBRANCH  83  84
ENDBRANCH  51  76
BRANCH  63  88
ATOM     88  C   UNL A   1      42.874  29.181  33.984  1.00  0.00     0.058 A 
ATOM     89  C   UNL A   1      43.097  29.495  35.334  1.00  0.00     0.135 A 
ATOM     90  C   UNL A   1      42.387  27.897  33.690  1.00  0.00     0.135 A 
ATOM     91  F   UNL A   1      43.487  30.725  35.702  1.00  0.00    -0.206 F 
ATOM     92  C   UNL A   1      42.873  28.558  36.345  1.00  0.00     0.059 A 
ATOM     93  C   UNL A   1      42.126  26.961  34.680  1.00  0.00     0.059 A 
ATOM     94  F   UNL A   1      42.112  27.557  32.419  1.00  0.00    -0.206 F 
ATOM     95  C   UNL A   1      42.384  27.293  36.007  1.00  0.00     0.060 A 
BRANCH  95  96
ATOM     96  S   UNL A   1      42.031  26.099  37.313  1.00  0.00     0.124 S 
ATOM     97  O   UNL A   1      43.089  26.377  38.278  1.00  0.00    -0.237 OA
ATOM     98  O   UNL A   1      40.681  26.471  37.725  1.00  0.00    -0.237 OA
ATOM     99  O   UNL A   1      42.132  24.809  36.632  1.00  0.00    -0.744 OA
ENDBRANCH  95  96
ENDBRANCH  63  88
ENDBRANCH  37  38
ENDBRANCH  29  32
ENDBRANCH  27  28
ENDBRANCH  26  27
ENDBRANCH   1  26
TORSDOF 17
ENDMDL
