MODEL 1
REMARK VINA RESULT:     -12.9      0.000      0.000
REMARK SMILES CC(=O)N[C@H]1[C@@H](Oc2ccc(C)c(C)c2)O[C@H]2CO[C@H](c3ccco3)O[C@@H]2[C@H]1OCC(=O)NCCCCNC(=O)c1ccc(-c2c3nc(c(-c4c(F)cc(S(=O)(=O)[O-])cc4F)c4ccc([nH]4)c(-c4c(F)cc(S(=O)(=O)[O-])cc4F)c4nc(c(-c5c(F)cc(S(=O)(=O)[O-])cc5F)c5ccc2[nH]5)C=C4)C=C3)cc1
REMARK SMILES IDX 35 1 34 2 33 3 31 4 32 5 30 7 29 8 28 9 5 10 6 11 16 12
REMARK SMILES IDX 27 13 17 14 26 15 18 16 20 17 19 18 4 19 1 20 2 21 3 22 7 24
REMARK SMILES IDX 8 25 9 26 15 27 10 28 13 29 11 30 14 31 12 32 21 33 22 34
REMARK SMILES IDX 25 35 23 36 24 37 36 38 37 39 38 40 39 41 40 43 41 44 42 45
REMARK SMILES IDX 106 46 43 47 105 48 44 49 45 50 46 51 99 52 47 53 104 54
REMARK SMILES IDX 98 55 100 56 48 57 103 58 97 59 96 60 49 62 83 63 62 64
REMARK SMILES IDX 82 65 63 66 66 67 81 68 101 69 64 70 65 71 80 73 102 74
REMARK SMILES IDX 67 75 50 76 51 77 60 78 52 79 53 80 59 81 61 82 54 83 55 84
REMARK SMILES IDX 56 85 57 86 58 87 84 88 85 89 94 90 86 91 87 92 93 93 95 94
REMARK SMILES IDX 88 95 89 96 90 97 91 98 92 99 68 100 69 101 78 102 70 103
REMARK SMILES IDX 71 104 77 105 79 106 72 107 73 108 74 109 75 110 76 111
REMARK H PARENT 33 6 4 23 38 42 100 61 66 72
REMARK Flexibility Score: inf
ROOT
ATOM      1  C   UNL A   1      41.031  21.548  27.693  1.00  0.00     0.023 C 
ENDROOT
BRANCH   1   2
ATOM      2  C   UNL A   1      39.890  21.782  26.703  1.00  0.00     0.116 C 
BRANCH   2   3
ATOM      3  N   UNL A   1      39.244  23.056  26.931  1.00  0.00    -0.354 N 
ATOM      4  C   UNL A   1      38.139  23.589  26.338  1.00  0.00     0.246 C 
ATOM      5  O   UNL A   1      37.726  24.670  26.757  1.00  0.00    -0.272 OA
ATOM      6  H   UNL A   1      39.666  23.622  27.617  1.00  0.00     0.163 HD
BRANCH   4   7
ATOM      7  C   UNL A   1      37.364  22.784  25.283  1.00  0.00     0.260 C 
BRANCH   7   8
ATOM      8  O   UNL A   1      36.219  23.272  24.625  1.00  0.00    -0.363 OA
BRANCH   8   9
ATOM      9  C   UNL A   1      34.984  23.391  25.348  1.00  0.00     0.179 C 
ATOM     10  C   UNL A   1      34.396  24.749  24.821  1.00  0.00     0.182 C 
ATOM     11  C   UNL A   1      33.234  25.202  25.703  1.00  0.00     0.333 C 
ATOM     12  O   UNL A   1      32.186  24.178  25.678  1.00  0.00    -0.332 OA
ATOM     13  C   UNL A   1      33.884  22.380  25.044  1.00  0.00     0.184 C 
ATOM     14  C   UNL A   1      32.598  22.780  25.803  1.00  0.00     0.180 C 
ATOM     15  O   UNL A   1      34.156  20.988  25.179  1.00  0.00    -0.337 OA
ATOM     16  C   UNL A   1      31.490  21.835  25.262  1.00  0.00     0.199 C 
ATOM     17  C   UNL A   1      33.099  20.336  24.446  1.00  0.00     0.319 C 
ATOM     18  O   UNL A   1      31.885  20.454  25.187  1.00  0.00    -0.343 OA
BRANCH  10  19
ATOM     19  N   UNL A   1      34.067  24.486  23.365  1.00  0.00    -0.345 N 
ATOM     20  C   UNL A   1      33.530  26.714  22.222  1.00  0.00     0.114 C 
ATOM     21  C   UNL A   1      33.477  25.204  22.353  1.00  0.00     0.217 C 
ATOM     22  O   UNL A   1      32.922  24.547  21.465  1.00  0.00    -0.275 OA
ATOM     23  H   UNL A   1      34.344  23.587  23.075  1.00  0.00     0.164 HD
ENDBRANCH  10  19
BRANCH  11  24
ATOM     24  O   UNL A   1      32.789  26.617  25.561  1.00  0.00    -0.463 OA
BRANCH  24  25
ATOM     25  C   UNL A   1      33.184  27.775  26.197  1.00  0.00     0.123 A 
ATOM     26  C   UNL A   1      34.404  28.041  26.785  1.00  0.00     0.047 A 
ATOM     27  C   UNL A   1      32.314  28.878  26.215  1.00  0.00     0.050 A 
ATOM     28  C   UNL A   1      34.842  29.282  27.244  1.00  0.00     0.007 A 
ATOM     29  C   UNL A   1      32.700  30.164  26.746  1.00  0.00    -0.045 A 
ATOM     30  C   UNL A   1      33.998  30.367  27.245  1.00  0.00    -0.048 A 
ATOM     31  C   UNL A   1      31.710  31.298  26.735  1.00  0.00     0.045 C 
ATOM     32  C   UNL A   1      34.552  31.660  27.772  1.00  0.00     0.044 C 
ENDBRANCH  24  25
ENDBRANCH  11  24
BRANCH  17  33
ATOM     33  C   UNL A   1      33.394  18.917  24.110  1.00  0.00     0.159 A 
ATOM     34  C   UNL A   1      32.774  18.057  23.217  1.00  0.00     0.051 A 
ATOM     35  O   UNL A   1      34.535  18.339  24.579  1.00  0.00    -0.464 OA
ATOM     36  C   UNL A   1      33.566  16.887  23.161  1.00  0.00     0.042 A 
ATOM     37  C   UNL A   1      34.626  17.109  24.008  1.00  0.00     0.195 A 
ENDBRANCH  17  33
ENDBRANCH   8   9
ENDBRANCH   7   8
ENDBRANCH   4   7
ENDBRANCH   2   3
ENDBRANCH   1   2
BRANCH   1  38
ATOM     38  C   UNL A   1      42.407  21.988  27.192  1.00  0.00     0.023 C 
BRANCH  38  39
ATOM     39  C   UNL A   1      42.687  23.475  27.337  1.00  0.00     0.116 C 
BRANCH  39  40
ATOM     40  N   UNL A   1      42.292  24.228  26.158  1.00  0.00    -0.352 N 
ATOM     41  C   UNL A   1      41.714  25.476  26.084  1.00  0.00     0.251 C 
ATOM     42  H   UNL A   1      42.461  23.787  25.295  1.00  0.00     0.163 HD
ATOM     43  O   UNL A   1      41.282  25.889  25.020  1.00  0.00    -0.269 OA
BRANCH  41  44
ATOM     44  C   UNL A   1      41.599  26.289  27.316  1.00  0.00     0.039 A 
ATOM     45  C   UNL A   1      42.505  27.330  27.525  1.00  0.00     0.014 A 
ATOM     46  C   UNL A   1      40.580  26.041  28.238  1.00  0.00     0.014 A 
ATOM     47  C   UNL A   1      42.345  28.166  28.632  1.00  0.00     0.010 A 
ATOM     48  C   UNL A   1      40.369  26.928  29.287  1.00  0.00     0.010 A 
ATOM     49  C   UNL A   1      41.253  27.995  29.501  1.00  0.00    -0.014 A 
BRANCH  49  50
ATOM     50  C   UNL A   1      41.021  28.916  30.641  1.00  0.00     0.031 A 
ATOM     51  C   UNL A   1      41.868  28.812  31.880  1.00  0.00     0.074 A 
ATOM     52  C   UNL A   1      40.008  29.804  30.588  1.00  0.00     0.049 A 
ATOM     53  N   UNL A   1      41.788  29.487  32.998  1.00  0.00    -0.248 NA
ATOM     54  C   UNL A   1      42.930  27.792  31.870  1.00  0.00     0.031 C 
ATOM     55  C   UNL A   1      39.091  29.973  29.460  1.00  0.00     0.029 A 
ATOM     56  N   UNL A   1      39.578  30.727  31.507  1.00  0.00    -0.354 N 
ATOM     57  C   UNL A   1      42.779  28.971  33.823  1.00  0.00     0.074 A 
ATOM     58  C   UNL A   1      43.398  27.878  33.106  1.00  0.00     0.031 C 
ATOM     59  C   UNL A   1      38.234  30.969  29.736  1.00  0.00     0.029 A 
ATOM     60  C   UNL A   1      38.509  31.476  31.077  1.00  0.00     0.049 A 
ATOM     61  H   UNL A   1      39.998  30.844  32.390  1.00  0.00     0.167 HD
ATOM     62  C   UNL A   1      43.161  29.387  35.055  1.00  0.00     0.037 A 
ATOM     63  C   UNL A   1      37.824  32.460  31.694  1.00  0.00     0.037 A 
ATOM     64  C   UNL A   1      42.539  30.477  35.762  1.00  0.00     0.049 A 
ATOM     65  C   UNL A   1      38.235  32.879  33.079  1.00  0.00     0.074 A 
ATOM     66  C   UNL A   1      42.872  31.005  36.996  1.00  0.00     0.029 A 
ATOM     67  N   UNL A   1      41.448  31.201  35.299  1.00  0.00    -0.354 N 
ATOM     68  N   UNL A   1      39.214  32.421  33.824  1.00  0.00    -0.248 NA
ATOM     69  C   UNL A   1      37.450  33.949  33.707  1.00  0.00     0.031 C 
ATOM     70  C   UNL A   1      41.948  32.009  37.305  1.00  0.00     0.029 A 
ATOM     71  C   UNL A   1      41.077  32.152  36.237  1.00  0.00     0.049 A 
ATOM     72  H   UNL A   1      41.003  31.059  34.433  1.00  0.00     0.167 HD
ATOM     73  C   UNL A   1      39.184  33.172  34.995  1.00  0.00     0.074 A 
ATOM     74  C   UNL A   1      38.094  34.116  34.855  1.00  0.00     0.031 C 
ATOM     75  C   UNL A   1      39.989  33.088  36.084  1.00  0.00     0.037 A 
BRANCH  62  76
ATOM     76  C   UNL A   1      44.297  28.646  35.712  1.00  0.00     0.058 A 
ATOM     77  C   UNL A   1      44.071  27.556  36.570  1.00  0.00     0.135 A 
ATOM     78  C   UNL A   1      45.628  29.037  35.496  1.00  0.00     0.135 A 
ATOM     79  F   UNL A   1      42.818  27.143  36.825  1.00  0.00    -0.206 F 
ATOM     80  C   UNL A   1      45.115  26.922  37.236  1.00  0.00     0.059 A 
ATOM     81  C   UNL A   1      46.691  28.393  36.122  1.00  0.00     0.059 A 
ATOM     82  F   UNL A   1      45.906  30.067  34.681  1.00  0.00    -0.206 F 
ATOM     83  C   UNL A   1      46.422  27.354  37.011  1.00  0.00     0.060 A 
BRANCH  83  84
ATOM     84  S   UNL A   1      47.762  26.551  37.915  1.00  0.00     0.124 S 
ATOM     85  O   UNL A   1      47.768  25.224  37.306  1.00  0.00    -0.237 OA
ATOM     86  O   UNL A   1      48.907  27.398  37.595  1.00  0.00    -0.237 OA
ATOM     87  O   UNL A   1      47.316  26.602  39.302  1.00  0.00    -0.744 OA
ENDBRANCH  83  84
ENDBRANCH  62  76
BRANCH  63  88
ATOM     88  C   UNL A   1      36.713  33.145  30.983  1.00  0.00     0.058 A 
ATOM     89  C   UNL A   1      35.379  32.920  31.354  1.00  0.00     0.135 A 
ATOM     90  C   UNL A   1      36.957  34.066  29.951  1.00  0.00     0.135 A 
ATOM     91  F   UNL A   1      35.095  32.043  32.329  1.00  0.00    -0.206 F 
ATOM     92  C   UNL A   1      34.326  33.576  30.727  1.00  0.00     0.059 A 
ATOM     93  C   UNL A   1      35.922  34.754  29.326  1.00  0.00     0.059 A 
ATOM     94  F   UNL A   1      38.216  34.329  29.568  1.00  0.00    -0.206 F 
ATOM     95  C   UNL A   1      34.609  34.500  29.720  1.00  0.00     0.060 A 
BRANCH  95  96
ATOM     96  S   UNL A   1      33.235  35.400  28.967  1.00  0.00     0.124 S 
ATOM     97  O   UNL A   1      33.939  36.414  28.189  1.00  0.00    -0.237 OA
ATOM     98  O   UNL A   1      32.570  34.352  28.200  1.00  0.00    -0.237 OA
ATOM     99  O   UNL A   1      32.487  35.895  30.119  1.00  0.00    -0.744 OA
ENDBRANCH  95  96
ENDBRANCH  63  88
BRANCH  75 100
ATOM    100  C   UNL A   1      39.749  34.070  37.201  1.00  0.00     0.058 A 
ATOM    101  C   UNL A   1      38.922  33.764  38.293  1.00  0.00     0.135 A 
ATOM    102  C   UNL A   1      40.400  35.315  37.202  1.00  0.00     0.135 A 
ATOM    103  F   UNL A   1      38.269  32.592  38.341  1.00  0.00    -0.206 F 
ATOM    104  C   UNL A   1      38.730  34.667  39.334  1.00  0.00     0.059 A 
ATOM    105  C   UNL A   1      40.248  36.219  38.248  1.00  0.00     0.059 A 
ATOM    106  F   UNL A   1      41.211  35.655  36.187  1.00  0.00    -0.206 F 
ATOM    107  C   UNL A   1      39.401  35.892  39.305  1.00  0.00     0.060 A 
BRANCH 107 108
ATOM    108  S   UNL A   1      39.171  37.037  40.680  1.00  0.00     0.124 S 
ATOM    109  O   UNL A   1      38.265  38.021  40.097  1.00  0.00    -0.237 OA
ATOM    110  O   UNL A   1      38.596  36.176  41.709  1.00  0.00    -0.237 OA
ATOM    111  O   UNL A   1      40.523  37.515  40.955  1.00  0.00    -0.744 OA
ENDBRANCH 107 108
ENDBRANCH  75 100
ENDBRANCH  49  50
ENDBRANCH  41  44
ENDBRANCH  39  40
ENDBRANCH  38  39
ENDBRANCH   1  38
TORSDOF 20
ENDMDL
MODEL 2
REMARK VINA RESULT:     -12.3      0.546      7.778
REMARK SMILES CC(=O)N[C@H]1[C@@H](Oc2ccc(C)c(C)c2)O[C@H]2CO[C@H](c3ccco3)O[C@@H]2[C@H]1OCC(=O)NCCCCNC(=O)c1ccc(-c2c3nc(c(-c4c(F)cc(S(=O)(=O)[O-])cc4F)c4ccc([nH]4)c(-c4c(F)cc(S(=O)(=O)[O-])cc4F)c4nc(c(-c5c(F)cc(S(=O)(=O)[O-])cc5F)c5ccc2[nH]5)C=C4)C=C3)cc1
REMARK SMILES IDX 35 1 34 2 33 3 31 4 32 5 30 7 29 8 28 9 5 10 6 11 16 12
REMARK SMILES IDX 27 13 17 14 26 15 18 16 20 17 19 18 4 19 1 20 2 21 3 22 7 24
REMARK SMILES IDX 8 25 9 26 15 27 10 28 13 29 11 30 14 31 12 32 21 33 22 34
REMARK SMILES IDX 25 35 23 36 24 37 36 38 37 39 38 40 39 41 40 43 41 44 42 45
REMARK SMILES IDX 106 46 43 47 105 48 44 49 45 50 46 51 99 52 47 53 104 54
REMARK SMILES IDX 98 55 100 56 48 57 103 58 97 59 96 60 49 62 83 63 62 64
REMARK SMILES IDX 82 65 63 66 66 67 81 68 101 69 64 70 65 71 80 73 102 74
REMARK SMILES IDX 67 75 50 76 51 77 60 78 52 79 53 80 59 81 61 82 54 83 55 84
REMARK SMILES IDX 56 85 57 86 58 87 84 88 85 89 94 90 86 91 87 92 93 93 95 94
REMARK SMILES IDX 88 95 89 96 90 97 91 98 92 99 68 100 69 101 78 102 70 103
REMARK SMILES IDX 71 104 77 105 79 106 72 107 73 108 74 109 75 110 76 111
REMARK H PARENT 33 6 4 23 38 42 100 61 66 72
REMARK Flexibility Score: inf
ROOT
ATOM      1  C   UNL A   1      41.372  21.548  27.790  1.00  0.00     0.023 C 
ENDROOT
BRANCH   1   2
ATOM      2  C   UNL A   1      40.132  21.646  26.902  1.00  0.00     0.116 C 
BRANCH   2   3
ATOM      3  N   UNL A   1      39.572  22.980  26.918  1.00  0.00    -0.354 N 
ATOM      4  C   UNL A   1      38.398  23.436  26.398  1.00  0.00     0.246 C 
ATOM      5  O   UNL A   1      38.094  24.611  26.608  1.00  0.00    -0.272 OA
ATOM      6  H   UNL A   1      40.121  23.658  27.373  1.00  0.00     0.163 HD
BRANCH   4   7
ATOM      7  C   UNL A   1      37.430  22.465  25.704  1.00  0.00     0.260 C 
BRANCH   7   8
ATOM      8  O   UNL A   1      36.344  22.887  24.915  1.00  0.00    -0.363 OA
BRANCH   8   9
ATOM      9  C   UNL A   1      35.058  23.077  25.525  1.00  0.00     0.179 C 
ATOM     10  C   UNL A   1      34.550  24.411  24.871  1.00  0.00     0.182 C 
ATOM     11  C   UNL A   1      33.331  24.941  25.625  1.00  0.00     0.333 C 
ATOM     12  O   UNL A   1      32.263  23.939  25.574  1.00  0.00    -0.332 OA
ATOM     13  C   UNL A   1      33.960  22.071  25.191  1.00  0.00     0.184 C 
ATOM     14  C   UNL A   1      32.628  22.544  25.815  1.00  0.00     0.180 C 
ATOM     15  O   UNL A   1      34.185  20.685  25.430  1.00  0.00    -0.337 OA
ATOM     16  C   UNL A   1      31.543  21.591  25.240  1.00  0.00     0.199 C 
ATOM     17  C   UNL A   1      33.175  20.011  24.651  1.00  0.00     0.319 C 
ATOM     18  O   UNL A   1      31.907  20.200  25.280  1.00  0.00    -0.343 OA
BRANCH  10  19
ATOM     19  N   UNL A   1      34.334  24.067  23.411  1.00  0.00    -0.345 N 
ATOM     20  C   UNL A   1      33.309  26.092  22.225  1.00  0.00     0.114 C 
ATOM     21  C   UNL A   1      33.617  24.614  22.374  1.00  0.00     0.217 C 
ATOM     22  O   UNL A   1      33.261  23.837  21.482  1.00  0.00    -0.275 OA
ATOM     23  H   UNL A   1      34.827  23.259  23.140  1.00  0.00     0.164 HD
ENDBRANCH  10  19
BRANCH  11  24
ATOM     24  O   UNL A   1      32.936  26.354  25.363  1.00  0.00    -0.463 OA
BRANCH  24  25
ATOM     25  C   UNL A   1      33.254  27.533  26.002  1.00  0.00     0.123 A 
ATOM     26  C   UNL A   1      34.440  27.861  26.628  1.00  0.00     0.047 A 
ATOM     27  C   UNL A   1      32.331  28.593  25.985  1.00  0.00     0.050 A 
ATOM     28  C   UNL A   1      34.803  29.125  27.092  1.00  0.00     0.007 A 
ATOM     29  C   UNL A   1      32.638  29.899  26.519  1.00  0.00    -0.045 A 
ATOM     30  C   UNL A   1      33.908  30.168  27.057  1.00  0.00    -0.048 A 
ATOM     31  C   UNL A   1      31.596  30.984  26.468  1.00  0.00     0.045 C 
ATOM     32  C   UNL A   1      34.382  31.488  27.593  1.00  0.00     0.044 C 
ENDBRANCH  24  25
ENDBRANCH  11  24
BRANCH  17  33
ATOM     33  C   UNL A   1      33.459  18.569  24.426  1.00  0.00     0.159 A 
ATOM     34  C   UNL A   1      34.660  17.914  24.198  1.00  0.00     0.051 A 
ATOM     35  O   UNL A   1      32.472  17.651  24.622  1.00  0.00    -0.464 OA
ATOM     36  C   UNL A   1      34.382  16.528  24.233  1.00  0.00     0.042 A 
ATOM     37  C   UNL A   1      33.036  16.421  24.493  1.00  0.00     0.195 A 
ENDBRANCH  17  33
ENDBRANCH   8   9
ENDBRANCH   7   8
ENDBRANCH   4   7
ENDBRANCH   2   3
ENDBRANCH   1   2
BRANCH   1  38
ATOM     38  C   UNL A   1      42.597  22.290  27.254  1.00  0.00     0.023 C 
BRANCH  38  39
ATOM     39  C   UNL A   1      42.563  23.797  27.459  1.00  0.00     0.116 C 
BRANCH  39  40
ATOM     40  N   UNL A   1      42.523  24.523  26.200  1.00  0.00    -0.352 N 
ATOM     41  C   UNL A   1      42.068  25.798  25.952  1.00  0.00     0.251 C 
ATOM     42  H   UNL A   1      42.871  24.037  25.417  1.00  0.00     0.163 HD
ATOM     43  O   UNL A   1      41.941  26.192  24.805  1.00  0.00    -0.269 OA
BRANCH  41  44
ATOM     44  C   UNL A   1      41.707  26.666  27.096  1.00  0.00     0.039 A 
ATOM     45  C   UNL A   1      40.816  26.183  28.056  1.00  0.00     0.014 A 
ATOM     46  C   UNL A   1      42.275  27.934  27.232  1.00  0.00     0.014 A 
ATOM     47  C   UNL A   1      40.546  26.953  29.190  1.00  0.00     0.010 A 
ATOM     48  C   UNL A   1      42.076  28.657  28.403  1.00  0.00     0.010 A 
ATOM     49  C   UNL A   1      41.204  28.178  29.390  1.00  0.00    -0.014 A 
BRANCH  49  50
ATOM     50  C   UNL A   1      40.990  28.978  30.622  1.00  0.00     0.031 A 
ATOM     51  C   UNL A   1      39.895  30.009  30.672  1.00  0.00     0.074 A 
ATOM     52  C   UNL A   1      41.819  28.822  31.674  1.00  0.00     0.049 A 
ATOM     53  N   UNL A   1      39.583  30.840  31.633  1.00  0.00    -0.248 NA
ATOM     54  C   UNL A   1      39.057  30.141  29.469  1.00  0.00     0.031 C 
ATOM     55  C   UNL A   1      42.942  27.885  31.733  1.00  0.00     0.029 A 
ATOM     56  N   UNL A   1      41.847  29.451  32.893  1.00  0.00    -0.354 N 
ATOM     57  C   UNL A   1      38.522  31.596  31.149  1.00  0.00     0.074 A 
ATOM     58  C   UNL A   1      38.293  31.175  29.785  1.00  0.00     0.031 C 
ATOM     59  C   UNL A   1      43.523  27.970  32.940  1.00  0.00     0.029 A 
ATOM     60  C   UNL A   1      42.846  29.000  33.723  1.00  0.00     0.049 A 
ATOM     61  H   UNL A   1      41.210  30.156  33.149  1.00  0.00     0.167 HD
ATOM     62  C   UNL A   1      37.785  32.535  31.791  1.00  0.00     0.037 A 
ATOM     63  C   UNL A   1      43.181  29.375  34.973  1.00  0.00     0.037 A 
ATOM     64  C   UNL A   1      38.020  32.947  33.151  1.00  0.00     0.049 A 
ATOM     65  C   UNL A   1      42.377  30.450  35.654  1.00  0.00     0.074 A 
ATOM     66  C   UNL A   1      37.310  33.860  33.909  1.00  0.00     0.029 A 
ATOM     67  N   UNL A   1      39.052  32.479  33.954  1.00  0.00    -0.354 N 
ATOM     68  N   UNL A   1      41.338  31.114  35.205  1.00  0.00    -0.248 NA
ATOM     69  C   UNL A   1      42.791  30.825  37.012  1.00  0.00     0.031 C 
ATOM     70  C   UNL A   1      37.945  33.986  35.149  1.00  0.00     0.029 A 
ATOM     71  C   UNL A   1      39.014  33.105  35.189  1.00  0.00     0.049 A 
ATOM     72  H   UNL A   1      39.713  31.801  33.684  1.00  0.00     0.167 HD
ATOM     73  C   UNL A   1      40.952  31.962  36.239  1.00  0.00     0.074 A 
ATOM     74  C   UNL A   1      41.867  31.720  37.337  1.00  0.00     0.031 C 
ATOM     75  C   UNL A   1      39.931  32.854  36.276  1.00  0.00     0.037 A 
BRANCH  62  76
ATOM     76  C   UNL A   1      36.666  33.181  31.016  1.00  0.00     0.058 A 
ATOM     77  C   UNL A   1      36.916  34.108  29.990  1.00  0.00     0.135 A 
ATOM     78  C   UNL A   1      35.325  32.885  31.312  1.00  0.00     0.135 A 
ATOM     79  F   UNL A   1      38.177  34.440  29.670  1.00  0.00    -0.206 F 
ATOM     80  C   UNL A   1      35.881  34.761  29.327  1.00  0.00     0.059 A 
ATOM     81  C   UNL A   1      34.274  33.499  30.636  1.00  0.00     0.059 A 
ATOM     82  F   UNL A   1      35.025  32.003  32.278  1.00  0.00    -0.206 F 
ATOM     83  C   UNL A   1      34.562  34.455  29.665  1.00  0.00     0.060 A 
BRANCH  83  84
ATOM     84  S   UNL A   1      33.232  35.343  28.828  1.00  0.00     0.124 S 
ATOM     85  O   UNL A   1      33.984  36.286  28.007  1.00  0.00    -0.237 OA
ATOM     86  O   UNL A   1      32.553  34.275  28.101  1.00  0.00    -0.237 OA
ATOM     87  O   UNL A   1      32.473  35.932  29.925  1.00  0.00    -0.744 OA
ENDBRANCH  83  84
ENDBRANCH  62  76
BRANCH  63  88
ATOM     88  C   UNL A   1      44.299  28.692  35.675  1.00  0.00     0.058 A 
ATOM     89  C   UNL A   1      45.597  29.224  35.639  1.00  0.00     0.135 A 
ATOM     90  C   UNL A   1      44.092  27.524  36.427  1.00  0.00     0.135 A 
ATOM     91  F   UNL A   1      45.847  30.333  34.928  1.00  0.00    -0.206 F 
ATOM     92  C   UNL A   1      46.651  28.621  36.317  1.00  0.00     0.059 A 
ATOM     93  C   UNL A   1      45.125  26.918  37.134  1.00  0.00     0.059 A 
ATOM     94  F   UNL A   1      42.866  26.984  36.506  1.00  0.00    -0.206 F 
ATOM     95  C   UNL A   1      46.403  27.473  37.071  1.00  0.00     0.060 A 
BRANCH  95  96
ATOM     96  S   UNL A   1      47.766  26.746  38.007  1.00  0.00     0.124 S 
ATOM     97  O   UNL A   1      47.378  27.054  39.378  1.00  0.00    -0.237 OA
ATOM     98  O   UNL A   1      47.684  25.341  37.619  1.00  0.00    -0.237 OA
ATOM     99  O   UNL A   1      48.936  27.460  37.505  1.00  0.00    -0.744 OA
ENDBRANCH  95  96
ENDBRANCH  63  88
BRANCH  75 100
ATOM    100  C   UNL A   1      39.719  33.613  37.559  1.00  0.00     0.058 A 
ATOM    101  C   UNL A   1      40.398  34.811  37.833  1.00  0.00     0.135 A 
ATOM    102  C   UNL A   1      38.783  33.162  38.503  1.00  0.00     0.135 A 
ATOM    103  F   UNL A   1      41.310  35.286  36.970  1.00  0.00    -0.206 F 
ATOM    104  C   UNL A   1      40.174  35.520  39.009  1.00  0.00     0.059 A 
ATOM    105  C   UNL A   1      38.520  33.871  39.670  1.00  0.00     0.059 A 
ATOM    106  F   UNL A   1      38.098  32.026  38.287  1.00  0.00    -0.206 F 
ATOM    107  C   UNL A   1      39.230  35.044  39.921  1.00  0.00     0.060 A 
BRANCH 107 108
ATOM    108  S   UNL A   1      38.922  35.994  41.424  1.00  0.00     0.124 S 
ATOM    109  O   UNL A   1      37.659  35.424  41.880  1.00  0.00    -0.237 OA
ATOM    110  O   UNL A   1      40.092  35.678  42.237  1.00  0.00    -0.237 OA
ATOM    111  O   UNL A   1      38.852  37.373  40.947  1.00  0.00    -0.744 OA
ENDBRANCH 107 108
ENDBRANCH  75 100
ENDBRANCH  49  50
ENDBRANCH  41  44
ENDBRANCH  39  40
ENDBRANCH  38  39
ENDBRANCH   1  38
TORSDOF 20
ENDMDL
MODEL 3
REMARK VINA RESULT:     -12.3      2.598      9.406
REMARK SMILES CC(=O)N[C@H]1[C@@H](Oc2ccc(C)c(C)c2)O[C@H]2CO[C@H](c3ccco3)O[C@@H]2[C@H]1OCC(=O)NCCCCNC(=O)c1ccc(-c2c3nc(c(-c4c(F)cc(S(=O)(=O)[O-])cc4F)c4ccc([nH]4)c(-c4c(F)cc(S(=O)(=O)[O-])cc4F)c4nc(c(-c5c(F)cc(S(=O)(=O)[O-])cc5F)c5ccc2[nH]5)C=C4)C=C3)cc1
REMARK SMILES IDX 35 1 34 2 33 3 31 4 32 5 30 7 29 8 28 9 5 10 6 11 16 12
REMARK SMILES IDX 27 13 17 14 26 15 18 16 20 17 19 18 4 19 1 20 2 21 3 22 7 24
REMARK SMILES IDX 8 25 9 26 15 27 10 28 13 29 11 30 14 31 12 32 21 33 22 34
REMARK SMILES IDX 25 35 23 36 24 37 36 38 37 39 38 40 39 41 40 43 41 44 42 45
REMARK SMILES IDX 106 46 43 47 105 48 44 49 45 50 46 51 99 52 47 53 104 54
REMARK SMILES IDX 98 55 100 56 48 57 103 58 97 59 96 60 49 62 83 63 62 64
REMARK SMILES IDX 82 65 63 66 66 67 81 68 101 69 64 70 65 71 80 73 102 74
REMARK SMILES IDX 67 75 50 76 51 77 60 78 52 79 53 80 59 81 61 82 54 83 55 84
REMARK SMILES IDX 56 85 57 86 58 87 84 88 85 89 94 90 86 91 87 92 93 93 95 94
REMARK SMILES IDX 88 95 89 96 90 97 91 98 92 99 68 100 69 101 78 102 70 103
REMARK SMILES IDX 71 104 77 105 79 106 72 107 73 108 74 109 75 110 76 111
REMARK H PARENT 33 6 4 23 38 42 100 61 66 72
REMARK Flexibility Score: inf
ROOT
ATOM      1  C   UNL A   1      34.599  33.340  28.306  1.00  0.00     0.023 C 
ENDROOT
BRANCH   1   2
ATOM      2  C   UNL A   1      34.444  31.848  28.014  1.00  0.00     0.116 C 
BRANCH   2   3
ATOM      3  N   UNL A   1      33.138  31.547  27.467  1.00  0.00    -0.354 N 
ATOM      4  C   UNL A   1      32.614  30.352  27.075  1.00  0.00     0.246 C 
ATOM      5  O   UNL A   1      31.439  30.332  26.709  1.00  0.00    -0.272 OA
ATOM      6  H   UNL A   1      32.540  32.322  27.363  1.00  0.00     0.163 HD
BRANCH   4   7
ATOM      7  C   UNL A   1      33.433  29.061  27.230  1.00  0.00     0.260 C 
BRANCH   7   8
ATOM      8  O   UNL A   1      32.996  27.807  26.761  1.00  0.00    -0.363 OA
BRANCH   8   9
ATOM      9  C   UNL A   1      33.384  27.368  25.450  1.00  0.00     0.179 C 
ATOM     10  C   UNL A   1      33.653  25.834  25.655  1.00  0.00     0.182 C 
ATOM     11  C   UNL A   1      34.375  25.256  24.440  1.00  0.00     0.333 C 
ATOM     12  O   UNL A   1      33.541  25.446  23.250  1.00  0.00    -0.332 OA
ATOM     13  C   UNL A   1      32.328  27.405  24.349  1.00  0.00     0.184 C 
ATOM     14  C   UNL A   1      32.899  26.748  23.072  1.00  0.00     0.180 C 
ATOM     15  O   UNL A   1      31.669  28.633  24.053  1.00  0.00    -0.337 OA
ATOM     16  C   UNL A   1      31.695  26.631  22.096  1.00  0.00     0.199 C 
ATOM     17  C   UNL A   1      30.498  28.247  23.305  1.00  0.00     0.319 C 
ATOM     18  O   UNL A   1      30.902  27.828  22.002  1.00  0.00    -0.343 OA
BRANCH  10  19
ATOM     19  N   UNL A   1      32.292  25.244  25.968  1.00  0.00    -0.345 N 
ATOM     20  C   UNL A   1      32.612  23.115  27.353  1.00  0.00     0.114 C 
ATOM     21  C   UNL A   1      31.837  24.032  26.428  1.00  0.00     0.217 C 
ATOM     22  O   UNL A   1      30.687  23.718  26.102  1.00  0.00    -0.275 OA
ATOM     23  H   UNL A   1      31.561  25.881  25.804  1.00  0.00     0.164 HD
ENDBRANCH  10  19
BRANCH  11  24
ATOM     24  O   UNL A   1      35.009  23.916  24.605  1.00  0.00    -0.463 OA
BRANCH  24  25
ATOM     25  C   UNL A   1      34.529  22.640  24.408  1.00  0.00     0.123 A 
ATOM     26  C   UNL A   1      34.878  21.492  25.089  1.00  0.00     0.047 A 
ATOM     27  C   UNL A   1      33.506  22.429  23.467  1.00  0.00     0.050 A 
ATOM     28  C   UNL A   1      34.237  20.257  25.003  1.00  0.00     0.007 A 
ATOM     29  C   UNL A   1      32.862  21.149  23.291  1.00  0.00    -0.045 A 
ATOM     30  C   UNL A   1      33.224  20.055  24.096  1.00  0.00    -0.048 A 
ATOM     31  C   UNL A   1      31.778  21.000  22.259  1.00  0.00     0.045 C 
ATOM     32  C   UNL A   1      32.603  18.688  24.064  1.00  0.00     0.044 C 
ENDBRANCH  24  25
ENDBRANCH  11  24
BRANCH  17  33
ATOM     33  C   UNL A   1      29.459  29.309  23.235  1.00  0.00     0.159 A 
ATOM     34  C   UNL A   1      29.474  30.614  23.702  1.00  0.00     0.051 A 
ATOM     35  O   UNL A   1      28.352  29.116  22.464  1.00  0.00    -0.464 OA
ATOM     36  C   UNL A   1      28.304  31.237  23.210  1.00  0.00     0.042 A 
ATOM     37  C   UNL A   1      27.655  30.283  22.463  1.00  0.00     0.195 A 
ENDBRANCH  17  33
ENDBRANCH   8   9
ENDBRANCH   7   8
ENDBRANCH   4   7
ENDBRANCH   2   3
ENDBRANCH   1   2
BRANCH   1  38
ATOM     38  C   UNL A   1      33.280  34.108  28.405  1.00  0.00     0.023 C 
BRANCH  38  39
ATOM     39  C   UNL A   1      33.430  35.577  28.771  1.00  0.00     0.116 C 
BRANCH  39  40
ATOM     40  N   UNL A   1      32.682  35.926  29.968  1.00  0.00    -0.352 N 
ATOM     41  C   UNL A   1      32.875  35.497  31.262  1.00  0.00     0.251 C 
ATOM     42  H   UNL A   1      31.938  36.555  29.836  1.00  0.00     0.163 HD
ATOM     43  O   UNL A   1      32.046  35.749  32.121  1.00  0.00    -0.269 OA
BRANCH  41  44
ATOM     44  C   UNL A   1      34.083  34.703  31.583  1.00  0.00     0.039 A 
ATOM     45  C   UNL A   1      35.338  35.296  31.442  1.00  0.00     0.014 A 
ATOM     46  C   UNL A   1      33.967  33.394  32.054  1.00  0.00     0.014 A 
ATOM     47  C   UNL A   1      36.477  34.592  31.837  1.00  0.00     0.010 A 
ATOM     48  C   UNL A   1      35.092  32.731  32.531  1.00  0.00     0.010 A 
ATOM     49  C   UNL A   1      36.360  33.319  32.420  1.00  0.00    -0.014 A 
BRANCH  49  50
ATOM     50  C   UNL A   1      37.550  32.583  32.916  1.00  0.00     0.031 A 
ATOM     51  C   UNL A   1      38.176  32.959  34.231  1.00  0.00     0.074 A 
ATOM     52  C   UNL A   1      38.104  31.618  32.154  1.00  0.00     0.049 A 
ATOM     53  N   UNL A   1      39.245  32.472  34.808  1.00  0.00    -0.248 NA
ATOM     54  C   UNL A   1      37.530  34.046  34.983  1.00  0.00     0.031 C 
ATOM     55  C   UNL A   1      37.614  31.190  30.843  1.00  0.00     0.029 A 
ATOM     56  N   UNL A   1      39.203  30.826  32.373  1.00  0.00    -0.354 N 
ATOM     57  C   UNL A   1      39.402  33.197  35.984  1.00  0.00     0.074 A 
ATOM     58  C   UNL A   1      38.364  34.203  36.000  1.00  0.00     0.031 C 
ATOM     59  C   UNL A   1      38.383  30.187  30.392  1.00  0.00     0.029 A 
ATOM     60  C   UNL A   1      39.448  29.932  31.358  1.00  0.00     0.049 A 
ATOM     61  H   UNL A   1      39.762  30.892  33.180  1.00  0.00     0.167 HD
ATOM     62  C   UNL A   1      40.310  33.023  36.974  1.00  0.00     0.037 A 
ATOM     63  C   UNL A   1      40.422  29.011  31.220  1.00  0.00     0.037 A 
ATOM     64  C   UNL A   1      41.340  32.016  36.950  1.00  0.00     0.049 A 
ATOM     65  C   UNL A   1      41.447  28.861  32.311  1.00  0.00     0.074 A 
ATOM     66  C   UNL A   1      42.286  31.728  37.917  1.00  0.00     0.029 A 
ATOM     67  N   UNL A   1      41.566  31.139  35.897  1.00  0.00    -0.354 N 
ATOM     68  N   UNL A   1      41.548  29.513  33.445  1.00  0.00    -0.248 NA
ATOM     69  C   UNL A   1      42.490  27.848  32.105  1.00  0.00     0.031 C 
ATOM     70  C   UNL A   1      43.118  30.716  37.426  1.00  0.00     0.029 A 
ATOM     71  C   UNL A   1      42.654  30.328  36.180  1.00  0.00     0.049 A 
ATOM     72  H   UNL A   1      41.032  31.099  35.072  1.00  0.00     0.167 HD
ATOM     73  C   UNL A   1      42.644  28.966  34.103  1.00  0.00     0.074 A 
ATOM     74  C   UNL A   1      43.169  27.925  33.242  1.00  0.00     0.031 C 
ATOM     75  C   UNL A   1      43.166  29.294  35.312  1.00  0.00     0.037 A 
BRANCH  62  76
ATOM     76  C   UNL A   1      40.226  33.952  38.157  1.00  0.00     0.058 A 
ATOM     77  C   UNL A   1      39.359  33.701  39.235  1.00  0.00     0.135 A 
ATOM     78  C   UNL A   1      41.007  35.118  38.210  1.00  0.00     0.135 A 
ATOM     79  F   UNL A   1      38.578  32.609  39.235  1.00  0.00    -0.206 F 
ATOM     80  C   UNL A   1      39.227  34.599  40.290  1.00  0.00     0.059 A 
ATOM     81  C   UNL A   1      40.918  36.012  39.273  1.00  0.00     0.059 A 
ATOM     82  F   UNL A   1      41.857  35.408  37.212  1.00  0.00    -0.206 F 
ATOM     83  C   UNL A   1      40.005  35.757  40.295  1.00  0.00     0.060 A 
BRANCH  83  84
ATOM     84  S   UNL A   1      39.789  36.933  41.646  1.00  0.00     0.124 S 
ATOM     85  O   UNL A   1      38.904  36.190  42.538  1.00  0.00    -0.237 OA
ATOM     86  O   UNL A   1      41.157  37.116  42.122  1.00  0.00    -0.237 OA
ATOM     87  O   UNL A   1      39.194  38.094  40.996  1.00  0.00    -0.744 OA
ENDBRANCH  83  84
ENDBRANCH  62  76
BRANCH  63  88
ATOM     88  C   UNL A   1      40.441  28.129  30.023  1.00  0.00     0.058 A 
ATOM     89  C   UNL A   1      41.389  28.321  29.008  1.00  0.00     0.135 A 
ATOM     90  C   UNL A   1      39.546  27.056  29.886  1.00  0.00     0.135 A 
ATOM     91  F   UNL A   1      42.261  29.337  29.089  1.00  0.00    -0.206 F 
ATOM     92  C   UNL A   1      41.448  27.486  27.897  1.00  0.00     0.059 A 
ATOM     93  C   UNL A   1      39.601  26.192  28.796  1.00  0.00     0.059 A 
ATOM     94  F   UNL A   1      38.629  26.819  30.837  1.00  0.00    -0.206 F 
ATOM     95  C   UNL A   1      40.555  26.418  27.805  1.00  0.00     0.060 A 
BRANCH  95  96
ATOM     96  S   UNL A   1      40.693  25.299  26.394  1.00  0.00     0.124 S 
ATOM     97  O   UNL A   1      39.324  24.813  26.268  1.00  0.00    -0.237 OA
ATOM     98  O   UNL A   1      41.153  26.196  25.339  1.00  0.00    -0.237 OA
ATOM     99  O   UNL A   1      41.674  24.315  26.841  1.00  0.00    -0.744 OA
ENDBRANCH  95  96
ENDBRANCH  63  88
BRANCH  75 100
ATOM    100  C   UNL A   1      44.345  28.493  35.799  1.00  0.00     0.058 A 
ATOM    101  C   UNL A   1      45.667  28.879  35.527  1.00  0.00     0.135 A 
ATOM    102  C   UNL A   1      44.147  27.353  36.595  1.00  0.00     0.135 A 
ATOM    103  F   UNL A   1      45.915  29.956  34.766  1.00  0.00    -0.206 F 
ATOM    104  C   UNL A   1      46.750  28.148  36.007  1.00  0.00     0.059 A 
ATOM    105  C   UNL A   1      45.215  26.626  37.111  1.00  0.00     0.059 A 
ATOM    106  F   UNL A   1      42.903  26.944  36.894  1.00  0.00    -0.206 F 
ATOM    107  C   UNL A   1      46.514  27.024  36.801  1.00  0.00     0.060 A 
BRANCH 107 108
ATOM    108  S   UNL A   1      47.929  26.109  37.446  1.00  0.00     0.124 S 
ATOM    109  O   UNL A   1      48.025  26.634  38.804  1.00  0.00    -0.237 OA
ATOM    110  O   UNL A   1      47.482  24.724  37.332  1.00  0.00    -0.237 OA
ATOM    111  O   UNL A   1      49.017  26.487  36.549  1.00  0.00    -0.744 OA
ENDBRANCH 107 108
ENDBRANCH  75 100
ENDBRANCH  49  50
ENDBRANCH  41  44
ENDBRANCH  39  40
ENDBRANCH  38  39
ENDBRANCH   1  38
TORSDOF 20
ENDMDL
