MODEL 1
REMARK VINA RESULT:     -10.3      0.000      0.000
REMARK SMILES C[C@@H](C(=O)NCCCCNC(=O)c1ccc(-c2c3nc(c(-c4c(F)cc(S(=O)(=O)[O-])cc4F)c4ccc([nH]4)c(-c4c(F)cc(S(=O)(=O)[O-])cc4F)c4nc(c(-c5c(F)cc(S(=O)(=O)[O-])cc5F)c5ccc2[nH]5)C=C4)C=C3)cc1)c1ccc(-c2ccccc2)c(F)c1
REMARK SMILES IDX 8 1 7 2 6 3 5 4 3 5 4 6 2 8 1 9 79 10 80 11 91 12 81 13
REMARK SMILES IDX 89 14 82 15 90 16 83 17 84 18 88 19 85 20 87 21 86 22 9 23
REMARK SMILES IDX 10 24 11 25 12 27 13 28 14 29 78 30 15 31 77 32 16 33 17 34
REMARK SMILES IDX 18 35 71 36 19 37 76 38 70 39 72 40 20 41 75 42 69 43 68 44
REMARK SMILES IDX 21 46 55 47 34 48 54 49 35 50 38 51 53 52 73 53 36 54 37 55
REMARK SMILES IDX 52 57 74 58 39 59 22 60 23 61 32 62 24 63 25 64 31 65 33 66
REMARK SMILES IDX 26 67 27 68 28 69 29 70 30 71 56 72 57 73 66 74 58 75 59 76
REMARK SMILES IDX 65 77 67 78 60 79 61 80 62 81 63 82 64 83 40 84 41 85 50 86
REMARK SMILES IDX 42 87 43 88 49 89 51 90 44 91 45 92 46 93 47 94 48 95
REMARK H PARENT 5 7 10 26 72 45 38 56
REMARK Flexibility Score: inf
ROOT
ATOM      1  C   UNL A   1      34.297  34.067  27.856  1.00  0.00     0.023 C 
ENDROOT
BRANCH   1   2
ATOM      2  C   UNL A   1      33.987  35.327  28.667  1.00  0.00     0.023 C 
BRANCH   2   3
ATOM      3  C   UNL A   1      33.115  35.105  29.904  1.00  0.00     0.116 C 
BRANCH   3   4
ATOM      4  N   UNL A   1      33.679  35.738  31.077  1.00  0.00    -0.356 N 
ATOM      5  C   UNL A   1      34.610  35.301  31.973  1.00  0.00     0.227 C 
ATOM      6  O   UNL A   1      34.881  36.092  32.877  1.00  0.00    -0.274 OA
ATOM      7  H   UNL A   1      33.330  36.641  31.259  1.00  0.00     0.163 HD
BRANCH   5   8
ATOM      8  C   UNL A   1      35.280  33.923  31.793  1.00  0.00     0.105 C 
ATOM      9  C   UNL A   1      35.257  33.088  33.076  1.00  0.00     0.023 C 
BRANCH   8  10
ATOM     10  C   UNL A   1      36.727  33.941  31.290  1.00  0.00    -0.033 A 
ATOM     11  C   UNL A   1      37.076  33.652  29.965  1.00  0.00     0.005 A 
ATOM     12  C   UNL A   1      37.746  34.373  32.153  1.00  0.00     0.044 A 
ATOM     13  C   UNL A   1      38.401  33.749  29.529  1.00  0.00     0.012 A 
ATOM     14  C   UNL A   1      39.064  34.495  31.701  1.00  0.00     0.131 A 
ATOM     15  C   UNL A   1      39.425  34.185  30.383  1.00  0.00     0.017 A 
ATOM     16  F   UNL A   1      39.982  34.952  32.567  1.00  0.00    -0.206 F 
BRANCH  15  17
ATOM     17  C   UNL A   1      40.805  34.306  29.882  1.00  0.00    -0.015 A 
ATOM     18  C   UNL A   1      41.155  35.325  28.977  1.00  0.00     0.009 A 
ATOM     19  C   UNL A   1      41.802  33.390  30.252  1.00  0.00     0.009 A 
ATOM     20  C   UNL A   1      42.442  35.413  28.446  1.00  0.00     0.001 A 
ATOM     21  C   UNL A   1      43.093  33.477  29.722  1.00  0.00     0.001 A 
ATOM     22  C   UNL A   1      43.410  34.485  28.815  1.00  0.00     0.000 A 
ENDBRANCH  15  17
ENDBRANCH   8  10
ENDBRANCH   5   8
ENDBRANCH   3   4
ENDBRANCH   2   3
ENDBRANCH   1   2
BRANCH   1  23
ATOM     23  C   UNL A   1      33.992  32.749  28.557  1.00  0.00     0.116 C 
BRANCH  23  24
ATOM     24  N   UNL A   1      33.652  31.686  27.626  1.00  0.00    -0.352 N 
ATOM     25  C   UNL A   1      34.379  30.570  27.289  1.00  0.00     0.251 C 
ATOM     26  H   UNL A   1      32.781  31.776  27.177  1.00  0.00     0.163 HD
ATOM     27  O   UNL A   1      33.998  29.847  26.371  1.00  0.00    -0.269 OA
BRANCH  25  28
ATOM     28  C   UNL A   1      35.632  30.264  28.011  1.00  0.00     0.039 A 
ATOM     29  C   UNL A   1      35.556  29.685  29.280  1.00  0.00     0.014 A 
ATOM     30  C   UNL A   1      36.876  30.537  27.435  1.00  0.00     0.014 A 
ATOM     31  C   UNL A   1      36.730  29.329  29.948  1.00  0.00     0.010 A 
ATOM     32  C   UNL A   1      38.039  30.110  28.067  1.00  0.00     0.010 A 
ATOM     33  C   UNL A   1      37.980  29.512  29.335  1.00  0.00    -0.014 A 
BRANCH  33  34
ATOM     34  C   UNL A   1      39.238  29.102  30.009  1.00  0.00     0.031 A 
ATOM     35  C   UNL A   1      39.686  29.810  31.259  1.00  0.00     0.074 A 
ATOM     36  C   UNL A   1      40.007  28.140  29.465  1.00  0.00     0.049 A 
ATOM     37  N   UNL A   1      40.777  29.642  31.960  1.00  0.00    -0.248 NA
ATOM     38  C   UNL A   1      38.802  30.870  31.771  1.00  0.00     0.031 C 
ATOM     39  C   UNL A   1      39.705  27.411  28.231  1.00  0.00     0.029 A 
ATOM     40  N   UNL A   1      41.206  27.612  29.876  1.00  0.00    -0.354 N 
ATOM     41  C   UNL A   1      40.721  30.583  32.980  1.00  0.00     0.074 A 
ATOM     42  C   UNL A   1      39.516  31.357  32.774  1.00  0.00     0.031 C 
ATOM     43  C   UNL A   1      40.677  26.513  28.002  1.00  0.00     0.029 A 
ATOM     44  C   UNL A   1      41.689  26.627  29.048  1.00  0.00     0.049 A 
ATOM     45  H   UNL A   1      41.676  27.912  30.687  1.00  0.00     0.167 HD
ATOM     46  C   UNL A   1      41.580  30.769  34.012  1.00  0.00     0.037 A 
ATOM     47  C   UNL A   1      42.820  25.898  29.122  1.00  0.00     0.037 A 
ATOM     48  C   UNL A   1      42.765  29.980  34.223  1.00  0.00     0.049 A 
ATOM     49  C   UNL A   1      43.761  26.120  30.275  1.00  0.00     0.074 A 
ATOM     50  C   UNL A   1      43.671  30.048  35.267  1.00  0.00     0.029 A 
ATOM     51  N   UNL A   1      43.211  28.978  33.371  1.00  0.00    -0.354 N 
ATOM     52  N   UNL A   1      43.661  26.970  31.268  1.00  0.00    -0.248 NA
ATOM     53  C   UNL A   1      44.963  25.277  30.323  1.00  0.00     0.031 C 
ATOM     54  C   UNL A   1      44.690  29.120  35.022  1.00  0.00     0.029 A 
ATOM     55  C   UNL A   1      44.391  28.435  33.855  1.00  0.00     0.049 A 
ATOM     56  H   UNL A   1      42.757  28.696  32.546  1.00  0.00     0.167 HD
ATOM     57  C   UNL A   1      44.769  26.744  32.077  1.00  0.00     0.074 A 
ATOM     58  C   UNL A   1      45.523  25.672  31.458  1.00  0.00     0.031 C 
ATOM     59  C   UNL A   1      45.127  27.363  33.230  1.00  0.00     0.037 A 
BRANCH  46  60
ATOM     60  C   UNL A   1      41.265  31.877  34.982  1.00  0.00     0.058 A 
ATOM     61  C   UNL A   1      40.407  31.680  36.077  1.00  0.00     0.135 A 
ATOM     62  C   UNL A   1      41.824  33.154  34.814  1.00  0.00     0.135 A 
ATOM     63  F   UNL A   1      39.834  30.483  36.280  1.00  0.00    -0.206 F 
ATOM     64  C   UNL A   1      40.076  32.719  36.940  1.00  0.00     0.059 A 
ATOM     65  C   UNL A   1      41.532  34.201  35.684  1.00  0.00     0.059 A 
ATOM     66  F   UNL A   1      42.653  33.400  33.787  1.00  0.00    -0.206 F 
ATOM     67  C   UNL A   1      40.638  33.979  36.731  1.00  0.00     0.060 A 
BRANCH  67  68
ATOM     68  S   UNL A   1      40.173  35.326  37.839  1.00  0.00     0.124 S 
ATOM     69  O   UNL A   1      39.028  34.748  38.534  1.00  0.00    -0.237 OA
ATOM     70  O   UNL A   1      41.380  35.500  38.641  1.00  0.00    -0.237 OA
ATOM     71  O   UNL A   1      39.867  36.425  36.928  1.00  0.00    -0.744 OA
ENDBRANCH  67  68
ENDBRANCH  46  60
BRANCH  47  72
ATOM     72  C   UNL A   1      43.097  24.860  28.093  1.00  0.00     0.058 A 
ATOM     73  C   UNL A   1      43.865  25.161  26.959  1.00  0.00     0.135 A 
ATOM     74  C   UNL A   1      42.637  23.543  28.240  1.00  0.00     0.135 A 
ATOM     75  F   UNL A   1      44.322  26.409  26.771  1.00  0.00    -0.206 F 
ATOM     76  C   UNL A   1      44.163  24.197  26.003  1.00  0.00     0.059 A 
ATOM     77  C   UNL A   1      42.941  22.554  27.310  1.00  0.00     0.059 A 
ATOM     78  F   UNL A   1      41.911  23.200  29.316  1.00  0.00    -0.206 F 
ATOM     79  C   UNL A   1      43.702  22.892  26.191  1.00  0.00     0.060 A 
BRANCH  79  80
ATOM     80  S   UNL A   1      44.158  21.632  24.980  1.00  0.00     0.124 S 
ATOM     81  O   UNL A   1      43.137  20.616  25.213  1.00  0.00    -0.237 OA
ATOM     82  O   UNL A   1      44.056  22.365  23.723  1.00  0.00    -0.237 OA
ATOM     83  O   UNL A   1      45.516  21.265  25.373  1.00  0.00    -0.744 OA
ENDBRANCH  79  80
ENDBRANCH  47  72
BRANCH  59  84
ATOM     84  C   UNL A   1      46.367  26.871  33.924  1.00  0.00     0.058 A 
ATOM     85  C   UNL A   1      46.331  25.817  34.850  1.00  0.00     0.135 A 
ATOM     86  C   UNL A   1      47.619  27.431  33.618  1.00  0.00     0.135 A 
ATOM     87  F   UNL A   1      45.160  25.249  35.182  1.00  0.00    -0.206 F 
ATOM     88  C   UNL A   1      47.489  25.352  35.466  1.00  0.00     0.059 A 
ATOM     89  C   UNL A   1      48.791  26.963  34.201  1.00  0.00     0.059 A 
ATOM     90  F   UNL A   1      47.711  28.435  32.732  1.00  0.00    -0.206 F 
ATOM     91  C   UNL A   1      48.715  25.931  35.134  1.00  0.00     0.060 A 
BRANCH  91  92
ATOM     92  S   UNL A   1      50.213  25.297  35.917  1.00  0.00     0.124 S 
ATOM     93  O   UNL A   1      50.374  26.222  37.035  1.00  0.00    -0.237 OA
ATOM     94  O   UNL A   1      49.829  23.934  36.272  1.00  0.00    -0.237 OA
ATOM     95  O   UNL A   1      51.218  25.404  34.864  1.00  0.00    -0.744 OA
ENDBRANCH  91  92
ENDBRANCH  59  84
ENDBRANCH  33  34
ENDBRANCH  25  28
ENDBRANCH  23  24
ENDBRANCH   1  23
TORSDOF 16
ENDMDL
MODEL 2
REMARK VINA RESULT:     -10.2      4.013     11.753
REMARK SMILES C[C@@H](C(=O)NCCCCNC(=O)c1ccc(-c2c3nc(c(-c4c(F)cc(S(=O)(=O)[O-])cc4F)c4ccc([nH]4)c(-c4c(F)cc(S(=O)(=O)[O-])cc4F)c4nc(c(-c5c(F)cc(S(=O)(=O)[O-])cc5F)c5ccc2[nH]5)C=C4)C=C3)cc1)c1ccc(-c2ccccc2)c(F)c1
REMARK SMILES IDX 8 1 7 2 6 3 5 4 3 5 4 6 2 8 1 9 79 10 80 11 91 12 81 13
REMARK SMILES IDX 89 14 82 15 90 16 83 17 84 18 88 19 85 20 87 21 86 22 9 23
REMARK SMILES IDX 10 24 11 25 12 27 13 28 14 29 78 30 15 31 77 32 16 33 17 34
REMARK SMILES IDX 18 35 71 36 19 37 76 38 70 39 72 40 20 41 75 42 69 43 68 44
REMARK SMILES IDX 21 46 55 47 34 48 54 49 35 50 38 51 53 52 73 53 36 54 37 55
REMARK SMILES IDX 52 57 74 58 39 59 22 60 23 61 32 62 24 63 25 64 31 65 33 66
REMARK SMILES IDX 26 67 27 68 28 69 29 70 30 71 56 72 57 73 66 74 58 75 59 76
REMARK SMILES IDX 65 77 67 78 60 79 61 80 62 81 63 82 64 83 40 84 41 85 50 86
REMARK SMILES IDX 42 87 43 88 49 89 51 90 44 91 45 92 46 93 47 94 48 95
REMARK H PARENT 5 7 10 26 72 45 38 56
REMARK Flexibility Score: inf
ROOT
ATOM      1  C   UNL A   1      40.782  20.002  26.779  1.00  0.00     0.023 C 
ENDROOT
BRANCH   1   2
ATOM      2  C   UNL A   1      42.216  19.466  26.792  1.00  0.00     0.023 C 
BRANCH   2   3
ATOM      3  C   UNL A   1      42.866  19.319  25.415  1.00  0.00     0.116 C 
BRANCH   3   4
ATOM      4  N   UNL A   1      44.270  19.668  25.448  1.00  0.00    -0.356 N 
ATOM      5  C   UNL A   1      44.893  20.878  25.537  1.00  0.00     0.227 C 
ATOM      6  O   UNL A   1      46.125  20.837  25.542  1.00  0.00    -0.274 OA
ATOM      7  H   UNL A   1      44.882  18.897  25.396  1.00  0.00     0.163 HD
BRANCH   5   8
ATOM      8  C   UNL A   1      44.066  22.174  25.670  1.00  0.00     0.105 C 
ATOM      9  C   UNL A   1      44.451  23.225  24.625  1.00  0.00     0.023 C 
BRANCH   8  10
ATOM     10  C   UNL A   1      44.109  22.860  27.039  1.00  0.00    -0.033 A 
ATOM     11  C   UNL A   1      43.040  22.827  27.942  1.00  0.00     0.005 A 
ATOM     12  C   UNL A   1      45.306  23.455  27.470  1.00  0.00     0.044 A 
ATOM     13  C   UNL A   1      43.144  23.405  29.211  1.00  0.00     0.012 A 
ATOM     14  C   UNL A   1      45.413  24.005  28.751  1.00  0.00     0.131 A 
ATOM     15  C   UNL A   1      44.338  23.997  29.650  1.00  0.00     0.017 A 
ATOM     16  F   UNL A   1      46.597  24.522  29.113  1.00  0.00    -0.206 F 
BRANCH  15  17
ATOM     17  C   UNL A   1      44.424  24.569  31.005  1.00  0.00    -0.015 A 
ATOM     18  C   UNL A   1      44.304  23.747  32.141  1.00  0.00     0.009 A 
ATOM     19  C   UNL A   1      44.585  25.948  31.209  1.00  0.00     0.009 A 
ATOM     20  C   UNL A   1      44.320  24.284  33.430  1.00  0.00     0.001 A 
ATOM     21  C   UNL A   1      44.603  26.488  32.499  1.00  0.00     0.001 A 
ATOM     22  C   UNL A   1      44.465  25.656  33.608  1.00  0.00     0.000 A 
ENDBRANCH  15  17
ENDBRANCH   8  10
ENDBRANCH   5   8
ENDBRANCH   3   4
ENDBRANCH   2   3
ENDBRANCH   1   2
BRANCH   1  23
ATOM     23  C   UNL A   1      40.594  21.346  26.089  1.00  0.00     0.116 C 
BRANCH  23  24
ATOM     24  N   UNL A   1      39.195  21.664  25.852  1.00  0.00    -0.352 N 
ATOM     25  C   UNL A   1      38.515  22.823  26.135  1.00  0.00     0.251 C 
ATOM     26  H   UNL A   1      38.663  20.952  25.430  1.00  0.00     0.163 HD
ATOM     27  O   UNL A   1      37.295  22.865  25.997  1.00  0.00    -0.269 OA
BRANCH  25  28
ATOM     28  C   UNL A   1      39.252  24.004  26.634  1.00  0.00     0.039 A 
ATOM     29  C   UNL A   1      39.853  24.865  25.713  1.00  0.00     0.014 A 
ATOM     30  C   UNL A   1      39.340  24.266  28.005  1.00  0.00     0.014 A 
ATOM     31  C   UNL A   1      40.496  26.019  26.165  1.00  0.00     0.010 A 
ATOM     32  C   UNL A   1      39.912  25.455  28.446  1.00  0.00     0.010 A 
ATOM     33  C   UNL A   1      40.505  26.339  27.533  1.00  0.00    -0.014 A 
BRANCH  33  34
ATOM     34  C   UNL A   1      41.146  27.583  28.030  1.00  0.00     0.031 A 
ATOM     35  C   UNL A   1      42.642  27.734  27.968  1.00  0.00     0.074 A 
ATOM     36  C   UNL A   1      40.392  28.547  28.593  1.00  0.00     0.049 A 
ATOM     37  N   UNL A   1      43.394  28.712  28.403  1.00  0.00    -0.248 NA
ATOM     38  C   UNL A   1      43.394  26.622  27.365  1.00  0.00     0.031 C 
ATOM     39  C   UNL A   1      38.938  28.498  28.754  1.00  0.00     0.029 A 
ATOM     40  N   UNL A   1      40.746  29.754  29.142  1.00  0.00    -0.354 N 
ATOM     41  C   UNL A   1      44.704  28.327  28.143  1.00  0.00     0.074 A 
ATOM     42  C   UNL A   1      44.647  27.001  27.566  1.00  0.00     0.031 C 
ATOM     43  C   UNL A   1      38.521  29.636  29.334  1.00  0.00     0.029 A 
ATOM     44  C   UNL A   1      39.679  30.477  29.621  1.00  0.00     0.049 A 
ATOM     45  H   UNL A   1      41.676  30.072  29.189  1.00  0.00     0.167 HD
ATOM     46  C   UNL A   1      45.849  29.024  28.343  1.00  0.00     0.037 A 
ATOM     47  C   UNL A   1      39.638  31.681  30.225  1.00  0.00     0.037 A 
ATOM     48  C   UNL A   1      45.895  30.351  28.897  1.00  0.00     0.049 A 
ATOM     49  C   UNL A   1      40.920  32.439  30.436  1.00  0.00     0.074 A 
ATOM     50  C   UNL A   1      46.996  31.168  29.087  1.00  0.00     0.029 A 
ATOM     51  N   UNL A   1      44.791  31.057  29.353  1.00  0.00    -0.354 N 
ATOM     52  N   UNL A   1      42.146  32.088  30.126  1.00  0.00    -0.248 NA
ATOM     53  C   UNL A   1      40.814  33.759  31.071  1.00  0.00     0.031 C 
ATOM     54  C   UNL A   1      46.564  32.348  29.701  1.00  0.00     0.029 A 
ATOM     55  C   UNL A   1      45.187  32.291  29.844  1.00  0.00     0.049 A 
ATOM     56  H   UNL A   1      43.863  30.730  29.332  1.00  0.00     0.167 HD
ATOM     57  C   UNL A   1      42.953  33.157  30.498  1.00  0.00     0.074 A 
ATOM     58  C   UNL A   1      42.075  34.169  31.052  1.00  0.00     0.031 C 
ATOM     59  C   UNL A   1      44.298  33.292  30.386  1.00  0.00     0.037 A 
BRANCH  46  60
ATOM     60  C   UNL A   1      47.142  28.352  27.963  1.00  0.00     0.058 A 
ATOM     61  C   UNL A   1      47.669  28.442  26.664  1.00  0.00     0.135 A 
ATOM     62  C   UNL A   1      47.862  27.603  28.908  1.00  0.00     0.135 A 
ATOM     63  F   UNL A   1      47.017  29.134  25.715  1.00  0.00    -0.206 F 
ATOM     64  C   UNL A   1      48.835  27.775  26.302  1.00  0.00     0.059 A 
ATOM     65  C   UNL A   1      49.049  26.954  28.577  1.00  0.00     0.059 A 
ATOM     66  F   UNL A   1      47.408  27.484  30.165  1.00  0.00    -0.206 F 
ATOM     67  C   UNL A   1      49.514  27.027  27.264  1.00  0.00     0.060 A 
BRANCH  67  68
ATOM     68  S   UNL A   1      51.008  26.141  26.772  1.00  0.00     0.124 S 
ATOM     69  O   UNL A   1      50.711  24.791  27.240  1.00  0.00    -0.237 OA
ATOM     70  O   UNL A   1      51.017  26.323  25.324  1.00  0.00    -0.237 OA
ATOM     71  O   UNL A   1      52.069  26.837  27.494  1.00  0.00    -0.744 OA
ENDBRANCH  67  68
ENDBRANCH  46  60
BRANCH  47  72
ATOM     72  C   UNL A   1      38.329  32.259  30.628  1.00  0.00     0.058 A 
ATOM     73  C   UNL A   1      37.784  31.988  31.893  1.00  0.00     0.135 A 
ATOM     74  C   UNL A   1      37.616  33.121  29.781  1.00  0.00     0.135 A 
ATOM     75  F   UNL A   1      38.425  31.164  32.736  1.00  0.00    -0.206 F 
ATOM     76  C   UNL A   1      36.578  32.545  32.301  1.00  0.00     0.059 A 
ATOM     77  C   UNL A   1      36.419  33.710  30.176  1.00  0.00     0.059 A 
ATOM     78  F   UNL A   1      38.103  33.425  28.567  1.00  0.00    -0.206 F 
ATOM     79  C   UNL A   1      35.905  33.412  31.438  1.00  0.00     0.060 A 
BRANCH  79  80
ATOM     80  S   UNL A   1      34.377  34.187  32.009  1.00  0.00     0.124 S 
ATOM     81  O   UNL A   1      33.696  34.460  30.748  1.00  0.00    -0.237 OA
ATOM     82  O   UNL A   1      33.793  33.137  32.838  1.00  0.00    -0.237 OA
ATOM     83  O   UNL A   1      34.849  35.360  32.740  1.00  0.00    -0.744 OA
ENDBRANCH  79  80
ENDBRANCH  47  72
BRANCH  59  84
ATOM     84  C   UNL A   1      44.904  34.594  30.832  1.00  0.00     0.058 A 
ATOM     85  C   UNL A   1      45.017  35.694  29.968  1.00  0.00     0.135 A 
ATOM     86  C   UNL A   1      45.331  34.758  32.161  1.00  0.00     0.135 A 
ATOM     87  F   UNL A   1      44.629  35.590  28.687  1.00  0.00    -0.206 F 
ATOM     88  C   UNL A   1      45.554  36.903  30.399  1.00  0.00     0.059 A 
ATOM     89  C   UNL A   1      45.845  35.966  32.620  1.00  0.00     0.059 A 
ATOM     90  F   UNL A   1      45.236  33.741  33.031  1.00  0.00    -0.206 F 
ATOM     91  C   UNL A   1      45.964  37.030  31.727  1.00  0.00     0.060 A 
BRANCH  91  92
ATOM     92  S   UNL A   1      46.630  38.614  32.282  1.00  0.00     0.124 S 
ATOM     93  O   UNL A   1      48.066  38.392  32.145  1.00  0.00    -0.237 OA
ATOM     94  O   UNL A   1      46.040  39.552  31.332  1.00  0.00    -0.237 OA
ATOM     95  O   UNL A   1      46.140  38.728  33.652  1.00  0.00    -0.744 OA
ENDBRANCH  91  92
ENDBRANCH  59  84
ENDBRANCH  33  34
ENDBRANCH  25  28
ENDBRANCH  23  24
ENDBRANCH   1  23
TORSDOF 16
ENDMDL
MODEL 3
REMARK VINA RESULT:     -10.2      3.985     10.772
REMARK SMILES C[C@@H](C(=O)NCCCCNC(=O)c1ccc(-c2c3nc(c(-c4c(F)cc(S(=O)(=O)[O-])cc4F)c4ccc([nH]4)c(-c4c(F)cc(S(=O)(=O)[O-])cc4F)c4nc(c(-c5c(F)cc(S(=O)(=O)[O-])cc5F)c5ccc2[nH]5)C=C4)C=C3)cc1)c1ccc(-c2ccccc2)c(F)c1
REMARK SMILES IDX 8 1 7 2 6 3 5 4 3 5 4 6 2 8 1 9 79 10 80 11 91 12 81 13
REMARK SMILES IDX 89 14 82 15 90 16 83 17 84 18 88 19 85 20 87 21 86 22 9 23
REMARK SMILES IDX 10 24 11 25 12 27 13 28 14 29 78 30 15 31 77 32 16 33 17 34
REMARK SMILES IDX 18 35 71 36 19 37 76 38 70 39 72 40 20 41 75 42 69 43 68 44
REMARK SMILES IDX 21 46 55 47 34 48 54 49 35 50 38 51 53 52 73 53 36 54 37 55
REMARK SMILES IDX 52 57 74 58 39 59 22 60 23 61 32 62 24 63 25 64 31 65 33 66
REMARK SMILES IDX 26 67 27 68 28 69 29 70 30 71 56 72 57 73 66 74 58 75 59 76
REMARK SMILES IDX 65 77 67 78 60 79 61 80 62 81 63 82 64 83 40 84 41 85 50 86
REMARK SMILES IDX 42 87 43 88 49 89 51 90 44 91 45 92 46 93 47 94 48 95
REMARK H PARENT 5 7 10 26 72 45 38 56
REMARK Flexibility Score: inf
ROOT
ATOM      1  C   UNL A   1      37.387  23.716  25.401  1.00  0.00     0.023 C 
ENDROOT
BRANCH   1   2
ATOM      2  C   UNL A   1      36.981  22.240  25.361  1.00  0.00     0.023 C 
BRANCH   2   3
ATOM      3  C   UNL A   1      35.473  21.981  25.374  1.00  0.00     0.116 C 
BRANCH   3   4
ATOM      4  N   UNL A   1      34.867  22.287  24.096  1.00  0.00    -0.356 N 
ATOM      5  C   UNL A   1      33.664  22.849  23.785  1.00  0.00     0.227 C 
ATOM      6  O   UNL A   1      33.439  22.978  22.580  1.00  0.00    -0.274 OA
ATOM      7  H   UNL A   1      35.419  22.048  23.317  1.00  0.00     0.163 HD
BRANCH   5   8
ATOM      8  C   UNL A   1      32.708  23.317  24.902  1.00  0.00     0.105 C 
ATOM      9  C   UNL A   1      31.236  23.226  24.489  1.00  0.00     0.023 C 
BRANCH   8  10
ATOM     10  C   UNL A   1      32.942  24.733  25.436  1.00  0.00    -0.033 A 
ATOM     11  C   UNL A   1      34.103  25.467  25.166  1.00  0.00     0.005 A 
ATOM     12  C   UNL A   1      31.910  25.382  26.132  1.00  0.00     0.044 A 
ATOM     13  C   UNL A   1      34.248  26.784  25.613  1.00  0.00     0.012 A 
ATOM     14  C   UNL A   1      32.050  26.709  26.550  1.00  0.00     0.131 A 
ATOM     15  C   UNL A   1      33.219  27.441  26.304  1.00  0.00     0.017 A 
ATOM     16  F   UNL A   1      31.010  27.281  27.175  1.00  0.00    -0.206 F 
BRANCH  15  17
ATOM     17  C   UNL A   1      33.393  28.840  26.733  1.00  0.00    -0.015 A 
ATOM     18  C   UNL A   1      34.577  29.255  27.369  1.00  0.00     0.009 A 
ATOM     19  C   UNL A   1      32.374  29.790  26.562  1.00  0.00     0.009 A 
ATOM     20  C   UNL A   1      34.730  30.561  27.837  1.00  0.00     0.001 A 
ATOM     21  C   UNL A   1      32.526  31.100  27.028  1.00  0.00     0.001 A 
ATOM     22  C   UNL A   1      33.701  31.483  27.670  1.00  0.00     0.000 A 
ENDBRANCH  15  17
ENDBRANCH   8  10
ENDBRANCH   5   8
ENDBRANCH   3   4
ENDBRANCH   2   3
ENDBRANCH   1   2
BRANCH   1  23
ATOM     23  C   UNL A   1      38.321  24.103  26.540  1.00  0.00     0.116 C 
BRANCH  23  24
ATOM     24  N   UNL A   1      39.724  23.949  26.191  1.00  0.00    -0.352 N 
ATOM     25  C   UNL A   1      40.798  24.708  26.585  1.00  0.00     0.251 C 
ATOM     26  H   UNL A   1      39.932  23.197  25.591  1.00  0.00     0.163 HD
ATOM     27  O   UNL A   1      41.900  24.519  26.075  1.00  0.00    -0.269 OA
BRANCH  25  28
ATOM     28  C   UNL A   1      40.615  25.770  27.597  1.00  0.00     0.039 A 
ATOM     29  C   UNL A   1      39.648  25.597  28.590  1.00  0.00     0.014 A 
ATOM     30  C   UNL A   1      41.402  26.925  27.574  1.00  0.00     0.014 A 
ATOM     31  C   UNL A   1      39.509  26.560  29.592  1.00  0.00     0.010 A 
ATOM     32  C   UNL A   1      41.315  27.843  28.616  1.00  0.00     0.010 A 
ATOM     33  C   UNL A   1      40.361  27.676  29.630  1.00  0.00    -0.014 A 
BRANCH  33  34
ATOM     34  C   UNL A   1      40.257  28.690  30.710  1.00  0.00     0.031 A 
ATOM     35  C   UNL A   1      41.132  28.582  31.929  1.00  0.00     0.074 A 
ATOM     36  C   UNL A   1      39.333  29.667  30.625  1.00  0.00     0.049 A 
ATOM     37  N   UNL A   1      41.151  29.329  33.003  1.00  0.00    -0.248 NA
ATOM     38  C   UNL A   1      42.093  27.468  31.956  1.00  0.00     0.031 C 
ATOM     39  C   UNL A   1      38.394  29.851  29.517  1.00  0.00     0.029 A 
ATOM     40  N   UNL A   1      39.027  30.688  31.491  1.00  0.00    -0.354 N 
ATOM     41  C   UNL A   1      42.108  28.766  33.838  1.00  0.00     0.074 A 
ATOM     42  C   UNL A   1      42.607  27.583  33.172  1.00  0.00     0.031 C 
ATOM     43  C   UNL A   1      37.638  30.934  29.756  1.00  0.00     0.029 A 
ATOM     44  C   UNL A   1      38.010  31.500  31.049  1.00  0.00     0.049 A 
ATOM     45  H   UNL A   1      39.492  30.825  32.347  1.00  0.00     0.167 HD
ATOM     46  C   UNL A   1      42.551  29.208  35.040  1.00  0.00     0.037 A 
ATOM     47  C   UNL A   1      37.440  32.578  31.622  1.00  0.00     0.037 A 
ATOM     48  C   UNL A   1      42.067  30.399  35.687  1.00  0.00     0.049 A 
ATOM     49  C   UNL A   1      37.947  33.053  32.956  1.00  0.00     0.074 A 
ATOM     50  C   UNL A   1      42.489  30.966  36.877  1.00  0.00     0.029 A 
ATOM     51  N   UNL A   1      41.047  31.205  35.199  1.00  0.00    -0.354 N 
ATOM     52  N   UNL A   1      38.898  32.547  33.705  1.00  0.00    -0.248 NA
ATOM     53  C   UNL A   1      37.310  34.251  33.520  1.00  0.00     0.031 C 
ATOM     54  C   UNL A   1      41.693  32.089  37.131  1.00  0.00     0.029 A 
ATOM     55  C   UNL A   1      40.812  32.254  36.075  1.00  0.00     0.049 A 
ATOM     56  H   UNL A   1      40.563  31.054  34.357  1.00  0.00     0.167 HD
ATOM     57  C   UNL A   1      38.997  33.382  34.812  1.00  0.00     0.074 A 
ATOM     58  C   UNL A   1      38.011  34.429  34.632  1.00  0.00     0.031 C 
ATOM     59  C   UNL A   1      39.831  33.294  35.878  1.00  0.00     0.037 A 
BRANCH  46  60
ATOM     60  C   UNL A   1      43.611  28.389  35.730  1.00  0.00     0.058 A 
ATOM     61  C   UNL A   1      43.285  27.387  36.659  1.00  0.00     0.135 A 
ATOM     62  C   UNL A   1      44.971  28.613  35.463  1.00  0.00     0.135 A 
ATOM     63  F   UNL A   1      42.000  27.138  36.962  1.00  0.00    -0.206 F 
ATOM     64  C   UNL A   1      44.267  26.670  37.333  1.00  0.00     0.059 A 
ATOM     65  C   UNL A   1      45.972  27.885  36.103  1.00  0.00     0.059 A 
ATOM     66  F   UNL A   1      45.343  29.555  34.583  1.00  0.00    -0.206 F 
ATOM     67  C   UNL A   1      45.609  26.932  37.054  1.00  0.00     0.060 A 
BRANCH  67  68
ATOM     68  S   UNL A   1      46.873  26.017  37.961  1.00  0.00     0.124 S 
ATOM     69  O   UNL A   1      47.730  27.099  38.436  1.00  0.00    -0.237 OA
ATOM     70  O   UNL A   1      46.090  25.333  38.985  1.00  0.00    -0.237 OA
ATOM     71  O   UNL A   1      47.462  25.151  36.944  1.00  0.00    -0.744 OA
ENDBRANCH  67  68
ENDBRANCH  46  60
BRANCH  47  72
ATOM     72  C   UNL A   1      36.355  33.305  30.909  1.00  0.00     0.058 A 
ATOM     73  C   UNL A   1      35.030  33.243  31.365  1.00  0.00     0.135 A 
ATOM     74  C   UNL A   1      36.624  34.104  29.788  1.00  0.00     0.135 A 
ATOM     75  F   UNL A   1      34.723  32.486  32.430  1.00  0.00    -0.206 F 
ATOM     76  C   UNL A   1      34.008  33.941  30.732  1.00  0.00     0.059 A 
ATOM     77  C   UNL A   1      35.623  34.831  29.152  1.00  0.00     0.059 A 
ATOM     78  F   UNL A   1      37.878  34.210  29.322  1.00  0.00    -0.206 F 
ATOM     79  C   UNL A   1      34.316  34.740  29.630  1.00  0.00     0.060 A 
BRANCH  79  80
ATOM     80  S   UNL A   1      32.992  35.701  28.862  1.00  0.00     0.124 S 
ATOM     81  O   UNL A   1      32.236  36.144  30.028  1.00  0.00    -0.237 OA
ATOM     82  O   UNL A   1      33.737  36.735  28.152  1.00  0.00    -0.237 OA
ATOM     83  O   UNL A   1      32.322  34.725  28.008  1.00  0.00    -0.744 OA
ENDBRANCH  79  80
ENDBRANCH  47  72
BRANCH  59  84
ATOM     84  C   UNL A   1      39.747  34.379  36.916  1.00  0.00     0.058 A 
ATOM     85  C   UNL A   1      38.934  34.258  38.052  1.00  0.00     0.135 A 
ATOM     86  C   UNL A   1      40.535  35.536  36.794  1.00  0.00     0.135 A 
ATOM     87  F   UNL A   1      38.157  33.175  38.216  1.00  0.00    -0.206 F 
ATOM     88  C   UNL A   1      38.886  35.257  39.020  1.00  0.00     0.059 A 
ATOM     89  C   UNL A   1      40.523  36.534  37.762  1.00  0.00     0.059 A 
ATOM     90  F   UNL A   1      41.339  35.698  35.731  1.00  0.00    -0.206 F 
ATOM     91  C   UNL A   1      39.685  36.392  38.867  1.00  0.00     0.060 A 
BRANCH  91  92
ATOM     92  S   UNL A   1      39.637  37.666  40.144  1.00  0.00     0.124 S 
ATOM     93  O   UNL A   1      41.009  38.163  40.115  1.00  0.00    -0.237 OA
ATOM     94  O   UNL A   1      38.621  38.582  39.635  1.00  0.00    -0.237 OA
ATOM     95  O   UNL A   1      39.262  36.929  41.346  1.00  0.00    -0.744 OA
ENDBRANCH  91  92
ENDBRANCH  59  84
ENDBRANCH  33  34
ENDBRANCH  25  28
ENDBRANCH  23  24
ENDBRANCH   1  23
TORSDOF 16
ENDMDL
