MODEL 1
REMARK VINA RESULT:     -12.9      0.000      0.000
REMARK SMILES CCOc1ccc(-c2cc(Cl)cc3c2O[C@H](C(F)(F)F)C(C(=O)NCCCCNC(=O)c2ccc(-c4c5nc(c(-c6c(F)cc(S(=O)(=O)[O-])cc6F)c6ccc([nH]6)c(-c6c(F)cc(S(=O)(=O)[O-])cc6F)c6nc(c(-c7c(F)cc(S(=O)(=O)[O-])cc7F)c7ccc4[nH]7)C=C6)C=C5)cc2)=C3)cc1
REMARK SMILES IDX 26 1 25 2 24 3 22 4 23 5 21 7 8 8 9 9 14 10 10 11 13 12
REMARK SMILES IDX 15 13 11 14 12 15 98 16 16 17 7 18 4 19 5 20 100 21 6 22
REMARK SMILES IDX 99 23 3 24 2 25 1 26 17 27 18 28 19 29 20 30 27 31 28 32
REMARK SMILES IDX 29 33 30 34 31 36 32 37 33 38 97 39 34 40 96 41 35 42 36 43
REMARK SMILES IDX 37 44 90 45 38 46 95 47 89 48 91 49 39 50 94 51 88 52 87 53
REMARK SMILES IDX 40 55 74 56 53 57 73 58 54 59 57 60 72 61 92 62 55 63 56 64
REMARK SMILES IDX 71 66 93 67 58 68 41 69 42 70 51 71 43 72 44 73 50 74 52 75
REMARK SMILES IDX 45 76 46 77 47 78 48 79 49 80 75 81 76 82 85 83 77 84 78 85
REMARK SMILES IDX 84 86 86 87 79 88 80 89 81 90 82 91 83 92 59 93 60 94 69 95
REMARK SMILES IDX 61 96 62 97 68 98 70 99 63 100 64 101 65 102 66 103 67 104
REMARK H PARENT 24 6 29 35 91 54 57 65
REMARK Flexibility Score: inf
ROOT
ATOM      1  C   UNL A   1      37.378  22.272  25.771  1.00  0.00     0.023 C 
ENDROOT
BRANCH   1   2
ATOM      2  C   UNL A   1      35.846  22.349  25.714  1.00  0.00     0.116 C 
BRANCH   2   3
ATOM      3  N   UNL A   1      35.416  23.703  25.987  1.00  0.00    -0.352 N 
ATOM      4  C   UNL A   1      34.533  24.474  25.313  1.00  0.00     0.251 C 
ATOM      5  O   UNL A   1      34.718  25.686  25.288  1.00  0.00    -0.270 OA
ATOM      6  H   UNL A   1      35.824  24.122  26.778  1.00  0.00     0.163 HD
BRANCH   4   7
ATOM      7  C   UNL A   1      33.316  23.830  24.730  1.00  0.00     0.067 C 
ATOM      8  C   UNL A   1      31.017  27.167  24.264  1.00  0.00     0.026 A 
ATOM      9  C   UNL A   1      31.156  27.918  25.459  1.00  0.00     0.033 A 
ATOM     10  C   UNL A   1      31.491  25.842  24.305  1.00  0.00     0.135 A 
ATOM     11  C   UNL A   1      31.541  27.340  26.666  1.00  0.00     0.042 A 
ATOM     12  C   UNL A   1      31.762  25.244  25.562  1.00  0.00     0.019 A 
ATOM     13  O   UNL A   1      31.770  25.093  23.168  1.00  0.00    -0.475 OA
ATOM     14  Cl  UNL A   1      31.697  28.321  28.068  1.00  0.00    -0.084 Cl
ATOM     15  C   UNL A   1      31.766  25.979  26.742  1.00  0.00     0.032 A 
ATOM     16  C   UNL A   1      32.263  23.851  25.571  1.00  0.00     0.025 C 
ATOM     17  C   UNL A   1      32.999  24.245  23.297  1.00  0.00     0.314 C 
BRANCH   8  18
ATOM     18  C   UNL A   1      30.160  27.804  23.227  1.00  0.00    -0.014 A 
ATOM     19  C   UNL A   1      28.475  29.755  22.028  1.00  0.00     0.119 A 
ATOM     20  C   UNL A   1      29.842  29.760  21.773  1.00  0.00     0.047 A 
ATOM     21  C   UNL A   1      27.928  28.718  22.776  1.00  0.00     0.047 A 
ATOM     22  C   UNL A   1      30.674  28.788  22.356  1.00  0.00     0.013 A 
ATOM     23  C   UNL A   1      28.761  27.750  23.366  1.00  0.00     0.013 A 
BRANCH  19  24
ATOM     24  O   UNL A   1      27.713  30.723  21.431  1.00  0.00    -0.494 OA
BRANCH  24  25
ATOM     25  C   UNL A   1      28.396  31.951  21.140  1.00  0.00     0.226 C 
ATOM     26  C   UNL A   1      28.474  32.853  22.363  1.00  0.00     0.049 C 
ENDBRANCH  24  25
ENDBRANCH  19  24
ENDBRANCH   8  18
BRANCH  17  27
ATOM     27  C   UNL A   1      32.903  22.965  22.434  1.00  0.00     0.429 C 
ATOM     28  F   UNL A   1      33.268  23.174  21.149  1.00  0.00    -0.167 F 
ATOM     29  F   UNL A   1      33.689  21.978  22.928  1.00  0.00    -0.167 F 
ATOM     30  F   UNL A   1      31.643  22.457  22.396  1.00  0.00    -0.167 F 
ENDBRANCH  17  27
ENDBRANCH   4   7
ENDBRANCH   2   3
ENDBRANCH   1   2
BRANCH   1  31
ATOM     31  C   UNL A   1      38.093  23.612  26.003  1.00  0.00     0.023 C 
BRANCH  31  32
ATOM     32  C   UNL A   1      39.280  23.551  26.957  1.00  0.00     0.116 C 
BRANCH  32  33
ATOM     33  N   UNL A   1      40.539  23.792  26.272  1.00  0.00    -0.352 N 
ATOM     34  C   UNL A   1      41.362  24.888  26.338  1.00  0.00     0.251 C 
ATOM     35  H   UNL A   1      40.844  23.068  25.679  1.00  0.00     0.163 HD
ATOM     36  O   UNL A   1      42.285  25.009  25.533  1.00  0.00    -0.269 OA
BRANCH  34  37
ATOM     37  C   UNL A   1      41.124  25.933  27.358  1.00  0.00     0.039 A 
ATOM     38  C   UNL A   1      40.150  25.716  28.336  1.00  0.00     0.014 A 
ATOM     39  C   UNL A   1      41.863  27.120  27.355  1.00  0.00     0.014 A 
ATOM     40  C   UNL A   1      39.965  26.661  29.348  1.00  0.00     0.010 A 
ATOM     41  C   UNL A   1      41.728  28.023  28.407  1.00  0.00     0.010 A 
ATOM     42  C   UNL A   1      40.778  27.805  29.415  1.00  0.00    -0.014 A 
BRANCH  42  43
ATOM     43  C   UNL A   1      40.655  28.776  30.535  1.00  0.00     0.031 A 
ATOM     44  C   UNL A   1      41.517  28.633  31.761  1.00  0.00     0.074 A 
ATOM     45  C   UNL A   1      39.721  29.748  30.475  1.00  0.00     0.049 A 
ATOM     46  N   UNL A   1      41.504  29.335  32.865  1.00  0.00    -0.248 NA
ATOM     47  C   UNL A   1      42.506  27.543  31.757  1.00  0.00     0.031 C 
ATOM     48  C   UNL A   1      38.790  29.960  29.364  1.00  0.00     0.029 A 
ATOM     49  N   UNL A   1      39.390  30.732  31.375  1.00  0.00    -0.354 N 
ATOM     50  C   UNL A   1      42.468  28.766  33.689  1.00  0.00     0.074 A 
ATOM     51  C   UNL A   1      43.010  27.628  32.980  1.00  0.00     0.031 C 
ATOM     52  C   UNL A   1      38.009  31.018  29.638  1.00  0.00     0.029 A 
ATOM     53  C   UNL A   1      38.352  31.535  30.959  1.00  0.00     0.049 A 
ATOM     54  H   UNL A   1      39.852  30.852  32.235  1.00  0.00     0.167 HD
ATOM     55  C   UNL A   1      42.880  29.167  34.916  1.00  0.00     0.037 A 
ATOM     56  C   UNL A   1      37.736  32.562  31.577  1.00  0.00     0.037 A 
ATOM     57  C   UNL A   1      42.353  30.317  35.606  1.00  0.00     0.049 A 
ATOM     58  C   UNL A   1      38.210  32.987  32.942  1.00  0.00     0.074 A 
ATOM     59  C   UNL A   1      42.748  30.842  36.825  1.00  0.00     0.029 A 
ATOM     60  N   UNL A   1      41.321  31.118  35.141  1.00  0.00    -0.354 N 
ATOM     61  N   UNL A   1      39.172  32.477  33.676  1.00  0.00    -0.248 NA
ATOM     62  C   UNL A   1      37.523  34.129  33.560  1.00  0.00     0.031 C 
ATOM     63  C   UNL A   1      41.920  31.929  37.121  1.00  0.00     0.029 A 
ATOM     64  C   UNL A   1      41.050  32.119  36.060  1.00  0.00     0.049 A 
ATOM     65  H   UNL A   1      40.851  30.994  34.286  1.00  0.00     0.167 HD
ATOM     66  C   UNL A   1      39.224  33.258  34.826  1.00  0.00     0.074 A 
ATOM     67  C   UNL A   1      38.208  34.279  34.685  1.00  0.00     0.031 C 
ATOM     68  C   UNL A   1      40.043  33.139  35.901  1.00  0.00     0.037 A 
BRANCH  55  69
ATOM     69  C   UNL A   1      43.957  28.366  35.595  1.00  0.00     0.058 A 
ATOM     70  C   UNL A   1      45.320  28.641  35.393  1.00  0.00     0.135 A 
ATOM     71  C   UNL A   1      43.625  27.350  36.506  1.00  0.00     0.135 A 
ATOM     72  F   UNL A   1      45.696  29.591  34.521  1.00  0.00    -0.206 F 
ATOM     73  C   UNL A   1      46.313  27.925  36.052  1.00  0.00     0.059 A 
ATOM     74  C   UNL A   1      44.601  26.640  37.199  1.00  0.00     0.059 A 
ATOM     75  F   UNL A   1      42.338  27.045  36.737  1.00  0.00    -0.206 F 
ATOM     76  C   UNL A   1      45.943  26.928  36.957  1.00  0.00     0.060 A 
BRANCH  76  77
ATOM     77  S   UNL A   1      47.245  26.026  37.822  1.00  0.00     0.124 S 
ATOM     78  O   UNL A   1      46.781  24.647  37.691  1.00  0.00    -0.237 OA
ATOM     79  O   UNL A   1      48.431  26.370  37.044  1.00  0.00    -0.237 OA
ATOM     80  O   UNL A   1      47.203  26.575  39.173  1.00  0.00    -0.744 OA
ENDBRANCH  76  77
ENDBRANCH  55  69
BRANCH  56  81
ATOM     81  C   UNL A   1      36.610  33.271  30.909  1.00  0.00     0.058 A 
ATOM     82  C   UNL A   1      35.283  33.077  31.325  1.00  0.00     0.135 A 
ATOM     83  C   UNL A   1      36.834  34.151  29.839  1.00  0.00     0.135 A 
ATOM     84  F   UNL A   1      35.015  32.242  32.341  1.00  0.00    -0.206 F 
ATOM     85  C   UNL A   1      34.219  33.707  30.689  1.00  0.00     0.059 A 
ATOM     86  C   UNL A   1      35.788  34.815  29.205  1.00  0.00     0.059 A 
ATOM     87  F   UNL A   1      38.085  34.386  29.412  1.00  0.00    -0.206 F 
ATOM     88  C   UNL A   1      34.482  34.576  29.628  1.00  0.00     0.060 A 
BRANCH  88  89
ATOM     89  S   UNL A   1      33.096  35.411  28.828  1.00  0.00     0.124 S 
ATOM     90  O   UNL A   1      33.780  36.433  28.047  1.00  0.00    -0.237 OA
ATOM     91  O   UNL A   1      32.485  34.326  28.066  1.00  0.00    -0.237 OA
ATOM     92  O   UNL A   1      32.303  35.898  29.953  1.00  0.00    -0.744 OA
ENDBRANCH  88  89
ENDBRANCH  56  81
BRANCH  68  93
ATOM     93  C   UNL A   1      39.909  34.165  36.994  1.00  0.00     0.058 A 
ATOM     94  C   UNL A   1      40.527  35.421  36.913  1.00  0.00     0.135 A 
ATOM     95  C   UNL A   1      39.099  33.903  38.113  1.00  0.00     0.135 A 
ATOM     96  F   UNL A   1      41.316  35.720  35.869  1.00  0.00    -0.206 F 
ATOM     97  C   UNL A   1      40.367  36.375  37.914  1.00  0.00     0.059 A 
ATOM     98  C   UNL A   1      38.901  34.854  39.109  1.00  0.00     0.059 A 
ATOM     99  F   UNL A   1      38.474  32.721  38.235  1.00  0.00    -0.206 F 
ATOM    100  C   UNL A   1      39.549  36.083  39.007  1.00  0.00     0.060 A 
BRANCH 100 101
ATOM    101  S   UNL A   1      39.321  37.343  40.279  1.00  0.00     0.124 S 
ATOM    102  O   UNL A   1      38.612  36.595  41.312  1.00  0.00    -0.237 OA
ATOM    103  O   UNL A   1      40.696  37.717  40.597  1.00  0.00    -0.237 OA
ATOM    104  O   UNL A   1      38.539  38.373  39.602  1.00  0.00    -0.744 OA
ENDBRANCH 100 101
ENDBRANCH  68  93
ENDBRANCH  42  43
ENDBRANCH  34  37
ENDBRANCH  32  33
ENDBRANCH  31  32
ENDBRANCH   1  31
TORSDOF 18
ENDMDL
MODEL 2
REMARK VINA RESULT:     -12.7      1.416      2.089
REMARK SMILES CCOc1ccc(-c2cc(Cl)cc3c2O[C@H](C(F)(F)F)C(C(=O)NCCCCNC(=O)c2ccc(-c4c5nc(c(-c6c(F)cc(S(=O)(=O)[O-])cc6F)c6ccc([nH]6)c(-c6c(F)cc(S(=O)(=O)[O-])cc6F)c6nc(c(-c7c(F)cc(S(=O)(=O)[O-])cc7F)c7ccc4[nH]7)C=C6)C=C5)cc2)=C3)cc1
REMARK SMILES IDX 26 1 25 2 24 3 22 4 23 5 21 7 8 8 9 9 14 10 10 11 13 12
REMARK SMILES IDX 15 13 11 14 12 15 98 16 16 17 7 18 4 19 5 20 100 21 6 22
REMARK SMILES IDX 99 23 3 24 2 25 1 26 17 27 18 28 19 29 20 30 27 31 28 32
REMARK SMILES IDX 29 33 30 34 31 36 32 37 33 38 97 39 34 40 96 41 35 42 36 43
REMARK SMILES IDX 37 44 90 45 38 46 95 47 89 48 91 49 39 50 94 51 88 52 87 53
REMARK SMILES IDX 40 55 74 56 53 57 73 58 54 59 57 60 72 61 92 62 55 63 56 64
REMARK SMILES IDX 71 66 93 67 58 68 41 69 42 70 51 71 43 72 44 73 50 74 52 75
REMARK SMILES IDX 45 76 46 77 47 78 48 79 49 80 75 81 76 82 85 83 77 84 78 85
REMARK SMILES IDX 84 86 86 87 79 88 80 89 81 90 82 91 83 92 59 93 60 94 69 95
REMARK SMILES IDX 61 96 62 97 68 98 70 99 63 100 64 101 65 102 66 103 67 104
REMARK H PARENT 24 6 29 35 91 54 57 65
REMARK Flexibility Score: inf
ROOT
ATOM      1  C   UNL A   1      36.630  23.260  24.874  1.00  0.00     0.023 C 
ENDROOT
BRANCH   1   2
ATOM      2  C   UNL A   1      35.305  22.484  24.826  1.00  0.00     0.116 C 
BRANCH   2   3
ATOM      3  N   UNL A   1      34.443  23.055  23.814  1.00  0.00    -0.352 N 
ATOM      4  C   UNL A   1      33.132  23.376  23.888  1.00  0.00     0.251 C 
ATOM      5  O   UNL A   1      32.448  23.272  22.875  1.00  0.00    -0.270 OA
ATOM      6  H   UNL A   1      34.873  23.236  22.948  1.00  0.00     0.163 HD
BRANCH   4   7
ATOM      7  C   UNL A   1      32.604  23.951  25.164  1.00  0.00     0.067 C 
ATOM      8  C   UNL A   1      31.309  27.543  23.732  1.00  0.00     0.026 A 
ATOM      9  C   UNL A   1      32.334  28.028  22.880  1.00  0.00     0.033 A 
ATOM     10  C   UNL A   1      31.651  26.458  24.560  1.00  0.00     0.135 A 
ATOM     11  C   UNL A   1      33.657  27.608  22.988  1.00  0.00     0.042 A 
ATOM     12  C   UNL A   1      33.018  26.132  24.741  1.00  0.00     0.019 A 
ATOM     13  O   UNL A   1      30.712  25.637  25.173  1.00  0.00    -0.475 OA
ATOM     14  Cl  UNL A   1      34.840  28.235  21.911  1.00  0.00    -0.084 Cl
ATOM     15  C   UNL A   1      34.023  26.718  23.979  1.00  0.00     0.032 A 
ATOM     16  C   UNL A   1      33.345  24.983  25.615  1.00  0.00     0.025 C 
ATOM     17  C   UNL A   1      31.098  24.189  25.182  1.00  0.00     0.314 C 
BRANCH   8  18
ATOM     18  C   UNL A   1      30.105  28.416  23.812  1.00  0.00    -0.014 A 
ATOM     19  C   UNL A   1      28.207  30.377  23.012  1.00  0.00     0.119 A 
ATOM     20  C   UNL A   1      27.966  29.029  22.767  1.00  0.00     0.047 A 
ATOM     21  C   UNL A   1      29.325  30.742  23.755  1.00  0.00     0.047 A 
ATOM     22  C   UNL A   1      28.898  28.058  23.172  1.00  0.00     0.013 A 
ATOM     23  C   UNL A   1      30.261  29.771  24.154  1.00  0.00     0.013 A 
BRANCH  19  24
ATOM     24  O   UNL A   1      27.263  31.277  22.598  1.00  0.00    -0.494 OA
BRANCH  24  25
ATOM     25  C   UNL A   1      27.774  32.436  21.922  1.00  0.00     0.226 C 
ATOM     26  C   UNL A   1      27.995  32.169  20.441  1.00  0.00     0.049 C 
ENDBRANCH  24  25
ENDBRANCH  19  24
ENDBRANCH   8  18
BRANCH  17  27
ATOM     27  C   UNL A   1      30.506  23.447  26.403  1.00  0.00     0.429 C 
ATOM     28  F   UNL A   1      29.453  24.096  26.948  1.00  0.00    -0.167 F 
ATOM     29  F   UNL A   1      30.092  22.201  26.069  1.00  0.00    -0.167 F 
ATOM     30  F   UNL A   1      31.414  23.284  27.402  1.00  0.00    -0.167 F 
ENDBRANCH  17  27
ENDBRANCH   4   7
ENDBRANCH   2   3
ENDBRANCH   1   2
BRANCH   1  31
ATOM     31  C   UNL A   1      37.343  23.255  26.235  1.00  0.00     0.023 C 
BRANCH  31  32
ATOM     32  C   UNL A   1      38.238  24.460  26.496  1.00  0.00     0.116 C 
BRANCH  32  33
ATOM     33  N   UNL A   1      39.606  24.223  26.064  1.00  0.00    -0.352 N 
ATOM     34  C   UNL A   1      40.760  24.845  26.471  1.00  0.00     0.251 C 
ATOM     35  H   UNL A   1      39.720  23.520  25.385  1.00  0.00     0.163 HD
ATOM     36  O   UNL A   1      41.806  24.659  25.849  1.00  0.00    -0.269 OA
BRANCH  34  37
ATOM     37  C   UNL A   1      40.740  25.753  27.639  1.00  0.00     0.039 A 
ATOM     38  C   UNL A   1      41.775  26.677  27.797  1.00  0.00     0.014 A 
ATOM     39  C   UNL A   1      39.700  25.697  28.572  1.00  0.00     0.014 A 
ATOM     40  C   UNL A   1      41.731  27.590  28.854  1.00  0.00     0.010 A 
ATOM     41  C   UNL A   1      39.621  26.656  29.578  1.00  0.00     0.010 A 
ATOM     42  C   UNL A   1      40.635  27.613  29.732  1.00  0.00    -0.014 A 
BRANCH  42  43
ATOM     43  C   UNL A   1      40.529  28.634  30.808  1.00  0.00     0.031 A 
ATOM     44  C   UNL A   1      41.385  28.527  32.042  1.00  0.00     0.074 A 
ATOM     45  C   UNL A   1      39.615  29.622  30.703  1.00  0.00     0.049 A 
ATOM     46  N   UNL A   1      41.384  29.277  33.114  1.00  0.00    -0.248 NA
ATOM     47  C   UNL A   1      42.351  27.418  32.089  1.00  0.00     0.031 C 
ATOM     48  C   UNL A   1      38.691  29.804  29.581  1.00  0.00     0.029 A 
ATOM     49  N   UNL A   1      39.302  30.651  31.558  1.00  0.00    -0.354 N 
ATOM     50  C   UNL A   1      42.335  28.725  33.965  1.00  0.00     0.074 A 
ATOM     51  C   UNL A   1      42.855  27.546  33.308  1.00  0.00     0.031 C 
ATOM     52  C   UNL A   1      37.932  30.889  29.806  1.00  0.00     0.029 A 
ATOM     53  C   UNL A   1      38.282  31.456  31.105  1.00  0.00     0.049 A 
ATOM     54  H   UNL A   1      39.765  30.799  32.413  1.00  0.00     0.167 HD
ATOM     55  C   UNL A   1      42.752  29.171  35.174  1.00  0.00     0.037 A 
ATOM     56  C   UNL A   1      37.686  32.522  31.675  1.00  0.00     0.037 A 
ATOM     57  C   UNL A   1      42.248  30.361  35.812  1.00  0.00     0.049 A 
ATOM     58  C   UNL A   1      38.166  32.996  33.021  1.00  0.00     0.074 A 
ATOM     59  C   UNL A   1      42.651  30.930  37.008  1.00  0.00     0.029 A 
ATOM     60  N   UNL A   1      41.233  31.162  35.310  1.00  0.00    -0.354 N 
ATOM     61  N   UNL A   1      39.115  32.499  33.780  1.00  0.00    -0.248 NA
ATOM     62  C   UNL A   1      37.501  34.178  33.587  1.00  0.00     0.031 C 
ATOM     63  C   UNL A   1      41.845  32.046  37.254  1.00  0.00     0.029 A 
ATOM     64  C   UNL A   1      40.980  32.207  36.183  1.00  0.00     0.049 A 
ATOM     65  H   UNL A   1      40.762  31.010  34.459  1.00  0.00     0.167 HD
ATOM     66  C   UNL A   1      39.182  33.328  34.895  1.00  0.00     0.074 A 
ATOM     67  C   UNL A   1      38.187  34.363  34.706  1.00  0.00     0.031 C 
ATOM     68  C   UNL A   1      39.995  33.240  35.977  1.00  0.00     0.037 A 
BRANCH  55  69
ATOM     69  C   UNL A   1      43.811  28.379  35.891  1.00  0.00     0.058 A 
ATOM     70  C   UNL A   1      45.178  28.655  35.725  1.00  0.00     0.135 A 
ATOM     71  C   UNL A   1      43.456  27.371  36.802  1.00  0.00     0.135 A 
ATOM     72  F   UNL A   1      45.577  29.597  34.856  1.00  0.00    -0.206 F 
ATOM     73  C   UNL A   1      46.154  27.947  36.419  1.00  0.00     0.059 A 
ATOM     74  C   UNL A   1      44.413  26.669  37.529  1.00  0.00     0.059 A 
ATOM     75  F   UNL A   1      42.163  27.064  37.000  1.00  0.00    -0.206 F 
ATOM     76  C   UNL A   1      45.761  26.957  37.323  1.00  0.00     0.060 A 
BRANCH  76  77
ATOM     77  S   UNL A   1      47.039  26.066  38.232  1.00  0.00     0.124 S 
ATOM     78  O   UNL A   1      47.968  27.144  38.561  1.00  0.00    -0.237 OA
ATOM     79  O   UNL A   1      46.292  25.511  39.356  1.00  0.00    -0.237 OA
ATOM     80  O   UNL A   1      47.530  25.090  37.264  1.00  0.00    -0.744 OA
ENDBRANCH  76  77
ENDBRANCH  55  69
BRANCH  56  81
ATOM     81  C   UNL A   1      36.577  33.223  30.973  1.00  0.00     0.058 A 
ATOM     82  C   UNL A   1      36.825  34.036  29.856  1.00  0.00     0.135 A 
ATOM     83  C   UNL A   1      35.247  33.102  31.407  1.00  0.00     0.135 A 
ATOM     84  F   UNL A   1      38.080  34.189  29.405  1.00  0.00    -0.206 F 
ATOM     85  C   UNL A   1      35.802  34.724  29.211  1.00  0.00     0.059 A 
ATOM     86  C   UNL A   1      34.203  33.757  30.761  1.00  0.00     0.059 A 
ATOM     87  F   UNL A   1      34.951  32.323  32.460  1.00  0.00    -0.206 F 
ATOM     88  C   UNL A   1      34.493  34.577  29.671  1.00  0.00     0.060 A 
BRANCH  88  89
ATOM     89  S   UNL A   1      33.169  35.451  28.809  1.00  0.00     0.124 S 
ATOM     90  O   UNL A   1      32.549  34.371  28.052  1.00  0.00    -0.237 OA
ATOM     91  O   UNL A   1      32.384  35.987  29.918  1.00  0.00    -0.237 OA
ATOM     92  O   UNL A   1      33.884  36.449  28.019  1.00  0.00    -0.744 OA
ENDBRANCH  88  89
ENDBRANCH  56  81
BRANCH  68  93
ATOM     93  C   UNL A   1      39.880  34.315  37.024  1.00  0.00     0.058 A 
ATOM     94  C   UNL A   1      40.569  35.531  36.917  1.00  0.00     0.135 A 
ATOM     95  C   UNL A   1      39.018  34.143  38.121  1.00  0.00     0.135 A 
ATOM     96  F   UNL A   1      41.409  35.745  35.892  1.00  0.00    -0.206 F 
ATOM     97  C   UNL A   1      40.427  36.533  37.874  1.00  0.00     0.059 A 
ATOM     98  C   UNL A   1      38.838  35.142  39.072  1.00  0.00     0.059 A 
ATOM     99  F   UNL A   1      38.325  33.001  38.265  1.00  0.00    -0.206 F 
ATOM    100  C   UNL A   1      39.557  36.329  38.946  1.00  0.00     0.060 A 
BRANCH 100 101
ATOM    101  S   UNL A   1      39.354  37.651  40.159  1.00  0.00     0.124 S 
ATOM    102  O   UNL A   1      39.076  36.894  41.375  1.00  0.00    -0.237 OA
ATOM    103  O   UNL A   1      40.651  38.319  40.110  1.00  0.00    -0.237 OA
ATOM    104  O   UNL A   1      38.235  38.427  39.633  1.00  0.00    -0.744 OA
ENDBRANCH 100 101
ENDBRANCH  68  93
ENDBRANCH  42  43
ENDBRANCH  34  37
ENDBRANCH  32  33
ENDBRANCH  31  32
ENDBRANCH   1  31
TORSDOF 18
ENDMDL
MODEL 3
REMARK VINA RESULT:     -12.7      5.027     10.680
REMARK SMILES CCOc1ccc(-c2cc(Cl)cc3c2O[C@H](C(F)(F)F)C(C(=O)NCCCCNC(=O)c2ccc(-c4c5nc(c(-c6c(F)cc(S(=O)(=O)[O-])cc6F)c6ccc([nH]6)c(-c6c(F)cc(S(=O)(=O)[O-])cc6F)c6nc(c(-c7c(F)cc(S(=O)(=O)[O-])cc7F)c7ccc4[nH]7)C=C6)C=C5)cc2)=C3)cc1
REMARK SMILES IDX 26 1 25 2 24 3 22 4 23 5 21 7 8 8 9 9 14 10 10 11 13 12
REMARK SMILES IDX 15 13 11 14 12 15 98 16 16 17 7 18 4 19 5 20 100 21 6 22
REMARK SMILES IDX 99 23 3 24 2 25 1 26 17 27 18 28 19 29 20 30 27 31 28 32
REMARK SMILES IDX 29 33 30 34 31 36 32 37 33 38 97 39 34 40 96 41 35 42 36 43
REMARK SMILES IDX 37 44 90 45 38 46 95 47 89 48 91 49 39 50 94 51 88 52 87 53
REMARK SMILES IDX 40 55 74 56 53 57 73 58 54 59 57 60 72 61 92 62 55 63 56 64
REMARK SMILES IDX 71 66 93 67 58 68 41 69 42 70 51 71 43 72 44 73 50 74 52 75
REMARK SMILES IDX 45 76 46 77 47 78 48 79 49 80 75 81 76 82 85 83 77 84 78 85
REMARK SMILES IDX 84 86 86 87 79 88 80 89 81 90 82 91 83 92 59 93 60 94 69 95
REMARK SMILES IDX 61 96 62 97 68 98 70 99 63 100 64 101 65 102 66 103 67 104
REMARK H PARENT 24 6 29 35 91 54 57 65
REMARK Flexibility Score: inf
ROOT
ATOM      1  C   UNL A   1      31.810  28.024  25.553  1.00  0.00     0.023 C 
ENDROOT
BRANCH   1   2
ATOM      2  C   UNL A   1      32.964  28.174  24.551  1.00  0.00     0.116 C 
BRANCH   2   3
ATOM      3  N   UNL A   1      33.976  27.176  24.823  1.00  0.00    -0.352 N 
ATOM      4  C   UNL A   1      33.892  25.829  24.750  1.00  0.00     0.251 C 
ATOM      5  O   UNL A   1      34.559  25.160  25.532  1.00  0.00    -0.270 OA
ATOM      6  H   UNL A   1      34.852  27.529  25.101  1.00  0.00     0.163 HD
BRANCH   4   7
ATOM      7  C   UNL A   1      33.084  25.219  23.649  1.00  0.00     0.067 C 
ATOM      8  C   UNL A   1      33.781  21.287  24.480  1.00  0.00     0.026 A 
ATOM      9  C   UNL A   1      35.169  21.175  24.748  1.00  0.00     0.033 A 
ATOM     10  C   UNL A   1      33.358  22.494  23.892  1.00  0.00     0.135 A 
ATOM     11  C   UNL A   1      36.100  22.100  24.281  1.00  0.00     0.042 A 
ATOM     12  C   UNL A   1      34.324  23.359  23.319  1.00  0.00     0.019 A 
ATOM     13  O   UNL A   1      32.037  22.923  23.892  1.00  0.00    -0.475 OA
ATOM     14  Cl  UNL A   1      37.763  21.900  24.658  1.00  0.00    -0.084 Cl
ATOM     15  C   UNL A   1      35.689  23.155  23.489  1.00  0.00     0.032 A 
ATOM     16  C   UNL A   1      33.848  24.622  22.712  1.00  0.00     0.025 C 
ATOM     17  C   UNL A   1      31.887  24.398  24.116  1.00  0.00     0.314 C 
BRANCH   8  18
ATOM     18  C   UNL A   1      33.018  20.017  24.619  1.00  0.00    -0.014 A 
ATOM     19  C   UNL A   1      32.560  17.214  24.768  1.00  0.00     0.119 A 
ATOM     20  C   UNL A   1      32.717  17.960  25.931  1.00  0.00     0.047 A 
ATOM     21  C   UNL A   1      32.511  17.871  23.543  1.00  0.00     0.047 A 
ATOM     22  C   UNL A   1      32.932  19.347  25.859  1.00  0.00     0.013 A 
ATOM     23  C   UNL A   1      32.733  19.258  23.470  1.00  0.00     0.013 A 
BRANCH  19  24
ATOM     24  O   UNL A   1      32.350  15.868  24.898  1.00  0.00    -0.494 OA
BRANCH  24  25
ATOM     25  C   UNL A   1      33.373  15.152  25.607  1.00  0.00     0.226 C 
ATOM     26  C   UNL A   1      34.763  15.531  25.120  1.00  0.00     0.049 C 
ENDBRANCH  24  25
ENDBRANCH  19  24
ENDBRANCH   8  18
BRANCH  17  27
ATOM     27  C   UNL A   1      30.620  24.955  23.426  1.00  0.00     0.429 C 
ATOM     28  F   UNL A   1      29.871  23.988  22.849  1.00  0.00    -0.167 F 
ATOM     29  F   UNL A   1      29.829  25.615  24.307  1.00  0.00    -0.167 F 
ATOM     30  F   UNL A   1      30.913  25.848  22.444  1.00  0.00    -0.167 F 
ENDBRANCH  17  27
ENDBRANCH   4   7
ENDBRANCH   2   3
ENDBRANCH   1   2
BRANCH   1  31
ATOM     31  C   UNL A   1      32.224  28.002  27.032  1.00  0.00     0.023 C 
BRANCH  31  32
ATOM     32  C   UNL A   1      33.602  28.583  27.322  1.00  0.00     0.116 C 
BRANCH  32  33
ATOM     33  N   UNL A   1      33.531  29.987  27.694  1.00  0.00    -0.352 N 
ATOM     34  C   UNL A   1      34.471  30.762  28.326  1.00  0.00     0.251 C 
ATOM     35  H   UNL A   1      32.692  30.445  27.460  1.00  0.00     0.163 HD
ATOM     36  O   UNL A   1      34.162  31.877  28.745  1.00  0.00    -0.269 OA
BRANCH  34  37
ATOM     37  C   UNL A   1      35.844  30.247  28.523  1.00  0.00     0.039 A 
ATOM     38  C   UNL A   1      36.750  30.310  27.462  1.00  0.00     0.014 A 
ATOM     39  C   UNL A   1      36.239  29.711  29.753  1.00  0.00     0.014 A 
ATOM     40  C   UNL A   1      38.071  29.895  27.656  1.00  0.00     0.010 A 
ATOM     41  C   UNL A   1      37.572  29.370  29.964  1.00  0.00     0.010 A 
ATOM     42  C   UNL A   1      38.503  29.457  28.919  1.00  0.00    -0.014 A 
BRANCH  42  43
ATOM     43  C   UNL A   1      39.925  29.096  29.165  1.00  0.00     0.031 A 
ATOM     44  C   UNL A   1      40.885  30.122  29.707  1.00  0.00     0.074 A 
ATOM     45  C   UNL A   1      40.367  27.863  28.840  1.00  0.00     0.049 A 
ATOM     46  N   UNL A   1      42.172  30.017  29.919  1.00  0.00    -0.248 NA
ATOM     47  C   UNL A   1      40.332  31.448  30.029  1.00  0.00     0.031 C 
ATOM     48  C   UNL A   1      39.547  26.797  28.260  1.00  0.00     0.029 A 
ATOM     49  N   UNL A   1      41.617  27.302  28.937  1.00  0.00    -0.354 N 
ATOM     50  C   UNL A   1      42.583  31.261  30.384  1.00  0.00     0.074 A 
ATOM     51  C   UNL A   1      41.420  32.121  30.374  1.00  0.00     0.031 C 
ATOM     52  C   UNL A   1      40.309  25.707  28.072  1.00  0.00     0.029 A 
ATOM     53  C   UNL A   1      41.679  26.006  28.478  1.00  0.00     0.049 A 
ATOM     54  H   UNL A   1      42.395  27.781  29.302  1.00  0.00     0.167 HD
ATOM     55  C   UNL A   1      43.813  31.645  30.803  1.00  0.00     0.037 A 
ATOM     56  C   UNL A   1      42.722  25.158  28.381  1.00  0.00     0.037 A 
ATOM     57  C   UNL A   1      44.961  30.776  30.836  1.00  0.00     0.049 A 
ATOM     58  C   UNL A   1      44.080  25.611  28.850  1.00  0.00     0.074 A 
ATOM     59  C   UNL A   1      46.235  31.053  31.302  1.00  0.00     0.029 A 
ATOM     60  N   UNL A   1      44.977  29.464  30.386  1.00  0.00    -0.354 N 
ATOM     61  N   UNL A   1      44.434  26.771  29.352  1.00  0.00    -0.248 NA
ATOM     62  C   UNL A   1      45.178  24.641  28.748  1.00  0.00     0.031 C 
ATOM     63  C   UNL A   1      47.035  29.927  31.085  1.00  0.00     0.029 A 
ATOM     64  C   UNL A   1      46.245  28.927  30.541  1.00  0.00     0.049 A 
ATOM     65  H   UNL A   1      44.203  28.986  30.012  1.00  0.00     0.167 HD
ATOM     66  C   UNL A   1      45.787  26.657  29.654  1.00  0.00     0.074 A 
ATOM     67  C   UNL A   1      46.183  25.313  29.291  1.00  0.00     0.031 C 
ATOM     68  C   UNL A   1      46.624  27.582  30.187  1.00  0.00     0.037 A 
BRANCH  55  69
ATOM     69  C   UNL A   1      43.987  33.066  31.269  1.00  0.00     0.058 A 
ATOM     70  C   UNL A   1      44.268  34.107  30.370  1.00  0.00     0.135 A 
ATOM     71  C   UNL A   1      43.813  33.400  32.622  1.00  0.00     0.135 A 
ATOM     72  F   UNL A   1      44.460  33.844  29.068  1.00  0.00    -0.206 F 
ATOM     73  C   UNL A   1      44.390  35.425  30.798  1.00  0.00     0.059 A 
ATOM     74  C   UNL A   1      43.901  34.715  33.068  1.00  0.00     0.059 A 
ATOM     75  F   UNL A   1      43.544  32.444  33.525  1.00  0.00    -0.206 F 
ATOM     76  C   UNL A   1      44.200  35.720  32.150  1.00  0.00     0.060 A 
BRANCH  76  77
ATOM     77  S   UNL A   1      44.338  37.439  32.683  1.00  0.00     0.124 S 
ATOM     78  O   UNL A   1      45.768  37.544  32.961  1.00  0.00    -0.237 OA
ATOM     79  O   UNL A   1      43.867  38.167  31.509  1.00  0.00    -0.237 OA
ATOM     80  O   UNL A   1      43.466  37.505  33.851  1.00  0.00    -0.744 OA
ENDBRANCH  76  77
ENDBRANCH  55  69
BRANCH  56  81
ATOM     81  C   UNL A   1      42.527  23.791  27.827  1.00  0.00     0.058 A 
ATOM     82  C   UNL A   1      42.420  23.578  26.444  1.00  0.00     0.135 A 
ATOM     83  C   UNL A   1      42.437  22.670  28.666  1.00  0.00     0.135 A 
ATOM     84  F   UNL A   1      42.493  24.618  25.598  1.00  0.00    -0.206 F 
ATOM     85  C   UNL A   1      42.203  22.310  25.914  1.00  0.00     0.059 A 
ATOM     86  C   UNL A   1      42.251  21.388  28.159  1.00  0.00     0.059 A 
ATOM     87  F   UNL A   1      42.551  22.814  29.996  1.00  0.00    -0.206 F 
ATOM     88  C   UNL A   1      42.121  21.219  26.781  1.00  0.00     0.060 A 
BRANCH  88  89
ATOM     89  S   UNL A   1      41.870  19.574  26.082  1.00  0.00     0.124 S 
ATOM     90  O   UNL A   1      42.806  19.583  24.965  1.00  0.00    -0.237 OA
ATOM     91  O   UNL A   1      42.221  18.709  27.204  1.00  0.00    -0.237 OA
ATOM     92  O   UNL A   1      40.455  19.575  25.722  1.00  0.00    -0.744 OA
ENDBRANCH  88  89
ENDBRANCH  56  81
BRANCH  68  93
ATOM     93  C   UNL A   1      48.044  27.162  30.454  1.00  0.00     0.058 A 
ATOM     94  C   UNL A   1      49.067  27.369  29.516  1.00  0.00     0.135 A 
ATOM     95  C   UNL A   1      48.394  26.598  31.693  1.00  0.00     0.135 A 
ATOM     96  F   UNL A   1      48.787  27.899  28.316  1.00  0.00    -0.206 F 
ATOM     97  C   UNL A   1      50.384  27.010  29.788  1.00  0.00     0.059 A 
ATOM     98  C   UNL A   1      49.709  26.260  31.996  1.00  0.00     0.059 A 
ATOM     99  F   UNL A   1      47.456  26.389  32.630  1.00  0.00    -0.206 F 
ATOM    100  C   UNL A   1      50.696  26.458  31.032  1.00  0.00     0.060 A 
BRANCH 100 101
ATOM    101  S   UNL A   1      52.414  26.031  31.384  1.00  0.00     0.124 S 
ATOM    102  O   UNL A   1      52.278  24.681  31.919  1.00  0.00    -0.237 OA
ATOM    103  O   UNL A   1      53.036  26.132  30.067  1.00  0.00    -0.237 OA
ATOM    104  O   UNL A   1      52.828  27.049  32.345  1.00  0.00    -0.744 OA
ENDBRANCH 100 101
ENDBRANCH  68  93
ENDBRANCH  42  43
ENDBRANCH  34  37
ENDBRANCH  32  33
ENDBRANCH  31  32
ENDBRANCH   1  31
TORSDOF 18
ENDMDL
