MODEL 1
REMARK VINA RESULT:     -12.6      0.000      0.000
REMARK SMILES Cc1ccc(C(=O)NCCCCNC(=O)c2ccc(-c3c4nc(c(-c5c(F)cc(S(=O)(=O)[O-])cc5F)c5ccc([nH]5)c(-c5c(F)cc(S(=O)(=O)[O-])cc5F)c5nc(c(-c6c(F)cc(S(=O)(=O)[O-])cc6F)c6ccc3[nH]6)C=C5)C=C4)cc2)cc1N1C(=O)/C(=C\c2nc3ccccc3n2C)SC1=S
REMARK SMILES IDX 11 1 10 2 9 3 8 4 6 5 7 6 5 8 1 9 2 10 3 11 83 12 4 13 82 14
REMARK SMILES IDX 84 15 85 16 100 17 86 18 87 19 99 20 101 21 88 22 89 23
REMARK SMILES IDX 90 24 97 25 91 26 96 27 98 28 92 29 95 30 93 31 94 32 12 33
REMARK SMILES IDX 13 34 14 35 15 37 16 38 17 39 81 40 18 41 80 42 19 43 20 44
REMARK SMILES IDX 21 45 74 46 22 47 79 48 73 49 75 50 23 51 78 52 72 53 71 54
REMARK SMILES IDX 24 56 58 57 37 58 57 59 38 60 41 61 56 62 76 63 39 64 40 65
REMARK SMILES IDX 55 67 77 68 42 69 25 70 26 71 35 72 27 73 28 74 34 75 36 76
REMARK SMILES IDX 29 77 30 78 31 79 32 80 33 81 59 82 60 83 69 84 61 85 62 86
REMARK SMILES IDX 68 87 70 88 63 89 64 90 65 91 66 92 67 93 43 94 44 95 53 96
REMARK SMILES IDX 45 97 46 98 52 99 54 100 47 101 48 102 49 103 50 104 51 105
REMARK H PARENT 8 7 13 36 75 55 41 66
REMARK Flexibility Score: inf
ROOT
ATOM      1  C   UNL A   1      31.580  29.501  26.571  1.00  0.00     0.023 C 
ENDROOT
BRANCH   1   2
ATOM      2  C   UNL A   1      31.343  28.457  25.472  1.00  0.00     0.023 C 
BRANCH   2   3
ATOM      3  C   UNL A   1      31.407  28.982  24.024  1.00  0.00     0.116 C 
BRANCH   3   4
ATOM      4  N   UNL A   1      32.775  29.184  23.562  1.00  0.00    -0.352 N 
ATOM      5  C   UNL A   1      33.690  28.377  22.931  1.00  0.00     0.251 C 
ATOM      6  O   UNL A   1      34.753  28.896  22.579  1.00  0.00    -0.269 OA
ATOM      7  H   UNL A   1      33.115  30.091  23.739  1.00  0.00     0.163 HD
BRANCH   5   8
ATOM      8  C   UNL A   1      33.479  26.930  22.634  1.00  0.00     0.041 A 
ATOM      9  C   UNL A   1      32.575  22.824  21.539  1.00  0.00     0.046 C 
ATOM     10  C   UNL A   1      32.955  24.219  21.949  1.00  0.00    -0.027 A 
ATOM     11  C   UNL A   1      32.839  25.242  20.994  1.00  0.00     0.006 A 
ATOM     12  C   UNL A   1      33.385  24.560  23.242  1.00  0.00     0.054 A 
ATOM     13  C   UNL A   1      33.079  26.579  21.338  1.00  0.00     0.014 A 
ATOM     14  C   UNL A   1      33.669  25.902  23.551  1.00  0.00     0.041 A 
BRANCH  12  15
ATOM     15  N   UNL A   1      33.340  23.633  24.320  1.00  0.00    -0.261 N 
ATOM     16  C   UNL A   1      34.373  22.713  24.432  1.00  0.00     0.270 C 
ATOM     17  C   UNL A   1      32.288  23.467  25.199  1.00  0.00     0.152 C 
ATOM     18  O   UNL A   1      35.161  22.394  23.553  1.00  0.00    -0.268 OA
ATOM     19  C   UNL A   1      34.295  22.038  25.759  1.00  0.00     0.084 C 
ATOM     20  S   UNL A   1      32.696  22.197  26.375  1.00  0.00    -0.054 SA
ATOM     21  S   UNL A   1      30.801  24.230  25.215  1.00  0.00    -0.051 S 
ATOM     22  C   UNL A   1      35.336  21.507  26.422  1.00  0.00     0.068 C 
BRANCH  22  23
ATOM     23  C   UNL A   1      36.642  21.773  25.943  1.00  0.00     0.134 A 
ATOM     24  N   UNL A   1      37.533  20.901  25.505  1.00  0.00    -0.229 NA
ATOM     25  N   UNL A   1      37.229  23.001  26.129  1.00  0.00    -0.328 N 
ATOM     26  C   UNL A   1      38.751  21.498  25.727  1.00  0.00     0.089 A 
ATOM     27  C   UNL A   1      38.584  22.789  26.215  1.00  0.00     0.068 A 
ATOM     28  C   UNL A   1      36.579  24.284  26.194  1.00  0.00     0.152 C 
ATOM     29  C   UNL A   1      40.045  20.974  25.601  1.00  0.00     0.030 A 
ATOM     30  C   UNL A   1      39.645  23.566  26.680  1.00  0.00     0.028 A 
ATOM     31  C   UNL A   1      41.127  21.739  26.055  1.00  0.00     0.002 A 
ATOM     32  C   UNL A   1      40.922  23.001  26.613  1.00  0.00     0.002 A 
ENDBRANCH  22  23
ENDBRANCH  12  15
ENDBRANCH   5   8
ENDBRANCH   3   4
ENDBRANCH   2   3
ENDBRANCH   1   2
BRANCH   1  33
ATOM     33  C   UNL A   1      32.951  29.425  27.214  1.00  0.00     0.116 C 
BRANCH  33  34
ATOM     34  N   UNL A   1      33.976  30.276  26.632  1.00  0.00    -0.352 N 
ATOM     35  C   UNL A   1      34.768  31.033  27.503  1.00  0.00     0.251 C 
ATOM     36  H   UNL A   1      34.110  30.318  25.657  1.00  0.00     0.163 HD
ATOM     37  O   UNL A   1      34.514  32.154  27.885  1.00  0.00    -0.269 OA
BRANCH  35  38
ATOM     38  C   UNL A   1      35.873  30.240  28.091  1.00  0.00     0.039 A 
ATOM     39  C   UNL A   1      35.859  29.805  29.416  1.00  0.00     0.014 A 
ATOM     40  C   UNL A   1      37.020  30.120  27.308  1.00  0.00     0.014 A 
ATOM     41  C   UNL A   1      37.057  29.376  29.998  1.00  0.00     0.010 A 
ATOM     42  C   UNL A   1      38.213  29.812  27.910  1.00  0.00     0.010 A 
ATOM     43  C   UNL A   1      38.238  29.460  29.264  1.00  0.00    -0.014 A 
BRANCH  43  44
ATOM     44  C   UNL A   1      39.586  29.232  29.765  1.00  0.00     0.031 A 
ATOM     45  C   UNL A   1      40.243  27.930  29.494  1.00  0.00     0.074 A 
ATOM     46  C   UNL A   1      40.315  30.307  30.128  1.00  0.00     0.049 A 
ATOM     47  N   UNL A   1      41.470  27.658  29.776  1.00  0.00    -0.248 NA
ATOM     48  C   UNL A   1      39.531  26.793  28.906  1.00  0.00     0.031 C 
ATOM     49  C   UNL A   1      41.764  30.463  30.052  1.00  0.00     0.029 A 
ATOM     50  N   UNL A   1      39.897  31.400  30.876  1.00  0.00    -0.354 N 
ATOM     51  C   UNL A   1      41.790  26.482  29.143  1.00  0.00     0.074 A 
ATOM     52  C   UNL A   1      40.529  25.920  28.737  1.00  0.00     0.031 C 
ATOM     53  C   UNL A   1      42.144  31.433  30.895  1.00  0.00     0.029 A 
ATOM     54  C   UNL A   1      40.973  31.804  31.672  1.00  0.00     0.049 A 
ATOM     55  H   UNL A   1      39.005  31.815  30.849  1.00  0.00     0.167 HD
ATOM     56  C   UNL A   1      43.102  26.202  28.913  1.00  0.00     0.037 A 
ATOM     57  C   UNL A   1      40.930  31.723  33.037  1.00  0.00     0.037 A 
ATOM     58  C   UNL A   1      43.959  27.048  29.745  1.00  0.00     0.049 A 
ATOM     59  C   UNL A   1      42.006  30.826  33.587  1.00  0.00     0.074 A 
ATOM     60  C   UNL A   1      44.789  28.123  29.483  1.00  0.00     0.029 A 
ATOM     61  N   UNL A   1      43.813  26.994  31.134  1.00  0.00    -0.354 N 
ATOM     62  N   UNL A   1      42.507  29.814  32.931  1.00  0.00    -0.248 NA
ATOM     63  C   UNL A   1      42.663  31.057  34.868  1.00  0.00     0.031 C 
ATOM     64  C   UNL A   1      45.021  28.798  30.716  1.00  0.00     0.029 A 
ATOM     65  C   UNL A   1      44.388  28.096  31.733  1.00  0.00     0.049 A 
ATOM     66  H   UNL A   1      43.359  26.267  31.620  1.00  0.00     0.167 HD
ATOM     67  C   UNL A   1      43.557  29.300  33.639  1.00  0.00     0.074 A 
ATOM     68  C   UNL A   1      43.601  30.095  34.855  1.00  0.00     0.031 C 
ATOM     69  C   UNL A   1      44.343  28.283  33.179  1.00  0.00     0.037 A 
BRANCH  56  70
ATOM     70  C   UNL A   1      43.612  25.289  27.809  1.00  0.00     0.058 A 
ATOM     71  C   UNL A   1      44.282  24.085  28.123  1.00  0.00     0.135 A 
ATOM     72  C   UNL A   1      43.594  25.600  26.428  1.00  0.00     0.135 A 
ATOM     73  F   UNL A   1      44.419  23.686  29.396  1.00  0.00    -0.206 F 
ATOM     74  C   UNL A   1      44.869  23.260  27.152  1.00  0.00     0.059 A 
ATOM     75  C   UNL A   1      44.124  24.768  25.440  1.00  0.00     0.059 A 
ATOM     76  F   UNL A   1      43.130  26.765  25.964  1.00  0.00    -0.206 F 
ATOM     77  C   UNL A   1      44.780  23.606  25.809  1.00  0.00     0.060 A 
BRANCH  77  78
ATOM     78  S   UNL A   1      45.539  22.560  24.551  1.00  0.00     0.124 S 
ATOM     79  O   UNL A   1      44.375  22.114  23.791  1.00  0.00    -0.237 OA
ATOM     80  O   UNL A   1      46.432  23.487  23.865  1.00  0.00    -0.237 OA
ATOM     81  O   UNL A   1      46.207  21.522  25.332  1.00  0.00    -0.744 OA
ENDBRANCH  77  78
ENDBRANCH  56  70
BRANCH  57  82
ATOM     82  C   UNL A   1      39.577  31.966  33.612  1.00  0.00     0.058 A 
ATOM     83  C   UNL A   1      38.916  30.828  34.105  1.00  0.00     0.135 A 
ATOM     84  C   UNL A   1      39.267  33.198  34.206  1.00  0.00     0.135 A 
ATOM     85  F   UNL A   1      39.092  29.646  33.498  1.00  0.00    -0.206 F 
ATOM     86  C   UNL A   1      38.232  30.854  35.313  1.00  0.00     0.059 A 
ATOM     87  C   UNL A   1      38.550  33.255  35.404  1.00  0.00     0.059 A 
ATOM     88  F   UNL A   1      39.823  34.329  33.747  1.00  0.00    -0.206 F 
ATOM     89  C   UNL A   1      38.154  32.059  36.003  1.00  0.00     0.060 A 
BRANCH  89  90
ATOM     90  S   UNL A   1      37.760  32.001  37.770  1.00  0.00     0.124 S 
ATOM     91  O   UNL A   1      39.020  32.408  38.384  1.00  0.00    -0.237 OA
ATOM     92  O   UNL A   1      36.678  32.981  37.852  1.00  0.00    -0.237 OA
ATOM     93  O   UNL A   1      37.371  30.612  37.980  1.00  0.00    -0.744 OA
ENDBRANCH  89  90
ENDBRANCH  57  82
BRANCH  69  94
ATOM     94  C   UNL A   1      45.226  27.453  34.075  1.00  0.00     0.058 A 
ATOM     95  C   UNL A   1      44.837  26.195  34.573  1.00  0.00     0.135 A 
ATOM     96  C   UNL A   1      46.565  27.826  34.330  1.00  0.00     0.135 A 
ATOM     97  F   UNL A   1      43.635  25.671  34.290  1.00  0.00    -0.206 F 
ATOM     98  C   UNL A   1      45.682  25.401  35.344  1.00  0.00     0.059 A 
ATOM     99  C   UNL A   1      47.444  27.022  35.050  1.00  0.00     0.059 A 
ATOM    100  F   UNL A   1      47.069  28.980  33.867  1.00  0.00    -0.206 F 
ATOM    101  C   UNL A   1      46.985  25.823  35.579  1.00  0.00     0.060 A 
BRANCH 101 102
ATOM    102  S   UNL A   1      48.099  24.765  36.518  1.00  0.00     0.124 S 
ATOM    103  O   UNL A   1      48.667  23.933  35.461  1.00  0.00    -0.237 OA
ATOM    104  O   UNL A   1      49.018  25.720  37.129  1.00  0.00    -0.237 OA
ATOM    105  O   UNL A   1      47.205  24.085  37.450  1.00  0.00    -0.744 OA
ENDBRANCH 101 102
ENDBRANCH  69  94
ENDBRANCH  43  44
ENDBRANCH  35  38
ENDBRANCH  33  34
ENDBRANCH   1  33
TORSDOF 16
ENDMDL
MODEL 2
REMARK VINA RESULT:     -12.6      1.429      2.030
REMARK SMILES Cc1ccc(C(=O)NCCCCNC(=O)c2ccc(-c3c4nc(c(-c5c(F)cc(S(=O)(=O)[O-])cc5F)c5ccc([nH]5)c(-c5c(F)cc(S(=O)(=O)[O-])cc5F)c5nc(c(-c6c(F)cc(S(=O)(=O)[O-])cc6F)c6ccc3[nH]6)C=C5)C=C4)cc2)cc1N1C(=O)/C(=C\c2nc3ccccc3n2C)SC1=S
REMARK SMILES IDX 11 1 10 2 9 3 8 4 6 5 7 6 5 8 1 9 2 10 3 11 83 12 4 13 82 14
REMARK SMILES IDX 84 15 85 16 100 17 86 18 87 19 99 20 101 21 88 22 89 23
REMARK SMILES IDX 90 24 97 25 91 26 96 27 98 28 92 29 95 30 93 31 94 32 12 33
REMARK SMILES IDX 13 34 14 35 15 37 16 38 17 39 81 40 18 41 80 42 19 43 20 44
REMARK SMILES IDX 21 45 74 46 22 47 79 48 73 49 75 50 23 51 78 52 72 53 71 54
REMARK SMILES IDX 24 56 58 57 37 58 57 59 38 60 41 61 56 62 76 63 39 64 40 65
REMARK SMILES IDX 55 67 77 68 42 69 25 70 26 71 35 72 27 73 28 74 34 75 36 76
REMARK SMILES IDX 29 77 30 78 31 79 32 80 33 81 59 82 60 83 69 84 61 85 62 86
REMARK SMILES IDX 68 87 70 88 63 89 64 90 65 91 66 92 67 93 43 94 44 95 53 96
REMARK SMILES IDX 45 97 46 98 52 99 54 100 47 101 48 102 49 103 50 104 51 105
REMARK H PARENT 8 7 13 36 75 55 41 66
REMARK Flexibility Score: inf
ROOT
ATOM      1  C   UNL A   1      31.467  29.320  26.227  1.00  0.00     0.023 C 
ENDROOT
BRANCH   1   2
ATOM      2  C   UNL A   1      31.152  28.382  25.055  1.00  0.00     0.023 C 
BRANCH   2   3
ATOM      3  C   UNL A   1      31.345  28.980  23.647  1.00  0.00     0.116 C 
BRANCH   3   4
ATOM      4  N   UNL A   1      32.751  29.141  23.295  1.00  0.00    -0.352 N 
ATOM      5  C   UNL A   1      33.698  28.294  22.774  1.00  0.00     0.251 C 
ATOM      6  O   UNL A   1      34.797  28.780  22.494  1.00  0.00    -0.269 OA
ATOM      7  H   UNL A   1      33.094  30.047  23.467  1.00  0.00     0.163 HD
BRANCH   5   8
ATOM      8  C   UNL A   1      33.482  26.840  22.513  1.00  0.00     0.041 A 
ATOM      9  C   UNL A   1      32.563  22.711  21.523  1.00  0.00     0.046 C 
ATOM     10  C   UNL A   1      32.949  24.115  21.896  1.00  0.00    -0.027 A 
ATOM     11  C   UNL A   1      32.826  25.115  20.919  1.00  0.00     0.006 A 
ATOM     12  C   UNL A   1      33.390  24.486  23.178  1.00  0.00     0.054 A 
ATOM     13  C   UNL A   1      33.070  26.459  21.228  1.00  0.00     0.014 A 
ATOM     14  C   UNL A   1      33.678  25.834  23.452  1.00  0.00     0.041 A 
BRANCH  12  15
ATOM     15  N   UNL A   1      33.353  23.584  24.278  1.00  0.00    -0.261 N 
ATOM     16  C   UNL A   1      34.400  22.683  24.418  1.00  0.00     0.270 C 
ATOM     17  C   UNL A   1      32.299  23.423  25.155  1.00  0.00     0.152 C 
ATOM     18  O   UNL A   1      35.197  22.356  23.551  1.00  0.00    -0.268 OA
ATOM     19  C   UNL A   1      34.324  22.041  25.761  1.00  0.00     0.084 C 
ATOM     20  S   UNL A   1      32.719  22.189  26.363  1.00  0.00    -0.054 SA
ATOM     21  S   UNL A   1      30.799  24.163  25.143  1.00  0.00    -0.051 S 
ATOM     22  C   UNL A   1      35.369  21.542  26.442  1.00  0.00     0.068 C 
BRANCH  22  23
ATOM     23  C   UNL A   1      36.674  21.817  25.965  1.00  0.00     0.134 A 
ATOM     24  N   UNL A   1      37.566  20.953  25.515  1.00  0.00    -0.229 NA
ATOM     25  N   UNL A   1      37.257  23.044  26.162  1.00  0.00    -0.328 N 
ATOM     26  C   UNL A   1      38.783  21.551  25.743  1.00  0.00     0.089 A 
ATOM     27  C   UNL A   1      38.613  22.835  26.244  1.00  0.00     0.068 A 
ATOM     28  C   UNL A   1      36.604  24.325  26.243  1.00  0.00     0.152 C 
ATOM     29  C   UNL A   1      40.079  21.031  25.610  1.00  0.00     0.030 A 
ATOM     30  C   UNL A   1      39.672  23.610  26.717  1.00  0.00     0.028 A 
ATOM     31  C   UNL A   1      41.159  21.794  26.070  1.00  0.00     0.002 A 
ATOM     32  C   UNL A   1      40.951  23.049  26.641  1.00  0.00     0.002 A 
ENDBRANCH  22  23
ENDBRANCH  12  15
ENDBRANCH   5   8
ENDBRANCH   3   4
ENDBRANCH   2   3
ENDBRANCH   1   2
BRANCH   1  33
ATOM     33  C   UNL A   1      32.859  29.149  26.802  1.00  0.00     0.116 C 
BRANCH  33  34
ATOM     34  N   UNL A   1      33.840  30.146  26.403  1.00  0.00    -0.352 N 
ATOM     35  C   UNL A   1      34.474  30.879  27.413  1.00  0.00     0.251 C 
ATOM     36  H   UNL A   1      34.052  30.300  25.454  1.00  0.00     0.163 HD
ATOM     37  O   UNL A   1      34.076  31.927  27.873  1.00  0.00    -0.269 OA
BRANCH  35  38
ATOM     38  C   UNL A   1      35.598  30.134  28.027  1.00  0.00     0.039 A 
ATOM     39  C   UNL A   1      35.593  29.741  29.365  1.00  0.00     0.014 A 
ATOM     40  C   UNL A   1      36.750  30.020  27.249  1.00  0.00     0.014 A 
ATOM     41  C   UNL A   1      36.801  29.362  29.961  1.00  0.00     0.010 A 
ATOM     42  C   UNL A   1      37.948  29.762  27.862  1.00  0.00     0.010 A 
ATOM     43  C   UNL A   1      37.981  29.454  29.227  1.00  0.00    -0.014 A 
BRANCH  43  44
ATOM     44  C   UNL A   1      39.333  29.277  29.736  1.00  0.00     0.031 A 
ATOM     45  C   UNL A   1      40.040  28.002  29.472  1.00  0.00     0.074 A 
ATOM     46  C   UNL A   1      40.019  30.381  30.101  1.00  0.00     0.049 A 
ATOM     47  N   UNL A   1      41.275  27.776  29.761  1.00  0.00    -0.248 NA
ATOM     48  C   UNL A   1      39.375  26.837  28.882  1.00  0.00     0.031 C 
ATOM     49  C   UNL A   1      41.462  30.590  30.033  1.00  0.00     0.029 A 
ATOM     50  N   UNL A   1      39.556  31.458  30.844  1.00  0.00    -0.354 N 
ATOM     51  C   UNL A   1      41.643  26.612  29.132  1.00  0.00     0.074 A 
ATOM     52  C   UNL A   1      40.406  26.002  28.720  1.00  0.00     0.031 C 
ATOM     53  C   UNL A   1      41.800  31.575  30.877  1.00  0.00     0.029 A 
ATOM     54  C   UNL A   1      40.611  31.904  31.646  1.00  0.00     0.049 A 
ATOM     55  H   UNL A   1      38.649  31.839  30.812  1.00  0.00     0.167 HD
ATOM     56  C   UNL A   1      42.965  26.380  28.911  1.00  0.00     0.037 A 
ATOM     57  C   UNL A   1      40.563  31.823  33.011  1.00  0.00     0.037 A 
ATOM     58  C   UNL A   1      43.785  27.260  29.746  1.00  0.00     0.049 A 
ATOM     59  C   UNL A   1      41.669  30.968  33.569  1.00  0.00     0.074 A 
ATOM     60  C   UNL A   1      44.575  28.365  29.487  1.00  0.00     0.029 A 
ATOM     61  N   UNL A   1      43.632  27.203  31.135  1.00  0.00    -0.354 N 
ATOM     62  N   UNL A   1      42.211  29.974  32.918  1.00  0.00    -0.248 NA
ATOM     63  C   UNL A   1      42.309  31.226  34.854  1.00  0.00     0.031 C 
ATOM     64  C   UNL A   1      44.774  29.049  30.720  1.00  0.00     0.029 A 
ATOM     65  C   UNL A   1      44.162  28.326  31.734  1.00  0.00     0.049 A 
ATOM     66  H   UNL A   1      43.204  26.460  31.619  1.00  0.00     0.167 HD
ATOM     67  C   UNL A   1      43.276  29.501  33.633  1.00  0.00     0.074 A 
ATOM     68  C   UNL A   1      43.283  30.300  34.848  1.00  0.00     0.031 C 
ATOM     69  C   UNL A   1      44.102  28.514  33.180  1.00  0.00     0.037 A 
BRANCH  56  70
ATOM     70  C   UNL A   1      43.515  25.485  27.812  1.00  0.00     0.058 A 
ATOM     71  C   UNL A   1      44.227  24.307  28.132  1.00  0.00     0.135 A 
ATOM     72  C   UNL A   1      43.495  25.794  26.430  1.00  0.00     0.135 A 
ATOM     73  F   UNL A   1      44.371  23.915  29.406  1.00  0.00    -0.206 F 
ATOM     74  C   UNL A   1      44.850  23.503  27.165  1.00  0.00     0.059 A 
ATOM     75  C   UNL A   1      44.062  24.980  25.446  1.00  0.00     0.059 A 
ATOM     76  F   UNL A   1      42.992  26.940  25.961  1.00  0.00    -0.206 F 
ATOM     77  C   UNL A   1      44.758  23.844  25.821  1.00  0.00     0.060 A 
BRANCH  77  78
ATOM     78  S   UNL A   1      45.563  22.825  24.570  1.00  0.00     0.124 S 
ATOM     79  O   UNL A   1      46.454  23.786  23.928  1.00  0.00    -0.237 OA
ATOM     80  O   UNL A   1      46.209  21.792  25.372  1.00  0.00    -0.237 OA
ATOM     81  O   UNL A   1      44.450  22.360  23.746  1.00  0.00    -0.744 OA
ENDBRANCH  77  78
ENDBRANCH  56  70
BRANCH  57  82
ATOM     82  C   UNL A   1      39.199  32.016  33.578  1.00  0.00     0.058 A 
ATOM     83  C   UNL A   1      38.782  33.351  33.712  1.00  0.00     0.135 A 
ATOM     84  C   UNL A   1      38.203  31.047  33.382  1.00  0.00     0.135 A 
ATOM     85  F   UNL A   1      39.682  34.298  34.013  1.00  0.00    -0.206 F 
ATOM     86  C   UNL A   1      37.499  33.749  33.360  1.00  0.00     0.059 A 
ATOM     87  C   UNL A   1      36.896  31.421  33.061  1.00  0.00     0.059 A 
ATOM     88  F   UNL A   1      38.529  29.749  33.301  1.00  0.00    -0.206 F 
ATOM     89  C   UNL A   1      36.600  32.778  32.931  1.00  0.00     0.060 A 
BRANCH  89  90
ATOM     90  S   UNL A   1      35.156  33.319  31.982  1.00  0.00     0.124 S 
ATOM     91  O   UNL A   1      35.254  34.772  32.067  1.00  0.00    -0.237 OA
ATOM     92  O   UNL A   1      35.449  32.747  30.667  1.00  0.00    -0.237 OA
ATOM     93  O   UNL A   1      34.040  32.715  32.698  1.00  0.00    -0.744 OA
ENDBRANCH  89  90
ENDBRANCH  57  82
BRANCH  69  94
ATOM     94  C   UNL A   1      45.010  27.719  34.082  1.00  0.00     0.058 A 
ATOM     95  C   UNL A   1      46.366  28.044  34.275  1.00  0.00     0.135 A 
ATOM     96  C   UNL A   1      44.500  26.698  34.915  1.00  0.00     0.135 A 
ATOM     97  F   UNL A   1      46.936  29.078  33.639  1.00  0.00    -0.206 F 
ATOM     98  C   UNL A   1      47.184  27.348  35.162  1.00  0.00     0.059 A 
ATOM     99  C   UNL A   1      45.286  26.028  35.849  1.00  0.00     0.059 A 
ATOM    100  F   UNL A   1      43.211  26.330  34.860  1.00  0.00    -0.206 F 
ATOM    101  C   UNL A   1      46.635  26.341  35.946  1.00  0.00     0.060 A 
BRANCH 101 102
ATOM    102  S   UNL A   1      47.676  25.489  37.142  1.00  0.00     0.124 S 
ATOM    103  O   UNL A   1      47.381  26.231  38.364  1.00  0.00    -0.237 OA
ATOM    104  O   UNL A   1      47.169  24.120  37.100  1.00  0.00    -0.237 OA
ATOM    105  O   UNL A   1      49.020  25.666  36.600  1.00  0.00    -0.744 OA
ENDBRANCH 101 102
ENDBRANCH  69  94
ENDBRANCH  43  44
ENDBRANCH  35  38
ENDBRANCH  33  34
ENDBRANCH   1  33
TORSDOF 16
ENDMDL
MODEL 3
REMARK VINA RESULT:     -12.5      3.306      9.476
REMARK SMILES Cc1ccc(C(=O)NCCCCNC(=O)c2ccc(-c3c4nc(c(-c5c(F)cc(S(=O)(=O)[O-])cc5F)c5ccc([nH]5)c(-c5c(F)cc(S(=O)(=O)[O-])cc5F)c5nc(c(-c6c(F)cc(S(=O)(=O)[O-])cc6F)c6ccc3[nH]6)C=C5)C=C4)cc2)cc1N1C(=O)/C(=C\c2nc3ccccc3n2C)SC1=S
REMARK SMILES IDX 11 1 10 2 9 3 8 4 6 5 7 6 5 8 1 9 2 10 3 11 83 12 4 13 82 14
REMARK SMILES IDX 84 15 85 16 100 17 86 18 87 19 99 20 101 21 88 22 89 23
REMARK SMILES IDX 90 24 97 25 91 26 96 27 98 28 92 29 95 30 93 31 94 32 12 33
REMARK SMILES IDX 13 34 14 35 15 37 16 38 17 39 81 40 18 41 80 42 19 43 20 44
REMARK SMILES IDX 21 45 74 46 22 47 79 48 73 49 75 50 23 51 78 52 72 53 71 54
REMARK SMILES IDX 24 56 58 57 37 58 57 59 38 60 41 61 56 62 76 63 39 64 40 65
REMARK SMILES IDX 55 67 77 68 42 69 25 70 26 71 35 72 27 73 28 74 34 75 36 76
REMARK SMILES IDX 29 77 30 78 31 79 32 80 33 81 59 82 60 83 69 84 61 85 62 86
REMARK SMILES IDX 68 87 70 88 63 89 64 90 65 91 66 92 67 93 43 94 44 95 53 96
REMARK SMILES IDX 45 97 46 98 52 99 54 100 47 101 48 102 49 103 50 104 51 105
REMARK H PARENT 8 7 13 36 75 55 41 66
REMARK Flexibility Score: inf
ROOT
ATOM      1  C   UNL A   1      40.933  25.591  26.162  1.00  0.00     0.023 C 
ENDROOT
BRANCH   1   2
ATOM      2  C   UNL A   1      39.864  25.115  27.154  1.00  0.00     0.023 C 
BRANCH   2   3
ATOM      3  C   UNL A   1      38.613  24.465  26.532  1.00  0.00     0.116 C 
BRANCH   3   4
ATOM      4  N   UNL A   1      38.754  23.023  26.367  1.00  0.00    -0.352 N 
ATOM      5  C   UNL A   1      38.083  22.086  25.621  1.00  0.00     0.251 C 
ATOM      6  O   UNL A   1      38.526  20.934  25.630  1.00  0.00    -0.269 OA
ATOM      7  H   UNL A   1      39.486  22.641  26.903  1.00  0.00     0.163 HD
BRANCH   5   8
ATOM      8  C   UNL A   1      36.870  22.369  24.799  1.00  0.00     0.041 A 
ATOM      9  C   UNL A   1      33.541  23.479  22.238  1.00  0.00     0.046 C 
ATOM     10  C   UNL A   1      34.654  23.029  23.141  1.00  0.00    -0.027 A 
ATOM     11  C   UNL A   1      35.969  23.100  22.653  1.00  0.00     0.006 A 
ATOM     12  C   UNL A   1      34.455  22.577  24.456  1.00  0.00     0.054 A 
ATOM     13  C   UNL A   1      37.060  22.793  23.476  1.00  0.00     0.014 A 
ATOM     14  C   UNL A   1      35.562  22.226  25.248  1.00  0.00     0.041 A 
BRANCH  12  15
ATOM     15  N   UNL A   1      33.188  22.662  25.098  1.00  0.00    -0.261 N 
ATOM     16  C   UNL A   1      32.920  23.787  25.866  1.00  0.00     0.270 C 
ATOM     17  C   UNL A   1      32.238  21.661  25.145  1.00  0.00     0.152 C 
ATOM     18  O   UNL A   1      33.742  24.575  26.311  1.00  0.00    -0.268 OA
ATOM     19  C   UNL A   1      31.470  23.821  26.207  1.00  0.00     0.084 C 
ATOM     20  S   UNL A   1      30.821  22.234  26.054  1.00  0.00    -0.054 SA
ATOM     21  S   UNL A   1      32.321  20.104  24.542  1.00  0.00    -0.051 S 
ATOM     22  C   UNL A   1      30.759  24.930  26.466  1.00  0.00     0.068 C 
BRANCH  22  23
ATOM     23  C   UNL A   1      31.358  26.187  26.202  1.00  0.00     0.134 A 
ATOM     24  N   UNL A   1      31.895  27.022  27.074  1.00  0.00    -0.229 NA
ATOM     25  N   UNL A   1      31.211  26.800  24.983  1.00  0.00    -0.328 N 
ATOM     26  C   UNL A   1      31.782  28.262  26.491  1.00  0.00     0.089 A 
ATOM     27  C   UNL A   1      31.260  28.156  25.207  1.00  0.00     0.068 A 
ATOM     28  C   UNL A   1      31.063  26.173  23.696  1.00  0.00     0.152 C 
ATOM     29  C   UNL A   1      32.041  29.533  27.023  1.00  0.00     0.030 A 
ATOM     30  C   UNL A   1      30.888  29.264  24.447  1.00  0.00     0.028 A 
ATOM     31  C   UNL A   1      31.683  30.661  26.276  1.00  0.00     0.002 A 
ATOM     32  C   UNL A   1      31.088  30.523  25.021  1.00  0.00     0.002 A 
ENDBRANCH  22  23
ENDBRANCH  12  15
ENDBRANCH   5   8
ENDBRANCH   3   4
ENDBRANCH   2   3
ENDBRANCH   1   2
BRANCH   1  33
ATOM     33  C   UNL A   1      42.340  25.607  26.727  1.00  0.00     0.116 C 
BRANCH  33  34
ATOM     34  N   UNL A   1      43.221  26.644  26.213  1.00  0.00    -0.352 N 
ATOM     35  C   UNL A   1      42.636  27.829  25.752  1.00  0.00     0.251 C 
ATOM     36  H   UNL A   1      44.197  26.517  26.191  1.00  0.00     0.163 HD
ATOM     37  O   UNL A   1      42.268  28.033  24.615  1.00  0.00    -0.269 OA
BRANCH  35  38
ATOM     38  C   UNL A   1      42.310  28.762  26.856  1.00  0.00     0.039 A 
ATOM     39  C   UNL A   1      43.292  29.445  27.572  1.00  0.00     0.014 A 
ATOM     40  C   UNL A   1      40.980  28.770  27.274  1.00  0.00     0.014 A 
ATOM     41  C   UNL A   1      42.952  30.023  28.800  1.00  0.00     0.010 A 
ATOM     42  C   UNL A   1      40.675  29.234  28.527  1.00  0.00     0.010 A 
ATOM     43  C   UNL A   1      41.666  29.843  29.304  1.00  0.00    -0.014 A 
BRANCH  43  44
ATOM     44  C   UNL A   1      41.197  30.215  30.631  1.00  0.00     0.031 A 
ATOM     45  C   UNL A   1      40.425  31.470  30.796  1.00  0.00     0.074 A 
ATOM     46  C   UNL A   1      41.159  29.255  31.579  1.00  0.00     0.049 A 
ATOM     47  N   UNL A   1      39.855  31.839  31.890  1.00  0.00    -0.248 NA
ATOM     48  C   UNL A   1      40.270  32.449  29.717  1.00  0.00     0.031 C 
ATOM     49  C   UNL A   1      40.225  29.148  32.695  1.00  0.00     0.029 A 
ATOM     50  N   UNL A   1      42.129  28.302  31.859  1.00  0.00    -0.354 N 
ATOM     51  C   UNL A   1      39.023  32.891  31.590  1.00  0.00     0.074 A 
ATOM     52  C   UNL A   1      39.418  33.316  30.273  1.00  0.00     0.031 C 
ATOM     53  C   UNL A   1      40.763  28.367  33.642  1.00  0.00     0.029 A 
ATOM     54  C   UNL A   1      42.134  28.097  33.241  1.00  0.00     0.049 A 
ATOM     55  H   UNL A   1      42.709  27.854  31.202  1.00  0.00     0.167 HD
ATOM     56  C   UNL A   1      38.002  33.178  32.442  1.00  0.00     0.037 A 
ATOM     57  C   UNL A   1      43.213  28.426  34.016  1.00  0.00     0.037 A 
ATOM     58  C   UNL A   1      38.222  32.535  33.739  1.00  0.00     0.049 A 
ATOM     59  C   UNL A   1      42.869  29.453  35.062  1.00  0.00     0.074 A 
ATOM     60  C   UNL A   1      37.636  31.465  34.390  1.00  0.00     0.029 A 
ATOM     61  N   UNL A   1      39.387  32.838  34.451  1.00  0.00    -0.354 N 
ATOM     62  N   UNL A   1      41.928  30.346  34.914  1.00  0.00    -0.248 NA
ATOM     63  C   UNL A   1      43.488  29.488  36.381  1.00  0.00     0.031 C 
ATOM     64  C   UNL A   1      38.533  31.039  35.411  1.00  0.00     0.029 A 
ATOM     65  C   UNL A   1      39.630  31.890  35.423  1.00  0.00     0.049 A 
ATOM     66  H   UNL A   1      39.957  33.623  34.280  1.00  0.00     0.167 HD
ATOM     67  C   UNL A   1      41.769  31.025  36.090  1.00  0.00     0.074 A 
ATOM     68  C   UNL A   1      42.784  30.469  36.971  1.00  0.00     0.031 C 
ATOM     69  C   UNL A   1      40.805  31.971  36.284  1.00  0.00     0.037 A 
BRANCH  56  70
ATOM     70  C   UNL A   1      36.719  33.892  32.047  1.00  0.00     0.058 A 
ATOM     71  C   UNL A   1      36.157  34.879  32.887  1.00  0.00     0.135 A 
ATOM     72  C   UNL A   1      35.922  33.562  30.924  1.00  0.00     0.135 A 
ATOM     73  F   UNL A   1      36.777  35.259  34.014  1.00  0.00    -0.206 F 
ATOM     74  C   UNL A   1      34.921  35.491  32.628  1.00  0.00     0.059 A 
ATOM     75  C   UNL A   1      34.716  34.196  30.618  1.00  0.00     0.059 A 
ATOM     76  F   UNL A   1      36.228  32.554  30.102  1.00  0.00    -0.206 F 
ATOM     77  C   UNL A   1      34.208  35.147  31.486  1.00  0.00     0.060 A 
BRANCH  77  78
ATOM     78  S   UNL A   1      32.614  35.919  31.146  1.00  0.00     0.124 S 
ATOM     79  O   UNL A   1      32.366  35.502  29.769  1.00  0.00    -0.237 OA
ATOM     80  O   UNL A   1      31.750  35.322  32.158  1.00  0.00    -0.237 OA
ATOM     81  O   UNL A   1      32.882  37.344  31.327  1.00  0.00    -0.744 OA
ENDBRANCH  77  78
ENDBRANCH  56  70
BRANCH  57  82
ATOM     82  C   UNL A   1      44.524  28.238  33.334  1.00  0.00     0.058 A 
ATOM     83  C   UNL A   1      44.933  26.905  33.165  1.00  0.00     0.135 A 
ATOM     84  C   UNL A   1      44.977  29.175  32.393  1.00  0.00     0.135 A 
ATOM     85  F   UNL A   1      44.620  25.994  34.097  1.00  0.00    -0.206 F 
ATOM     86  C   UNL A   1      45.490  26.463  31.972  1.00  0.00     0.059 A 
ATOM     87  C   UNL A   1      45.573  28.759  31.200  1.00  0.00     0.059 A 
ATOM     88  F   UNL A   1      44.668  30.473  32.528  1.00  0.00    -0.206 F 
ATOM     89  C   UNL A   1      45.702  27.392  30.957  1.00  0.00     0.060 A 
BRANCH  89  90
ATOM     90  S   UNL A   1      45.906  26.771  29.269  1.00  0.00     0.124 S 
ATOM     91  O   UNL A   1      46.921  25.736  29.437  1.00  0.00    -0.237 OA
ATOM     92  O   UNL A   1      44.557  26.284  28.980  1.00  0.00    -0.237 OA
ATOM     93  O   UNL A   1      46.322  27.954  28.526  1.00  0.00    -0.744 OA
ENDBRANCH  89  90
ENDBRANCH  57  82
BRANCH  69  94
ATOM     94  C   UNL A   1      40.858  32.987  37.395  1.00  0.00     0.058 A 
ATOM     95  C   UNL A   1      41.854  33.979  37.473  1.00  0.00     0.135 A 
ATOM     96  C   UNL A   1      39.807  33.099  38.333  1.00  0.00     0.135 A 
ATOM     97  F   UNL A   1      42.835  34.058  36.562  1.00  0.00    -0.206 F 
ATOM     98  C   UNL A   1      41.860  34.958  38.463  1.00  0.00     0.059 A 
ATOM     99  C   UNL A   1      39.764  34.104  39.296  1.00  0.00     0.059 A 
ATOM    100  F   UNL A   1      38.774  32.243  38.330  1.00  0.00    -0.206 F 
ATOM    101  C   UNL A   1      40.810  35.013  39.372  1.00  0.00     0.060 A 
BRANCH 101 102
ATOM    102  S   UNL A   1      40.783  36.321  40.609  1.00  0.00     0.124 S 
ATOM    103  O   UNL A   1      41.431  37.413  39.889  1.00  0.00    -0.237 OA
ATOM    104  O   UNL A   1      39.356  36.496  40.866  1.00  0.00    -0.237 OA
ATOM    105  O   UNL A   1      41.544  35.749  41.715  1.00  0.00    -0.744 OA
ENDBRANCH 101 102
ENDBRANCH  69  94
ENDBRANCH  43  44
ENDBRANCH  35  38
ENDBRANCH  33  34
ENDBRANCH   1  33
TORSDOF 16
ENDMDL
