MODEL 1
REMARK VINA RESULT:     -11.8      0.000      0.000
REMARK SMILES Cc1cc(C)c2c(C(=O)NCCCCNC(=O)c3ccc(-c4c5nc(c(-c6c(F)cc(S(=O)(=O)[O-])cc6F)c6ccc([nH]6)c(-c6c(F)cc(S(=O)(=O)[O-])cc6F)c6nc(c(-c7c(F)cc(S(=O)(=O)[O-])cc7F)c7ccc4[nH]7)C=C6)C=C5)cc3)cc(-c3ccco3)nc2c1
REMARK SMILES IDX 13 1 12 2 11 3 10 4 8 5 9 6 7 8 1 9 2 10 3 11 93 12 4 13
REMARK SMILES IDX 92 14 5 15 6 16 91 17 85 18 84 19 86 20 87 21 90 22 88 23
REMARK SMILES IDX 89 24 14 25 15 26 16 27 17 29 18 30 19 31 83 32 20 33 82 34
REMARK SMILES IDX 21 35 22 36 23 37 76 38 24 39 81 40 75 41 77 42 25 43 80 44
REMARK SMILES IDX 74 45 73 46 26 48 60 49 39 50 59 51 40 52 43 53 58 54 78 55
REMARK SMILES IDX 41 56 42 57 57 59 79 60 44 61 27 62 28 63 37 64 29 65 30 66
REMARK SMILES IDX 36 67 38 68 31 69 32 70 33 71 34 72 35 73 61 74 62 75 71 76
REMARK SMILES IDX 63 77 64 78 70 79 72 80 65 81 66 82 67 83 68 84 69 85 45 86
REMARK SMILES IDX 46 87 55 88 47 89 48 90 54 91 56 92 49 93 50 94 51 95 52 96
REMARK SMILES IDX 53 97
REMARK H PARENT 10 7 15 28 77 47 43 58
REMARK Flexibility Score: inf
ROOT
ATOM      1  C   UNL A   1      32.091  28.072  26.784  1.00  0.00     0.023 C 
ENDROOT
BRANCH   1   2
ATOM      2  C   UNL A   1      32.174  27.790  25.279  1.00  0.00     0.023 C 
BRANCH   2   3
ATOM      3  C   UNL A   1      33.567  27.827  24.655  1.00  0.00     0.116 C 
BRANCH   3   4
ATOM      4  N   UNL A   1      33.667  27.227  23.333  1.00  0.00    -0.352 N 
ATOM      5  C   UNL A   1      33.759  25.900  22.964  1.00  0.00     0.252 C 
ATOM      6  O   UNL A   1      33.803  25.616  21.769  1.00  0.00    -0.269 OA
ATOM      7  H   UNL A   1      33.668  27.867  22.586  1.00  0.00     0.163 HD
BRANCH   5   8
ATOM      8  C   UNL A   1      33.913  24.809  23.962  1.00  0.00     0.051 A 
ATOM      9  C   UNL A   1      29.749  22.939  27.341  1.00  0.00     0.044 C 
ATOM     10  C   UNL A   1      30.812  23.236  26.327  1.00  0.00    -0.049 A 
ATOM     11  C   UNL A   1      30.491  23.585  25.022  1.00  0.00     0.007 A 
ATOM     12  C   UNL A   1      32.163  23.118  26.668  1.00  0.00     0.032 A 
ATOM     13  C   UNL A   1      31.493  23.984  24.126  1.00  0.00    -0.041 A 
ATOM     14  C   UNL A   1      33.178  23.500  25.805  1.00  0.00     0.072 A 
ATOM     15  C   UNL A   1      31.106  24.094  22.671  1.00  0.00     0.045 C 
ATOM     16  C   UNL A   1      32.841  24.117  24.586  1.00  0.00     0.016 A 
ATOM     17  N   UNL A   1      34.443  23.269  26.189  1.00  0.00    -0.244 NA
ATOM     18  C   UNL A   1      35.449  23.708  25.406  1.00  0.00     0.107 A 
ATOM     19  C   UNL A   1      35.237  24.555  24.342  1.00  0.00     0.046 A 
BRANCH  18  20
ATOM     20  C   UNL A   1      36.771  23.206  25.736  1.00  0.00     0.152 A 
ATOM     21  C   UNL A   1      37.936  23.765  26.221  1.00  0.00     0.052 A 
ATOM     22  O   UNL A   1      36.987  21.887  25.442  1.00  0.00    -0.463 OA
ATOM     23  C   UNL A   1      38.909  22.733  26.227  1.00  0.00     0.043 A 
ATOM     24  C   UNL A   1      38.284  21.613  25.734  1.00  0.00     0.196 A 
ENDBRANCH  18  20
ENDBRANCH   5   8
ENDBRANCH   3   4
ENDBRANCH   2   3
ENDBRANCH   1   2
BRANCH   1  25
ATOM     25  C   UNL A   1      33.372  28.537  27.474  1.00  0.00     0.116 C 
BRANCH  25  26
ATOM     26  N   UNL A   1      33.407  29.967  27.745  1.00  0.00    -0.352 N 
ATOM     27  C   UNL A   1      34.447  30.754  28.190  1.00  0.00     0.251 C 
ATOM     28  H   UNL A   1      32.560  30.444  27.585  1.00  0.00     0.163 HD
ATOM     29  O   UNL A   1      34.260  31.940  28.434  1.00  0.00    -0.269 OA
BRANCH  27  30
ATOM     30  C   UNL A   1      35.780  30.153  28.415  1.00  0.00     0.039 A 
ATOM     31  C   UNL A   1      36.689  30.114  27.354  1.00  0.00     0.014 A 
ATOM     32  C   UNL A   1      36.141  29.659  29.671  1.00  0.00     0.014 A 
ATOM     33  C   UNL A   1      37.998  29.679  27.579  1.00  0.00     0.010 A 
ATOM     34  C   UNL A   1      37.461  29.271  29.906  1.00  0.00     0.010 A 
ATOM     35  C   UNL A   1      38.406  29.301  28.868  1.00  0.00    -0.014 A 
BRANCH  35  36
ATOM     36  C   UNL A   1      39.824  28.980  29.170  1.00  0.00     0.031 A 
ATOM     37  C   UNL A   1      40.726  30.022  29.767  1.00  0.00     0.074 A 
ATOM     38  C   UNL A   1      40.319  27.773  28.828  1.00  0.00     0.049 A 
ATOM     39  N   UNL A   1      42.016  29.975  29.977  1.00  0.00    -0.248 NA
ATOM     40  C   UNL A   1      40.096  31.291  30.163  1.00  0.00     0.031 C 
ATOM     41  C   UNL A   1      39.550  26.683  28.224  1.00  0.00     0.029 A 
ATOM     42  N   UNL A   1      41.592  27.268  28.921  1.00  0.00    -0.354 N 
ATOM     43  C   UNL A   1      42.356  31.205  30.526  1.00  0.00     0.074 A 
ATOM     44  C   UNL A   1      41.142  31.992  30.578  1.00  0.00     0.031 C 
ATOM     45  C   UNL A   1      40.364  25.636  28.008  1.00  0.00     0.029 A 
ATOM     46  C   UNL A   1      41.718  25.992  28.421  1.00  0.00     0.049 A 
ATOM     47  H   UNL A   1      42.344  27.769  29.308  1.00  0.00     0.167 HD
ATOM     48  C   UNL A   1      43.566  31.633  30.959  1.00  0.00     0.037 A 
ATOM     49  C   UNL A   1      42.803  25.202  28.299  1.00  0.00     0.037 A 
ATOM     50  C   UNL A   1      44.770  30.845  30.911  1.00  0.00     0.049 A 
ATOM     51  C   UNL A   1      44.139  25.708  28.769  1.00  0.00     0.074 A 
ATOM     52  C   UNL A   1      46.044  31.191  31.331  1.00  0.00     0.029 A 
ATOM     53  N   UNL A   1      44.851  29.551  30.418  1.00  0.00    -0.354 N 
ATOM     54  N   UNL A   1      44.442  26.873  29.289  1.00  0.00    -0.248 NA
ATOM     55  C   UNL A   1      45.281  24.792  28.639  1.00  0.00     0.031 C 
ATOM     56  C   UNL A   1      46.900  30.115  31.070  1.00  0.00     0.029 A 
ATOM     57  C   UNL A   1      46.152  29.084  30.525  1.00  0.00     0.049 A 
ATOM     58  H   UNL A   1      44.096  29.039  30.049  1.00  0.00     0.167 HD
ATOM     59  C   UNL A   1      45.800  26.818  29.582  1.00  0.00     0.074 A 
ATOM     60  C   UNL A   1      46.260  25.504  29.181  1.00  0.00     0.031 C 
ATOM     61  C   UNL A   1      46.592  27.768  30.136  1.00  0.00     0.037 A 
BRANCH  48  62
ATOM     62  C   UNL A   1      43.645  33.018  31.535  1.00  0.00     0.058 A 
ATOM     63  C   UNL A   1      43.832  34.141  30.713  1.00  0.00     0.135 A 
ATOM     64  C   UNL A   1      43.490  33.233  32.913  1.00  0.00     0.135 A 
ATOM     65  F   UNL A   1      44.005  33.989  29.390  1.00  0.00    -0.206 F 
ATOM     66  C   UNL A   1      43.883  35.427  31.240  1.00  0.00     0.059 A 
ATOM     67  C   UNL A   1      43.514  34.514  33.459  1.00  0.00     0.059 A 
ATOM     68  F   UNL A   1      43.312  32.194  33.744  1.00  0.00    -0.206 F 
ATOM     69  C   UNL A   1      43.721  35.604  32.614  1.00  0.00     0.060 A 
BRANCH  69  70
ATOM     70  S   UNL A   1      43.774  37.281  33.279  1.00  0.00     0.124 S 
ATOM     71  O   UNL A   1      43.749  38.079  32.057  1.00  0.00    -0.237 OA
ATOM     72  O   UNL A   1      42.565  37.333  34.093  1.00  0.00    -0.237 OA
ATOM     73  O   UNL A   1      45.029  37.313  34.022  1.00  0.00    -0.744 OA
ENDBRANCH  69  70
ENDBRANCH  48  62
BRANCH  49  74
ATOM     74  C   UNL A   1      42.666  23.835  27.731  1.00  0.00     0.058 A 
ATOM     75  C   UNL A   1      42.700  23.628  26.344  1.00  0.00     0.135 A 
ATOM     76  C   UNL A   1      42.514  22.710  28.557  1.00  0.00     0.135 A 
ATOM     77  F   UNL A   1      42.836  24.674  25.516  1.00  0.00    -0.206 F 
ATOM     78  C   UNL A   1      42.579  22.358  25.793  1.00  0.00     0.059 A 
ATOM     79  C   UNL A   1      42.411  21.426  28.030  1.00  0.00     0.059 A 
ATOM     80  F   UNL A   1      42.489  22.854  29.891  1.00  0.00    -0.206 F 
ATOM     81  C   UNL A   1      42.438  21.261  26.646  1.00  0.00     0.060 A 
BRANCH  81  82
ATOM     82  S   UNL A   1      42.340  19.610  25.921  1.00  0.00     0.124 S 
ATOM     83  O   UNL A   1      40.960  19.578  25.449  1.00  0.00    -0.237 OA
ATOM     84  O   UNL A   1      43.368  19.669  24.886  1.00  0.00    -0.237 OA
ATOM     85  O   UNL A   1      42.645  18.731  27.046  1.00  0.00    -0.744 OA
ENDBRANCH  81  82
ENDBRANCH  49  74
BRANCH  61  86
ATOM     86  C   UNL A   1      48.028  27.406  30.394  1.00  0.00     0.058 A 
ATOM     87  C   UNL A   1      48.439  26.825  31.603  1.00  0.00     0.135 A 
ATOM     88  C   UNL A   1      48.997  27.606  29.397  1.00  0.00     0.135 A 
ATOM     89  F   UNL A   1      47.552  26.618  32.590  1.00  0.00    -0.206 F 
ATOM     90  C   UNL A   1      49.768  26.475  31.825  1.00  0.00     0.059 A 
ATOM     91  C   UNL A   1      50.326  27.244  29.588  1.00  0.00     0.059 A 
ATOM     92  F   UNL A   1      48.652  28.150  28.220  1.00  0.00    -0.206 F 
ATOM     93  C   UNL A   1      50.704  26.690  30.811  1.00  0.00     0.060 A 
BRANCH  93  94
ATOM     94  S   UNL A   1      52.421  26.213  31.102  1.00  0.00     0.124 S 
ATOM     95  O   UNL A   1      52.260  24.902  31.722  1.00  0.00    -0.237 OA
ATOM     96  O   UNL A   1      52.979  26.212  29.753  1.00  0.00    -0.237 OA
ATOM     97  O   UNL A   1      52.922  27.265  31.981  1.00  0.00    -0.744 OA
ENDBRANCH  93  94
ENDBRANCH  61  86
ENDBRANCH  35  36
ENDBRANCH  27  30
ENDBRANCH  25  26
ENDBRANCH   1  25
TORSDOF 15
ENDMDL
MODEL 2
REMARK VINA RESULT:     -11.5      2.640      3.257
REMARK SMILES Cc1cc(C)c2c(C(=O)NCCCCNC(=O)c3ccc(-c4c5nc(c(-c6c(F)cc(S(=O)(=O)[O-])cc6F)c6ccc([nH]6)c(-c6c(F)cc(S(=O)(=O)[O-])cc6F)c6nc(c(-c7c(F)cc(S(=O)(=O)[O-])cc7F)c7ccc4[nH]7)C=C6)C=C5)cc3)cc(-c3ccco3)nc2c1
REMARK SMILES IDX 13 1 12 2 11 3 10 4 8 5 9 6 7 8 1 9 2 10 3 11 93 12 4 13
REMARK SMILES IDX 92 14 5 15 6 16 91 17 85 18 84 19 86 20 87 21 90 22 88 23
REMARK SMILES IDX 89 24 14 25 15 26 16 27 17 29 18 30 19 31 83 32 20 33 82 34
REMARK SMILES IDX 21 35 22 36 23 37 76 38 24 39 81 40 75 41 77 42 25 43 80 44
REMARK SMILES IDX 74 45 73 46 26 48 60 49 39 50 59 51 40 52 43 53 58 54 78 55
REMARK SMILES IDX 41 56 42 57 57 59 79 60 44 61 27 62 28 63 37 64 29 65 30 66
REMARK SMILES IDX 36 67 38 68 31 69 32 70 33 71 34 72 35 73 61 74 62 75 71 76
REMARK SMILES IDX 63 77 64 78 70 79 72 80 65 81 66 82 67 83 68 84 69 85 45 86
REMARK SMILES IDX 46 87 55 88 47 89 48 90 54 91 56 92 49 93 50 94 51 95 52 96
REMARK SMILES IDX 53 97
REMARK H PARENT 10 7 15 28 77 47 43 58
REMARK Flexibility Score: inf
ROOT
ATOM      1  C   UNL A   1      33.781  28.652  24.347  1.00  0.00     0.023 C 
ENDROOT
BRANCH   1   2
ATOM      2  C   UNL A   1      33.249  27.340  23.758  1.00  0.00     0.023 C 
BRANCH   2   3
ATOM      3  C   UNL A   1      33.792  26.050  24.369  1.00  0.00     0.116 C 
BRANCH   3   4
ATOM      4  N   UNL A   1      32.943  25.441  25.382  1.00  0.00    -0.352 N 
ATOM      5  C   UNL A   1      33.035  24.209  25.995  1.00  0.00     0.252 C 
ATOM      6  O   UNL A   1      32.213  23.910  26.859  1.00  0.00    -0.269 OA
ATOM      7  H   UNL A   1      32.185  25.996  25.675  1.00  0.00     0.163 HD
BRANCH   5   8
ATOM      8  C   UNL A   1      34.030  23.186  25.574  1.00  0.00     0.051 A 
ATOM      9  C   UNL A   1      32.697  17.976  23.750  1.00  0.00     0.044 C 
ATOM     10  C   UNL A   1      33.090  19.399  24.006  1.00  0.00    -0.049 A 
ATOM     11  C   UNL A   1      32.272  20.456  23.627  1.00  0.00     0.007 A 
ATOM     12  C   UNL A   1      34.323  19.694  24.594  1.00  0.00     0.032 A 
ATOM     13  C   UNL A   1      32.598  21.771  23.989  1.00  0.00    -0.041 A 
ATOM     14  C   UNL A   1      34.677  20.983  24.962  1.00  0.00     0.072 A 
ATOM     15  C   UNL A   1      31.813  22.878  23.327  1.00  0.00     0.045 C 
ATOM     16  C   UNL A   1      33.728  22.014  24.831  1.00  0.00     0.016 A 
ATOM     17  N   UNL A   1      35.915  21.177  25.441  1.00  0.00    -0.244 NA
ATOM     18  C   UNL A   1      36.254  22.405  25.885  1.00  0.00     0.107 A 
ATOM     19  C   UNL A   1      35.326  23.406  26.056  1.00  0.00     0.046 A 
BRANCH  18  20
ATOM     20  C   UNL A   1      37.667  22.615  26.142  1.00  0.00     0.152 A 
ATOM     21  C   UNL A   1      38.448  23.702  26.481  1.00  0.00     0.052 A 
ATOM     22  O   UNL A   1      38.469  21.524  25.938  1.00  0.00    -0.463 OA
ATOM     23  C   UNL A   1      39.792  23.250  26.488  1.00  0.00     0.043 A 
ATOM     24  C   UNL A   1      39.751  21.920  26.142  1.00  0.00     0.196 A 
ENDBRANCH  18  20
ENDBRANCH   5   8
ENDBRANCH   3   4
ENDBRANCH   2   3
ENDBRANCH   1   2
BRANCH   1  25
ATOM     25  C   UNL A   1      33.876  28.742  25.869  1.00  0.00     0.116 C 
BRANCH  25  26
ATOM     26  N   UNL A   1      33.668  30.084  26.391  1.00  0.00    -0.352 N 
ATOM     27  C   UNL A   1      34.396  30.789  27.325  1.00  0.00     0.251 C 
ATOM     28  H   UNL A   1      32.889  30.561  26.021  1.00  0.00     0.163 HD
ATOM     29  O   UNL A   1      34.016  31.893  27.696  1.00  0.00    -0.269 OA
BRANCH  27  30
ATOM     30  C   UNL A   1      35.616  30.190  27.911  1.00  0.00     0.039 A 
ATOM     31  C   UNL A   1      36.799  30.209  27.167  1.00  0.00     0.014 A 
ATOM     32  C   UNL A   1      35.600  29.641  29.195  1.00  0.00     0.014 A 
ATOM     33  C   UNL A   1      37.992  29.776  27.753  1.00  0.00     0.010 A 
ATOM     34  C   UNL A   1      36.798  29.255  29.795  1.00  0.00     0.010 A 
ATOM     35  C   UNL A   1      38.008  29.342  29.088  1.00  0.00    -0.014 A 
BRANCH  35  36
ATOM     36  C   UNL A   1      39.280  29.020  29.784  1.00  0.00     0.031 A 
ATOM     37  C   UNL A   1      39.738  29.852  30.947  1.00  0.00     0.074 A 
ATOM     38  C   UNL A   1      40.062  28.028  29.313  1.00  0.00     0.049 A 
ATOM     39  N   UNL A   1      40.874  29.811  31.595  1.00  0.00    -0.248 NA
ATOM     40  C   UNL A   1      38.802  30.877  31.434  1.00  0.00     0.031 C 
ATOM     41  C   UNL A   1      39.737  27.160  28.178  1.00  0.00     0.029 A 
ATOM     42  N   UNL A   1      41.300  27.594  29.717  1.00  0.00    -0.354 N 
ATOM     43  C   UNL A   1      40.794  30.804  32.563  1.00  0.00     0.074 A 
ATOM     44  C   UNL A   1      39.513  31.458  32.390  1.00  0.00     0.031 C 
ATOM     45  C   UNL A   1      40.746  26.294  27.983  1.00  0.00     0.029 A 
ATOM     46  C   UNL A   1      41.803  26.568  28.951  1.00  0.00     0.049 A 
ATOM     47  H   UNL A   1      41.782  27.979  30.483  1.00  0.00     0.167 HD
ATOM     48  C   UNL A   1      41.698  31.131  33.516  1.00  0.00     0.037 A 
ATOM     49  C   UNL A   1      42.988  25.928  29.014  1.00  0.00     0.037 A 
ATOM     50  C   UNL A   1      42.969  30.475  33.689  1.00  0.00     0.049 A 
ATOM     51  C   UNL A   1      43.984  26.323  30.069  1.00  0.00     0.074 A 
ATOM     52  C   UNL A   1      43.951  30.732  34.630  1.00  0.00     0.029 A 
ATOM     53  N   UNL A   1      43.431  29.426  32.907  1.00  0.00    -0.354 N 
ATOM     54  N   UNL A   1      43.890  27.262  30.979  1.00  0.00    -0.248 NA
ATOM     55  C   UNL A   1      45.245  25.569  30.109  1.00  0.00     0.031 C 
ATOM     56  C   UNL A   1      45.018  29.856  34.402  1.00  0.00     0.029 A 
ATOM     57  C   UNL A   1      44.684  29.026  33.345  1.00  0.00     0.049 A 
ATOM     58  H   UNL A   1      42.942  29.025  32.153  1.00  0.00     0.167 HD
ATOM     59  C   UNL A   1      45.063  27.190  31.723  1.00  0.00     0.074 A 
ATOM     60  C   UNL A   1      45.850  26.114  31.156  1.00  0.00     0.031 C 
ATOM     61  C   UNL A   1      45.449  27.943  32.781  1.00  0.00     0.037 A 
BRANCH  48  62
ATOM     62  C   UNL A   1      41.341  32.246  34.457  1.00  0.00     0.058 A 
ATOM     63  C   UNL A   1      41.695  33.576  34.182  1.00  0.00     0.135 A 
ATOM     64  C   UNL A   1      40.601  31.993  35.624  1.00  0.00     0.135 A 
ATOM     65  F   UNL A   1      42.418  33.870  33.089  1.00  0.00    -0.206 F 
ATOM     66  C   UNL A   1      41.346  34.615  35.039  1.00  0.00     0.059 A 
ATOM     67  C   UNL A   1      40.220  33.020  36.483  1.00  0.00     0.059 A 
ATOM     68  F   UNL A   1      40.240  30.739  35.936  1.00  0.00    -0.206 F 
ATOM     69  C   UNL A   1      40.607  34.326  36.186  1.00  0.00     0.060 A 
BRANCH  69  70
ATOM     70  S   UNL A   1      40.149  35.688  37.279  1.00  0.00     0.124 S 
ATOM     71  O   UNL A   1      39.761  36.715  36.317  1.00  0.00    -0.237 OA
ATOM     72  O   UNL A   1      39.060  35.109  38.060  1.00  0.00    -0.237 OA
ATOM     73  O   UNL A   1      41.376  35.956  38.022  1.00  0.00    -0.744 OA
ENDBRANCH  69  70
ENDBRANCH  48  62
BRANCH  49  74
ATOM     74  C   UNL A   1      43.286  24.823  28.064  1.00  0.00     0.058 A 
ATOM     75  C   UNL A   1      43.898  25.086  26.829  1.00  0.00     0.135 A 
ATOM     76  C   UNL A   1      42.981  23.489  28.373  1.00  0.00     0.135 A 
ATOM     77  F   UNL A   1      44.199  26.348  26.488  1.00  0.00    -0.206 F 
ATOM     78  C   UNL A   1      44.190  24.068  25.929  1.00  0.00     0.059 A 
ATOM     79  C   UNL A   1      43.283  22.450  27.497  1.00  0.00     0.059 A 
ATOM     80  F   UNL A   1      42.408  23.184  29.548  1.00  0.00    -0.206 F 
ATOM     81  C   UNL A   1      43.881  22.750  26.274  1.00  0.00     0.060 A 
BRANCH  81  82
ATOM     82  S   UNL A   1      44.317  21.431  25.122  1.00  0.00     0.124 S 
ATOM     83  O   UNL A   1      43.320  20.416  25.445  1.00  0.00    -0.237 OA
ATOM     84  O   UNL A   1      44.162  22.090  23.828  1.00  0.00    -0.237 OA
ATOM     85  O   UNL A   1      45.692  21.105  25.489  1.00  0.00    -0.744 OA
ENDBRANCH  81  82
ENDBRANCH  49  74
BRANCH  61  86
ATOM     86  C   UNL A   1      46.759  27.598  33.433  1.00  0.00     0.058 A 
ATOM     87  C   UNL A   1      47.962  28.204  33.042  1.00  0.00     0.135 A 
ATOM     88  C   UNL A   1      46.799  26.681  34.496  1.00  0.00     0.135 A 
ATOM     89  F   UNL A   1      47.978  29.084  32.028  1.00  0.00    -0.206 F 
ATOM     90  C   UNL A   1      49.167  27.893  33.665  1.00  0.00     0.059 A 
ATOM     91  C   UNL A   1      47.988  26.371  35.148  1.00  0.00     0.059 A 
ATOM     92  F   UNL A   1      45.673  26.081  34.913  1.00  0.00    -0.206 F 
ATOM     93  C   UNL A   1      49.170  26.974  34.717  1.00  0.00     0.060 A 
BRANCH  93  94
ATOM     94  S   UNL A   1      50.735  26.595  35.532  1.00  0.00     0.124 S 
ATOM     95  O   UNL A   1      51.701  27.009  34.521  1.00  0.00    -0.237 OA
ATOM     96  O   UNL A   1      50.674  27.427  36.730  1.00  0.00    -0.237 OA
ATOM     97  O   UNL A   1      50.654  25.157  35.771  1.00  0.00    -0.744 OA
ENDBRANCH  93  94
ENDBRANCH  61  86
ENDBRANCH  35  36
ENDBRANCH  27  30
ENDBRANCH  25  26
ENDBRANCH   1  25
TORSDOF 15
ENDMDL
MODEL 3
REMARK VINA RESULT:     -11.4      2.778      9.217
REMARK SMILES Cc1cc(C)c2c(C(=O)NCCCCNC(=O)c3ccc(-c4c5nc(c(-c6c(F)cc(S(=O)(=O)[O-])cc6F)c6ccc([nH]6)c(-c6c(F)cc(S(=O)(=O)[O-])cc6F)c6nc(c(-c7c(F)cc(S(=O)(=O)[O-])cc7F)c7ccc4[nH]7)C=C6)C=C5)cc3)cc(-c3ccco3)nc2c1
REMARK SMILES IDX 13 1 12 2 11 3 10 4 8 5 9 6 7 8 1 9 2 10 3 11 93 12 4 13
REMARK SMILES IDX 92 14 5 15 6 16 91 17 85 18 84 19 86 20 87 21 90 22 88 23
REMARK SMILES IDX 89 24 14 25 15 26 16 27 17 29 18 30 19 31 83 32 20 33 82 34
REMARK SMILES IDX 21 35 22 36 23 37 76 38 24 39 81 40 75 41 77 42 25 43 80 44
REMARK SMILES IDX 74 45 73 46 26 48 60 49 39 50 59 51 40 52 43 53 58 54 78 55
REMARK SMILES IDX 41 56 42 57 57 59 79 60 44 61 27 62 28 63 37 64 29 65 30 66
REMARK SMILES IDX 36 67 38 68 31 69 32 70 33 71 34 72 35 73 61 74 62 75 71 76
REMARK SMILES IDX 63 77 64 78 70 79 72 80 65 81 66 82 67 83 68 84 69 85 45 86
REMARK SMILES IDX 46 87 55 88 47 89 48 90 54 91 56 92 49 93 50 94 51 95 52 96
REMARK SMILES IDX 53 97
REMARK H PARENT 10 7 15 28 77 47 43 58
REMARK Flexibility Score: inf
ROOT
ATOM      1  C   UNL A   1      35.960  23.725  25.994  1.00  0.00     0.023 C 
ENDROOT
BRANCH   1   2
ATOM      2  C   UNL A   1      34.611  23.216  25.475  1.00  0.00     0.023 C 
BRANCH   2   3
ATOM      3  C   UNL A   1      33.605  24.278  25.036  1.00  0.00     0.116 C 
BRANCH   3   4
ATOM      4  N   UNL A   1      33.773  24.763  23.675  1.00  0.00    -0.352 N 
ATOM      5  C   UNL A   1      33.511  26.005  23.135  1.00  0.00     0.252 C 
ATOM      6  O   UNL A   1      33.763  26.204  21.948  1.00  0.00    -0.269 OA
ATOM      7  H   UNL A   1      34.131  24.101  23.040  1.00  0.00     0.163 HD
BRANCH   5   8
ATOM      8  C   UNL A   1      32.837  27.080  23.911  1.00  0.00     0.051 A 
ATOM      9  C   UNL A   1      27.823  29.364  22.534  1.00  0.00     0.044 C 
ATOM     10  C   UNL A   1      29.028  28.648  23.064  1.00  0.00    -0.049 A 
ATOM     11  C   UNL A   1      29.202  27.283  22.870  1.00  0.00     0.007 A 
ATOM     12  C   UNL A   1      29.984  29.338  23.813  1.00  0.00     0.032 A 
ATOM     13  C   UNL A   1      30.394  26.657  23.262  1.00  0.00    -0.041 A 
ATOM     14  C   UNL A   1      31.172  28.748  24.218  1.00  0.00     0.072 A 
ATOM     15  C   UNL A   1      30.408  25.147  23.259  1.00  0.00     0.045 C 
ATOM     16  C   UNL A   1      31.471  27.445  23.779  1.00  0.00     0.016 A 
ATOM     17  N   UNL A   1      31.988  29.466  25.005  1.00  0.00    -0.244 NA
ATOM     18  C   UNL A   1      33.186  28.946  25.342  1.00  0.00     0.107 A 
ATOM     19  C   UNL A   1      33.687  27.810  24.749  1.00  0.00     0.046 A 
BRANCH  18  20
ATOM     20  C   UNL A   1      33.903  29.645  26.394  1.00  0.00     0.152 A 
ATOM     21  C   UNL A   1      34.987  29.352  27.198  1.00  0.00     0.052 A 
ATOM     22  O   UNL A   1      33.372  30.850  26.766  1.00  0.00    -0.463 OA
ATOM     23  C   UNL A   1      35.124  30.436  28.103  1.00  0.00     0.043 A 
ATOM     24  C   UNL A   1      34.111  31.316  27.804  1.00  0.00     0.196 A 
ENDBRANCH  18  20
ENDBRANCH   5   8
ENDBRANCH   3   4
ENDBRANCH   2   3
ENDBRANCH   1   2
BRANCH   1  25
ATOM     25  C   UNL A   1      37.129  23.724  25.010  1.00  0.00     0.116 C 
BRANCH  25  26
ATOM     26  N   UNL A   1      38.191  22.794  25.362  1.00  0.00    -0.352 N 
ATOM     27  C   UNL A   1      39.305  22.986  26.150  1.00  0.00     0.251 C 
ATOM     28  H   UNL A   1      38.101  21.891  24.979  1.00  0.00     0.163 HD
ATOM     29  O   UNL A   1      40.135  22.094  26.270  1.00  0.00    -0.269 OA
BRANCH  27  30
ATOM     30  C   UNL A   1      39.517  24.290  26.818  1.00  0.00     0.039 A 
ATOM     31  C   UNL A   1      38.979  24.489  28.093  1.00  0.00     0.014 A 
ATOM     32  C   UNL A   1      40.265  25.297  26.204  1.00  0.00     0.014 A 
ATOM     33  C   UNL A   1      39.282  25.658  28.798  1.00  0.00     0.010 A 
ATOM     34  C   UNL A   1      40.607  26.440  26.927  1.00  0.00     0.010 A 
ATOM     35  C   UNL A   1      40.139  26.619  28.238  1.00  0.00    -0.014 A 
BRANCH  35  36
ATOM     36  C   UNL A   1      40.600  27.795  29.019  1.00  0.00     0.031 A 
ATOM     37  C   UNL A   1      41.936  27.770  29.707  1.00  0.00     0.074 A 
ATOM     38  C   UNL A   1      39.778  28.852  29.176  1.00  0.00     0.049 A 
ATOM     39  N   UNL A   1      42.452  28.639  30.537  1.00  0.00    -0.248 NA
ATOM     40  C   UNL A   1      42.794  26.607  29.439  1.00  0.00     0.031 C 
ATOM     41  C   UNL A   1      38.450  28.987  28.575  1.00  0.00     0.029 A 
ATOM     42  N   UNL A   1      39.931  30.005  29.905  1.00  0.00    -0.354 N 
ATOM     43  C   UNL A   1      43.693  28.129  30.895  1.00  0.00     0.074 A 
ATOM     44  C   UNL A   1      43.834  26.854  30.223  1.00  0.00     0.031 C 
ATOM     45  C   UNL A   1      37.913  30.159  28.953  1.00  0.00     0.029 A 
ATOM     46  C   UNL A   1      38.839  30.841  29.851  1.00  0.00     0.049 A 
ATOM     47  H   UNL A   1      40.744  30.216  30.417  1.00  0.00     0.167 HD
ATOM     48  C   UNL A   1      44.635  28.679  31.699  1.00  0.00     0.037 A 
ATOM     49  C   UNL A   1      38.606  32.017  30.466  1.00  0.00     0.037 A 
ATOM     50  C   UNL A   1      44.494  29.950  32.361  1.00  0.00     0.049 A 
ATOM     51  C   UNL A   1      39.658  32.598  31.370  1.00  0.00     0.074 A 
ATOM     52  C   UNL A   1      45.395  30.593  33.192  1.00  0.00     0.029 A 
ATOM     53  N   UNL A   1      43.383  30.775  32.264  1.00  0.00    -0.354 N 
ATOM     54  N   UNL A   1      40.828  32.103  31.694  1.00  0.00    -0.248 NA
ATOM     55  C   UNL A   1      39.362  33.898  31.988  1.00  0.00     0.031 C 
ATOM     56  C   UNL A   1      44.820  31.796  33.617  1.00  0.00     0.029 A 
ATOM     57  C   UNL A   1      43.577  31.921  33.019  1.00  0.00     0.049 A 
ATOM     58  H   UNL A   1      42.576  30.577  31.736  1.00  0.00     0.167 HD
ATOM     59  C   UNL A   1      41.423  33.046  32.525  1.00  0.00     0.074 A 
ATOM     60  C   UNL A   1      40.483  34.141  32.653  1.00  0.00     0.031 C 
ATOM     61  C   UNL A   1      42.639  33.010  33.124  1.00  0.00     0.037 A 
BRANCH  48  62
ATOM     62  C   UNL A   1      45.910  27.910  31.900  1.00  0.00     0.058 A 
ATOM     63  C   UNL A   1      47.010  28.085  31.045  1.00  0.00     0.135 A 
ATOM     64  C   UNL A   1      46.052  27.024  32.979  1.00  0.00     0.135 A 
ATOM     65  F   UNL A   1      46.920  28.908  29.987  1.00  0.00    -0.206 F 
ATOM     66  C   UNL A   1      48.200  27.393  31.241  1.00  0.00     0.059 A 
ATOM     67  C   UNL A   1      47.243  26.339  33.208  1.00  0.00     0.059 A 
ATOM     68  F   UNL A   1      45.030  26.817  33.824  1.00  0.00    -0.206 F 
ATOM     69  C   UNL A   1      48.307  26.523  32.326  1.00  0.00     0.060 A 
BRANCH  69  70
ATOM     70  S   UNL A   1      49.865  25.645  32.575  1.00  0.00     0.124 S 
ATOM     71  O   UNL A   1      50.155  25.179  31.222  1.00  0.00    -0.237 OA
ATOM     72  O   UNL A   1      50.739  26.697  33.083  1.00  0.00    -0.237 OA
ATOM     73  O   UNL A   1      49.519  24.603  33.535  1.00  0.00    -0.744 OA
ENDBRANCH  69  70
ENDBRANCH  48  62
BRANCH  49  74
ATOM     74  C   UNL A   1      37.330  32.742  30.224  1.00  0.00     0.058 A 
ATOM     75  C   UNL A   1      36.226  32.550  31.069  1.00  0.00     0.135 A 
ATOM     76  C   UNL A   1      37.191  33.645  29.160  1.00  0.00     0.135 A 
ATOM     77  F   UNL A   1      36.311  31.690  32.094  1.00  0.00    -0.206 F 
ATOM     78  C   UNL A   1      35.026  33.221  30.863  1.00  0.00     0.059 A 
ATOM     79  C   UNL A   1      36.007  34.344  28.945  1.00  0.00     0.059 A 
ATOM     80  F   UNL A   1      38.222  33.874  28.331  1.00  0.00    -0.206 F 
ATOM     81  C   UNL A   1      34.927  34.120  29.799  1.00  0.00     0.060 A 
BRANCH  81  82
ATOM     82  S   UNL A   1      33.383  35.028  29.576  1.00  0.00     0.124 S 
ATOM     83  O   UNL A   1      32.820  34.986  30.922  1.00  0.00    -0.237 OA
ATOM     84  O   UNL A   1      33.858  36.332  29.123  1.00  0.00    -0.237 OA
ATOM     85  O   UNL A   1      32.674  34.245  28.569  1.00  0.00    -0.744 OA
ENDBRANCH  81  82
ENDBRANCH  49  74
BRANCH  61  86
ATOM     86  C   UNL A   1      43.049  34.211  33.929  1.00  0.00     0.058 A 
ATOM     87  C   UNL A   1      42.859  34.271  35.318  1.00  0.00     0.135 A 
ATOM     88  C   UNL A   1      43.681  35.298  33.305  1.00  0.00     0.135 A 
ATOM     89  F   UNL A   1      42.254  33.259  35.962  1.00  0.00    -0.206 F 
ATOM     90  C   UNL A   1      43.260  35.379  36.058  1.00  0.00     0.059 A 
ATOM     91  C   UNL A   1      44.111  36.406  34.027  1.00  0.00     0.059 A 
ATOM     92  F   UNL A   1      43.894  35.285  31.979  1.00  0.00    -0.206 F 
ATOM     93  C   UNL A   1      43.884  36.443  35.404  1.00  0.00     0.060 A 
BRANCH  93  94
ATOM     94  S   UNL A   1      44.420  37.866  36.377  1.00  0.00     0.124 S 
ATOM     95  O   UNL A   1      45.799  37.505  36.689  1.00  0.00    -0.237 OA
ATOM     96  O   UNL A   1      44.250  38.970  35.437  1.00  0.00    -0.237 OA
ATOM     97  O   UNL A   1      43.500  37.868  37.510  1.00  0.00    -0.744 OA
ENDBRANCH  93  94
ENDBRANCH  61  86
ENDBRANCH  35  36
ENDBRANCH  27  30
ENDBRANCH  25  26
ENDBRANCH   1  25
TORSDOF 15
ENDMDL
