MODEL 1
REMARK VINA RESULT:     -12.3      0.000      0.000
REMARK SMILES CC1(C)C[C@@H]([NH2+]C[C@@H]2CCCC[C@@H]2C(=O)NCCCCNC(=O)c2ccc(-c3c4nc(c(-c5c(F)cc(S(=O)(=O)[O-])cc5F)c5ccc([nH]5)c(-c5c(F)cc(S(=O)(=O)[O-])cc5F)c5nc(c(-c6c(F)cc(S(=O)(=O)[O-])cc6F)c6ccc3[nH]6)C=C5)C=C4)cc2)C(C)(C)O1
REMARK SMILES IDX 18 1 17 2 16 3 14 4 15 5 13 7 8 8 9 9 10 10 12 11 11 12 7 13
REMARK SMILES IDX 6 14 5 17 1 18 2 19 3 20 4 21 93 22 90 23 91 24 92 25 19 26
REMARK SMILES IDX 20 27 21 28 22 29 23 31 24 32 25 33 89 34 26 35 88 36 27 37
REMARK SMILES IDX 28 38 29 39 82 40 30 41 87 42 81 43 83 44 31 45 86 46 80 47
REMARK SMILES IDX 79 48 32 50 66 51 45 52 65 53 46 54 49 55 64 56 84 57 47 58
REMARK SMILES IDX 48 59 63 61 85 62 50 63 33 64 34 65 43 66 35 67 36 68 42 69
REMARK SMILES IDX 44 70 37 71 38 72 39 73 40 74 41 75 67 76 68 77 77 78 69 79
REMARK SMILES IDX 70 80 76 81 78 82 71 83 72 84 73 85 74 86 75 87 51 88 52 89
REMARK SMILES IDX 61 90 53 91 54 92 60 93 62 94 55 95 56 96 57 97 58 98 59 99
REMARK H PARENT 16 6 6 15 6 16 21 30 83 49 49 60
REMARK Flexibility Score: inf
ROOT
ATOM      1  C   UNL A   1      38.464  23.791  26.484  1.00  0.00     0.023 C 
ENDROOT
BRANCH   1   2
ATOM      2  C   UNL A   1      37.234  23.312  25.716  1.00  0.00     0.116 C 
BRANCH   2   3
ATOM      3  N   UNL A   1      36.258  22.684  26.587  1.00  0.00    -0.356 N 
ATOM      4  C   UNL A   1      35.174  21.910  26.309  1.00  0.00     0.223 C 
ATOM      5  O   UNL A   1      34.486  21.523  27.253  1.00  0.00    -0.275 OA
ATOM      6  H   UNL A   1      36.404  22.846  27.548  1.00  0.00     0.163 HD
BRANCH   4   7
ATOM      7  C   UNL A   1      34.846  21.548  24.866  1.00  0.00     0.087 C 
ATOM      8  C   UNL A   1      33.622  22.297  24.312  1.00  0.00     0.056 C 
ATOM      9  C   UNL A   1      32.295  21.784  24.889  1.00  0.00     0.010 C 
ATOM     10  C   UNL A   1      32.139  20.293  24.621  1.00  0.00     0.001 C 
ATOM     11  C   UNL A   1      34.663  20.022  24.728  1.00  0.00     0.014 C 
ATOM     12  C   UNL A   1      33.304  19.498  25.196  1.00  0.00     0.001 C 
BRANCH   8  13
ATOM     13  C   UNL A   1      33.688  23.840  24.369  1.00  0.00     0.265 C 
BRANCH  13  14
ATOM     14  N   UNL A   1      32.377  24.499  24.492  1.00  0.00    -0.341 N 
ATOM     15  H   UNL A   1      31.838  24.297  23.650  1.00  0.00     0.346 HD
ATOM     16  H   UNL A   1      31.944  24.130  25.340  1.00  0.00     0.346 HD
BRANCH  14  17
ATOM     17  C   UNL A   1      32.443  25.961  24.658  1.00  0.00     0.217 C 
ATOM     18  C   UNL A   1      31.856  28.343  27.453  1.00  0.00     0.042 C 
ATOM     19  C   UNL A   1      32.276  27.890  26.056  1.00  0.00     0.069 C 
ATOM     20  C   UNL A   1      33.392  28.795  25.523  1.00  0.00     0.042 C 
ATOM     21  C   UNL A   1      32.696  26.434  26.079  1.00  0.00     0.103 C 
ATOM     22  O   UNL A   1      31.159  27.954  25.158  1.00  0.00    -0.363 OA
ATOM     23  C   UNL A   1      31.148  26.762  24.321  1.00  0.00     0.115 C 
ATOM     24  C   UNL A   1      29.851  26.013  24.653  1.00  0.00     0.048 C 
ATOM     25  C   UNL A   1      31.116  27.218  22.862  1.00  0.00     0.048 C 
ENDBRANCH  14  17
ENDBRANCH  13  14
ENDBRANCH   8  13
ENDBRANCH   4   7
ENDBRANCH   2   3
ENDBRANCH   1   2
BRANCH   1  26
ATOM     26  C   UNL A   1      39.603  22.773  26.565  1.00  0.00     0.023 C 
BRANCH  26  27
ATOM     27  C   UNL A   1      40.944  23.342  27.013  1.00  0.00     0.116 C 
BRANCH  27  28
ATOM     28  N   UNL A   1      41.565  24.175  25.997  1.00  0.00    -0.352 N 
ATOM     29  C   UNL A   1      41.828  25.520  26.018  1.00  0.00     0.251 C 
ATOM     30  H   UNL A   1      41.837  23.706  25.176  1.00  0.00     0.163 HD
ATOM     31  O   UNL A   1      42.225  26.074  24.993  1.00  0.00    -0.269 OA
BRANCH  29  32
ATOM     32  C   UNL A   1      41.607  26.306  27.250  1.00  0.00     0.039 A 
ATOM     33  C   UNL A   1      42.443  27.394  27.508  1.00  0.00     0.014 A 
ATOM     34  C   UNL A   1      40.589  25.977  28.151  1.00  0.00     0.014 A 
ATOM     35  C   UNL A   1      42.230  28.175  28.644  1.00  0.00     0.010 A 
ATOM     36  C   UNL A   1      40.323  26.810  29.235  1.00  0.00     0.010 A 
ATOM     37  C   UNL A   1      41.148  27.911  29.502  1.00  0.00    -0.014 A 
BRANCH  37  38
ATOM     38  C   UNL A   1      40.882  28.793  30.666  1.00  0.00     0.031 A 
ATOM     39  C   UNL A   1      41.685  28.664  31.932  1.00  0.00     0.074 A 
ATOM     40  C   UNL A   1      39.887  29.698  30.590  1.00  0.00     0.049 A 
ATOM     41  N   UNL A   1      41.632  29.391  33.019  1.00  0.00    -0.248 NA
ATOM     42  C   UNL A   1      42.653  27.559  31.999  1.00  0.00     0.031 C 
ATOM     43  C   UNL A   1      38.980  29.860  29.452  1.00  0.00     0.029 A 
ATOM     44  N   UNL A   1      39.470  30.654  31.484  1.00  0.00    -0.354 N 
ATOM     45  C   UNL A   1      42.547  28.828  33.900  1.00  0.00     0.074 A 
ATOM     46  C   UNL A   1      43.096  27.660  33.243  1.00  0.00     0.031 C 
ATOM     47  C   UNL A   1      38.140  30.876  29.699  1.00  0.00     0.029 A 
ATOM     48  C   UNL A   1      38.427  31.420  31.023  1.00  0.00     0.049 A 
ATOM     49  H   UNL A   1      39.880  30.778  32.370  1.00  0.00     0.167 HD
ATOM     50  C   UNL A   1      42.915  29.255  35.133  1.00  0.00     0.037 A 
ATOM     51  C   UNL A   1      37.774  32.449  31.597  1.00  0.00     0.037 A 
ATOM     52  C   UNL A   1      42.367  30.425  35.771  1.00  0.00     0.049 A 
ATOM     53  C   UNL A   1      38.224  32.940  32.944  1.00  0.00     0.074 A 
ATOM     54  C   UNL A   1      42.725  30.992  36.981  1.00  0.00     0.029 A 
ATOM     55  N   UNL A   1      41.332  31.197  35.260  1.00  0.00    -0.354 N 
ATOM     56  N   UNL A   1      39.168  32.461  33.720  1.00  0.00    -0.248 NA
ATOM     57  C   UNL A   1      37.538  34.119  33.484  1.00  0.00     0.031 C 
ATOM     58  C   UNL A   1      41.867  32.070  37.230  1.00  0.00     0.029 A 
ATOM     59  C   UNL A   1      41.019  32.218  36.143  1.00  0.00     0.049 A 
ATOM     60  H   UNL A   1      40.887  31.043  34.396  1.00  0.00     0.167 HD
ATOM     61  C   UNL A   1      39.205  33.295  34.833  1.00  0.00     0.074 A 
ATOM     62  C   UNL A   1      38.198  34.315  34.619  1.00  0.00     0.031 C 
ATOM     63  C   UNL A   1      40.006  33.224  35.926  1.00  0.00     0.037 A 
BRANCH  50  64
ATOM     64  C   UNL A   1      43.946  28.442  35.871  1.00  0.00     0.058 A 
ATOM     65  C   UNL A   1      45.325  28.665  35.713  1.00  0.00     0.135 A 
ATOM     66  C   UNL A   1      43.551  27.422  36.752  1.00  0.00     0.135 A 
ATOM     67  F   UNL A   1      45.765  29.620  34.879  1.00  0.00    -0.206 F 
ATOM     68  C   UNL A   1      46.271  27.872  36.355  1.00  0.00     0.059 A 
ATOM     69  C   UNL A   1      44.480  26.639  37.432  1.00  0.00     0.059 A 
ATOM     70  F   UNL A   1      42.248  27.165  36.949  1.00  0.00    -0.206 F 
ATOM     71  C   UNL A   1      45.838  26.855  37.207  1.00  0.00     0.060 A 
BRANCH  71  72
ATOM     72  S   UNL A   1      47.076  25.811  38.005  1.00  0.00     0.124 S 
ATOM     73  O   UNL A   1      48.123  25.775  36.987  1.00  0.00    -0.237 OA
ATOM     74  O   UNL A   1      47.394  26.568  39.211  1.00  0.00    -0.237 OA
ATOM     75  O   UNL A   1      46.371  24.553  38.224  1.00  0.00    -0.744 OA
ENDBRANCH  71  72
ENDBRANCH  50  64
BRANCH  51  76
ATOM     76  C   UNL A   1      36.655  33.097  30.862  1.00  0.00     0.058 A 
ATOM     77  C   UNL A   1      35.319  32.885  31.235  1.00  0.00     0.135 A 
ATOM     78  C   UNL A   1      36.907  34.005  29.823  1.00  0.00     0.135 A 
ATOM     79  F   UNL A   1      35.026  32.022  32.219  1.00  0.00    -0.206 F 
ATOM     80  C   UNL A   1      34.274  33.555  30.607  1.00  0.00     0.059 A 
ATOM     81  C   UNL A   1      35.881  34.706  29.197  1.00  0.00     0.059 A 
ATOM     82  F   UNL A   1      38.170  34.256  29.442  1.00  0.00    -0.206 F 
ATOM     83  C   UNL A   1      34.567  34.473  29.598  1.00  0.00     0.060 A 
BRANCH  83  84
ATOM     84  S   UNL A   1      33.210  35.413  28.861  1.00  0.00     0.124 S 
ATOM     85  O   UNL A   1      33.930  36.451  28.135  1.00  0.00    -0.237 OA
ATOM     86  O   UNL A   1      32.549  34.401  28.042  1.00  0.00    -0.237 OA
ATOM     87  O   UNL A   1      32.446  35.864  30.020  1.00  0.00    -0.744 OA
ENDBRANCH  83  84
ENDBRANCH  51  76
BRANCH  63  88
ATOM     88  C   UNL A   1      39.849  34.299  36.969  1.00  0.00     0.058 A 
ATOM     89  C   UNL A   1      40.468  35.552  36.846  1.00  0.00     0.135 A 
ATOM     90  C   UNL A   1      39.034  34.079  38.092  1.00  0.00     0.135 A 
ATOM     91  F   UNL A   1      41.260  35.815  35.795  1.00  0.00    -0.206 F 
ATOM     92  C   UNL A   1      40.313  36.538  37.816  1.00  0.00     0.059 A 
ATOM     93  C   UNL A   1      38.839  35.061  39.058  1.00  0.00     0.059 A 
ATOM     94  F   UNL A   1      38.407  32.903  38.255  1.00  0.00    -0.206 F 
ATOM     95  C   UNL A   1      39.497  36.282  38.919  1.00  0.00     0.060 A 
BRANCH  95  96
ATOM     96  S   UNL A   1      39.293  37.572  40.166  1.00  0.00     0.124 S 
ATOM     97  O   UNL A   1      40.633  38.149  40.211  1.00  0.00    -0.237 OA
ATOM     98  O   UNL A   1      38.259  38.416  39.576  1.00  0.00    -0.237 OA
ATOM     99  O   UNL A   1      38.887  36.834  41.358  1.00  0.00    -0.744 OA
ENDBRANCH  95  96
ENDBRANCH  63  88
ENDBRANCH  37  38
ENDBRANCH  29  32
ENDBRANCH  27  28
ENDBRANCH  26  27
ENDBRANCH   1  26
TORSDOF 17
ENDMDL
MODEL 2
REMARK VINA RESULT:     -12.1      0.787      1.403
REMARK SMILES CC1(C)C[C@@H]([NH2+]C[C@@H]2CCCC[C@@H]2C(=O)NCCCCNC(=O)c2ccc(-c3c4nc(c(-c5c(F)cc(S(=O)(=O)[O-])cc5F)c5ccc([nH]5)c(-c5c(F)cc(S(=O)(=O)[O-])cc5F)c5nc(c(-c6c(F)cc(S(=O)(=O)[O-])cc6F)c6ccc3[nH]6)C=C5)C=C4)cc2)C(C)(C)O1
REMARK SMILES IDX 18 1 17 2 16 3 14 4 15 5 13 7 8 8 9 9 10 10 12 11 11 12 7 13
REMARK SMILES IDX 6 14 5 17 1 18 2 19 3 20 4 21 93 22 90 23 91 24 92 25 19 26
REMARK SMILES IDX 20 27 21 28 22 29 23 31 24 32 25 33 89 34 26 35 88 36 27 37
REMARK SMILES IDX 28 38 29 39 82 40 30 41 87 42 81 43 83 44 31 45 86 46 80 47
REMARK SMILES IDX 79 48 32 50 66 51 45 52 65 53 46 54 49 55 64 56 84 57 47 58
REMARK SMILES IDX 48 59 63 61 85 62 50 63 33 64 34 65 43 66 35 67 36 68 42 69
REMARK SMILES IDX 44 70 37 71 38 72 39 73 40 74 41 75 67 76 68 77 77 78 69 79
REMARK SMILES IDX 70 80 76 81 78 82 71 83 72 84 73 85 74 86 75 87 51 88 52 89
REMARK SMILES IDX 61 90 53 91 54 92 60 93 62 94 55 95 56 96 57 97 58 98 59 99
REMARK H PARENT 16 6 6 15 6 16 21 30 83 49 49 60
REMARK Flexibility Score: inf
ROOT
ATOM      1  C   UNL A   1      38.197  24.003  26.191  1.00  0.00     0.023 C 
ENDROOT
BRANCH   1   2
ATOM      2  C   UNL A   1      36.929  23.569  25.460  1.00  0.00     0.116 C 
BRANCH   2   3
ATOM      3  N   UNL A   1      36.134  22.646  26.249  1.00  0.00    -0.356 N 
ATOM      4  C   UNL A   1      34.843  22.237  26.119  1.00  0.00     0.223 C 
ATOM      5  O   UNL A   1      34.401  21.453  26.958  1.00  0.00    -0.275 OA
ATOM      6  H   UNL A   1      36.611  22.246  27.012  1.00  0.00     0.163 HD
BRANCH   4   7
ATOM      7  C   UNL A   1      33.993  22.749  24.963  1.00  0.00     0.087 C 
ATOM      8  C   UNL A   1      33.079  23.923  25.350  1.00  0.00     0.056 C 
ATOM      9  C   UNL A   1      31.887  23.494  26.217  1.00  0.00     0.010 C 
ATOM     10  C   UNL A   1      31.066  22.428  25.503  1.00  0.00     0.001 C 
ATOM     11  C   UNL A   1      33.173  21.593  24.353  1.00  0.00     0.014 C 
ATOM     12  C   UNL A   1      31.917  21.217  25.142  1.00  0.00     0.001 C 
BRANCH   8  13
ATOM     13  C   UNL A   1      33.782  25.160  25.953  1.00  0.00     0.265 C 
BRANCH  13  14
ATOM     14  N   UNL A   1      32.864  26.213  26.419  1.00  0.00    -0.341 N 
ATOM     15  H   UNL A   1      31.999  25.768  26.729  1.00  0.00     0.346 HD
ATOM     16  H   UNL A   1      33.347  26.709  27.169  1.00  0.00     0.346 HD
BRANCH  14  17
ATOM     17  C   UNL A   1      32.523  27.220  25.400  1.00  0.00     0.217 C 
ATOM     18  C   UNL A   1      34.150  28.541  22.329  1.00  0.00     0.042 C 
ATOM     19  C   UNL A   1      33.045  28.358  23.366  1.00  0.00     0.069 C 
ATOM     20  C   UNL A   1      31.672  28.526  22.707  1.00  0.00     0.042 C 
ATOM     21  C   UNL A   1      33.181  27.011  24.047  1.00  0.00     0.103 C 
ATOM     22  O   UNL A   1      33.179  29.332  24.411  1.00  0.00    -0.363 OA
ATOM     23  C   UNL A   1      32.953  28.689  25.699  1.00  0.00     0.115 C 
ATOM     24  C   UNL A   1      34.270  28.805  26.477  1.00  0.00     0.048 C 
ATOM     25  C   UNL A   1      31.860  29.474  26.424  1.00  0.00     0.048 C 
ENDBRANCH  14  17
ENDBRANCH  13  14
ENDBRANCH   8  13
ENDBRANCH   4   7
ENDBRANCH   2   3
ENDBRANCH   1   2
BRANCH   1  26
ATOM     26  C   UNL A   1      39.197  22.876  26.460  1.00  0.00     0.023 C 
BRANCH  26  27
ATOM     27  C   UNL A   1      40.562  23.332  26.960  1.00  0.00     0.116 C 
BRANCH  27  28
ATOM     28  N   UNL A   1      41.284  24.120  25.974  1.00  0.00    -0.352 N 
ATOM     29  C   UNL A   1      41.646  25.442  26.015  1.00  0.00     0.251 C 
ATOM     30  H   UNL A   1      41.552  23.635  25.161  1.00  0.00     0.163 HD
ATOM     31  O   UNL A   1      42.124  25.968  25.010  1.00  0.00    -0.269 OA
BRANCH  29  32
ATOM     32  C   UNL A   1      41.437  26.236  27.243  1.00  0.00     0.039 A 
ATOM     33  C   UNL A   1      42.327  27.275  27.526  1.00  0.00     0.014 A 
ATOM     34  C   UNL A   1      40.379  25.964  28.116  1.00  0.00     0.014 A 
ATOM     35  C   UNL A   1      42.128  28.065  28.659  1.00  0.00     0.010 A 
ATOM     36  C   UNL A   1      40.132  26.810  29.195  1.00  0.00     0.010 A 
ATOM     37  C   UNL A   1      41.011  27.861  29.487  1.00  0.00    -0.014 A 
BRANCH  37  38
ATOM     38  C   UNL A   1      40.764  28.755  30.646  1.00  0.00     0.031 A 
ATOM     39  C   UNL A   1      41.572  28.624  31.909  1.00  0.00     0.074 A 
ATOM     40  C   UNL A   1      39.781  29.674  30.570  1.00  0.00     0.049 A 
ATOM     41  N   UNL A   1      41.536  29.358  32.991  1.00  0.00    -0.248 NA
ATOM     42  C   UNL A   1      42.525  27.505  31.978  1.00  0.00     0.031 C 
ATOM     43  C   UNL A   1      38.870  29.841  29.436  1.00  0.00     0.029 A 
ATOM     44  N   UNL A   1      39.383  30.641  31.459  1.00  0.00    -0.354 N 
ATOM     45  C   UNL A   1      42.448  28.788  33.871  1.00  0.00     0.074 A 
ATOM     46  C   UNL A   1      42.976  27.609  33.219  1.00  0.00     0.031 C 
ATOM     47  C   UNL A   1      38.046  30.870  29.681  1.00  0.00     0.029 A 
ATOM     48  C   UNL A   1      38.348  31.419  31.000  1.00  0.00     0.049 A 
ATOM     49  H   UNL A   1      39.800  30.765  32.343  1.00  0.00     0.167 HD
ATOM     50  C   UNL A   1      42.829  29.219  35.098  1.00  0.00     0.037 A 
ATOM     51  C   UNL A   1      37.713  32.461  31.570  1.00  0.00     0.037 A 
ATOM     52  C   UNL A   1      42.301  30.401  35.731  1.00  0.00     0.049 A 
ATOM     53  C   UNL A   1      38.178  32.955  32.911  1.00  0.00     0.074 A 
ATOM     54  C   UNL A   1      42.675  30.972  36.936  1.00  0.00     0.029 A 
ATOM     55  N   UNL A   1      41.275  31.184  35.221  1.00  0.00    -0.354 N 
ATOM     56  N   UNL A   1      39.119  32.468  33.685  1.00  0.00    -0.248 NA
ATOM     57  C   UNL A   1      37.513  34.147  33.447  1.00  0.00     0.031 C 
ATOM     58  C   UNL A   1      41.834  32.063  37.182  1.00  0.00     0.029 A 
ATOM     59  C   UNL A   1      40.981  32.215  36.099  1.00  0.00     0.049 A 
ATOM     60  H   UNL A   1      40.823  31.030  34.360  1.00  0.00     0.167 HD
ATOM     61  C   UNL A   1      39.176  33.309  34.791  1.00  0.00     0.074 A 
ATOM     62  C   UNL A   1      38.181  34.342  34.577  1.00  0.00     0.031 C 
ATOM     63  C   UNL A   1      39.981  33.234  35.880  1.00  0.00     0.037 A 
BRANCH  50  64
ATOM     64  C   UNL A   1      43.853  28.396  35.836  1.00  0.00     0.058 A 
ATOM     65  C   UNL A   1      45.231  28.658  35.740  1.00  0.00     0.135 A 
ATOM     66  C   UNL A   1      43.452  27.327  36.654  1.00  0.00     0.135 A 
ATOM     67  F   UNL A   1      45.676  29.662  34.967  1.00  0.00    -0.206 F 
ATOM     68  C   UNL A   1      46.173  27.858  36.380  1.00  0.00     0.059 A 
ATOM     69  C   UNL A   1      44.375  26.535  37.332  1.00  0.00     0.059 A 
ATOM     70  F   UNL A   1      42.149  27.031  36.791  1.00  0.00    -0.206 F 
ATOM     71  C   UNL A   1      45.735  26.792  37.168  1.00  0.00     0.060 A 
BRANCH  71  72
ATOM     72  S   UNL A   1      46.969  25.742  37.962  1.00  0.00     0.124 S 
ATOM     73  O   UNL A   1      47.355  24.865  36.859  1.00  0.00    -0.237 OA
ATOM     74  O   UNL A   1      47.977  26.708  38.385  1.00  0.00    -0.237 OA
ATOM     75  O   UNL A   1      46.226  25.101  39.041  1.00  0.00    -0.744 OA
ENDBRANCH  71  72
ENDBRANCH  50  64
BRANCH  51  76
ATOM     76  C   UNL A   1      36.599  33.120  30.837  1.00  0.00     0.058 A 
ATOM     77  C   UNL A   1      35.260  32.878  31.178  1.00  0.00     0.135 A 
ATOM     78  C   UNL A   1      36.858  34.067  29.834  1.00  0.00     0.135 A 
ATOM     79  F   UNL A   1      34.961  31.977  32.125  1.00  0.00    -0.206 F 
ATOM     80  C   UNL A   1      34.218  33.556  30.554  1.00  0.00     0.059 A 
ATOM     81  C   UNL A   1      35.835  34.776  29.215  1.00  0.00     0.059 A 
ATOM     82  F   UNL A   1      38.125  34.347  29.487  1.00  0.00    -0.206 F 
ATOM     83  C   UNL A   1      34.516  34.513  29.582  1.00  0.00     0.060 A 
BRANCH  83  84
ATOM     84  S   UNL A   1      33.161  35.460  28.853  1.00  0.00     0.124 S 
ATOM     85  O   UNL A   1      33.883  36.448  28.063  1.00  0.00    -0.237 OA
ATOM     86  O   UNL A   1      32.446  34.436  28.098  1.00  0.00    -0.237 OA
ATOM     87  O   UNL A   1      32.449  35.978  30.017  1.00  0.00    -0.744 OA
ENDBRANCH  83  84
ENDBRANCH  51  76
BRANCH  63  88
ATOM     88  C   UNL A   1      39.846  34.318  36.916  1.00  0.00     0.058 A 
ATOM     89  C   UNL A   1      40.533  35.538  36.813  1.00  0.00     0.135 A 
ATOM     90  C   UNL A   1      38.983  34.144  38.012  1.00  0.00     0.135 A 
ATOM     91  F   UNL A   1      41.372  35.756  35.789  1.00  0.00    -0.206 F 
ATOM     92  C   UNL A   1      40.397  36.533  37.777  1.00  0.00     0.059 A 
ATOM     93  C   UNL A   1      38.808  35.137  38.970  1.00  0.00     0.059 A 
ATOM     94  F   UNL A   1      38.291  33.002  38.155  1.00  0.00    -0.206 F 
ATOM     95  C   UNL A   1      39.533  36.323  38.853  1.00  0.00     0.060 A 
BRANCH  95  96
ATOM     96  S   UNL A   1      39.355  37.625  40.091  1.00  0.00     0.124 S 
ATOM     97  O   UNL A   1      39.105  36.847  41.299  1.00  0.00    -0.237 OA
ATOM     98  O   UNL A   1      40.649  38.296  40.025  1.00  0.00    -0.237 OA
ATOM     99  O   UNL A   1      38.223  38.407  39.602  1.00  0.00    -0.744 OA
ENDBRANCH  95  96
ENDBRANCH  63  88
ENDBRANCH  37  38
ENDBRANCH  29  32
ENDBRANCH  27  28
ENDBRANCH  26  27
ENDBRANCH   1  26
TORSDOF 17
ENDMDL
MODEL 3
REMARK VINA RESULT:     -11.8      5.984      8.387
REMARK SMILES CC1(C)C[C@@H]([NH2+]C[C@@H]2CCCC[C@@H]2C(=O)NCCCCNC(=O)c2ccc(-c3c4nc(c(-c5c(F)cc(S(=O)(=O)[O-])cc5F)c5ccc([nH]5)c(-c5c(F)cc(S(=O)(=O)[O-])cc5F)c5nc(c(-c6c(F)cc(S(=O)(=O)[O-])cc6F)c6ccc3[nH]6)C=C5)C=C4)cc2)C(C)(C)O1
REMARK SMILES IDX 18 1 17 2 16 3 14 4 15 5 13 7 8 8 9 9 10 10 12 11 11 12 7 13
REMARK SMILES IDX 6 14 5 17 1 18 2 19 3 20 4 21 93 22 90 23 91 24 92 25 19 26
REMARK SMILES IDX 20 27 21 28 22 29 23 31 24 32 25 33 89 34 26 35 88 36 27 37
REMARK SMILES IDX 28 38 29 39 82 40 30 41 87 42 81 43 83 44 31 45 86 46 80 47
REMARK SMILES IDX 79 48 32 50 66 51 45 52 65 53 46 54 49 55 64 56 84 57 47 58
REMARK SMILES IDX 48 59 63 61 85 62 50 63 33 64 34 65 43 66 35 67 36 68 42 69
REMARK SMILES IDX 44 70 37 71 38 72 39 73 40 74 41 75 67 76 68 77 77 78 69 79
REMARK SMILES IDX 70 80 76 81 78 82 71 83 72 84 73 85 74 86 75 87 51 88 52 89
REMARK SMILES IDX 61 90 53 91 54 92 60 93 62 94 55 95 56 96 57 97 58 98 59 99
REMARK H PARENT 16 6 6 15 6 16 21 30 83 49 49 60
REMARK Flexibility Score: inf
ROOT
ATOM      1  C   UNL A   1      37.093  20.329  25.043  1.00  0.00     0.023 C 
ENDROOT
BRANCH   1   2
ATOM      2  C   UNL A   1      37.108  21.830  25.323  1.00  0.00     0.116 C 
BRANCH   2   3
ATOM      3  N   UNL A   1      36.209  22.192  26.403  1.00  0.00    -0.356 N 
ATOM      4  C   UNL A   1      34.943  22.692  26.386  1.00  0.00     0.223 C 
ATOM      5  O   UNL A   1      34.409  22.941  27.467  1.00  0.00    -0.275 OA
ATOM      6  H   UNL A   1      36.578  22.053  27.305  1.00  0.00     0.163 HD
BRANCH   4   7
ATOM      7  C   UNL A   1      34.233  22.926  25.059  1.00  0.00     0.087 C 
ATOM      8  C   UNL A   1      33.387  24.210  25.038  1.00  0.00     0.056 C 
ATOM      9  C   UNL A   1      32.100  24.093  25.865  1.00  0.00     0.010 C 
ATOM     10  C   UNL A   1      31.256  22.924  25.374  1.00  0.00     0.001 C 
ATOM     11  C   UNL A   1      33.374  21.698  24.691  1.00  0.00     0.014 C 
ATOM     12  C   UNL A   1      32.033  21.615  25.424  1.00  0.00     0.001 C 
BRANCH   8  13
ATOM     13  C   UNL A   1      34.136  25.521  25.367  1.00  0.00     0.265 C 
BRANCH  13  14
ATOM     14  N   UNL A   1      33.847  26.633  24.446  1.00  0.00    -0.341 N 
ATOM     15  H   UNL A   1      34.402  27.439  24.735  1.00  0.00     0.346 HD
ATOM     16  H   UNL A   1      34.083  26.304  23.509  1.00  0.00     0.346 HD
BRANCH  14  17
ATOM     17  C   UNL A   1      32.432  27.039  24.405  1.00  0.00     0.217 C 
ATOM     18  C   UNL A   1      30.383  29.303  22.284  1.00  0.00     0.042 C 
ATOM     19  C   UNL A   1      30.664  28.261  23.364  1.00  0.00     0.069 C 
ATOM     20  C   UNL A   1      29.465  27.318  23.510  1.00  0.00     0.042 C 
ATOM     21  C   UNL A   1      31.938  27.505  23.046  1.00  0.00     0.103 C 
ATOM     22  O   UNL A   1      30.903  28.905  24.624  1.00  0.00    -0.363 OA
ATOM     23  C   UNL A   1      32.030  28.261  25.286  1.00  0.00     0.115 C 
ATOM     24  C   UNL A   1      33.126  29.326  25.408  1.00  0.00     0.048 C 
ATOM     25  C   UNL A   1      31.568  27.839  26.681  1.00  0.00     0.048 C 
ENDBRANCH  14  17
ENDBRANCH  13  14
ENDBRANCH   8  13
ENDBRANCH   4   7
ENDBRANCH   2   3
ENDBRANCH   1   2
BRANCH   1  26
ATOM     26  C   UNL A   1      38.477  19.688  24.916  1.00  0.00     0.023 C 
BRANCH  26  27
ATOM     27  C   UNL A   1      39.477  20.098  25.990  1.00  0.00     0.116 C 
BRANCH  27  28
ATOM     28  N   UNL A   1      40.646  19.235  26.025  1.00  0.00    -0.352 N 
ATOM     29  C   UNL A   1      41.970  19.570  26.147  1.00  0.00     0.251 C 
ATOM     30  H   UNL A   1      40.460  18.271  25.951  1.00  0.00     0.163 HD
ATOM     31  O   UNL A   1      42.828  18.699  26.003  1.00  0.00    -0.269 OA
BRANCH  29  32
ATOM     32  C   UNL A   1      42.365  20.967  26.419  1.00  0.00     0.039 A 
ATOM     33  C   UNL A   1      42.570  21.358  27.743  1.00  0.00     0.014 A 
ATOM     34  C   UNL A   1      42.531  21.892  25.383  1.00  0.00     0.014 A 
ATOM     35  C   UNL A   1      42.983  22.661  28.023  1.00  0.00     0.010 A 
ATOM     36  C   UNL A   1      43.029  23.163  25.658  1.00  0.00     0.010 A 
ATOM     37  C   UNL A   1      43.248  23.567  26.981  1.00  0.00    -0.014 A 
BRANCH  37  38
ATOM     38  C   UNL A   1      43.761  24.927  27.284  1.00  0.00     0.031 A 
ATOM     39  C   UNL A   1      45.206  25.276  27.055  1.00  0.00     0.074 A 
ATOM     40  C   UNL A   1      42.921  25.847  27.799  1.00  0.00     0.049 A 
ATOM     41  N   UNL A   1      45.810  26.428  27.202  1.00  0.00    -0.248 NA
ATOM     42  C   UNL A   1      46.098  24.185  26.632  1.00  0.00     0.031 C 
ATOM     43  C   UNL A   1      41.520  25.605  28.150  1.00  0.00     0.029 A 
ATOM     44  N   UNL A   1      43.119  27.168  28.116  1.00  0.00    -0.354 N 
ATOM     45  C   UNL A   1      47.147  26.200  26.903  1.00  0.00     0.074 A 
ATOM     46  C   UNL A   1      47.278  24.785  26.626  1.00  0.00     0.031 C 
ATOM     47  C   UNL A   1      40.975  26.746  28.598  1.00  0.00     0.029 A 
ATOM     48  C   UNL A   1      41.993  27.793  28.595  1.00  0.00     0.049 A 
ATOM     49  H   UNL A   1      43.985  27.623  28.011  1.00  0.00     0.167 HD
ATOM     50  C   UNL A   1      48.169  27.089  26.840  1.00  0.00     0.037 A 
ATOM     51  C   UNL A   1      41.795  29.067  28.984  1.00  0.00     0.037 A 
ATOM     52  C   UNL A   1      48.022  28.497  27.109  1.00  0.00     0.049 A 
ATOM     53  C   UNL A   1      42.925  30.051  28.866  1.00  0.00     0.074 A 
ATOM     54  C   UNL A   1      48.971  29.498  26.997  1.00  0.00     0.029 A 
ATOM     55  N   UNL A   1      46.856  29.102  27.561  1.00  0.00    -0.354 N 
ATOM     56  N   UNL A   1      44.160  29.841  28.476  1.00  0.00    -0.248 NA
ATOM     57  C   UNL A   1      42.632  31.445  29.218  1.00  0.00     0.031 C 
ATOM     58  C   UNL A   1      48.398  30.696  27.439  1.00  0.00     0.029 A 
ATOM     59  C   UNL A   1      47.070  30.456  27.761  1.00  0.00     0.049 A 
ATOM     60  H   UNL A   1      46.003  28.637  27.715  1.00  0.00     0.167 HD
ATOM     61  C   UNL A   1      44.788  31.082  28.514  1.00  0.00     0.074 A 
ATOM     62  C   UNL A   1      43.790  32.037  28.953  1.00  0.00     0.031 C 
ATOM     63  C   UNL A   1      46.071  31.399  28.208  1.00  0.00     0.037 A 
BRANCH  50  64
ATOM     64  C   UNL A   1      49.532  26.557  26.483  1.00  0.00     0.058 A 
ATOM     65  C   UNL A   1      49.993  26.519  25.154  1.00  0.00     0.135 A 
ATOM     66  C   UNL A   1      50.394  26.076  27.482  1.00  0.00     0.135 A 
ATOM     67  F   UNL A   1      49.212  26.957  24.154  1.00  0.00    -0.206 F 
ATOM     68  C   UNL A   1      51.230  25.974  24.827  1.00  0.00     0.059 A 
ATOM     69  C   UNL A   1      51.650  25.559  27.181  1.00  0.00     0.059 A 
ATOM     70  F   UNL A   1      50.012  26.092  28.769  1.00  0.00    -0.206 F 
ATOM     71  C   UNL A   1      52.050  25.488  25.847  1.00  0.00     0.060 A 
BRANCH  71  72
ATOM     72  S   UNL A   1      53.636  24.751  25.403  1.00  0.00     0.124 S 
ATOM     73  O   UNL A   1      54.054  25.608  24.297  1.00  0.00    -0.237 OA
ATOM     74  O   UNL A   1      54.404  24.892  26.636  1.00  0.00    -0.237 OA
ATOM     75  O   UNL A   1      53.286  23.383  25.038  1.00  0.00    -0.744 OA
ENDBRANCH  71  72
ENDBRANCH  50  64
BRANCH  51  76
ATOM     76  C   UNL A   1      40.453  29.474  29.479  1.00  0.00     0.058 A 
ATOM     77  C   UNL A   1      40.211  29.673  30.847  1.00  0.00     0.135 A 
ATOM     78  C   UNL A   1      39.408  29.749  28.584  1.00  0.00     0.135 A 
ATOM     79  F   UNL A   1      41.176  29.418  31.743  1.00  0.00    -0.206 F 
ATOM     80  C   UNL A   1      38.983  30.136  31.308  1.00  0.00     0.059 A 
ATOM     81  C   UNL A   1      38.181  30.237  29.018  1.00  0.00     0.059 A 
ATOM     82  F   UNL A   1      39.597  29.592  27.263  1.00  0.00    -0.206 F 
ATOM     83  C   UNL A   1      37.978  30.428  30.384  1.00  0.00     0.060 A 
BRANCH  83  84
ATOM     84  S   UNL A   1      36.424  31.125  30.985  1.00  0.00     0.124 S 
ATOM     85  O   UNL A   1      35.634  31.185  29.762  1.00  0.00    -0.237 OA
ATOM     86  O   UNL A   1      36.005  30.132  31.969  1.00  0.00    -0.237 OA
ATOM     87  O   UNL A   1      36.827  32.413  31.541  1.00  0.00    -0.744 OA
ENDBRANCH  83  84
ENDBRANCH  51  76
BRANCH  63  88
ATOM     88  C   UNL A   1      46.467  32.848  28.305  1.00  0.00     0.058 A 
ATOM     89  C   UNL A   1      47.047  33.386  29.465  1.00  0.00     0.135 A 
ATOM     90  C   UNL A   1      46.295  33.703  27.203  1.00  0.00     0.135 A 
ATOM     91  F   UNL A   1      47.232  32.615  30.548  1.00  0.00    -0.206 F 
ATOM     92  C   UNL A   1      47.412  34.727  29.541  1.00  0.00     0.059 A 
ATOM     93  C   UNL A   1      46.681  35.039  27.246  1.00  0.00     0.059 A 
ATOM     94  F   UNL A   1      45.757  33.240  26.063  1.00  0.00    -0.206 F 
ATOM     95  C   UNL A   1      47.223  35.546  28.426  1.00  0.00     0.060 A 
BRANCH  95  96
ATOM     96  S   UNL A   1      47.710  37.281  28.532  1.00  0.00     0.124 S 
ATOM     97  O   UNL A   1      47.497  37.559  29.949  1.00  0.00    -0.237 OA
ATOM     98  O   UNL A   1      49.102  37.241  28.096  1.00  0.00    -0.237 OA
ATOM     99  O   UNL A   1      46.791  37.949  27.616  1.00  0.00    -0.744 OA
ENDBRANCH  95  96
ENDBRANCH  63  88
ENDBRANCH  37  38
ENDBRANCH  29  32
ENDBRANCH  27  28
ENDBRANCH  26  27
ENDBRANCH   1  26
TORSDOF 17
ENDMDL
