MODEL 1
REMARK VINA RESULT:     -11.3      0.000      0.000
REMARK SMILES CC(C)c1cc(C(=O)NCCCCNC(=O)c2ccc(-c3c4nc(c(-c5c(F)cc(S(=O)(=O)[O-])cc5F)c5ccc([nH]5)c(-c5c(F)cc(S(=O)(=O)[O-])cc5F)c5nc(c(-c6c(F)cc(S(=O)(=O)[O-])cc6F)c6ccc3[nH]6)C=C5)C=C4)cc2)ccc1[N+](=O)[O-]
REMARK SMILES IDX 12 1 11 2 10 3 9 4 7 5 8 6 6 8 4 9 5 10 85 11 84 12 83 13
REMARK SMILES IDX 2 14 1 15 3 16 86 17 87 18 88 19 13 20 14 21 15 22 16 24
REMARK SMILES IDX 17 25 18 26 82 27 19 28 81 29 20 30 21 31 22 32 75 33 23 34
REMARK SMILES IDX 80 35 74 36 76 37 24 38 79 39 73 40 72 41 25 43 59 44 38 45
REMARK SMILES IDX 58 46 39 47 42 48 57 49 77 50 40 51 41 52 56 54 78 55 43 56
REMARK SMILES IDX 26 57 27 58 36 59 28 60 29 61 35 62 37 63 30 64 31 65 32 66
REMARK SMILES IDX 33 67 34 68 60 69 61 70 70 71 62 72 63 73 69 74 71 75 64 76
REMARK SMILES IDX 65 77 66 78 67 79 68 80 44 81 45 82 54 83 46 84 47 85 53 86
REMARK SMILES IDX 55 87 48 88 49 89 50 90 51 91 52 92
REMARK H PARENT 9 7 14 23 76 42 42 53
REMARK Flexibility Score: inf
ROOT
ATOM      1  C   UNL A   1      33.878  28.333  25.741  1.00  0.00     0.023 C 
ENDROOT
BRANCH   1   2
ATOM      2  C   UNL A   1      33.286  29.302  24.722  1.00  0.00     0.023 C 
BRANCH   2   3
ATOM      3  C   UNL A   1      33.366  28.884  23.258  1.00  0.00     0.116 C 
BRANCH   3   4
ATOM      4  N   UNL A   1      32.109  28.993  22.539  1.00  0.00    -0.352 N 
ATOM      5  C   UNL A   1      30.978  28.212  22.579  1.00  0.00     0.251 C 
ATOM      6  O   UNL A   1      30.035  28.482  21.839  1.00  0.00    -0.269 OA
ATOM      7  H   UNL A   1      32.059  29.754  21.916  1.00  0.00     0.163 HD
BRANCH   5   8
ATOM      8  C   UNL A   1      30.880  27.016  23.456  1.00  0.00     0.040 A 
ATOM      9  C   UNL A   1      31.882  24.864  24.132  1.00  0.00     0.033 A 
ATOM     10  C   UNL A   1      31.862  26.015  23.314  1.00  0.00     0.025 A 
ATOM     11  C   UNL A   1      30.911  24.807  25.155  1.00  0.00     0.272 A 
ATOM     12  C   UNL A   1      29.887  25.765  25.262  1.00  0.00     0.087 A 
ATOM     13  C   UNL A   1      29.846  26.837  24.374  1.00  0.00     0.021 A 
BRANCH   9  14
ATOM     14  C   UNL A   1      32.921  23.770  23.902  1.00  0.00     0.020 C 
ATOM     15  C   UNL A   1      32.441  22.621  22.999  1.00  0.00     0.013 C 
ATOM     16  C   UNL A   1      34.229  24.345  23.363  1.00  0.00     0.013 C 
ENDBRANCH   9  14
BRANCH  11  17
ATOM     17  N   UNL A   1      30.943  23.792  26.203  1.00  0.00     0.063 N 
ATOM     18  O   UNL A   1      30.393  22.711  25.946  1.00  0.00    -0.258 OA
ATOM     19  O   UNL A   1      31.542  24.055  27.252  1.00  0.00    -0.258 OA
ENDBRANCH  11  17
ENDBRANCH   5   8
ENDBRANCH   3   4
ENDBRANCH   2   3
ENDBRANCH   1   2
BRANCH   1  20
ATOM     20  C   UNL A   1      33.411  28.499  27.184  1.00  0.00     0.116 C 
BRANCH  20  21
ATOM     21  N   UNL A   1      33.394  29.880  27.640  1.00  0.00    -0.352 N 
ATOM     22  C   UNL A   1      34.391  30.639  28.213  1.00  0.00     0.251 C 
ATOM     23  H   UNL A   1      32.536  30.347  27.520  1.00  0.00     0.163 HD
ATOM     24  O   UNL A   1      34.137  31.774  28.598  1.00  0.00    -0.269 OA
BRANCH  22  25
ATOM     25  C   UNL A   1      35.747  30.075  28.405  1.00  0.00     0.039 A 
ATOM     26  C   UNL A   1      36.637  30.093  27.326  1.00  0.00     0.014 A 
ATOM     27  C   UNL A   1      36.153  29.551  29.634  1.00  0.00     0.014 A 
ATOM     28  C   UNL A   1      37.958  29.676  27.510  1.00  0.00     0.010 A 
ATOM     29  C   UNL A   1      37.490  29.213  29.837  1.00  0.00     0.010 A 
ATOM     30  C   UNL A   1      38.410  29.282  28.780  1.00  0.00    -0.014 A 
BRANCH  30  31
ATOM     31  C   UNL A   1      39.845  28.978  29.025  1.00  0.00     0.031 A 
ATOM     32  C   UNL A   1      40.768  30.029  29.582  1.00  0.00     0.074 A 
ATOM     33  C   UNL A   1      40.333  27.768  28.680  1.00  0.00     0.049 A 
ATOM     34  N   UNL A   1      42.054  29.959  29.811  1.00  0.00    -0.248 NA
ATOM     35  C   UNL A   1      40.173  31.337  29.896  1.00  0.00     0.031 C 
ATOM     36  C   UNL A   1      39.557  26.685  28.069  1.00  0.00     0.029 A 
ATOM     37  N   UNL A   1      41.599  27.248  28.782  1.00  0.00    -0.354 N 
ATOM     38  C   UNL A   1      42.424  31.212  30.285  1.00  0.00     0.074 A 
ATOM     39  C   UNL A   1      41.237  32.039  30.258  1.00  0.00     0.031 C 
ATOM     40  C   UNL A   1      40.356  25.623  27.878  1.00  0.00     0.029 A 
ATOM     41  C   UNL A   1      41.706  25.958  28.316  1.00  0.00     0.049 A 
ATOM     42  H   UNL A   1      42.360  27.750  29.154  1.00  0.00     0.167 HD
ATOM     43  C   UNL A   1      43.636  31.629  30.724  1.00  0.00     0.037 A 
ATOM     44  C   UNL A   1      42.773  25.137  28.245  1.00  0.00     0.037 A 
ATOM     45  C   UNL A   1      44.809  30.795  30.773  1.00  0.00     0.049 A 
ATOM     46  C   UNL A   1      44.104  25.619  28.753  1.00  0.00     0.074 A 
ATOM     47  C   UNL A   1      46.067  31.105  31.263  1.00  0.00     0.029 A 
ATOM     48  N   UNL A   1      44.873  29.487  30.316  1.00  0.00    -0.354 N 
ATOM     49  N   UNL A   1      44.418  26.785  29.264  1.00  0.00    -0.248 NA
ATOM     50  C   UNL A   1      45.225  24.670  28.682  1.00  0.00     0.031 C 
ATOM     51  C   UNL A   1      46.900  30.000  31.065  1.00  0.00     0.029 A 
ATOM     52  C   UNL A   1      46.150  28.983  30.494  1.00  0.00     0.049 A 
ATOM     53  H   UNL A   1      44.120  28.990  29.922  1.00  0.00     0.167 HD
ATOM     54  C   UNL A   1      45.767  26.705  29.593  1.00  0.00     0.074 A 
ATOM     55  C   UNL A   1      46.203  25.369  29.242  1.00  0.00     0.031 C 
ATOM     56  C   UNL A   1      46.572  27.652  30.136  1.00  0.00     0.037 A 
BRANCH  43  57
ATOM     57  C   UNL A   1      43.753  33.052  31.200  1.00  0.00     0.058 A 
ATOM     58  C   UNL A   1      43.522  33.399  32.540  1.00  0.00     0.135 A 
ATOM     59  C   UNL A   1      44.135  34.074  30.316  1.00  0.00     0.135 A 
ATOM     60  F   UNL A   1      43.139  32.465  33.425  1.00  0.00    -0.206 F 
ATOM     61  C   UNL A   1      43.638  34.714  32.982  1.00  0.00     0.059 A 
ATOM     62  C   UNL A   1      44.285  35.391  30.742  1.00  0.00     0.059 A 
ATOM     63  F   UNL A   1      44.369  33.798  29.023  1.00  0.00    -0.206 F 
ATOM     64  C   UNL A   1      44.020  35.702  32.075  1.00  0.00     0.060 A 
BRANCH  64  65
ATOM     65  S   UNL A   1      44.173  37.401  32.667  1.00  0.00     0.124 S 
ATOM     66  O   UNL A   1      43.984  38.157  31.432  1.00  0.00    -0.237 OA
ATOM     67  O   UNL A   1      43.088  37.494  33.639  1.00  0.00    -0.237 OA
ATOM     68  O   UNL A   1      45.520  37.446  33.229  1.00  0.00    -0.744 OA
ENDBRANCH  64  65
ENDBRANCH  43  57
BRANCH  44  69
ATOM     69  C   UNL A   1      42.620  23.764  27.694  1.00  0.00     0.058 A 
ATOM     70  C   UNL A   1      42.440  22.662  28.544  1.00  0.00     0.135 A 
ATOM     71  C   UNL A   1      42.640  23.526  26.311  1.00  0.00     0.135 A 
ATOM     72  F   UNL A   1      42.420  22.839  29.875  1.00  0.00    -0.206 F 
ATOM     73  C   UNL A   1      42.305  21.370  28.046  1.00  0.00     0.059 A 
ATOM     74  C   UNL A   1      42.482  22.246  25.788  1.00  0.00     0.059 A 
ATOM     75  F   UNL A   1      42.790  24.548  25.455  1.00  0.00    -0.206 F 
ATOM     76  C   UNL A   1      42.326  21.173  26.665  1.00  0.00     0.060 A 
BRANCH  76  77
ATOM     77  S   UNL A   1      42.102  19.499  26.024  1.00  0.00     0.124 S 
ATOM     78  O   UNL A   1      42.586  18.692  27.138  1.00  0.00    -0.237 OA
ATOM     79  O   UNL A   1      40.663  19.454  25.778  1.00  0.00    -0.237 OA
ATOM     80  O   UNL A   1      42.934  19.486  24.825  1.00  0.00    -0.744 OA
ENDBRANCH  76  77
ENDBRANCH  44  69
BRANCH  56  81
ATOM     81  C   UNL A   1      48.001  27.268  30.402  1.00  0.00     0.058 A 
ATOM     82  C   UNL A   1      49.031  27.606  29.511  1.00  0.00     0.135 A 
ATOM     83  C   UNL A   1      48.348  26.579  31.575  1.00  0.00     0.135 A 
ATOM     84  F   UNL A   1      48.752  28.259  28.372  1.00  0.00    -0.206 F 
ATOM     85  C   UNL A   1      50.352  27.248  29.759  1.00  0.00     0.059 A 
ATOM     86  C   UNL A   1      49.666  26.234  31.856  1.00  0.00     0.059 A 
ATOM     87  F   UNL A   1      47.401  26.242  32.466  1.00  0.00    -0.206 F 
ATOM     88  C   UNL A   1      50.659  26.560  30.934  1.00  0.00     0.060 A 
BRANCH  88  89
ATOM     89  S   UNL A   1      52.379  26.113  31.252  1.00  0.00     0.124 S 
ATOM     90  O   UNL A   1      52.227  24.853  31.974  1.00  0.00    -0.237 OA
ATOM     91  O   UNL A   1      52.931  26.009  29.905  1.00  0.00    -0.237 OA
ATOM     92  O   UNL A   1      52.879  27.233  32.044  1.00  0.00    -0.744 OA
ENDBRANCH  88  89
ENDBRANCH  56  81
ENDBRANCH  30  31
ENDBRANCH  22  25
ENDBRANCH  20  21
ENDBRANCH   1  20
TORSDOF 16
ENDMDL
MODEL 2
REMARK VINA RESULT:     -11.1      5.022     10.618
REMARK SMILES CC(C)c1cc(C(=O)NCCCCNC(=O)c2ccc(-c3c4nc(c(-c5c(F)cc(S(=O)(=O)[O-])cc5F)c5ccc([nH]5)c(-c5c(F)cc(S(=O)(=O)[O-])cc5F)c5nc(c(-c6c(F)cc(S(=O)(=O)[O-])cc6F)c6ccc3[nH]6)C=C5)C=C4)cc2)ccc1[N+](=O)[O-]
REMARK SMILES IDX 12 1 11 2 10 3 9 4 7 5 8 6 6 8 4 9 5 10 85 11 84 12 83 13
REMARK SMILES IDX 2 14 1 15 3 16 86 17 87 18 88 19 13 20 14 21 15 22 16 24
REMARK SMILES IDX 17 25 18 26 82 27 19 28 81 29 20 30 21 31 22 32 75 33 23 34
REMARK SMILES IDX 80 35 74 36 76 37 24 38 79 39 73 40 72 41 25 43 59 44 38 45
REMARK SMILES IDX 58 46 39 47 42 48 57 49 77 50 40 51 41 52 56 54 78 55 43 56
REMARK SMILES IDX 26 57 27 58 36 59 28 60 29 61 35 62 37 63 30 64 31 65 32 66
REMARK SMILES IDX 33 67 34 68 60 69 61 70 70 71 62 72 63 73 69 74 71 75 64 76
REMARK SMILES IDX 65 77 66 78 67 79 68 80 44 81 45 82 54 83 46 84 47 85 53 86
REMARK SMILES IDX 55 87 48 88 49 89 50 90 51 91 52 92
REMARK H PARENT 9 7 14 23 76 42 42 53
REMARK Flexibility Score: inf
ROOT
ATOM      1  C   UNL A   1      40.261  22.261  27.488  1.00  0.00     0.023 C 
ENDROOT
BRANCH   1   2
ATOM      2  C   UNL A   1      39.481  21.812  26.257  1.00  0.00     0.023 C 
BRANCH   2   3
ATOM      3  C   UNL A   1      38.197  22.575  25.948  1.00  0.00     0.116 C 
BRANCH   3   4
ATOM      4  N   UNL A   1      37.907  22.701  24.531  1.00  0.00    -0.352 N 
ATOM      5  C   UNL A   1      36.725  22.951  23.873  1.00  0.00     0.251 C 
ATOM      6  O   UNL A   1      36.716  22.977  22.644  1.00  0.00    -0.269 OA
ATOM      7  H   UNL A   1      38.687  22.589  23.941  1.00  0.00     0.163 HD
BRANCH   5   8
ATOM      8  C   UNL A   1      35.444  23.140  24.603  1.00  0.00     0.040 A 
ATOM      9  C   UNL A   1      33.575  24.662  25.131  1.00  0.00     0.033 A 
ATOM     10  C   UNL A   1      34.816  24.398  24.513  1.00  0.00     0.025 A 
ATOM     11  C   UNL A   1      32.956  23.571  25.780  1.00  0.00     0.272 A 
ATOM     12  C   UNL A   1      33.603  22.333  25.934  1.00  0.00     0.087 A 
ATOM     13  C   UNL A   1      34.871  22.142  25.391  1.00  0.00     0.021 A 
BRANCH   9  14
ATOM     14  C   UNL A   1      32.961  26.057  25.068  1.00  0.00     0.020 C 
ATOM     15  C   UNL A   1      33.287  26.949  26.279  1.00  0.00     0.013 C 
ATOM     16  C   UNL A   1      33.338  26.777  23.775  1.00  0.00     0.013 C 
ENDBRANCH   9  14
BRANCH  11  17
ATOM     17  N   UNL A   1      31.585  23.637  26.275  1.00  0.00     0.063 N 
ATOM     18  O   UNL A   1      30.688  23.351  25.468  1.00  0.00    -0.258 OA
ATOM     19  O   UNL A   1      31.407  23.933  27.463  1.00  0.00    -0.258 OA
ENDBRANCH  11  17
ENDBRANCH   5   8
ENDBRANCH   3   4
ENDBRANCH   2   3
ENDBRANCH   1   2
BRANCH   1  20
ATOM     20  C   UNL A   1      41.564  23.012  27.229  1.00  0.00     0.116 C 
BRANCH  20  21
ATOM     21  N   UNL A   1      41.491  23.943  26.114  1.00  0.00    -0.352 N 
ATOM     22  C   UNL A   1      41.335  25.311  26.108  1.00  0.00     0.251 C 
ATOM     23  H   UNL A   1      41.566  23.531  25.223  1.00  0.00     0.163 HD
ATOM     24  O   UNL A   1      41.221  25.900  25.039  1.00  0.00    -0.269 OA
BRANCH  22  25
ATOM     25  C   UNL A   1      41.259  26.064  27.381  1.00  0.00     0.039 A 
ATOM     26  C   UNL A   1      42.314  26.918  27.716  1.00  0.00     0.014 A 
ATOM     27  C   UNL A   1      40.157  25.952  28.232  1.00  0.00     0.014 A 
ATOM     28  C   UNL A   1      42.217  27.727  28.852  1.00  0.00     0.010 A 
ATOM     29  C   UNL A   1      40.026  26.817  29.317  1.00  0.00     0.010 A 
ATOM     30  C   UNL A   1      41.050  27.722  29.632  1.00  0.00    -0.014 A 
BRANCH  30  31
ATOM     31  C   UNL A   1      40.872  28.682  30.755  1.00  0.00     0.031 A 
ATOM     32  C   UNL A   1      41.705  28.566  32.002  1.00  0.00     0.074 A 
ATOM     33  C   UNL A   1      39.906  29.622  30.674  1.00  0.00     0.049 A 
ATOM     34  N   UNL A   1      41.653  29.279  33.098  1.00  0.00    -0.248 NA
ATOM     35  C   UNL A   1      42.709  27.491  32.033  1.00  0.00     0.031 C 
ATOM     36  C   UNL A   1      38.987  29.797  29.546  1.00  0.00     0.029 A 
ATOM     37  N   UNL A   1      39.530  30.600  31.560  1.00  0.00    -0.354 N 
ATOM     38  C   UNL A   1      42.605  28.734  33.951  1.00  0.00     0.074 A 
ATOM     39  C   UNL A   1      43.182  27.597  33.267  1.00  0.00     0.031 C 
ATOM     40  C   UNL A   1      38.174  30.836  29.797  1.00  0.00     0.029 A 
ATOM     41  C   UNL A   1      38.486  31.378  31.115  1.00  0.00     0.049 A 
ATOM     42  H   UNL A   1      39.965  30.733  32.433  1.00  0.00     0.167 HD
ATOM     43  C   UNL A   1      42.982  29.157  35.183  1.00  0.00     0.037 A 
ATOM     44  C   UNL A   1      37.848  32.409  31.703  1.00  0.00     0.037 A 
ATOM     45  C   UNL A   1      42.422  30.304  35.850  1.00  0.00     0.049 A 
ATOM     46  C   UNL A   1      38.295  32.869  33.063  1.00  0.00     0.074 A 
ATOM     47  C   UNL A   1      42.783  30.852  37.070  1.00  0.00     0.029 A 
ATOM     48  N   UNL A   1      41.384  31.081  35.357  1.00  0.00    -0.354 N 
ATOM     49  N   UNL A   1      39.247  32.385  33.826  1.00  0.00    -0.248 NA
ATOM     50  C   UNL A   1      37.586  34.019  33.642  1.00  0.00     0.031 C 
ATOM     51  C   UNL A   1      41.937  31.934  37.332  1.00  0.00     0.029 A 
ATOM     52  C   UNL A   1      41.078  32.091  36.255  1.00  0.00     0.049 A 
ATOM     53  H   UNL A   1      40.932  30.937  34.495  1.00  0.00     0.167 HD
ATOM     54  C   UNL A   1      39.265  33.182  34.964  1.00  0.00     0.074 A 
ATOM     55  C   UNL A   1      38.242  34.191  34.782  1.00  0.00     0.031 C 
ATOM     56  C   UNL A   1      40.055  33.087  36.062  1.00  0.00     0.037 A 
BRANCH  43  57
ATOM     57  C   UNL A   1      44.060  28.379  35.887  1.00  0.00     0.058 A 
ATOM     58  C   UNL A   1      45.419  28.693  35.721  1.00  0.00     0.135 A 
ATOM     59  C   UNL A   1      43.733  27.333  36.764  1.00  0.00     0.135 A 
ATOM     60  F   UNL A   1      45.789  29.674  34.882  1.00  0.00    -0.206 F 
ATOM     61  C   UNL A   1      46.416  27.980  36.378  1.00  0.00     0.059 A 
ATOM     62  C   UNL A   1      44.714  26.623  37.454  1.00  0.00     0.059 A 
ATOM     63  F   UNL A   1      42.450  26.990  36.960  1.00  0.00    -0.206 F 
ATOM     64  C   UNL A   1      46.053  26.946  37.242  1.00  0.00     0.060 A 
BRANCH  64  65
ATOM     65  S   UNL A   1      47.360  26.036  38.092  1.00  0.00     0.124 S 
ATOM     66  O   UNL A   1      48.494  26.252  37.197  1.00  0.00    -0.237 OA
ATOM     67  O   UNL A   1      47.431  26.718  39.380  1.00  0.00    -0.237 OA
ATOM     68  O   UNL A   1      46.850  24.668  38.136  1.00  0.00    -0.744 OA
ENDBRANCH  64  65
ENDBRANCH  43  57
BRANCH  44  69
ATOM     69  C   UNL A   1      36.735  33.096  30.995  1.00  0.00     0.058 A 
ATOM     70  C   UNL A   1      35.399  32.868  31.360  1.00  0.00     0.135 A 
ATOM     71  C   UNL A   1      36.981  33.999  29.949  1.00  0.00     0.135 A 
ATOM     72  F   UNL A   1      35.113  32.009  32.351  1.00  0.00    -0.206 F 
ATOM     73  C   UNL A   1      34.346  33.495  30.702  1.00  0.00     0.059 A 
ATOM     74  C   UNL A   1      35.946  34.657  29.292  1.00  0.00     0.059 A 
ATOM     75  F   UNL A   1      38.241  34.265  29.574  1.00  0.00    -0.206 F 
ATOM     76  C   UNL A   1      34.629  34.390  29.670  1.00  0.00     0.060 A 
BRANCH  76  77
ATOM     77  S   UNL A   1      33.258  35.235  28.853  1.00  0.00     0.124 S 
ATOM     78  O   UNL A   1      32.642  34.143  28.109  1.00  0.00    -0.237 OA
ATOM     79  O   UNL A   1      32.496  35.749  29.986  1.00  0.00    -0.237 OA
ATOM     80  O   UNL A   1      33.926  36.252  28.046  1.00  0.00    -0.744 OA
ENDBRANCH  76  77
ENDBRANCH  44  69
BRANCH  56  81
ATOM     81  C   UNL A   1      39.858  34.115  37.141  1.00  0.00     0.058 A 
ATOM     82  C   UNL A   1      39.031  33.869  38.248  1.00  0.00     0.135 A 
ATOM     83  C   UNL A   1      40.526  35.348  37.083  1.00  0.00     0.135 A 
ATOM     84  F   UNL A   1      38.364  32.708  38.350  1.00  0.00    -0.206 F 
ATOM     85  C   UNL A   1      38.848  34.822  39.244  1.00  0.00     0.059 A 
ATOM     86  C   UNL A   1      40.379  36.306  38.081  1.00  0.00     0.059 A 
ATOM     87  F   UNL A   1      41.338  35.629  36.050  1.00  0.00    -0.206 F 
ATOM     88  C   UNL A   1      39.526  36.040  39.151  1.00  0.00     0.060 A 
BRANCH  88  89
ATOM     89  S   UNL A   1      39.293  37.264  40.456  1.00  0.00     0.124 S 
ATOM     90  O   UNL A   1      38.238  38.099  39.892  1.00  0.00    -0.237 OA
ATOM     91  O   UNL A   1      38.907  36.438  41.596  1.00  0.00    -0.237 OA
ATOM     92  O   UNL A   1      40.605  37.897  40.565  1.00  0.00    -0.744 OA
ENDBRANCH  88  89
ENDBRANCH  56  81
ENDBRANCH  30  31
ENDBRANCH  22  25
ENDBRANCH  20  21
ENDBRANCH   1  20
TORSDOF 16
ENDMDL
MODEL 3
REMARK VINA RESULT:     -11.1      2.914      4.179
REMARK SMILES CC(C)c1cc(C(=O)NCCCCNC(=O)c2ccc(-c3c4nc(c(-c5c(F)cc(S(=O)(=O)[O-])cc5F)c5ccc([nH]5)c(-c5c(F)cc(S(=O)(=O)[O-])cc5F)c5nc(c(-c6c(F)cc(S(=O)(=O)[O-])cc6F)c6ccc3[nH]6)C=C5)C=C4)cc2)ccc1[N+](=O)[O-]
REMARK SMILES IDX 12 1 11 2 10 3 9 4 7 5 8 6 6 8 4 9 5 10 85 11 84 12 83 13
REMARK SMILES IDX 2 14 1 15 3 16 86 17 87 18 88 19 13 20 14 21 15 22 16 24
REMARK SMILES IDX 17 25 18 26 82 27 19 28 81 29 20 30 21 31 22 32 75 33 23 34
REMARK SMILES IDX 80 35 74 36 76 37 24 38 79 39 73 40 72 41 25 43 59 44 38 45
REMARK SMILES IDX 58 46 39 47 42 48 57 49 77 50 40 51 41 52 56 54 78 55 43 56
REMARK SMILES IDX 26 57 27 58 36 59 28 60 29 61 35 62 37 63 30 64 31 65 32 66
REMARK SMILES IDX 33 67 34 68 60 69 61 70 70 71 62 72 63 73 69 74 71 75 64 76
REMARK SMILES IDX 65 77 66 78 67 79 68 80 44 81 45 82 54 83 46 84 47 85 53 86
REMARK SMILES IDX 55 87 48 88 49 89 50 90 51 91 52 92
REMARK H PARENT 9 7 14 23 76 42 42 53
REMARK Flexibility Score: inf
ROOT
ATOM      1  C   UNL A   1      35.105  32.222  28.050  1.00  0.00     0.023 C 
ENDROOT
BRANCH   1   2
ATOM      2  C   UNL A   1      34.879  30.765  27.657  1.00  0.00     0.023 C 
BRANCH   2   3
ATOM      3  C   UNL A   1      33.540  30.434  27.007  1.00  0.00     0.116 C 
BRANCH   3   4
ATOM      4  N   UNL A   1      32.722  29.509  27.770  1.00  0.00    -0.352 N 
ATOM      5  C   UNL A   1      32.179  28.293  27.426  1.00  0.00     0.251 C 
ATOM      6  O   UNL A   1      31.477  27.697  28.240  1.00  0.00    -0.269 OA
ATOM      7  H   UNL A   1      32.520  29.802  28.688  1.00  0.00     0.163 HD
BRANCH   5   8
ATOM      8  C   UNL A   1      32.374  27.699  26.078  1.00  0.00     0.040 A 
ATOM      9  C   UNL A   1      31.556  27.538  23.755  1.00  0.00     0.033 A 
ATOM     10  C   UNL A   1      31.432  28.015  25.078  1.00  0.00     0.025 A 
ATOM     11  C   UNL A   1      32.718  26.791  23.465  1.00  0.00     0.272 A 
ATOM     12  C   UNL A   1      33.628  26.413  24.469  1.00  0.00     0.087 A 
ATOM     13  C   UNL A   1      33.419  26.824  25.783  1.00  0.00     0.021 A 
BRANCH   9  14
ATOM     14  C   UNL A   1      30.478  27.846  22.718  1.00  0.00     0.020 C 
ATOM     15  C   UNL A   1      29.039  27.657  23.225  1.00  0.00     0.013 C 
ATOM     16  C   UNL A   1      30.647  29.248  22.136  1.00  0.00     0.013 C 
ENDBRANCH   9  14
BRANCH  11  17
ATOM     17  N   UNL A   1      33.084  26.418  22.103  1.00  0.00     0.063 N 
ATOM     18  O   UNL A   1      33.753  27.241  21.462  1.00  0.00    -0.258 OA
ATOM     19  O   UNL A   1      32.742  25.303  21.692  1.00  0.00    -0.258 OA
ENDBRANCH  11  17
ENDBRANCH   5   8
ENDBRANCH   3   4
ENDBRANCH   2   3
ENDBRANCH   1   2
BRANCH   1  20
ATOM     20  C   UNL A   1      35.957  32.464  29.292  1.00  0.00     0.116 C 
BRANCH  20  21
ATOM     21  N   UNL A   1      35.722  31.506  30.360  1.00  0.00    -0.352 N 
ATOM     22  C   UNL A   1      36.543  30.525  30.870  1.00  0.00     0.251 C 
ATOM     23  H   UNL A   1      34.837  31.568  30.787  1.00  0.00     0.163 HD
ATOM     24  O   UNL A   1      36.113  29.766  31.731  1.00  0.00    -0.269 OA
BRANCH  22  25
ATOM     25  C   UNL A   1      37.921  30.355  30.352  1.00  0.00     0.039 A 
ATOM     26  C   UNL A   1      38.982  30.361  31.262  1.00  0.00     0.014 A 
ATOM     27  C   UNL A   1      38.172  30.170  28.991  1.00  0.00     0.014 A 
ATOM     28  C   UNL A   1      40.278  30.087  30.818  1.00  0.00     0.010 A 
ATOM     29  C   UNL A   1      39.450  29.817  28.562  1.00  0.00     0.010 A 
ATOM     30  C   UNL A   1      40.516  29.761  29.473  1.00  0.00    -0.014 A 
BRANCH  30  31
ATOM     31  C   UNL A   1      41.862  29.323  29.014  1.00  0.00     0.031 A 
ATOM     32  C   UNL A   1      42.998  30.305  28.925  1.00  0.00     0.074 A 
ATOM     33  C   UNL A   1      42.040  28.047  28.612  1.00  0.00     0.049 A 
ATOM     34  N   UNL A   1      44.221  30.115  28.500  1.00  0.00    -0.248 NA
ATOM     35  C   UNL A   1      42.717  31.687  29.342  1.00  0.00     0.031 C 
ATOM     36  C   UNL A   1      41.002  27.014  28.586  1.00  0.00     0.029 A 
ATOM     37  N   UNL A   1      43.156  27.403  28.137  1.00  0.00    -0.354 N 
ATOM     38  C   UNL A   1      44.850  31.351  28.588  1.00  0.00     0.074 A 
ATOM     39  C   UNL A   1      43.859  32.296  29.055  1.00  0.00     0.031 C 
ATOM     40  C   UNL A   1      41.535  25.862  28.147  1.00  0.00     0.029 A 
ATOM     41  C   UNL A   1      42.941  26.081  27.826  1.00  0.00     0.049 A 
ATOM     42  H   UNL A   1      44.029  27.846  28.029  1.00  0.00     0.167 HD
ATOM     43  C   UNL A   1      46.142  31.666  28.326  1.00  0.00     0.037 A 
ATOM     44  C   UNL A   1      43.780  25.149  27.334  1.00  0.00     0.037 A 
ATOM     45  C   UNL A   1      47.132  30.717  27.886  1.00  0.00     0.049 A 
ATOM     46  C   UNL A   1      45.213  25.519  27.066  1.00  0.00     0.074 A 
ATOM     47  C   UNL A   1      48.482  30.925  27.658  1.00  0.00     0.029 A 
ATOM     48  N   UNL A   1      46.883  29.381  27.606  1.00  0.00    -0.354 N 
ATOM     49  N   UNL A   1      45.808  26.678  27.222  1.00  0.00    -0.248 NA
ATOM     50  C   UNL A   1      46.091  24.454  26.560  1.00  0.00     0.031 C 
ATOM     51  C   UNL A   1      49.040  29.726  27.202  1.00  0.00     0.029 A 
ATOM     52  C   UNL A   1      48.047  28.758  27.189  1.00  0.00     0.049 A 
ATOM     53  H   UNL A   1      46.006  28.941  27.691  1.00  0.00     0.167 HD
ATOM     54  C   UNL A   1      47.134  26.477  26.855  1.00  0.00     0.074 A 
ATOM     55  C   UNL A   1      47.257  25.082  26.486  1.00  0.00     0.031 C 
ATOM     56  C   UNL A   1      48.155  27.368  26.823  1.00  0.00     0.037 A 
BRANCH  43  57
ATOM     57  C   UNL A   1      46.563  33.097  28.521  1.00  0.00     0.058 A 
ATOM     58  C   UNL A   1      46.491  34.032  27.476  1.00  0.00     0.135 A 
ATOM     59  C   UNL A   1      47.010  33.549  29.773  1.00  0.00     0.135 A 
ATOM     60  F   UNL A   1      46.086  33.651  26.253  1.00  0.00    -0.206 F 
ATOM     61  C   UNL A   1      46.873  35.358  27.657  1.00  0.00     0.059 A 
ATOM     62  C   UNL A   1      47.371  34.877  29.985  1.00  0.00     0.059 A 
ATOM     63  F   UNL A   1      47.099  32.698  30.807  1.00  0.00    -0.206 F 
ATOM     64  C   UNL A   1      47.312  35.770  28.915  1.00  0.00     0.060 A 
BRANCH  64  65
ATOM     65  S   UNL A   1      47.796  37.496  29.135  1.00  0.00     0.124 S 
ATOM     66  O   UNL A   1      49.237  37.370  29.334  1.00  0.00    -0.237 OA
ATOM     67  O   UNL A   1      47.381  38.101  27.874  1.00  0.00    -0.237 OA
ATOM     68  O   UNL A   1      47.036  37.916  30.310  1.00  0.00    -0.744 OA
ENDBRANCH  64  65
ENDBRANCH  43  57
BRANCH  44  69
ATOM     69  C   UNL A   1      43.293  23.765  27.086  1.00  0.00     0.058 A 
ATOM     70  C   UNL A   1      43.180  22.842  28.137  1.00  0.00     0.135 A 
ATOM     71  C   UNL A   1      42.922  23.341  25.801  1.00  0.00     0.135 A 
ATOM     72  F   UNL A   1      43.529  23.199  29.383  1.00  0.00    -0.206 F 
ATOM     73  C   UNL A   1      42.736  21.541  27.921  1.00  0.00     0.059 A 
ATOM     74  C   UNL A   1      42.451  22.053  25.564  1.00  0.00     0.059 A 
ATOM     75  F   UNL A   1      42.994  24.190  24.766  1.00  0.00    -0.206 F 
ATOM     76  C   UNL A   1      42.371  21.156  26.630  1.00  0.00     0.060 A 
BRANCH  76  77
ATOM     77  S   UNL A   1      41.750  19.481  26.367  1.00  0.00     0.124 S 
ATOM     78  O   UNL A   1      40.317  19.717  26.237  1.00  0.00    -0.237 OA
ATOM     79  O   UNL A   1      42.446  19.084  25.147  1.00  0.00    -0.237 OA
ATOM     80  O   UNL A   1      42.168  18.776  27.575  1.00  0.00    -0.744 OA
ENDBRANCH  76  77
ENDBRANCH  44  69
BRANCH  56  81
ATOM     81  C   UNL A   1      49.502  26.854  26.394  1.00  0.00     0.058 A 
ATOM     82  C   UNL A   1      50.336  26.151  27.278  1.00  0.00     0.135 A 
ATOM     83  C   UNL A   1      49.952  27.042  25.078  1.00  0.00     0.135 A 
ATOM     84  F   UNL A   1      49.956  25.950  28.550  1.00  0.00    -0.206 F 
ATOM     85  C   UNL A   1      51.582  25.679  26.880  1.00  0.00     0.059 A 
ATOM     86  C   UNL A   1      51.183  26.555  24.650  1.00  0.00     0.059 A 
ATOM     87  F   UNL A   1      49.187  27.698  24.189  1.00  0.00    -0.206 F 
ATOM     88  C   UNL A   1      51.998  25.888  25.563  1.00  0.00     0.060 A 
BRANCH  88  89
ATOM     89  S   UNL A   1      53.611  25.259  25.053  1.00  0.00     0.124 S 
ATOM     90  O   UNL A   1      53.594  25.532  23.620  1.00  0.00    -0.237 OA
ATOM     91  O   UNL A   1      54.530  26.073  25.843  1.00  0.00    -0.237 OA
ATOM     92  O   UNL A   1      53.556  23.847  25.425  1.00  0.00    -0.744 OA
ENDBRANCH  88  89
ENDBRANCH  56  81
ENDBRANCH  30  31
ENDBRANCH  22  25
ENDBRANCH  20  21
ENDBRANCH   1  20
TORSDOF 16
ENDMDL
