MODEL 1
REMARK VINA RESULT:     -13.6      0.000      0.000
REMARK SMILES O=C(NCCCCNC(=O)c1ccccc1NC(=O)c1cc2cc(Cl)cc(Cl)c2oc1=O)c1ccc(-c2c3nc(c(-c4c(F)cc(S(=O)(=O)[O-])cc4F)c4ccc([nH]4)c(-c4c(F)cc(S(=O)(=O)[O-])cc4F)c4nc(c(-c5c(F)cc(S(=O)(=O)[O-])cc5F)c5ccc2[nH]5)C=C4)C=C3)cc1
REMARK SMILES IDX 5 1 4 2 3 3 1 4 2 5 33 7 34 8 98 9 35 10 97 11 36 12 37 13
REMARK SMILES IDX 38 14 91 15 39 16 96 17 90 18 92 19 40 20 95 21 89 22 88 23
REMARK SMILES IDX 41 25 75 26 54 27 74 28 55 29 58 30 73 31 93 32 56 33 57 34
REMARK SMILES IDX 72 36 94 37 59 38 42 39 43 40 52 41 44 42 45 43 51 44 53 45
REMARK SMILES IDX 46 46 47 47 48 48 49 49 50 50 76 51 77 52 86 53 78 54 79 55
REMARK SMILES IDX 85 56 87 57 80 58 81 59 82 60 83 61 84 62 60 63 61 64 70 65
REMARK SMILES IDX 62 66 63 67 69 68 71 69 64 70 65 71 66 72 67 73 68 74 6 75
REMARK SMILES IDX 7 76 8 77 9 78 10 80 11 81 12 82 16 83 13 84 15 85 14 86
REMARK SMILES IDX 17 87 18 88 19 90 20 91 21 92 31 93 22 94 30 95 32 96 23 97
REMARK SMILES IDX 29 98 24 99 27 100 25 101 26 102 28 103
REMARK H PARENT 3 6 92 24 58 35 8 79 17 89
REMARK Flexibility Score: inf
ROOT
ATOM      1  C   UNL A   1      37.298  23.373  25.421  1.00  0.00     0.023 C 
ENDROOT
BRANCH   1   2
ATOM      2  C   UNL A   1      38.218  24.120  26.386  1.00  0.00     0.116 C 
BRANCH   2   3
ATOM      3  N   UNL A   1      39.624  23.932  26.084  1.00  0.00    -0.352 N 
ATOM      4  O   UNL A   1      41.822  24.386  26.046  1.00  0.00    -0.269 OA
ATOM      5  C   UNL A   1      40.723  24.616  26.545  1.00  0.00     0.251 C 
ATOM      6  H   UNL A   1      39.822  23.204  25.452  1.00  0.00     0.163 HD
BRANCH   5   7
ATOM      7  C   UNL A   1      40.600  25.640  27.611  1.00  0.00     0.039 A 
ATOM      8  C   UNL A   1      39.598  25.576  28.584  1.00  0.00     0.014 A 
ATOM      9  C   UNL A   1      41.559  26.658  27.670  1.00  0.00     0.014 A 
ATOM     10  C   UNL A   1      39.500  26.577  29.555  1.00  0.00     0.010 A 
ATOM     11  C   UNL A   1      41.488  27.634  28.669  1.00  0.00     0.010 A 
ATOM     12  C   UNL A   1      40.446  27.614  29.607  1.00  0.00    -0.014 A 
BRANCH  12  13
ATOM     13  C   UNL A   1      40.376  28.634  30.684  1.00  0.00     0.031 A 
ATOM     14  C   UNL A   1      41.277  28.556  31.885  1.00  0.00     0.074 A 
ATOM     15  C   UNL A   1      39.473  29.628  30.587  1.00  0.00     0.049 A 
ATOM     16  N   UNL A   1      41.343  29.360  32.917  1.00  0.00    -0.248 NA
ATOM     17  C   UNL A   1      42.219  27.428  31.944  1.00  0.00     0.031 C 
ATOM     18  C   UNL A   1      38.515  29.795  29.491  1.00  0.00     0.029 A 
ATOM     19  N   UNL A   1      39.208  30.683  31.423  1.00  0.00    -0.354 N 
ATOM     20  C   UNL A   1      42.318  28.831  33.753  1.00  0.00     0.074 A 
ATOM     21  C   UNL A   1      42.811  27.628  33.115  1.00  0.00     0.031 C 
ATOM     22  C   UNL A   1      37.776  30.892  29.717  1.00  0.00     0.029 A 
ATOM     23  C   UNL A   1      38.188  31.491  30.983  1.00  0.00     0.049 A 
ATOM     24  H   UNL A   1      39.704  30.846  32.259  1.00  0.00     0.167 HD
ATOM     25  C   UNL A   1      42.767  29.311  34.936  1.00  0.00     0.037 A 
ATOM     26  C   UNL A   1      37.634  32.583  31.541  1.00  0.00     0.037 A 
ATOM     27  C   UNL A   1      42.308  30.528  35.553  1.00  0.00     0.049 A 
ATOM     28  C   UNL A   1      38.143  33.087  32.858  1.00  0.00     0.074 A 
ATOM     29  C   UNL A   1      42.794  31.155  36.689  1.00  0.00     0.029 A 
ATOM     30  N   UNL A   1      41.251  31.296  35.095  1.00  0.00    -0.354 N 
ATOM     31  N   UNL A   1      39.118  32.615  33.594  1.00  0.00    -0.248 NA
ATOM     32  C   UNL A   1      37.469  34.263  33.426  1.00  0.00     0.031 C 
ATOM     33  C   UNL A   1      42.009  32.288  36.934  1.00  0.00     0.029 A 
ATOM     34  C   UNL A   1      41.045  32.371  35.944  1.00  0.00     0.049 A 
ATOM     35  H   UNL A   1      40.723  31.106  34.286  1.00  0.00     0.167 HD
ATOM     36  C   UNL A   1      39.170  33.429  34.719  1.00  0.00     0.074 A 
ATOM     37  C   UNL A   1      38.140  34.436  34.557  1.00  0.00     0.031 C 
ATOM     38  C   UNL A   1      39.998  33.347  35.788  1.00  0.00     0.037 A 
BRANCH  25  39
ATOM     39  C   UNL A   1      43.821  28.520  35.652  1.00  0.00     0.058 A 
ATOM     40  C   UNL A   1      45.185  28.768  35.444  1.00  0.00     0.135 A 
ATOM     41  C   UNL A   1      43.463  27.552  36.602  1.00  0.00     0.135 A 
ATOM     42  F   UNL A   1      45.576  29.679  34.538  1.00  0.00    -0.206 F 
ATOM     43  C   UNL A   1      46.163  28.077  36.150  1.00  0.00     0.059 A 
ATOM     44  C   UNL A   1      44.425  26.853  37.326  1.00  0.00     0.059 A 
ATOM     45  F   UNL A   1      42.169  27.275  36.831  1.00  0.00    -0.206 F 
ATOM     46  C   UNL A   1      45.773  27.117  37.087  1.00  0.00     0.060 A 
BRANCH  46  47
ATOM     47  S   UNL A   1      47.048  26.236  38.014  1.00  0.00     0.124 S 
ATOM     48  O   UNL A   1      48.257  26.924  37.568  1.00  0.00    -0.237 OA
ATOM     49  O   UNL A   1      46.659  26.476  39.400  1.00  0.00    -0.237 OA
ATOM     50  O   UNL A   1      46.904  24.857  37.557  1.00  0.00    -0.744 OA
ENDBRANCH  46  47
ENDBRANCH  25  39
BRANCH  26  51
ATOM     51  C   UNL A   1      36.510  33.261  30.852  1.00  0.00     0.058 A 
ATOM     52  C   UNL A   1      35.199  33.146  31.332  1.00  0.00     0.135 A 
ATOM     53  C   UNL A   1      36.736  34.066  29.727  1.00  0.00     0.135 A 
ATOM     54  F   UNL A   1      34.941  32.381  32.404  1.00  0.00    -0.206 F 
ATOM     55  C   UNL A   1      34.142  33.812  30.719  1.00  0.00     0.059 A 
ATOM     56  C   UNL A   1      35.699  34.751  29.105  1.00  0.00     0.059 A 
ATOM     57  F   UNL A   1      37.979  34.211  29.243  1.00  0.00    -0.206 F 
ATOM     58  C   UNL A   1      34.403  34.613  29.606  1.00  0.00     0.060 A 
BRANCH  58  59
ATOM     59  S   UNL A   1      33.055  35.546  28.848  1.00  0.00     0.124 S 
ATOM     60  O   UNL A   1      33.786  36.571  28.113  1.00  0.00    -0.237 OA
ATOM     61  O   UNL A   1      32.384  34.536  28.035  1.00  0.00    -0.237 OA
ATOM     62  O   UNL A   1      32.294  36.013  30.003  1.00  0.00    -0.744 OA
ENDBRANCH  58  59
ENDBRANCH  26  51
BRANCH  38  63
ATOM     63  C   UNL A   1      39.800  34.353  36.880  1.00  0.00     0.058 A 
ATOM     64  C   UNL A   1      39.067  34.030  38.031  1.00  0.00     0.135 A 
ATOM     65  C   UNL A   1      40.361  35.635  36.790  1.00  0.00     0.135 A 
ATOM     66  F   UNL A   1      38.505  32.817  38.155  1.00  0.00    -0.206 F 
ATOM     67  C   UNL A   1      38.885  34.951  39.056  1.00  0.00     0.059 A 
ATOM     68  C   UNL A   1      40.200  36.570  37.808  1.00  0.00     0.059 A 
ATOM     69  F   UNL A   1      41.072  35.989  35.708  1.00  0.00    -0.206 F 
ATOM     70  C   UNL A   1      39.450  36.222  38.933  1.00  0.00     0.060 A 
BRANCH  70  71
ATOM     71  S   UNL A   1      39.236  37.413  40.273  1.00  0.00     0.124 S 
ATOM     72  O   UNL A   1      40.610  37.849  40.500  1.00  0.00    -0.237 OA
ATOM     73  O   UNL A   1      38.346  38.408  39.683  1.00  0.00    -0.237 OA
ATOM     74  O   UNL A   1      38.645  36.610  41.340  1.00  0.00    -0.744 OA
ENDBRANCH  70  71
ENDBRANCH  38  63
ENDBRANCH  12  13
ENDBRANCH   5   7
ENDBRANCH   2   3
ENDBRANCH   1   2
BRANCH   1  75
ATOM     75  C   UNL A   1      37.626  21.899  25.161  1.00  0.00     0.023 C 
BRANCH  75  76
ATOM     76  C   UNL A   1      36.455  20.920  25.227  1.00  0.00     0.116 C 
BRANCH  76  77
ATOM     77  N   UNL A   1      35.471  21.266  26.242  1.00  0.00    -0.352 N 
ATOM     78  C   UNL A   1      34.118  21.462  26.139  1.00  0.00     0.253 C 
ATOM     79  H   UNL A   1      35.835  21.376  27.149  1.00  0.00     0.163 HD
ATOM     80  O   UNL A   1      33.482  21.831  27.122  1.00  0.00    -0.269 OA
BRANCH  78  81
ATOM     81  C   UNL A   1      33.406  21.254  24.858  1.00  0.00     0.063 A 
ATOM     82  C   UNL A   1      32.976  19.939  24.619  1.00  0.00     0.016 A 
ATOM     83  C   UNL A   1      33.229  22.268  23.889  1.00  0.00     0.054 A 
ATOM     84  C   UNL A   1      32.323  19.623  23.434  1.00  0.00     0.001 A 
ATOM     85  C   UNL A   1      32.551  21.930  22.713  1.00  0.00     0.027 A 
ATOM     86  C   UNL A   1      32.103  20.619  22.489  1.00  0.00     0.002 A 
BRANCH  83  87
ATOM     87  N   UNL A   1      33.737  23.557  24.162  1.00  0.00    -0.321 N 
ATOM     88  C   UNL A   1      33.287  24.659  24.822  1.00  0.00     0.263 C 
ATOM     89  H   UNL A   1      34.636  23.691  23.784  1.00  0.00     0.170 HD
ATOM     90  O   UNL A   1      34.084  25.575  25.024  1.00  0.00    -0.269 OA
BRANCH  88  91
ATOM     91  C   UNL A   1      31.869  24.761  25.257  1.00  0.00     0.126 A 
ATOM     92  C   UNL A   1      31.587  25.590  26.288  1.00  0.00     0.033 A 
ATOM     93  C   UNL A   1      30.931  24.998  24.128  1.00  0.00     0.349 A 
ATOM     94  C   UNL A   1      31.668  27.017  25.908  1.00  0.00     0.021 A 
ATOM     95  O   UNL A   1      30.807  26.334  23.744  1.00  0.00    -0.421 OA
ATOM     96  O   UNL A   1      30.326  24.082  23.585  1.00  0.00    -0.245 OA
ATOM     97  C   UNL A   1      32.104  28.006  26.784  1.00  0.00     0.032 A 
ATOM     98  C   UNL A   1      31.309  27.353  24.594  1.00  0.00     0.157 A 
ATOM     99  C   UNL A   1      32.204  29.321  26.323  1.00  0.00     0.043 A 
ATOM    100  C   UNL A   1      31.418  28.662  24.134  1.00  0.00     0.085 A 
ATOM    101  Cl  UNL A   1      32.735  30.554  27.401  1.00  0.00    -0.084 Cl
ATOM    102  C   UNL A   1      31.875  29.653  25.004  1.00  0.00     0.045 A 
ATOM    103  Cl  UNL A   1      31.001  29.085  22.519  1.00  0.00    -0.080 Cl
ENDBRANCH  88  91
ENDBRANCH  83  87
ENDBRANCH  78  81
ENDBRANCH  76  77
ENDBRANCH  75  76
ENDBRANCH   1  75
TORSDOF 16
ENDMDL
MODEL 2
REMARK VINA RESULT:     -13.3      1.237      2.270
REMARK SMILES O=C(NCCCCNC(=O)c1ccccc1NC(=O)c1cc2cc(Cl)cc(Cl)c2oc1=O)c1ccc(-c2c3nc(c(-c4c(F)cc(S(=O)(=O)[O-])cc4F)c4ccc([nH]4)c(-c4c(F)cc(S(=O)(=O)[O-])cc4F)c4nc(c(-c5c(F)cc(S(=O)(=O)[O-])cc5F)c5ccc2[nH]5)C=C4)C=C3)cc1
REMARK SMILES IDX 5 1 4 2 3 3 1 4 2 5 33 7 34 8 98 9 35 10 97 11 36 12 37 13
REMARK SMILES IDX 38 14 91 15 39 16 96 17 90 18 92 19 40 20 95 21 89 22 88 23
REMARK SMILES IDX 41 25 75 26 54 27 74 28 55 29 58 30 73 31 93 32 56 33 57 34
REMARK SMILES IDX 72 36 94 37 59 38 42 39 43 40 52 41 44 42 45 43 51 44 53 45
REMARK SMILES IDX 46 46 47 47 48 48 49 49 50 50 76 51 77 52 86 53 78 54 79 55
REMARK SMILES IDX 85 56 87 57 80 58 81 59 82 60 83 61 84 62 60 63 61 64 70 65
REMARK SMILES IDX 62 66 63 67 69 68 71 69 64 70 65 71 66 72 67 73 68 74 6 75
REMARK SMILES IDX 7 76 8 77 9 78 10 80 11 81 12 82 16 83 13 84 15 85 14 86
REMARK SMILES IDX 17 87 18 88 19 90 20 91 21 92 31 93 22 94 30 95 32 96 23 97
REMARK SMILES IDX 29 98 24 99 27 100 25 101 26 102 28 103
REMARK H PARENT 3 6 92 24 58 35 8 79 17 89
REMARK Flexibility Score: inf
ROOT
ATOM      1  C   UNL A   1      37.486  23.743  25.480  1.00  0.00     0.023 C 
ENDROOT
BRANCH   1   2
ATOM      2  C   UNL A   1      38.502  24.128  26.554  1.00  0.00     0.116 C 
BRANCH   2   3
ATOM      3  N   UNL A   1      39.874  24.025  26.096  1.00  0.00    -0.352 N 
ATOM      4  O   UNL A   1      42.029  24.597  25.836  1.00  0.00    -0.269 OA
ATOM      5  C   UNL A   1      40.981  24.755  26.458  1.00  0.00     0.251 C 
ATOM      6  H   UNL A   1      40.038  23.325  25.424  1.00  0.00     0.163 HD
BRANCH   5   7
ATOM      7  C   UNL A   1      40.923  25.742  27.563  1.00  0.00     0.039 A 
ATOM      8  C   UNL A   1      41.844  26.789  27.667  1.00  0.00     0.014 A 
ATOM      9  C   UNL A   1      39.872  25.649  28.483  1.00  0.00     0.014 A 
ATOM     10  C   UNL A   1      41.770  27.683  28.738  1.00  0.00     0.010 A 
ATOM     11  C   UNL A   1      39.772  26.570  29.531  1.00  0.00     0.010 A 
ATOM     12  C   UNL A   1      40.732  27.583  29.680  1.00  0.00    -0.014 A 
BRANCH  12  13
ATOM     13  C   UNL A   1      40.619  28.578  30.776  1.00  0.00     0.031 A 
ATOM     14  C   UNL A   1      41.503  28.498  31.990  1.00  0.00     0.074 A 
ATOM     15  C   UNL A   1      39.693  29.552  30.683  1.00  0.00     0.049 A 
ATOM     16  N   UNL A   1      41.532  29.282  33.038  1.00  0.00    -0.248 NA
ATOM     17  C   UNL A   1      42.471  27.392  32.040  1.00  0.00     0.031 C 
ATOM     18  C   UNL A   1      38.749  29.717  29.575  1.00  0.00     0.029 A 
ATOM     19  N   UNL A   1      39.389  30.582  31.536  1.00  0.00    -0.354 N 
ATOM     20  C   UNL A   1      42.507  28.760  33.879  1.00  0.00     0.074 A 
ATOM     21  C   UNL A   1      43.039  27.583  33.225  1.00  0.00     0.031 C 
ATOM     22  C   UNL A   1      37.979  30.790  29.812  1.00  0.00     0.029 A 
ATOM     23  C   UNL A   1      38.356  31.373  31.096  1.00  0.00     0.049 A 
ATOM     24  H   UNL A   1      39.866  30.740  32.383  1.00  0.00     0.167 HD
ATOM     25  C   UNL A   1      42.925  29.227  35.079  1.00  0.00     0.037 A 
ATOM     26  C   UNL A   1      37.766  32.440  31.667  1.00  0.00     0.037 A 
ATOM     27  C   UNL A   1      42.426  30.419  35.713  1.00  0.00     0.049 A 
ATOM     28  C   UNL A   1      38.241  32.929  33.002  1.00  0.00     0.074 A 
ATOM     29  C   UNL A   1      42.877  31.034  36.869  1.00  0.00     0.029 A 
ATOM     30  N   UNL A   1      41.356  31.169  35.253  1.00  0.00    -0.354 N 
ATOM     31  N   UNL A   1      39.215  32.466  33.744  1.00  0.00    -0.248 NA
ATOM     32  C   UNL A   1      37.528  34.076  33.582  1.00  0.00     0.031 C 
ATOM     33  C   UNL A   1      42.060  32.142  37.124  1.00  0.00     0.029 A 
ATOM     34  C   UNL A   1      41.110  32.222  36.120  1.00  0.00     0.049 A 
ATOM     35  H   UNL A   1      40.846  30.983  34.432  1.00  0.00     0.167 HD
ATOM     36  C   UNL A   1      39.229  33.258  34.885  1.00  0.00     0.074 A 
ATOM     37  C   UNL A   1      38.177  34.242  34.728  1.00  0.00     0.031 C 
ATOM     38  C   UNL A   1      40.042  33.174  35.966  1.00  0.00     0.037 A 
BRANCH  25  39
ATOM     39  C   UNL A   1      43.986  28.448  35.796  1.00  0.00     0.058 A 
ATOM     40  C   UNL A   1      43.657  27.438  36.711  1.00  0.00     0.135 A 
ATOM     41  C   UNL A   1      45.343  28.668  35.515  1.00  0.00     0.135 A 
ATOM     42  F   UNL A   1      42.372  27.197  37.018  1.00  0.00    -0.206 F 
ATOM     43  C   UNL A   1      44.639  26.674  37.332  1.00  0.00     0.059 A 
ATOM     44  C   UNL A   1      46.343  27.911  36.118  1.00  0.00     0.059 A 
ATOM     45  F   UNL A   1      45.707  29.628  34.650  1.00  0.00    -0.206 F 
ATOM     46  C   UNL A   1      45.981  26.921  37.032  1.00  0.00     0.060 A 
BRANCH  46  47
ATOM     47  S   UNL A   1      47.251  25.914  37.828  1.00  0.00     0.124 S 
ATOM     48  O   UNL A   1      47.316  24.766  36.927  1.00  0.00    -0.237 OA
ATOM     49  O   UNL A   1      48.414  26.796  37.813  1.00  0.00    -0.237 OA
ATOM     50  O   UNL A   1      46.690  25.646  39.149  1.00  0.00    -0.744 OA
ENDBRANCH  46  47
ENDBRANCH  25  39
BRANCH  26  51
ATOM     51  C   UNL A   1      36.636  33.104  30.973  1.00  0.00     0.058 A 
ATOM     52  C   UNL A   1      35.321  32.946  31.428  1.00  0.00     0.135 A 
ATOM     53  C   UNL A   1      36.860  33.938  29.869  1.00  0.00     0.135 A 
ATOM     54  F   UNL A   1      35.065  32.152  32.480  1.00  0.00    -0.206 F 
ATOM     55  C   UNL A   1      34.258  33.598  30.812  1.00  0.00     0.059 A 
ATOM     56  C   UNL A   1      35.816  34.609  29.244  1.00  0.00     0.059 A 
ATOM     57  F   UNL A   1      38.107  34.124  29.409  1.00  0.00    -0.206 F 
ATOM     58  C   UNL A   1      34.516  34.429  29.720  1.00  0.00     0.060 A 
BRANCH  58  59
ATOM     59  S   UNL A   1      33.158  35.344  28.959  1.00  0.00     0.124 S 
ATOM     60  O   UNL A   1      33.871  36.423  28.288  1.00  0.00    -0.237 OA
ATOM     61  O   UNL A   1      32.547  34.344  28.086  1.00  0.00    -0.237 OA
ATOM     62  O   UNL A   1      32.346  35.735  30.108  1.00  0.00    -0.744 OA
ENDBRANCH  58  59
ENDBRANCH  26  51
BRANCH  38  63
ATOM     63  C   UNL A   1      39.801  34.153  37.075  1.00  0.00     0.058 A 
ATOM     64  C   UNL A   1      39.026  33.800  38.189  1.00  0.00     0.135 A 
ATOM     65  C   UNL A   1      40.363  35.437  37.038  1.00  0.00     0.135 A 
ATOM     66  F   UNL A   1      38.462  32.584  38.262  1.00  0.00    -0.206 F 
ATOM     67  C   UNL A   1      38.804  34.694  39.230  1.00  0.00     0.059 A 
ATOM     68  C   UNL A   1      40.162  36.346  38.073  1.00  0.00     0.059 A 
ATOM     69  F   UNL A   1      41.113  35.818  35.993  1.00  0.00    -0.206 F 
ATOM     70  C   UNL A   1      39.371  35.969  39.160  1.00  0.00     0.060 A 
BRANCH  70  71
ATOM     71  S   UNL A   1      39.105  37.126  40.520  1.00  0.00     0.124 S 
ATOM     72  O   UNL A   1      38.239  38.120  39.894  1.00  0.00    -0.237 OA
ATOM     73  O   UNL A   1      38.475  36.290  41.538  1.00  0.00    -0.237 OA
ATOM     74  O   UNL A   1      40.456  37.578  40.841  1.00  0.00    -0.744 OA
ENDBRANCH  70  71
ENDBRANCH  38  63
ENDBRANCH  12  13
ENDBRANCH   5   7
ENDBRANCH   2   3
ENDBRANCH   1   2
BRANCH   1  75
ATOM     75  C   UNL A   1      36.218  23.027  25.958  1.00  0.00     0.023 C 
BRANCH  75  76
ATOM     76  C   UNL A   1      34.978  23.898  26.151  1.00  0.00     0.116 C 
BRANCH  76  77
ATOM     77  N   UNL A   1      34.027  23.347  27.105  1.00  0.00    -0.352 N 
ATOM     78  C   UNL A   1      32.677  23.137  26.996  1.00  0.00     0.253 C 
ATOM     79  H   UNL A   1      34.417  23.081  27.969  1.00  0.00     0.163 HD
ATOM     80  O   UNL A   1      32.046  22.729  27.968  1.00  0.00    -0.269 OA
BRANCH  78  81
ATOM     81  C   UNL A   1      31.956  23.409  25.733  1.00  0.00     0.063 A 
ATOM     82  C   UNL A   1      32.113  22.437  24.733  1.00  0.00     0.016 A 
ATOM     83  C   UNL A   1      31.221  24.593  25.492  1.00  0.00     0.054 A 
ATOM     84  C   UNL A   1      31.505  22.604  23.494  1.00  0.00     0.001 A 
ATOM     85  C   UNL A   1      30.601  24.728  24.245  1.00  0.00     0.027 A 
ATOM     86  C   UNL A   1      30.743  23.743  23.257  1.00  0.00     0.002 A 
BRANCH  83  87
ATOM     87  N   UNL A   1      31.150  25.561  26.517  1.00  0.00    -0.321 N 
ATOM     88  C   UNL A   1      31.665  26.805  26.716  1.00  0.00     0.263 C 
ATOM     89  H   UNL A   1      30.590  25.265  27.271  1.00  0.00     0.170 HD
ATOM     90  O   UNL A   1      31.243  27.457  27.672  1.00  0.00    -0.269 OA
BRANCH  88  91
ATOM     91  C   UNL A   1      32.725  27.344  25.824  1.00  0.00     0.126 A 
ATOM     92  C   UNL A   1      32.420  27.515  24.518  1.00  0.00     0.033 A 
ATOM     93  C   UNL A   1      33.378  28.564  26.370  1.00  0.00     0.349 A 
ATOM     94  C   UNL A   1      31.518  28.666  24.292  1.00  0.00     0.021 A 
ATOM     95  O   UNL A   1      32.695  29.754  26.114  1.00  0.00    -0.421 OA
ATOM     96  O   UNL A   1      34.429  28.511  26.996  1.00  0.00    -0.245 OA
ATOM     97  C   UNL A   1      30.547  28.677  23.296  1.00  0.00     0.032 A 
ATOM     98  C   UNL A   1      31.654  29.767  25.151  1.00  0.00     0.157 A 
ATOM     99  C   UNL A   1      29.699  29.783  23.191  1.00  0.00     0.043 A 
ATOM    100  C   UNL A   1      30.803  30.864  25.049  1.00  0.00     0.085 A 
ATOM    101  Cl  UNL A   1      28.499  29.810  21.956  1.00  0.00    -0.084 Cl
ATOM    102  C   UNL A   1      29.814  30.868  24.065  1.00  0.00     0.045 A 
ATOM    103  Cl  UNL A   1      30.944  32.212  26.109  1.00  0.00    -0.080 Cl
ENDBRANCH  88  91
ENDBRANCH  83  87
ENDBRANCH  78  81
ENDBRANCH  76  77
ENDBRANCH  75  76
ENDBRANCH   1  75
TORSDOF 16
ENDMDL
MODEL 3
REMARK VINA RESULT:     -13.2      6.639     11.903
REMARK SMILES O=C(NCCCCNC(=O)c1ccccc1NC(=O)c1cc2cc(Cl)cc(Cl)c2oc1=O)c1ccc(-c2c3nc(c(-c4c(F)cc(S(=O)(=O)[O-])cc4F)c4ccc([nH]4)c(-c4c(F)cc(S(=O)(=O)[O-])cc4F)c4nc(c(-c5c(F)cc(S(=O)(=O)[O-])cc5F)c5ccc2[nH]5)C=C4)C=C3)cc1
REMARK SMILES IDX 5 1 4 2 3 3 1 4 2 5 33 7 34 8 98 9 35 10 97 11 36 12 37 13
REMARK SMILES IDX 38 14 91 15 39 16 96 17 90 18 92 19 40 20 95 21 89 22 88 23
REMARK SMILES IDX 41 25 75 26 54 27 74 28 55 29 58 30 73 31 93 32 56 33 57 34
REMARK SMILES IDX 72 36 94 37 59 38 42 39 43 40 52 41 44 42 45 43 51 44 53 45
REMARK SMILES IDX 46 46 47 47 48 48 49 49 50 50 76 51 77 52 86 53 78 54 79 55
REMARK SMILES IDX 85 56 87 57 80 58 81 59 82 60 83 61 84 62 60 63 61 64 70 65
REMARK SMILES IDX 62 66 63 67 69 68 71 69 64 70 65 71 66 72 67 73 68 74 6 75
REMARK SMILES IDX 7 76 8 77 9 78 10 80 11 81 12 82 16 83 13 84 15 85 14 86
REMARK SMILES IDX 17 87 18 88 19 90 20 91 21 92 31 93 22 94 30 95 32 96 23 97
REMARK SMILES IDX 29 98 24 99 27 100 25 101 26 102 28 103
REMARK H PARENT 3 6 92 24 58 35 8 79 17 89
REMARK Flexibility Score: inf
ROOT
ATOM      1  C   UNL A   1      33.880  28.650  27.339  1.00  0.00     0.023 C 
ENDROOT
BRANCH   1   2
ATOM      2  C   UNL A   1      35.207  29.345  27.640  1.00  0.00     0.116 C 
BRANCH   2   3
ATOM      3  N   UNL A   1      35.164  30.144  28.850  1.00  0.00    -0.352 N 
ATOM      4  O   UNL A   1      35.879  31.031  30.784  1.00  0.00    -0.269 OA
ATOM      5  C   UNL A   1      36.166  30.453  29.738  1.00  0.00     0.251 C 
ATOM      6  H   UNL A   1      34.282  30.523  29.068  1.00  0.00     0.163 HD
BRANCH   5   7
ATOM      7  C   UNL A   1      37.575  30.078  29.468  1.00  0.00     0.039 A 
ATOM      8  C   UNL A   1      38.451  29.710  30.494  1.00  0.00     0.014 A 
ATOM      9  C   UNL A   1      38.008  30.033  28.138  1.00  0.00     0.014 A 
ATOM     10  C   UNL A   1      39.779  29.389  30.199  1.00  0.00     0.010 A 
ATOM     11  C   UNL A   1      39.325  29.669  27.839  1.00  0.00     0.010 A 
ATOM     12  C   UNL A   1      40.227  29.364  28.868  1.00  0.00    -0.014 A 
BRANCH  12  13
ATOM     13  C   UNL A   1      41.621  28.955  28.558  1.00  0.00     0.031 A 
ATOM     14  C   UNL A   1      42.746  29.951  28.585  1.00  0.00     0.074 A 
ATOM     15  C   UNL A   1      41.868  27.673  28.225  1.00  0.00     0.049 A 
ATOM     16  N   UNL A   1      44.018  29.762  28.336  1.00  0.00    -0.248 NA
ATOM     17  C   UNL A   1      42.402  31.340  28.926  1.00  0.00     0.031 C 
ATOM     18  C   UNL A   1      40.857  26.617  28.125  1.00  0.00     0.029 A 
ATOM     19  N   UNL A   1      43.042  27.041  27.904  1.00  0.00    -0.354 N 
ATOM     20  C   UNL A   1      44.624  31.004  28.474  1.00  0.00     0.074 A 
ATOM     21  C   UNL A   1      43.579  31.946  28.817  1.00  0.00     0.031 C 
ATOM     22  C   UNL A   1      41.457  25.468  27.778  1.00  0.00     0.029 A 
ATOM     23  C   UNL A   1      42.887  25.710  27.606  1.00  0.00     0.049 A 
ATOM     24  H   UNL A   1      43.914  27.499  27.890  1.00  0.00     0.167 HD
ATOM     25  C   UNL A   1      45.932  31.326  28.337  1.00  0.00     0.037 A 
ATOM     26  C   UNL A   1      43.789  24.787  27.222  1.00  0.00     0.037 A 
ATOM     27  C   UNL A   1      46.979  30.385  28.035  1.00  0.00     0.049 A 
ATOM     28  C   UNL A   1      45.229  25.173  27.067  1.00  0.00     0.074 A 
ATOM     29  C   UNL A   1      48.346  30.600  28.000  1.00  0.00     0.029 A 
ATOM     30  N   UNL A   1      46.775  29.056  27.705  1.00  0.00    -0.354 N 
ATOM     31  N   UNL A   1      45.793  26.336  27.277  1.00  0.00    -0.248 NA
ATOM     32  C   UNL A   1      46.153  24.124  26.612  1.00  0.00     0.031 C 
ATOM     33  C   UNL A   1      48.969  29.405  27.618  1.00  0.00     0.029 A 
ATOM     34  C   UNL A   1      47.988  28.446  27.430  1.00  0.00     0.049 A 
ATOM     35  H   UNL A   1      45.899  28.609  27.670  1.00  0.00     0.167 HD
ATOM     36  C   UNL A   1      47.137  26.165  26.971  1.00  0.00     0.074 A 
ATOM     37  C   UNL A   1      47.306  24.781  26.578  1.00  0.00     0.031 C 
ATOM     38  C   UNL A   1      48.138  27.077  27.011  1.00  0.00     0.037 A 
BRANCH  25  39
ATOM     39  C   UNL A   1      46.316  32.763  28.518  1.00  0.00     0.058 A 
ATOM     40  C   UNL A   1      46.340  33.654  27.435  1.00  0.00     0.135 A 
ATOM     41  C   UNL A   1      46.599  33.270  29.796  1.00  0.00     0.135 A 
ATOM     42  F   UNL A   1      46.086  33.212  26.192  1.00  0.00    -0.206 F 
ATOM     43  C   UNL A   1      46.638  35.000  27.610  1.00  0.00     0.059 A 
ATOM     44  C   UNL A   1      46.892  34.615  29.996  1.00  0.00     0.059 A 
ATOM     45  F   UNL A   1      46.594  32.455  30.862  1.00  0.00    -0.206 F 
ATOM     46  C   UNL A   1      46.918  35.471  28.895  1.00  0.00     0.060 A 
BRANCH  46  47
ATOM     47  S   UNL A   1      47.287  37.225  29.118  1.00  0.00     0.124 S 
ATOM     48  O   UNL A   1      46.148  37.660  29.923  1.00  0.00    -0.237 OA
ATOM     49  O   UNL A   1      48.573  37.195  29.807  1.00  0.00    -0.237 OA
ATOM     50  O   UNL A   1      47.324  37.738  27.752  1.00  0.00    -0.744 OA
ENDBRANCH  46  47
ENDBRANCH  25  39
BRANCH  26  51
ATOM     51  C   UNL A   1      43.339  23.404  26.936  1.00  0.00     0.058 A 
ATOM     52  C   UNL A   1      43.196  22.953  25.618  1.00  0.00     0.135 A 
ATOM     53  C   UNL A   1      43.082  22.501  27.977  1.00  0.00     0.135 A 
ATOM     54  F   UNL A   1      43.428  23.789  24.594  1.00  0.00    -0.206 F 
ATOM     55  C   UNL A   1      42.815  21.645  25.337  1.00  0.00     0.059 A 
ATOM     56  C   UNL A   1      42.712  21.186  27.722  1.00  0.00     0.059 A 
ATOM     57  F   UNL A   1      43.217  22.892  29.254  1.00  0.00    -0.206 F 
ATOM     58  C   UNL A   1      42.577  20.768  26.397  1.00  0.00     0.060 A 
BRANCH  58  59
ATOM     59  S   UNL A   1      42.159  19.046  26.048  1.00  0.00     0.124 S 
ATOM     60  O   UNL A   1      42.996  18.771  24.887  1.00  0.00    -0.237 OA
ATOM     61  O   UNL A   1      42.540  18.367  27.283  1.00  0.00    -0.237 OA
ATOM     62  O   UNL A   1      40.722  19.106  25.798  1.00  0.00    -0.744 OA
ENDBRANCH  58  59
ENDBRANCH  26  51
BRANCH  38  63
ATOM     63  C   UNL A   1      49.498  26.611  26.588  1.00  0.00     0.058 A 
ATOM     64  C   UNL A   1      50.341  25.942  27.488  1.00  0.00     0.135 A 
ATOM     65  C   UNL A   1      49.954  26.810  25.277  1.00  0.00     0.135 A 
ATOM     66  F   UNL A   1      49.948  25.736  28.755  1.00  0.00    -0.206 F 
ATOM     67  C   UNL A   1      51.600  25.495  27.106  1.00  0.00     0.059 A 
ATOM     68  C   UNL A   1      51.207  26.364  24.869  1.00  0.00     0.059 A 
ATOM     69  F   UNL A   1      49.181  27.444  24.381  1.00  0.00    -0.206 F 
ATOM     70  C   UNL A   1      52.028  25.716  25.795  1.00  0.00     0.060 A 
BRANCH  70  71
ATOM     71  S   UNL A   1      53.654  25.116  25.287  1.00  0.00     0.124 S 
ATOM     72  O   UNL A   1      54.518  25.729  26.291  1.00  0.00    -0.237 OA
ATOM     73  O   UNL A   1      53.507  23.666  25.379  1.00  0.00    -0.237 OA
ATOM     74  O   UNL A   1      53.793  25.639  23.931  1.00  0.00    -0.744 OA
ENDBRANCH  70  71
ENDBRANCH  38  63
ENDBRANCH  12  13
ENDBRANCH   5   7
ENDBRANCH   2   3
ENDBRANCH   1   2
BRANCH   1  75
ATOM     75  C   UNL A   1      33.704  28.090  25.923  1.00  0.00     0.023 C 
BRANCH  75  76
ATOM     76  C   UNL A   1      33.350  29.100  24.833  1.00  0.00     0.116 C 
BRANCH  76  77
ATOM     77  N   UNL A   1      33.828  28.718  23.513  1.00  0.00    -0.352 N 
ATOM     78  C   UNL A   1      33.383  27.749  22.651  1.00  0.00     0.253 C 
ATOM     79  H   UNL A   1      34.596  29.239  23.185  1.00  0.00     0.163 HD
ATOM     80  O   UNL A   1      33.993  27.539  21.606  1.00  0.00    -0.269 OA
BRANCH  78  81
ATOM     81  C   UNL A   1      32.187  26.934  22.962  1.00  0.00     0.063 A 
ATOM     82  C   UNL A   1      31.048  27.663  23.340  1.00  0.00     0.016 A 
ATOM     83  C   UNL A   1      32.185  25.520  22.967  1.00  0.00     0.054 A 
ATOM     84  C   UNL A   1      29.876  26.999  23.682  1.00  0.00     0.001 A 
ATOM     85  C   UNL A   1      30.988  24.875  23.295  1.00  0.00     0.027 A 
ATOM     86  C   UNL A   1      29.846  25.608  23.651  1.00  0.00     0.002 A 
BRANCH  83  87
ATOM     87  N   UNL A   1      33.379  24.844  22.636  1.00  0.00    -0.321 N 
ATOM     88  C   UNL A   1      34.269  24.060  23.304  1.00  0.00     0.263 C 
ATOM     89  H   UNL A   1      33.630  24.970  21.692  1.00  0.00     0.170 HD
ATOM     90  O   UNL A   1      35.129  23.475  22.646  1.00  0.00    -0.269 OA
BRANCH  88  91
ATOM     91  C   UNL A   1      34.219  23.939  24.785  1.00  0.00     0.126 A 
ATOM     92  C   UNL A   1      33.333  23.067  25.315  1.00  0.00     0.033 A 
ATOM     93  C   UNL A   1      35.561  23.755  25.398  1.00  0.00     0.349 A 
ATOM     94  C   UNL A   1      33.741  21.658  25.124  1.00  0.00     0.021 A 
ATOM     95  O   UNL A   1      36.022  22.437  25.405  1.00  0.00    -0.421 OA
ATOM     96  O   UNL A   1      36.202  24.694  25.852  1.00  0.00    -0.245 OA
ATOM     97  C   UNL A   1      32.825  20.630  24.918  1.00  0.00     0.032 A 
ATOM     98  C   UNL A   1      35.116  21.381  25.129  1.00  0.00     0.157 A 
ATOM     99  C   UNL A   1      33.302  19.336  24.689  1.00  0.00     0.043 A 
ATOM    100  C   UNL A   1      35.588  20.093  24.892  1.00  0.00     0.085 A 
ATOM    101  Cl  UNL A   1      32.178  18.056  24.441  1.00  0.00    -0.084 Cl
ATOM    102  C   UNL A   1      34.674  19.064  24.663  1.00  0.00     0.045 A 
ATOM    103  Cl  UNL A   1      37.273  19.743  24.874  1.00  0.00    -0.080 Cl
ENDBRANCH  88  91
ENDBRANCH  83  87
ENDBRANCH  78  81
ENDBRANCH  76  77
ENDBRANCH  75  76
ENDBRANCH   1  75
TORSDOF 16
ENDMDL
