MODEL 1
REMARK VINA RESULT:     -12.0      0.000      0.000
REMARK SMILES CCc1n[nH]c(C(=O)N[C@@]2(C(=O)NCCCCNC(=O)c3ccc(-c4c5nc(c(-c6c(F)cc(S(=O)(=O)[O-])cc6F)c6ccc([nH]6)c(-c6c(F)cc(S(=O)(=O)[O-])cc6F)c6nc(c(-c7c(F)cc(S(=O)(=O)[O-])cc7F)c7ccc4[nH]7)C=C6)C=C5)cc3)CCCC[C@H]2C)n1
REMARK SMILES IDX 15 1 14 2 13 3 11 4 12 5 10 7 87 8 91 9 88 10 90 11 92 12
REMARK SMILES IDX 89 13 9 14 7 15 8 16 6 18 3 19 4 20 93 21 5 22 2 24 1 25
REMARK SMILES IDX 16 26 17 27 18 28 19 29 20 31 21 32 22 33 86 34 23 35 85 36
REMARK SMILES IDX 24 37 25 38 26 39 79 40 27 41 84 42 78 43 80 44 28 45 83 46
REMARK SMILES IDX 77 47 76 48 29 50 63 51 42 52 62 53 43 54 46 55 61 56 81 57
REMARK SMILES IDX 44 58 45 59 60 61 82 62 47 63 30 64 31 65 40 66 32 67 33 68
REMARK SMILES IDX 39 69 41 70 34 71 35 72 36 73 37 74 38 75 64 76 65 77 74 78
REMARK SMILES IDX 66 79 67 80 73 81 75 82 68 83 69 84 70 85 71 86 72 87 48 88
REMARK SMILES IDX 49 89 58 90 50 91 51 92 57 93 59 94 52 95 53 96 54 97 55 98
REMARK SMILES IDX 56 99
REMARK H PARENT 13 6 9 17 5 23 18 30 80 49 46 60
REMARK Flexibility Score: inf
ROOT
ATOM      1  C   UNL A   1      32.155  30.632  26.851  1.00  0.00     0.023 C 
ENDROOT
BRANCH   1   2
ATOM      2  C   UNL A   1      31.810  29.914  25.537  1.00  0.00     0.116 C 
BRANCH   2   3
ATOM      3  N   UNL A   1      32.920  29.731  24.601  1.00  0.00    -0.354 N 
ATOM      4  C   UNL A   1      33.218  28.781  23.652  1.00  0.00     0.246 C 
ATOM      5  O   UNL A   1      34.131  29.067  22.865  1.00  0.00    -0.272 OA
ATOM      6  H   UNL A   1      33.599  30.440  24.664  1.00  0.00     0.163 HD
BRANCH   4   7
ATOM      7  C   UNL A   1      32.427  27.420  23.474  1.00  0.00     0.122 C 
ATOM      8  C   UNL A   1      30.946  27.826  23.252  1.00  0.00     0.039 C 
ATOM      9  C   UNL A   1      32.594  26.553  24.726  1.00  0.00     0.021 C 
ATOM     10  C   UNL A   1      29.964  26.668  23.362  1.00  0.00     0.003 C 
ATOM     11  C   UNL A   1      31.576  25.398  24.824  1.00  0.00     0.006 C 
ATOM     12  C   UNL A   1      34.089  26.318  25.031  1.00  0.00     0.011 C 
ATOM     13  C   UNL A   1      30.141  25.909  24.671  1.00  0.00     0.000 C 
BRANCH   7  14
ATOM     14  N   UNL A   1      32.936  26.802  22.179  1.00  0.00    -0.335 N 
ATOM     15  C   UNL A   1      32.973  25.575  21.536  1.00  0.00     0.289 C 
ATOM     16  O   UNL A   1      33.005  25.612  20.301  1.00  0.00    -0.266 OA
ATOM     17  H   UNL A   1      33.376  27.488  21.626  1.00  0.00     0.165 HD
BRANCH  15  18
ATOM     18  C   UNL A   1      33.001  24.295  22.217  1.00  0.00     0.214 A 
ATOM     19  C   UNL A   1      33.560  22.629  23.433  1.00  0.00     0.151 A 
ATOM     20  N   UNL A   1      32.268  22.388  23.186  1.00  0.00    -0.158 NA
ATOM     21  N   UNL A   1      34.040  23.718  22.772  1.00  0.00    -0.207 NA
ATOM     22  N   UNL A   1      31.961  23.416  22.346  1.00  0.00    -0.255 N 
ATOM     23  H   UNL A   1      31.095  23.514  21.889  1.00  0.00     0.192 HD
BRANCH  19  24
ATOM     24  C   UNL A   1      34.452  21.954  24.420  1.00  0.00     0.076 C 
ATOM     25  C   UNL A   1      34.871  22.760  25.629  1.00  0.00     0.012 C 
ENDBRANCH  19  24
ENDBRANCH  15  18
ENDBRANCH   7  14
ENDBRANCH   4   7
ENDBRANCH   2   3
ENDBRANCH   1   2
BRANCH   1  26
ATOM     26  C   UNL A   1      31.903  32.134  26.872  1.00  0.00     0.023 C 
BRANCH  26  27
ATOM     27  C   UNL A   1      33.039  32.899  27.521  1.00  0.00     0.116 C 
BRANCH  27  28
ATOM     28  N   UNL A   1      32.648  34.245  27.923  1.00  0.00    -0.352 N 
ATOM     29  C   UNL A   1      33.169  35.028  28.924  1.00  0.00     0.251 C 
ATOM     30  H   UNL A   1      31.912  34.648  27.408  1.00  0.00     0.163 HD
ATOM     31  O   UNL A   1      32.659  36.100  29.200  1.00  0.00    -0.269 OA
BRANCH  29  32
ATOM     32  C   UNL A   1      34.321  34.510  29.685  1.00  0.00     0.039 A 
ATOM     33  C   UNL A   1      34.083  33.888  30.910  1.00  0.00     0.014 A 
ATOM     34  C   UNL A   1      35.610  34.581  29.152  1.00  0.00     0.014 A 
ATOM     35  C   UNL A   1      35.143  33.284  31.580  1.00  0.00     0.010 A 
ATOM     36  C   UNL A   1      36.643  33.892  29.770  1.00  0.00     0.010 A 
ATOM     37  C   UNL A   1      36.422  33.254  30.997  1.00  0.00    -0.014 A 
BRANCH  37  38
ATOM     38  C   UNL A   1      37.552  32.582  31.677  1.00  0.00     0.031 A 
ATOM     39  C   UNL A   1      38.039  33.102  33.000  1.00  0.00     0.074 A 
ATOM     40  C   UNL A   1      38.160  31.542  31.076  1.00  0.00     0.049 A 
ATOM     41  N   UNL A   1      39.027  32.672  33.741  1.00  0.00    -0.248 NA
ATOM     42  C   UNL A   1      37.350  34.283  33.549  1.00  0.00     0.031 C 
ATOM     43  C   UNL A   1      37.811  30.999  29.760  1.00  0.00     0.029 A 
ATOM     44  N   UNL A   1      39.201  30.755  31.493  1.00  0.00    -0.354 N 
ATOM     45  C   UNL A   1      39.083  33.531  34.830  1.00  0.00     0.074 A 
ATOM     46  C   UNL A   1      38.078  34.548  34.623  1.00  0.00     0.031 C 
ATOM     47  C   UNL A   1      38.601  29.946  29.495  1.00  0.00     0.029 A 
ATOM     48  C   UNL A   1      39.531  29.759  30.605  1.00  0.00     0.049 A 
ATOM     49  H   UNL A   1      39.670  30.890  32.348  1.00  0.00     0.167 HD
ATOM     50  C   UNL A   1      39.878  33.457  35.923  1.00  0.00     0.037 A 
ATOM     51  C   UNL A   1      40.474  28.802  30.682  1.00  0.00     0.037 A 
ATOM     52  C   UNL A   1      40.853  32.421  36.132  1.00  0.00     0.049 A 
ATOM     53  C   UNL A   1      41.330  28.727  31.917  1.00  0.00     0.074 A 
ATOM     54  C   UNL A   1      41.670  32.216  37.228  1.00  0.00     0.029 A 
ATOM     55  N   UNL A   1      41.138  31.411  35.223  1.00  0.00    -0.354 N 
ATOM     56  N   UNL A   1      41.321  29.504  32.974  1.00  0.00    -0.248 NA
ATOM     57  C   UNL A   1      42.314  27.639  31.976  1.00  0.00     0.031 C 
ATOM     58  C   UNL A   1      42.480  31.105  36.965  1.00  0.00     0.029 A 
ATOM     59  C   UNL A   1      42.131  30.588  35.727  1.00  0.00     0.049 A 
ATOM     60  H   UNL A   1      40.699  31.297  34.349  1.00  0.00     0.167 HD
ATOM     61  C   UNL A   1      42.279  28.984  33.836  1.00  0.00     0.074 A 
ATOM     62  C   UNL A   1      42.836  27.817  33.181  1.00  0.00     0.031 C 
ATOM     63  C   UNL A   1      42.666  29.429  35.058  1.00  0.00     0.037 A 
BRANCH  50  64
ATOM     64  C   UNL A   1      39.714  34.519  36.974  1.00  0.00     0.058 A 
ATOM     65  C   UNL A   1      38.963  34.293  38.140  1.00  0.00     0.135 A 
ATOM     66  C   UNL A   1      40.330  35.773  36.828  1.00  0.00     0.135 A 
ATOM     67  F   UNL A   1      38.335  33.120  38.324  1.00  0.00    -0.206 F 
ATOM     68  C   UNL A   1      38.804  35.279  39.107  1.00  0.00     0.059 A 
ATOM     69  C   UNL A   1      40.209  36.765  37.797  1.00  0.00     0.059 A 
ATOM     70  F   UNL A   1      41.054  36.046  35.731  1.00  0.00    -0.206 F 
ATOM     71  C   UNL A   1      39.431  36.512  38.927  1.00  0.00     0.060 A 
BRANCH  71  72
ATOM     72  S   UNL A   1      39.219  37.779  40.195  1.00  0.00     0.124 S 
ATOM     73  O   UNL A   1      38.156  38.595  39.616  1.00  0.00    -0.237 OA
ATOM     74  O   UNL A   1      38.846  36.991  41.365  1.00  0.00    -0.237 OA
ATOM     75  O   UNL A   1      40.531  38.416  40.263  1.00  0.00    -0.744 OA
ENDBRANCH  71  72
ENDBRANCH  50  64
BRANCH  51  76
ATOM     76  C   UNL A   1      40.626  27.817  29.579  1.00  0.00     0.058 A 
ATOM     77  C   UNL A   1      39.751  26.727  29.458  1.00  0.00     0.135 A 
ATOM     78  C   UNL A   1      41.636  27.952  28.615  1.00  0.00     0.135 A 
ATOM     79  F   UNL A   1      38.768  26.554  30.357  1.00  0.00    -0.206 F 
ATOM     80  C   UNL A   1      39.883  25.795  28.435  1.00  0.00     0.059 A 
ATOM     81  C   UNL A   1      41.774  27.048  27.567  1.00  0.00     0.059 A 
ATOM     82  F   UNL A   1      42.486  28.990  28.672  1.00  0.00    -0.206 F 
ATOM     83  C   UNL A   1      40.899  25.965  27.493  1.00  0.00     0.060 A 
BRANCH  83  84
ATOM     84  S   UNL A   1      41.035  24.772  26.143  1.00  0.00     0.124 S 
ATOM     85  O   UNL A   1      39.636  24.436  25.907  1.00  0.00    -0.237 OA
ATOM     86  O   UNL A   1      41.687  25.560  25.101  1.00  0.00    -0.237 OA
ATOM     87  O   UNL A   1      41.853  23.708  26.718  1.00  0.00    -0.744 OA
ENDBRANCH  83  84
ENDBRANCH  51  76
BRANCH  63  88
ATOM     88  C   UNL A   1      43.715  28.631  35.780  1.00  0.00     0.058 A 
ATOM     89  C   UNL A   1      45.082  28.913  35.640  1.00  0.00     0.135 A 
ATOM     90  C   UNL A   1      43.342  27.597  36.653  1.00  0.00     0.135 A 
ATOM     91  F   UNL A   1      45.490  29.889  34.814  1.00  0.00    -0.206 F 
ATOM     92  C   UNL A   1      46.047  28.177  36.319  1.00  0.00     0.059 A 
ATOM     93  C   UNL A   1      44.288  26.867  37.365  1.00  0.00     0.059 A 
ATOM     94  F   UNL A   1      42.046  27.295  36.832  1.00  0.00    -0.206 F 
ATOM     95  C   UNL A   1      45.639  27.155  37.178  1.00  0.00     0.060 A 
BRANCH  95  96
ATOM     96  S   UNL A   1      46.900  26.219  38.069  1.00  0.00     0.124 S 
ATOM     97  O   UNL A   1      46.384  24.858  37.965  1.00  0.00    -0.237 OA
ATOM     98  O   UNL A   1      48.105  26.502  37.295  1.00  0.00    -0.237 OA
ATOM     99  O   UNL A   1      46.872  26.801  39.408  1.00  0.00    -0.744 OA
ENDBRANCH  95  96
ENDBRANCH  63  88
ENDBRANCH  37  38
ENDBRANCH  29  32
ENDBRANCH  27  28
ENDBRANCH  26  27
ENDBRANCH   1  26
TORSDOF 17
ENDMDL
MODEL 2
REMARK VINA RESULT:     -11.9      2.670      8.844
REMARK SMILES CCc1n[nH]c(C(=O)N[C@@]2(C(=O)NCCCCNC(=O)c3ccc(-c4c5nc(c(-c6c(F)cc(S(=O)(=O)[O-])cc6F)c6ccc([nH]6)c(-c6c(F)cc(S(=O)(=O)[O-])cc6F)c6nc(c(-c7c(F)cc(S(=O)(=O)[O-])cc7F)c7ccc4[nH]7)C=C6)C=C5)cc3)CCCC[C@H]2C)n1
REMARK SMILES IDX 15 1 14 2 13 3 11 4 12 5 10 7 87 8 91 9 88 10 90 11 92 12
REMARK SMILES IDX 89 13 9 14 7 15 8 16 6 18 3 19 4 20 93 21 5 22 2 24 1 25
REMARK SMILES IDX 16 26 17 27 18 28 19 29 20 31 21 32 22 33 86 34 23 35 85 36
REMARK SMILES IDX 24 37 25 38 26 39 79 40 27 41 84 42 78 43 80 44 28 45 83 46
REMARK SMILES IDX 77 47 76 48 29 50 63 51 42 52 62 53 43 54 46 55 61 56 81 57
REMARK SMILES IDX 44 58 45 59 60 61 82 62 47 63 30 64 31 65 40 66 32 67 33 68
REMARK SMILES IDX 39 69 41 70 34 71 35 72 36 73 37 74 38 75 64 76 65 77 74 78
REMARK SMILES IDX 66 79 67 80 73 81 75 82 68 83 69 84 70 85 71 86 72 87 48 88
REMARK SMILES IDX 49 89 58 90 50 91 51 92 57 93 59 94 52 95 53 96 54 97 55 98
REMARK SMILES IDX 56 99
REMARK H PARENT 13 6 9 17 5 23 18 30 80 49 46 60
REMARK Flexibility Score: inf
ROOT
ATOM      1  C   UNL A   1      37.763  22.343  25.165  1.00  0.00     0.023 C 
ENDROOT
BRANCH   1   2
ATOM      2  C   UNL A   1      36.481  21.500  25.054  1.00  0.00     0.116 C 
BRANCH   2   3
ATOM      3  N   UNL A   1      35.681  21.395  26.275  1.00  0.00    -0.354 N 
ATOM      4  C   UNL A   1      34.342  21.538  26.550  1.00  0.00     0.246 C 
ATOM      5  O   UNL A   1      33.969  21.140  27.663  1.00  0.00    -0.272 OA
ATOM      6  H   UNL A   1      36.217  21.175  27.071  1.00  0.00     0.163 HD
BRANCH   4   7
ATOM      7  C   UNL A   1      33.274  22.096  25.519  1.00  0.00     0.122 C 
ATOM      8  C   UNL A   1      33.172  21.021  24.405  1.00  0.00     0.039 C 
ATOM      9  C   UNL A   1      33.743  23.444  24.963  1.00  0.00     0.021 C 
ATOM     10  C   UNL A   1      32.432  21.490  23.160  1.00  0.00     0.003 C 
ATOM     11  C   UNL A   1      32.992  23.889  23.692  1.00  0.00     0.006 C 
ATOM     12  C   UNL A   1      34.018  24.442  26.110  1.00  0.00     0.011 C 
ATOM     13  C   UNL A   1      33.013  22.792  22.623  1.00  0.00     0.000 C 
BRANCH   7  14
ATOM     14  N   UNL A   1      31.945  22.122  26.260  1.00  0.00    -0.335 N 
ATOM     15  C   UNL A   1      30.765  22.848  26.290  1.00  0.00     0.289 C 
ATOM     16  O   UNL A   1      29.759  22.231  26.655  1.00  0.00    -0.266 OA
ATOM     17  H   UNL A   1      31.913  21.398  26.926  1.00  0.00     0.165 HD
BRANCH  15  18
ATOM     18  C   UNL A   1      30.661  24.254  25.950  1.00  0.00     0.214 A 
ATOM     19  C   UNL A   1      30.963  26.367  25.840  1.00  0.00     0.151 A 
ATOM     20  N   UNL A   1      30.208  26.125  24.763  1.00  0.00    -0.158 NA
ATOM     21  N   UNL A   1      31.157  25.268  26.619  1.00  0.00    -0.207 NA
ATOM     22  N   UNL A   1      29.964  24.792  24.903  1.00  0.00    -0.255 N 
ATOM     23  H   UNL A   1      29.359  24.278  24.320  1.00  0.00     0.192 HD
BRANCH  19  24
ATOM     24  C   UNL A   1      31.701  27.616  26.187  1.00  0.00     0.076 C 
ATOM     25  C   UNL A   1      31.460  28.193  27.565  1.00  0.00     0.012 C 
ENDBRANCH  19  24
ENDBRANCH  15  18
ENDBRANCH   7  14
ENDBRANCH   4   7
ENDBRANCH   2   3
ENDBRANCH   1   2
BRANCH   1  26
ATOM     26  C   UNL A   1      37.984  23.041  26.500  1.00  0.00     0.023 C 
BRANCH  26  27
ATOM     27  C   UNL A   1      38.675  24.380  26.343  1.00  0.00     0.116 C 
BRANCH  27  28
ATOM     28  N   UNL A   1      40.094  24.245  26.035  1.00  0.00    -0.352 N 
ATOM     29  C   UNL A   1      41.152  24.971  26.522  1.00  0.00     0.251 C 
ATOM     30  H   UNL A   1      40.325  23.537  25.391  1.00  0.00     0.163 HD
ATOM     31  O   UNL A   1      42.276  24.798  26.084  1.00  0.00    -0.269 OA
BRANCH  29  32
ATOM     32  C   UNL A   1      40.880  25.999  27.544  1.00  0.00     0.039 A 
ATOM     33  C   UNL A   1      39.921  25.729  28.520  1.00  0.00     0.014 A 
ATOM     34  C   UNL A   1      41.621  27.183  27.572  1.00  0.00     0.014 A 
ATOM     35  C   UNL A   1      39.743  26.634  29.563  1.00  0.00     0.010 A 
ATOM     36  C   UNL A   1      41.514  28.030  28.664  1.00  0.00     0.010 A 
ATOM     37  C   UNL A   1      40.561  27.772  29.658  1.00  0.00    -0.014 A 
BRANCH  37  38
ATOM     38  C   UNL A   1      40.412  28.724  30.782  1.00  0.00     0.031 A 
ATOM     39  C   UNL A   1      41.282  28.579  31.999  1.00  0.00     0.074 A 
ATOM     40  C   UNL A   1      39.464  29.678  30.719  1.00  0.00     0.049 A 
ATOM     41  N   UNL A   1      41.289  29.292  33.095  1.00  0.00    -0.248 NA
ATOM     42  C   UNL A   1      42.248  27.467  32.002  1.00  0.00     0.031 C 
ATOM     43  C   UNL A   1      38.520  29.865  29.613  1.00  0.00     0.029 A 
ATOM     44  N   UNL A   1      39.137  30.670  31.605  1.00  0.00    -0.354 N 
ATOM     45  C   UNL A   1      42.246  28.710  33.916  1.00  0.00     0.074 A 
ATOM     46  C   UNL A   1      42.751  27.546  33.224  1.00  0.00     0.031 C 
ATOM     47  C   UNL A   1      37.745  30.930  29.872  1.00  0.00     0.029 A 
ATOM     48  C   UNL A   1      38.114  31.480  31.173  1.00  0.00     0.049 A 
ATOM     49  H   UNL A   1      39.591  30.792  32.470  1.00  0.00     0.167 HD
ATOM     50  C   UNL A   1      42.689  29.129  35.124  1.00  0.00     0.037 A 
ATOM     51  C   UNL A   1      37.544  32.550  31.759  1.00  0.00     0.037 A 
ATOM     52  C   UNL A   1      42.202  30.308  35.788  1.00  0.00     0.049 A 
ATOM     53  C   UNL A   1      38.070  33.010  33.092  1.00  0.00     0.074 A 
ATOM     54  C   UNL A   1      42.621  30.858  36.984  1.00  0.00     0.029 A 
ATOM     55  N   UNL A   1      41.185  31.121  35.305  1.00  0.00    -0.354 N 
ATOM     56  N   UNL A   1      39.027  32.491  33.823  1.00  0.00    -0.248 NA
ATOM     57  C   UNL A   1      37.448  34.207  33.672  1.00  0.00     0.031 C 
ATOM     58  C   UNL A   1      41.830  31.982  37.247  1.00  0.00     0.029 A 
ATOM     59  C   UNL A   1      40.952  32.161  36.189  1.00  0.00     0.049 A 
ATOM     60  H   UNL A   1      40.701  30.979  34.460  1.00  0.00     0.167 HD
ATOM     61  C   UNL A   1      39.141  33.314  34.939  1.00  0.00     0.074 A 
ATOM     62  C   UNL A   1      38.163  34.371  34.775  1.00  0.00     0.031 C 
ATOM     63  C   UNL A   1      39.977  33.205  36.002  1.00  0.00     0.037 A 
BRANCH  50  64
ATOM     64  C   UNL A   1      43.761  28.313  35.793  1.00  0.00     0.058 A 
ATOM     65  C   UNL A   1      45.125  28.546  35.549  1.00  0.00     0.135 A 
ATOM     66  C   UNL A   1      43.424  27.299  36.704  1.00  0.00     0.135 A 
ATOM     67  F   UNL A   1      45.504  29.489  34.671  1.00  0.00    -0.206 F 
ATOM     68  C   UNL A   1      46.115  27.784  36.160  1.00  0.00     0.059 A 
ATOM     69  C   UNL A   1      44.399  26.545  37.351  1.00  0.00     0.059 A 
ATOM     70  F   UNL A   1      42.137  27.030  36.970  1.00  0.00    -0.206 F 
ATOM     71  C   UNL A   1      45.742  26.786  37.060  1.00  0.00     0.060 A 
BRANCH  71  72
ATOM     72  S   UNL A   1      47.039  25.811  37.850  1.00  0.00     0.124 S 
ATOM     73  O   UNL A   1      48.240  26.510  37.404  1.00  0.00    -0.237 OA
ATOM     74  O   UNL A   1      46.716  25.949  39.266  1.00  0.00    -0.237 OA
ATOM     75  O   UNL A   1      46.849  24.474  37.293  1.00  0.00    -0.744 OA
ENDBRANCH  71  72
ENDBRANCH  50  64
BRANCH  51  76
ATOM     76  C   UNL A   1      36.445  33.278  31.072  1.00  0.00     0.058 A 
ATOM     77  C   UNL A   1      36.699  34.064  29.939  1.00  0.00     0.135 A 
ATOM     78  C   UNL A   1      35.119  33.191  31.522  1.00  0.00     0.135 A 
ATOM     79  F   UNL A   1      37.952  34.180  29.470  1.00  0.00    -0.206 F 
ATOM     80  C   UNL A   1      35.684  34.756  29.287  1.00  0.00     0.059 A 
ATOM     81  C   UNL A   1      34.081  33.851  30.873  1.00  0.00     0.059 A 
ATOM     82  F   UNL A   1      34.820  32.433  32.589  1.00  0.00    -0.206 F 
ATOM     83  C   UNL A   1      34.376  34.642  29.763  1.00  0.00     0.060 A 
BRANCH  83  84
ATOM     84  S   UNL A   1      33.057  35.509  28.884  1.00  0.00     0.124 S 
ATOM     85  O   UNL A   1      32.293  36.076  29.989  1.00  0.00    -0.237 OA
ATOM     86  O   UNL A   1      33.805  36.461  28.069  1.00  0.00    -0.237 OA
ATOM     87  O   UNL A   1      32.394  34.442  28.139  1.00  0.00    -0.744 OA
ENDBRANCH  83  84
ENDBRANCH  51  76
BRANCH  63  88
ATOM     88  C   UNL A   1      39.893  34.277  37.052  1.00  0.00     0.058 A 
ATOM     89  C   UNL A   1      40.509  35.526  36.882  1.00  0.00     0.135 A 
ATOM     90  C   UNL A   1      39.152  34.063  38.225  1.00  0.00     0.135 A 
ATOM     91  F   UNL A   1      41.234  35.779  35.780  1.00  0.00    -0.206 F 
ATOM     92  C   UNL A   1      40.419  36.516  37.854  1.00  0.00     0.059 A 
ATOM     93  C   UNL A   1      39.023  35.050  39.197  1.00  0.00     0.059 A 
ATOM     94  F   UNL A   1      38.532  32.890  38.430  1.00  0.00    -0.206 F 
ATOM     95  C   UNL A   1      39.674  36.268  39.009  1.00  0.00     0.060 A 
BRANCH  95  96
ATOM     96  S   UNL A   1      39.548  37.569  40.254  1.00  0.00     0.124 S 
ATOM     97  O   UNL A   1      38.878  36.868  41.344  1.00  0.00    -0.237 OA
ATOM     98  O   UNL A   1      40.947  37.915  40.487  1.00  0.00    -0.237 OA
ATOM     99  O   UNL A   1      38.756  38.599  39.589  1.00  0.00    -0.744 OA
ENDBRANCH  95  96
ENDBRANCH  63  88
ENDBRANCH  37  38
ENDBRANCH  29  32
ENDBRANCH  27  28
ENDBRANCH  26  27
ENDBRANCH   1  26
TORSDOF 17
ENDMDL
MODEL 3
REMARK VINA RESULT:     -11.9      2.615      8.830
REMARK SMILES CCc1n[nH]c(C(=O)N[C@@]2(C(=O)NCCCCNC(=O)c3ccc(-c4c5nc(c(-c6c(F)cc(S(=O)(=O)[O-])cc6F)c6ccc([nH]6)c(-c6c(F)cc(S(=O)(=O)[O-])cc6F)c6nc(c(-c7c(F)cc(S(=O)(=O)[O-])cc7F)c7ccc4[nH]7)C=C6)C=C5)cc3)CCCC[C@H]2C)n1
REMARK SMILES IDX 15 1 14 2 13 3 11 4 12 5 10 7 87 8 91 9 88 10 90 11 92 12
REMARK SMILES IDX 89 13 9 14 7 15 8 16 6 18 3 19 4 20 93 21 5 22 2 24 1 25
REMARK SMILES IDX 16 26 17 27 18 28 19 29 20 31 21 32 22 33 86 34 23 35 85 36
REMARK SMILES IDX 24 37 25 38 26 39 79 40 27 41 84 42 78 43 80 44 28 45 83 46
REMARK SMILES IDX 77 47 76 48 29 50 63 51 42 52 62 53 43 54 46 55 61 56 81 57
REMARK SMILES IDX 44 58 45 59 60 61 82 62 47 63 30 64 31 65 40 66 32 67 33 68
REMARK SMILES IDX 39 69 41 70 34 71 35 72 36 73 37 74 38 75 64 76 65 77 74 78
REMARK SMILES IDX 66 79 67 80 73 81 75 82 68 83 69 84 70 85 71 86 72 87 48 88
REMARK SMILES IDX 49 89 58 90 50 91 51 92 57 93 59 94 52 95 53 96 54 97 55 98
REMARK SMILES IDX 56 99
REMARK H PARENT 13 6 9 17 5 23 18 30 80 49 46 60
REMARK Flexibility Score: inf
ROOT
ATOM      1  C   UNL A   1      38.715  23.095  26.615  1.00  0.00     0.023 C 
ENDROOT
BRANCH   1   2
ATOM      2  C   UNL A   1      38.104  22.648  25.277  1.00  0.00     0.116 C 
BRANCH   2   3
ATOM      3  N   UNL A   1      37.336  21.404  25.311  1.00  0.00    -0.354 N 
ATOM      4  C   UNL A   1      36.017  21.093  25.077  1.00  0.00     0.246 C 
ATOM      5  O   UNL A   1      35.755  19.887  24.961  1.00  0.00    -0.272 OA
ATOM      6  H   UNL A   1      37.880  20.620  25.554  1.00  0.00     0.163 HD
BRANCH   4   7
ATOM      7  C   UNL A   1      34.869  22.168  24.879  1.00  0.00     0.122 C 
ATOM      8  C   UNL A   1      35.366  23.101  23.744  1.00  0.00     0.039 C 
ATOM      9  C   UNL A   1      34.644  22.935  26.185  1.00  0.00     0.021 C 
ATOM     10  C   UNL A   1      34.558  24.383  23.598  1.00  0.00     0.003 C 
ATOM     11  C   UNL A   1      33.839  24.239  26.010  1.00  0.00     0.006 C 
ATOM     12  C   UNL A   1      34.332  21.962  27.343  1.00  0.00     0.011 C 
ATOM     13  C   UNL A   1      34.451  25.128  24.924  1.00  0.00     0.000 C 
BRANCH   7  14
ATOM     14  N   UNL A   1      33.662  21.404  24.354  1.00  0.00    -0.335 N 
ATOM     15  C   UNL A   1      32.495  21.630  23.641  1.00  0.00     0.289 C 
ATOM     16  O   UNL A   1      32.066  20.674  22.986  1.00  0.00    -0.266 OA
ATOM     17  H   UNL A   1      33.731  20.451  24.596  1.00  0.00     0.165 HD
BRANCH  15  18
ATOM     18  C   UNL A   1      31.764  22.882  23.646  1.00  0.00     0.214 A 
ATOM     19  C   UNL A   1      30.680  24.624  24.245  1.00  0.00     0.151 A 
ATOM     20  N   UNL A   1      31.047  24.925  22.994  1.00  0.00    -0.158 NA
ATOM     21  N   UNL A   1      31.016  23.358  24.613  1.00  0.00    -0.207 NA
ATOM     22  N   UNL A   1      31.661  23.772  22.611  1.00  0.00    -0.255 N 
ATOM     23  H   UNL A   1      31.991  23.599  21.700  1.00  0.00     0.192 HD
BRANCH  19  24
ATOM     24  C   UNL A   1      30.100  25.529  25.280  1.00  0.00     0.076 C 
ATOM     25  C   UNL A   1      31.072  26.372  26.074  1.00  0.00     0.012 C 
ENDBRANCH  19  24
ENDBRANCH  15  18
ENDBRANCH   7  14
ENDBRANCH   4   7
ENDBRANCH   2   3
ENDBRANCH   1   2
BRANCH   1  26
ATOM     26  C   UNL A   1      39.975  22.357  27.048  1.00  0.00     0.023 C 
BRANCH  26  27
ATOM     27  C   UNL A   1      41.146  23.293  27.264  1.00  0.00     0.116 C 
BRANCH  27  28
ATOM     28  N   UNL A   1      41.424  24.121  26.096  1.00  0.00    -0.352 N 
ATOM     29  C   UNL A   1      41.517  25.488  26.014  1.00  0.00     0.251 C 
ATOM     30  H   UNL A   1      41.565  23.633  25.252  1.00  0.00     0.163 HD
ATOM     31  O   UNL A   1      41.657  26.035  24.934  1.00  0.00    -0.269 OA
BRANCH  29  32
ATOM     32  C   UNL A   1      41.388  26.271  27.256  1.00  0.00     0.039 A 
ATOM     33  C   UNL A   1      42.324  27.272  27.512  1.00  0.00     0.014 A 
ATOM     34  C   UNL A   1      40.308  26.059  28.117  1.00  0.00     0.014 A 
ATOM     35  C   UNL A   1      42.144  28.102  28.615  1.00  0.00     0.010 A 
ATOM     36  C   UNL A   1      40.076  26.950  29.154  1.00  0.00     0.010 A 
ATOM     37  C   UNL A   1      41.002  27.967  29.422  1.00  0.00    -0.014 A 
BRANCH  37  38
ATOM     38  C   UNL A   1      40.774  28.867  30.576  1.00  0.00     0.031 A 
ATOM     39  C   UNL A   1      41.615  28.718  31.811  1.00  0.00     0.074 A 
ATOM     40  C   UNL A   1      39.781  29.775  30.519  1.00  0.00     0.049 A 
ATOM     41  N   UNL A   1      41.557  29.388  32.932  1.00  0.00    -0.248 NA
ATOM     42  C   UNL A   1      42.636  27.656  31.802  1.00  0.00     0.031 C 
ATOM     43  C   UNL A   1      38.860  29.957  29.394  1.00  0.00     0.029 A 
ATOM     44  N   UNL A   1      39.380  30.715  31.431  1.00  0.00    -0.354 N 
ATOM     45  C   UNL A   1      42.518  28.823  33.760  1.00  0.00     0.074 A 
ATOM     46  C   UNL A   1      43.100  27.712  33.041  1.00  0.00     0.031 C 
ATOM     47  C   UNL A   1      38.025  30.971  29.669  1.00  0.00     0.029 A 
ATOM     48  C   UNL A   1      38.330  31.490  30.999  1.00  0.00     0.049 A 
ATOM     49  H   UNL A   1      39.803  30.826  32.313  1.00  0.00     0.167 HD
ATOM     50  C   UNL A   1      42.906  29.217  34.995  1.00  0.00     0.037 A 
ATOM     51  C   UNL A   1      37.691  32.506  31.607  1.00  0.00     0.037 A 
ATOM     52  C   UNL A   1      42.342  30.344  35.687  1.00  0.00     0.049 A 
ATOM     53  C   UNL A   1      38.156  32.941  32.971  1.00  0.00     0.074 A 
ATOM     54  C   UNL A   1      42.700  30.869  36.915  1.00  0.00     0.029 A 
ATOM     55  N   UNL A   1      41.299  31.124  35.205  1.00  0.00    -0.354 N 
ATOM     56  N   UNL A   1      39.117  32.442  33.711  1.00  0.00    -0.248 NA
ATOM     57  C   UNL A   1      37.458  34.082  33.576  1.00  0.00     0.031 C 
ATOM     58  C   UNL A   1      41.846  31.941  37.195  1.00  0.00     0.029 A 
ATOM     59  C   UNL A   1      40.989  32.117  36.119  1.00  0.00     0.049 A 
ATOM     60  H   UNL A   1      40.847  30.991  34.341  1.00  0.00     0.167 HD
ATOM     61  C   UNL A   1      39.159  33.226  34.858  1.00  0.00     0.074 A 
ATOM     62  C   UNL A   1      38.134  34.239  34.705  1.00  0.00     0.031 C 
ATOM     63  C   UNL A   1      39.969  33.118  35.941  1.00  0.00     0.037 A 
BRANCH  50  64
ATOM     64  C   UNL A   1      43.999  28.430  35.665  1.00  0.00     0.058 A 
ATOM     65  C   UNL A   1      45.356  28.727  35.455  1.00  0.00     0.135 A 
ATOM     66  C   UNL A   1      43.688  27.379  36.542  1.00  0.00     0.135 A 
ATOM     67  F   UNL A   1      45.712  29.708  34.610  1.00  0.00    -0.206 F 
ATOM     68  C   UNL A   1      46.365  27.992  36.067  1.00  0.00     0.059 A 
ATOM     69  C   UNL A   1      44.681  26.649  37.190  1.00  0.00     0.059 A 
ATOM     70  F   UNL A   1      42.408  27.048  36.775  1.00  0.00    -0.206 F 
ATOM     71  C   UNL A   1      46.018  26.955  36.933  1.00  0.00     0.060 A 
BRANCH  71  72
ATOM     72  S   UNL A   1      47.340  26.015  37.724  1.00  0.00     0.124 S 
ATOM     73  O   UNL A   1      46.599  24.896  38.297  1.00  0.00    -0.237 OA
ATOM     74  O   UNL A   1      48.209  25.689  36.598  1.00  0.00    -0.237 OA
ATOM     75  O   UNL A   1      47.898  26.958  38.690  1.00  0.00    -0.744 OA
ENDBRANCH  71  72
ENDBRANCH  50  64
BRANCH  51  76
ATOM     76  C   UNL A   1      36.576  33.205  30.915  1.00  0.00     0.058 A 
ATOM     77  C   UNL A   1      35.248  33.036  31.332  1.00  0.00     0.135 A 
ATOM     78  C   UNL A   1      36.816  34.066  29.833  1.00  0.00     0.135 A 
ATOM     79  F   UNL A   1      34.968  32.221  32.361  1.00  0.00    -0.206 F 
ATOM     80  C   UNL A   1      34.194  33.678  30.691  1.00  0.00     0.059 A 
ATOM     81  C   UNL A   1      35.783  34.741  29.192  1.00  0.00     0.059 A 
ATOM     82  F   UNL A   1      38.072  34.280  29.409  1.00  0.00    -0.206 F 
ATOM     83  C   UNL A   1      34.472  34.530  29.621  1.00  0.00     0.060 A 
BRANCH  83  84
ATOM     84  S   UNL A   1      33.101  35.394  28.823  1.00  0.00     0.124 S 
ATOM     85  O   UNL A   1      33.801  36.451  28.101  1.00  0.00    -0.237 OA
ATOM     86  O   UNL A   1      32.512  34.341  28.001  1.00  0.00    -0.237 OA
ATOM     87  O   UNL A   1      32.282  35.832  29.948  1.00  0.00    -0.744 OA
ENDBRANCH  83  84
ENDBRANCH  51  76
BRANCH  63  88
ATOM     88  C   UNL A   1      39.802  34.144  37.028  1.00  0.00     0.058 A 
ATOM     89  C   UNL A   1      39.007  33.900  38.157  1.00  0.00     0.135 A 
ATOM     90  C   UNL A   1      40.482  35.370  36.953  1.00  0.00     0.135 A 
ATOM     91  F   UNL A   1      38.332  32.745  38.272  1.00  0.00    -0.206 F 
ATOM     92  C   UNL A   1      38.866  34.849  39.163  1.00  0.00     0.059 A 
ATOM     93  C   UNL A   1      40.380  36.322  37.962  1.00  0.00     0.059 A 
ATOM     94  F   UNL A   1      41.267  35.647  35.900  1.00  0.00    -0.206 F 
ATOM     95  C   UNL A   1      39.556  36.058  39.055  1.00  0.00     0.060 A 
BRANCH  95  96
ATOM     96  S   UNL A   1      39.381  37.275  40.377  1.00  0.00     0.124 S 
ATOM     97  O   UNL A   1      38.679  36.503  41.396  1.00  0.00    -0.237 OA
ATOM     98  O   UNL A   1      40.770  37.611  40.679  1.00  0.00    -0.237 OA
ATOM     99  O   UNL A   1      38.607  38.344  39.754  1.00  0.00    -0.744 OA
ENDBRANCH  95  96
ENDBRANCH  63  88
ENDBRANCH  37  38
ENDBRANCH  29  32
ENDBRANCH  27  28
ENDBRANCH  26  27
ENDBRANCH   1  26
TORSDOF 17
ENDMDL
