MODEL 1
REMARK VINA RESULT:     -12.4      0.000      0.000
REMARK SMILES Cc1c(Cl)cc2c(c1C)O[C@H](C(F)(F)F)C(C(=O)NCCCCNC(=O)c1ccc(-c3c4nc(c(-c5c(F)cc(S(=O)(=O)[O-])cc5F)c5ccc([nH]5)c(-c5c(F)cc(S(=O)(=O)[O-])cc5F)c5nc(c(-c6c(F)cc(S(=O)(=O)[O-])cc6F)c6ccc3[nH]6)C=C5)C=C4)cc1)=C2
REMARK SMILES IDX 22 1 21 2 20 3 19 4 17 5 18 6 16 8 1 9 2 10 3 11 8 12 4 13
REMARK SMILES IDX 5 14 7 15 9 16 6 17 10 18 93 19 11 20 12 21 13 22 14 23
REMARK SMILES IDX 15 24 23 25 24 26 25 27 26 29 27 30 28 31 92 32 29 33 91 34
REMARK SMILES IDX 30 35 31 36 32 37 85 38 33 39 90 40 84 41 86 42 34 43 89 44
REMARK SMILES IDX 83 45 82 46 35 48 69 49 48 50 68 51 49 52 52 53 67 54 87 55
REMARK SMILES IDX 50 56 51 57 66 59 88 60 53 61 36 62 37 63 46 64 38 65 39 66
REMARK SMILES IDX 45 67 47 68 40 69 41 70 42 71 43 72 44 73 70 74 71 75 80 76
REMARK SMILES IDX 72 77 73 78 79 79 81 80 74 81 75 82 76 83 77 84 78 85 54 86
REMARK SMILES IDX 55 87 64 88 56 89 57 90 63 91 65 92 58 93 59 94 60 95 61 96
REMARK SMILES IDX 62 97
REMARK H PARENT 19 7 24 28 86 47 52 58
REMARK Flexibility Score: inf
ROOT
ATOM      1  C   UNL A   1      33.724  28.304  25.773  1.00  0.00     0.023 C 
ENDROOT
BRANCH   1   2
ATOM      2  C   UNL A   1      32.539  28.782  24.929  1.00  0.00     0.023 C 
BRANCH   2   3
ATOM      3  C   UNL A   1      31.735  27.655  24.287  1.00  0.00     0.116 C 
BRANCH   3   4
ATOM      4  N   UNL A   1      30.890  26.972  25.250  1.00  0.00    -0.352 N 
ATOM      5  C   UNL A   1      30.840  25.748  25.825  1.00  0.00     0.251 C 
ATOM      6  O   UNL A   1      29.913  25.577  26.623  1.00  0.00    -0.270 OA
ATOM      7  H   UNL A   1      30.161  27.553  25.569  1.00  0.00     0.163 HD
BRANCH   5   8
ATOM      8  C   UNL A   1      31.798  24.633  25.563  1.00  0.00     0.067 C 
ATOM      9  C   UNL A   1      37.007  20.706  25.023  1.00  0.00     0.046 C 
ATOM     10  C   UNL A   1      35.996  21.802  25.244  1.00  0.00    -0.026 A 
ATOM     11  C   UNL A   1      36.385  23.107  25.609  1.00  0.00     0.045 A 
ATOM     12  C   UNL A   1      34.612  21.521  25.112  1.00  0.00    -0.004 A 
ATOM     13  Cl  UNL A   1      38.043  23.551  25.834  1.00  0.00    -0.084 Cl
ATOM     14  C   UNL A   1      35.436  24.114  25.821  1.00  0.00     0.032 A 
ATOM     15  C   UNL A   1      33.677  22.556  25.311  1.00  0.00     0.131 A 
ATOM     16  C   UNL A   1      34.089  20.156  24.735  1.00  0.00     0.049 C 
ATOM     17  C   UNL A   1      34.079  23.842  25.671  1.00  0.00     0.019 A 
ATOM     18  O   UNL A   1      32.351  22.235  25.189  1.00  0.00    -0.475 OA
ATOM     19  C   UNL A   1      33.074  24.868  25.922  1.00  0.00     0.025 C 
ATOM     20  C   UNL A   1      31.437  23.332  24.908  1.00  0.00     0.314 C 
BRANCH  20  21
ATOM     21  C   UNL A   1      31.256  23.463  23.384  1.00  0.00     0.429 C 
ATOM     22  F   UNL A   1      32.104  24.400  22.886  1.00  0.00    -0.167 F 
ATOM     23  F   UNL A   1      31.526  22.312  22.726  1.00  0.00    -0.167 F 
ATOM     24  F   UNL A   1      30.002  23.832  23.037  1.00  0.00    -0.167 F 
ENDBRANCH  20  21
ENDBRANCH   5   8
ENDBRANCH   3   4
ENDBRANCH   2   3
ENDBRANCH   1   2
BRANCH   1  25
ATOM     25  C   UNL A   1      33.568  28.477  27.283  1.00  0.00     0.116 C 
BRANCH  25  26
ATOM     26  N   UNL A   1      33.506  29.867  27.715  1.00  0.00    -0.352 N 
ATOM     27  C   UNL A   1      34.524  30.632  28.235  1.00  0.00     0.251 C 
ATOM     28  H   UNL A   1      32.632  30.311  27.623  1.00  0.00     0.163 HD
ATOM     29  O   UNL A   1      34.316  31.777  28.618  1.00  0.00    -0.269 OA
BRANCH  27  30
ATOM     30  C   UNL A   1      35.860  30.022  28.366  1.00  0.00     0.039 A 
ATOM     31  C   UNL A   1      36.732  30.080  27.278  1.00  0.00     0.014 A 
ATOM     32  C   UNL A   1      36.274  29.496  29.593  1.00  0.00     0.014 A 
ATOM     33  C   UNL A   1      38.056  29.678  27.445  1.00  0.00     0.010 A 
ATOM     34  C   UNL A   1      37.609  29.152  29.773  1.00  0.00     0.010 A 
ATOM     35  C   UNL A   1      38.513  29.251  28.704  1.00  0.00    -0.014 A 
BRANCH  35  36
ATOM     36  C   UNL A   1      39.941  28.917  28.917  1.00  0.00     0.031 A 
ATOM     37  C   UNL A   1      40.867  29.936  29.513  1.00  0.00     0.074 A 
ATOM     38  C   UNL A   1      40.405  27.712  28.533  1.00  0.00     0.049 A 
ATOM     39  N   UNL A   1      42.146  29.837  29.763  1.00  0.00    -0.248 NA
ATOM     40  C   UNL A   1      40.285  31.244  29.854  1.00  0.00     0.031 C 
ATOM     41  C   UNL A   1      39.608  26.661  27.896  1.00  0.00     0.029 A 
ATOM     42  N   UNL A   1      41.660  27.165  28.626  1.00  0.00    -0.354 N 
ATOM     43  C   UNL A   1      42.522  31.067  30.288  1.00  0.00     0.074 A 
ATOM     44  C   UNL A   1      41.351  31.915  30.266  1.00  0.00     0.031 C 
ATOM     45  C   UNL A   1      40.383  25.583  27.693  1.00  0.00     0.029 A 
ATOM     46  C   UNL A   1      41.734  25.874  28.162  1.00  0.00     0.049 A 
ATOM     47  H   UNL A   1      42.433  27.651  28.992  1.00  0.00     0.167 HD
ATOM     48  C   UNL A   1      43.727  31.444  30.773  1.00  0.00     0.037 A 
ATOM     49  C   UNL A   1      42.774  25.018  28.130  1.00  0.00     0.037 A 
ATOM     50  C   UNL A   1      44.881  30.588  30.820  1.00  0.00     0.049 A 
ATOM     51  C   UNL A   1      44.105  25.460  28.670  1.00  0.00     0.074 A 
ATOM     52  C   UNL A   1      46.134  30.859  31.339  1.00  0.00     0.029 A 
ATOM     53  N   UNL A   1      44.920  29.290  30.333  1.00  0.00    -0.354 N 
ATOM     54  N   UNL A   1      44.430  26.610  29.211  1.00  0.00    -0.248 NA
ATOM     55  C   UNL A   1      45.210  24.493  28.598  1.00  0.00     0.031 C 
ATOM     56  C   UNL A   1      46.939  29.731  31.145  1.00  0.00     0.029 A 
ATOM     57  C   UNL A   1      46.179  28.750  30.528  1.00  0.00     0.049 A 
ATOM     58  H   UNL A   1      44.164  28.821  29.911  1.00  0.00     0.167 HD
ATOM     59  C   UNL A   1      45.772  26.501  29.556  1.00  0.00     0.074 A 
ATOM     60  C   UNL A   1      46.197  25.171  29.171  1.00  0.00     0.031 C 
ATOM     61  C   UNL A   1      46.578  27.421  30.138  1.00  0.00     0.037 A 
BRANCH  48  62
ATOM     62  C   UNL A   1      43.841  32.838  31.317  1.00  0.00     0.058 A 
ATOM     63  C   UNL A   1      44.166  33.918  30.482  1.00  0.00     0.135 A 
ATOM     64  C   UNL A   1      43.617  33.102  32.677  1.00  0.00     0.135 A 
ATOM     65  F   UNL A   1      44.408  33.714  29.176  1.00  0.00    -0.206 F 
ATOM     66  C   UNL A   1      44.297  35.209  30.981  1.00  0.00     0.059 A 
ATOM     67  C   UNL A   1      43.722  34.389  33.195  1.00  0.00     0.059 A 
ATOM     68  F   UNL A   1      43.308  32.102  33.518  1.00  0.00    -0.206 F 
ATOM     69  C   UNL A   1      44.078  35.433  32.341  1.00  0.00     0.060 A 
BRANCH  69  70
ATOM     70  S   UNL A   1      44.263  37.112  32.976  1.00  0.00     0.124 S 
ATOM     71  O   UNL A   1      43.045  37.258  33.768  1.00  0.00    -0.237 OA
ATOM     72  O   UNL A   1      45.506  37.026  33.737  1.00  0.00    -0.237 OA
ATOM     73  O   UNL A   1      44.327  37.928  31.767  1.00  0.00    -0.744 OA
ENDBRANCH  69  70
ENDBRANCH  48  62
BRANCH  49  74
ATOM     74  C   UNL A   1      42.580  23.640  27.612  1.00  0.00     0.058 A 
ATOM     75  C   UNL A   1      42.617  23.384  26.234  1.00  0.00     0.135 A 
ATOM     76  C   UNL A   1      42.390  22.551  28.477  1.00  0.00     0.135 A 
ATOM     77  F   UNL A   1      42.792  24.396  25.370  1.00  0.00    -0.206 F 
ATOM     78  C   UNL A   1      42.470  22.097  25.728  1.00  0.00     0.059 A 
ATOM     79  C   UNL A   1      42.256  21.253  27.995  1.00  0.00     0.059 A 
ATOM     80  F   UNL A   1      42.363  22.745  29.805  1.00  0.00    -0.206 F 
ATOM     81  C   UNL A   1      42.294  21.036  26.618  1.00  0.00     0.060 A 
BRANCH  81  82
ATOM     82  S   UNL A   1      42.170  19.361  25.953  1.00  0.00     0.124 S 
ATOM     83  O   UNL A   1      42.675  18.566  27.065  1.00  0.00    -0.237 OA
ATOM     84  O   UNL A   1      40.741  19.244  25.680  1.00  0.00    -0.237 OA
ATOM     85  O   UNL A   1      43.023  19.408  24.769  1.00  0.00    -0.744 OA
ENDBRANCH  81  82
ENDBRANCH  49  74
BRANCH  61  86
ATOM     86  C   UNL A   1      48.002  27.030  30.402  1.00  0.00     0.058 A 
ATOM     87  C   UNL A   1      49.029  27.395  29.519  1.00  0.00     0.135 A 
ATOM     88  C   UNL A   1      48.354  26.379  31.595  1.00  0.00     0.135 A 
ATOM     89  F   UNL A   1      48.738  28.012  28.364  1.00  0.00    -0.206 F 
ATOM     90  C   UNL A   1      50.362  27.133  29.814  1.00  0.00     0.059 A 
ATOM     91  C   UNL A   1      49.682  26.123  31.917  1.00  0.00     0.059 A 
ATOM     92  F   UNL A   1      47.405  26.017  32.472  1.00  0.00    -0.206 F 
ATOM     93  C   UNL A   1      50.680  26.504  31.020  1.00  0.00     0.060 A 
BRANCH  93  94
ATOM     94  S   UNL A   1      52.420  26.244  31.427  1.00  0.00     0.124 S 
ATOM     95  O   UNL A   1      52.704  27.407  32.260  1.00  0.00    -0.237 OA
ATOM     96  O   UNL A   1      52.390  24.960  32.121  1.00  0.00    -0.237 OA
ATOM     97  O   UNL A   1      53.074  26.229  30.122  1.00  0.00    -0.744 OA
ENDBRANCH  93  94
ENDBRANCH  61  86
ENDBRANCH  35  36
ENDBRANCH  27  30
ENDBRANCH  25  26
ENDBRANCH   1  25
TORSDOF 15
ENDMDL
MODEL 2
REMARK VINA RESULT:     -11.9      0.479      8.274
REMARK SMILES Cc1c(Cl)cc2c(c1C)O[C@H](C(F)(F)F)C(C(=O)NCCCCNC(=O)c1ccc(-c3c4nc(c(-c5c(F)cc(S(=O)(=O)[O-])cc5F)c5ccc([nH]5)c(-c5c(F)cc(S(=O)(=O)[O-])cc5F)c5nc(c(-c6c(F)cc(S(=O)(=O)[O-])cc6F)c6ccc3[nH]6)C=C5)C=C4)cc1)=C2
REMARK SMILES IDX 22 1 21 2 20 3 19 4 17 5 18 6 16 8 1 9 2 10 3 11 8 12 4 13
REMARK SMILES IDX 5 14 7 15 9 16 6 17 10 18 93 19 11 20 12 21 13 22 14 23
REMARK SMILES IDX 15 24 23 25 24 26 25 27 26 29 27 30 28 31 92 32 29 33 91 34
REMARK SMILES IDX 30 35 31 36 32 37 85 38 33 39 90 40 84 41 86 42 34 43 89 44
REMARK SMILES IDX 83 45 82 46 35 48 69 49 48 50 68 51 49 52 52 53 67 54 87 55
REMARK SMILES IDX 50 56 51 57 66 59 88 60 53 61 36 62 37 63 46 64 38 65 39 66
REMARK SMILES IDX 45 67 47 68 40 69 41 70 42 71 43 72 44 73 70 74 71 75 80 76
REMARK SMILES IDX 72 77 73 78 79 79 81 80 74 81 75 82 76 83 77 84 78 85 54 86
REMARK SMILES IDX 55 87 64 88 56 89 57 90 63 91 65 92 58 93 59 94 60 95 61 96
REMARK SMILES IDX 62 97
REMARK H PARENT 19 7 24 28 86 47 52 58
REMARK Flexibility Score: inf
ROOT
ATOM      1  C   UNL A   1      33.677  28.491  25.320  1.00  0.00     0.023 C 
ENDROOT
BRANCH   1   2
ATOM      2  C   UNL A   1      32.264  28.747  24.789  1.00  0.00     0.023 C 
BRANCH   2   3
ATOM      3  C   UNL A   1      31.572  27.506  24.232  1.00  0.00     0.116 C 
BRANCH   3   4
ATOM      4  N   UNL A   1      30.784  26.823  25.243  1.00  0.00    -0.352 N 
ATOM      5  C   UNL A   1      30.793  25.614  25.851  1.00  0.00     0.251 C 
ATOM      6  O   UNL A   1      29.902  25.435  26.686  1.00  0.00    -0.270 OA
ATOM      7  H   UNL A   1      30.048  27.389  25.572  1.00  0.00     0.163 HD
BRANCH   5   8
ATOM      8  C   UNL A   1      31.778  24.522  25.584  1.00  0.00     0.067 C 
ATOM      9  C   UNL A   1      37.074  20.716  25.036  1.00  0.00     0.046 C 
ATOM     10  C   UNL A   1      36.037  21.787  25.262  1.00  0.00    -0.026 A 
ATOM     11  C   UNL A   1      36.396  23.096  25.643  1.00  0.00     0.045 A 
ATOM     12  C   UNL A   1      34.661  21.478  25.119  1.00  0.00    -0.004 A 
ATOM     13  Cl  UNL A   1      38.042  23.574  25.882  1.00  0.00    -0.084 Cl
ATOM     14  C   UNL A   1      35.424  24.080  25.859  1.00  0.00     0.032 A 
ATOM     15  C   UNL A   1      33.702  22.490  25.322  1.00  0.00     0.131 A 
ATOM     16  C   UNL A   1      34.171  20.105  24.725  1.00  0.00     0.049 C 
ATOM     17  C   UNL A   1      34.074  23.781  25.697  1.00  0.00     0.019 A 
ATOM     18  O   UNL A   1      32.385  22.141  25.189  1.00  0.00    -0.475 OA
ATOM     19  C   UNL A   1      33.046  24.782  25.952  1.00  0.00     0.025 C 
ATOM     20  C   UNL A   1      31.449  23.221  24.913  1.00  0.00     0.314 C 
BRANCH  20  21
ATOM     21  C   UNL A   1      31.274  23.364  23.390  1.00  0.00     0.429 C 
ATOM     22  F   UNL A   1      31.500  22.175  22.774  1.00  0.00    -0.167 F 
ATOM     23  F   UNL A   1      30.023  23.744  23.043  1.00  0.00    -0.167 F 
ATOM     24  F   UNL A   1      32.125  24.265  22.849  1.00  0.00    -0.167 F 
ENDBRANCH  20  21
ENDBRANCH   5   8
ENDBRANCH   3   4
ENDBRANCH   2   3
ENDBRANCH   1   2
BRANCH   1  25
ATOM     25  C   UNL A   1      33.812  28.458  26.841  1.00  0.00     0.116 C 
BRANCH  25  26
ATOM     26  N   UNL A   1      33.593  29.749  27.481  1.00  0.00    -0.352 N 
ATOM     27  C   UNL A   1      34.494  30.488  28.214  1.00  0.00     0.251 C 
ATOM     28  H   UNL A   1      32.695  30.138  27.377  1.00  0.00     0.163 HD
ATOM     29  O   UNL A   1      34.155  31.535  28.753  1.00  0.00    -0.269 OA
BRANCH  27  30
ATOM     30  C   UNL A   1      35.861  29.962  28.375  1.00  0.00     0.039 A 
ATOM     31  C   UNL A   1      36.740  30.039  27.294  1.00  0.00     0.014 A 
ATOM     32  C   UNL A   1      36.293  29.498  29.622  1.00  0.00     0.014 A 
ATOM     33  C   UNL A   1      38.084  29.722  27.485  1.00  0.00     0.010 A 
ATOM     34  C   UNL A   1      37.643  29.240  29.823  1.00  0.00     0.010 A 
ATOM     35  C   UNL A   1      38.552  29.360  28.760  1.00  0.00    -0.014 A 
BRANCH  35  36
ATOM     36  C   UNL A   1      39.994  29.118  28.996  1.00  0.00     0.031 A 
ATOM     37  C   UNL A   1      40.593  27.782  28.666  1.00  0.00     0.074 A 
ATOM     38  C   UNL A   1      40.749  30.090  29.545  1.00  0.00     0.049 A 
ATOM     39  N   UNL A   1      41.827  27.376  28.814  1.00  0.00    -0.248 NA
ATOM     40  C   UNL A   1      39.683  26.763  28.119  1.00  0.00     0.031 C 
ATOM     41  C   UNL A   1      40.263  31.410  29.954  1.00  0.00     0.029 A 
ATOM     42  N   UNL A   1      42.086  30.119  29.853  1.00  0.00    -0.354 N 
ATOM     43  C   UNL A   1      41.841  26.057  28.380  1.00  0.00     0.074 A 
ATOM     44  C   UNL A   1      40.483  25.713  28.019  1.00  0.00     0.031 C 
ATOM     45  C   UNL A   1      41.296  32.133  30.420  1.00  0.00     0.029 A 
ATOM     46  C   UNL A   1      42.508  31.322  30.366  1.00  0.00     0.049 A 
ATOM     47  H   UNL A   1      42.686  29.351  29.717  1.00  0.00     0.167 HD
ATOM     48  C   UNL A   1      42.897  25.219  28.263  1.00  0.00     0.037 A 
ATOM     49  C   UNL A   1      43.737  31.726  30.739  1.00  0.00     0.037 A 
ATOM     50  C   UNL A   1      44.249  25.575  28.596  1.00  0.00     0.049 A 
ATOM     51  C   UNL A   1      44.895  30.778  30.605  1.00  0.00     0.074 A 
ATOM     52  C   UNL A   1      45.397  24.814  28.466  1.00  0.00     0.029 A 
ATOM     53  N   UNL A   1      44.635  26.800  29.121  1.00  0.00    -0.354 N 
ATOM     54  N   UNL A   1      44.900  29.550  30.144  1.00  0.00    -0.248 NA
ATOM     55  C   UNL A   1      46.211  31.264  31.041  1.00  0.00     0.031 C 
ATOM     56  C   UNL A   1      46.476  25.572  28.933  1.00  0.00     0.029 A 
ATOM     57  C   UNL A   1      46.003  26.813  29.331  1.00  0.00     0.049 A 
ATOM     58  H   UNL A   1      44.027  27.549  29.314  1.00  0.00     0.167 HD
ATOM     59  C   UNL A   1      46.219  29.121  30.220  1.00  0.00     0.074 A 
ATOM     60  C   UNL A   1      46.987  30.223  30.764  1.00  0.00     0.031 C 
ATOM     61  C   UNL A   1      46.746  27.923  29.872  1.00  0.00     0.037 A 
BRANCH  48  62
ATOM     62  C   UNL A   1      42.625  23.844  27.727  1.00  0.00     0.058 A 
ATOM     63  C   UNL A   1      42.472  22.747  28.589  1.00  0.00     0.135 A 
ATOM     64  C   UNL A   1      42.506  23.619  26.347  1.00  0.00     0.135 A 
ATOM     65  F   UNL A   1      42.595  22.907  29.916  1.00  0.00    -0.206 F 
ATOM     66  C   UNL A   1      42.243  21.466  28.100  1.00  0.00     0.059 A 
ATOM     67  C   UNL A   1      42.255  22.349  25.836  1.00  0.00     0.059 A 
ATOM     68  F   UNL A   1      42.647  24.635  25.482  1.00  0.00    -0.206 F 
ATOM     69  C   UNL A   1      42.142  21.276  26.720  1.00  0.00     0.060 A 
BRANCH  69  70
ATOM     70  S   UNL A   1      41.856  19.606  26.100  1.00  0.00     0.124 S 
ATOM     71  O   UNL A   1      40.433  19.657  25.778  1.00  0.00    -0.237 OA
ATOM     72  O   UNL A   1      42.761  19.535  24.957  1.00  0.00    -0.237 OA
ATOM     73  O   UNL A   1      42.213  18.757  27.233  1.00  0.00    -0.744 OA
ENDBRANCH  69  70
ENDBRANCH  48  62
BRANCH  49  74
ATOM     74  C   UNL A   1      43.941  33.114  31.226  1.00  0.00     0.058 A 
ATOM     75  C   UNL A   1      43.918  33.399  32.599  1.00  0.00     0.135 A 
ATOM     76  C   UNL A   1      44.195  34.173  30.341  1.00  0.00     0.135 A 
ATOM     77  F   UNL A   1      43.674  32.418  33.482  1.00  0.00    -0.206 F 
ATOM     78  C   UNL A   1      44.138  34.685  33.080  1.00  0.00     0.059 A 
ATOM     79  C   UNL A   1      44.434  35.465  30.799  1.00  0.00     0.059 A 
ATOM     80  F   UNL A   1      44.242  33.947  29.019  1.00  0.00    -0.206 F 
ATOM     81  C   UNL A   1      44.399  35.712  32.171  1.00  0.00     0.060 A 
BRANCH  81  82
ATOM     82  S   UNL A   1      44.749  37.365  32.811  1.00  0.00     0.124 S 
ATOM     83  O   UNL A   1      45.693  37.072  33.882  1.00  0.00    -0.237 OA
ATOM     84  O   UNL A   1      45.300  38.037  31.639  1.00  0.00    -0.237 OA
ATOM     85  O   UNL A   1      43.437  37.843  33.237  1.00  0.00    -0.744 OA
ENDBRANCH  81  82
ENDBRANCH  49  74
BRANCH  61  86
ATOM     86  C   UNL A   1      48.222  27.731  30.060  1.00  0.00     0.058 A 
ATOM     87  C   UNL A   1      48.728  27.067  31.187  1.00  0.00     0.135 A 
ATOM     88  C   UNL A   1      49.126  28.120  29.060  1.00  0.00     0.135 A 
ATOM     89  F   UNL A   1      47.902  26.683  32.172  1.00  0.00    -0.206 F 
ATOM     90  C   UNL A   1      50.084  26.787  31.313  1.00  0.00     0.059 A 
ATOM     91  C   UNL A   1      50.484  27.836  29.157  1.00  0.00     0.059 A 
ATOM     92  F   UNL A   1      48.686  28.753  27.960  1.00  0.00    -0.206 F 
ATOM     93  C   UNL A   1      50.954  27.168  30.288  1.00  0.00     0.060 A 
BRANCH  93  94
ATOM     94  S   UNL A   1      52.699  26.727  30.427  1.00  0.00     0.124 S 
ATOM     95  O   UNL A   1      53.299  28.007  30.782  1.00  0.00    -0.237 OA
ATOM     96  O   UNL A   1      52.684  25.719  31.483  1.00  0.00    -0.237 OA
ATOM     97  O   UNL A   1      53.028  26.225  29.096  1.00  0.00    -0.744 OA
ENDBRANCH  93  94
ENDBRANCH  61  86
ENDBRANCH  35  36
ENDBRANCH  27  30
ENDBRANCH  25  26
ENDBRANCH   1  25
TORSDOF 15
ENDMDL
MODEL 3
REMARK VINA RESULT:     -11.8      3.090      9.313
REMARK SMILES Cc1c(Cl)cc2c(c1C)O[C@H](C(F)(F)F)C(C(=O)NCCCCNC(=O)c1ccc(-c3c4nc(c(-c5c(F)cc(S(=O)(=O)[O-])cc5F)c5ccc([nH]5)c(-c5c(F)cc(S(=O)(=O)[O-])cc5F)c5nc(c(-c6c(F)cc(S(=O)(=O)[O-])cc6F)c6ccc3[nH]6)C=C5)C=C4)cc1)=C2
REMARK SMILES IDX 22 1 21 2 20 3 19 4 17 5 18 6 16 8 1 9 2 10 3 11 8 12 4 13
REMARK SMILES IDX 5 14 7 15 9 16 6 17 10 18 93 19 11 20 12 21 13 22 14 23
REMARK SMILES IDX 15 24 23 25 24 26 25 27 26 29 27 30 28 31 92 32 29 33 91 34
REMARK SMILES IDX 30 35 31 36 32 37 85 38 33 39 90 40 84 41 86 42 34 43 89 44
REMARK SMILES IDX 83 45 82 46 35 48 69 49 48 50 68 51 49 52 52 53 67 54 87 55
REMARK SMILES IDX 50 56 51 57 66 59 88 60 53 61 36 62 37 63 46 64 38 65 39 66
REMARK SMILES IDX 45 67 47 68 40 69 41 70 42 71 43 72 44 73 70 74 71 75 80 76
REMARK SMILES IDX 72 77 73 78 79 79 81 80 74 81 75 82 76 83 77 84 78 85 54 86
REMARK SMILES IDX 55 87 64 88 56 89 57 90 63 91 65 92 58 93 59 94 60 95 61 96
REMARK SMILES IDX 62 97
REMARK H PARENT 19 7 24 28 86 47 52 58
REMARK Flexibility Score: inf
ROOT
ATOM      1  C   UNL A   1      36.176  23.203  24.192  1.00  0.00     0.023 C 
ENDROOT
BRANCH   1   2
ATOM      2  C   UNL A   1      35.132  22.204  24.697  1.00  0.00     0.023 C 
BRANCH   2   3
ATOM      3  C   UNL A   1      33.703  22.526  24.270  1.00  0.00     0.116 C 
BRANCH   3   4
ATOM      4  N   UNL A   1      33.633  22.962  22.887  1.00  0.00    -0.352 N 
ATOM      5  C   UNL A   1      33.253  24.079  22.224  1.00  0.00     0.251 C 
ATOM      6  O   UNL A   1      33.356  24.025  20.995  1.00  0.00    -0.270 OA
ATOM      7  H   UNL A   1      33.943  22.261  22.269  1.00  0.00     0.163 HD
BRANCH   5   8
ATOM      8  C   UNL A   1      32.736  25.327  22.861  1.00  0.00     0.067 C 
ATOM      9  C   UNL A   1      31.854  30.841  26.277  1.00  0.00     0.046 C 
ATOM     10  C   UNL A   1      32.311  29.564  25.619  1.00  0.00    -0.026 A 
ATOM     11  C   UNL A   1      33.514  28.928  25.991  1.00  0.00     0.045 A 
ATOM     12  C   UNL A   1      31.538  28.990  24.579  1.00  0.00    -0.004 A 
ATOM     13  Cl  UNL A   1      34.554  29.560  27.222  1.00  0.00    -0.084 Cl
ATOM     14  C   UNL A   1      33.934  27.748  25.366  1.00  0.00     0.032 A 
ATOM     15  C   UNL A   1      31.970  27.791  23.979  1.00  0.00     0.131 A 
ATOM     16  C   UNL A   1      30.241  29.596  24.098  1.00  0.00     0.049 C 
ATOM     17  C   UNL A   1      33.162  27.174  24.359  1.00  0.00     0.019 A 
ATOM     18  O   UNL A   1      31.199  27.283  22.967  1.00  0.00    -0.475 OA
ATOM     19  C   UNL A   1      33.600  25.965  23.673  1.00  0.00     0.025 C 
ATOM     20  C   UNL A   1      31.344  25.862  22.688  1.00  0.00     0.314 C 
BRANCH  20  21
ATOM     21  C   UNL A   1      30.299  25.076  23.500  1.00  0.00     0.429 C 
ATOM     22  F   UNL A   1      30.081  23.859  22.939  1.00  0.00    -0.167 F 
ATOM     23  F   UNL A   1      30.695  24.847  24.774  1.00  0.00    -0.167 F 
ATOM     24  F   UNL A   1      29.105  25.708  23.566  1.00  0.00    -0.167 F 
ENDBRANCH  20  21
ENDBRANCH   5   8
ENDBRANCH   3   4
ENDBRANCH   2   3
ENDBRANCH   1   2
BRANCH   1  25
ATOM     25  C   UNL A   1      37.177  23.694  25.236  1.00  0.00     0.116 C 
BRANCH  25  26
ATOM     26  N   UNL A   1      38.334  22.824  25.400  1.00  0.00    -0.352 N 
ATOM     27  C   UNL A   1      39.490  23.084  26.099  1.00  0.00     0.251 C 
ATOM     28  H   UNL A   1      38.283  21.945  24.958  1.00  0.00     0.163 HD
ATOM     29  O   UNL A   1      40.416  22.282  26.103  1.00  0.00    -0.269 OA
BRANCH  27  30
ATOM     30  C   UNL A   1      39.605  24.375  26.802  1.00  0.00     0.039 A 
ATOM     31  C   UNL A   1      39.069  24.489  28.085  1.00  0.00     0.014 A 
ATOM     32  C   UNL A   1      40.334  25.423  26.231  1.00  0.00     0.014 A 
ATOM     33  C   UNL A   1      39.332  25.634  28.834  1.00  0.00     0.010 A 
ATOM     34  C   UNL A   1      40.643  26.538  27.001  1.00  0.00     0.010 A 
ATOM     35  C   UNL A   1      40.154  26.648  28.313  1.00  0.00    -0.014 A 
BRANCH  35  36
ATOM     36  C   UNL A   1      40.522  27.823  29.137  1.00  0.00     0.031 A 
ATOM     37  C   UNL A   1      41.851  27.863  29.833  1.00  0.00     0.074 A 
ATOM     38  C   UNL A   1      39.639  28.829  29.288  1.00  0.00     0.049 A 
ATOM     39  N   UNL A   1      42.345  28.794  30.606  1.00  0.00    -0.248 NA
ATOM     40  C   UNL A   1      42.730  26.697  29.654  1.00  0.00     0.031 C 
ATOM     41  C   UNL A   1      38.298  28.875  28.701  1.00  0.00     0.029 A 
ATOM     42  N   UNL A   1      39.738  30.010  29.980  1.00  0.00    -0.354 N 
ATOM     43  C   UNL A   1      43.590  28.327  31.007  1.00  0.00     0.074 A 
ATOM     44  C   UNL A   1      43.751  27.006  30.440  1.00  0.00     0.031 C 
ATOM     45  C   UNL A   1      37.716  30.042  29.023  1.00  0.00     0.029 A 
ATOM     46  C   UNL A   1      38.630  30.815  29.858  1.00  0.00     0.049 A 
ATOM     47  H   UNL A   1      40.527  30.258  30.512  1.00  0.00     0.167 HD
ATOM     48  C   UNL A   1      44.527  28.956  31.753  1.00  0.00     0.037 A 
ATOM     49  C   UNL A   1      38.386  32.042  30.356  1.00  0.00     0.037 A 
ATOM     50  C   UNL A   1      44.374  30.280  32.290  1.00  0.00     0.049 A 
ATOM     51  C   UNL A   1      39.440  32.720  31.186  1.00  0.00     0.074 A 
ATOM     52  C   UNL A   1      45.285  31.025  33.017  1.00  0.00     0.029 A 
ATOM     53  N   UNL A   1      43.234  31.060  32.153  1.00  0.00    -0.354 N 
ATOM     54  N   UNL A   1      40.633  32.285  31.513  1.00  0.00    -0.248 NA
ATOM     55  C   UNL A   1      39.117  34.052  31.717  1.00  0.00     0.031 C 
ATOM     56  C   UNL A   1      44.687  32.249  33.339  1.00  0.00     0.029 A 
ATOM     57  C   UNL A   1      43.414  32.275  32.791  1.00  0.00     0.049 A 
ATOM     58  H   UNL A   1      42.420  30.790  31.672  1.00  0.00     0.167 HD
ATOM     59  C   UNL A   1      41.209  33.294  32.274  1.00  0.00     0.074 A 
ATOM     60  C   UNL A   1      40.239  34.366  32.354  1.00  0.00     0.031 C 
ATOM     61  C   UNL A   1      42.433  33.328  32.855  1.00  0.00     0.037 A 
BRANCH  48  62
ATOM     62  C   UNL A   1      45.809  28.220  32.005  1.00  0.00     0.058 A 
ATOM     63  C   UNL A   1      45.949  27.360  33.105  1.00  0.00     0.135 A 
ATOM     64  C   UNL A   1      46.906  28.364  31.140  1.00  0.00     0.135 A 
ATOM     65  F   UNL A   1      44.936  27.202  33.973  1.00  0.00    -0.206 F 
ATOM     66  C   UNL A   1      47.141  26.692  33.359  1.00  0.00     0.059 A 
ATOM     67  C   UNL A   1      48.102  27.689  31.362  1.00  0.00     0.059 A 
ATOM     68  F   UNL A   1      46.824  29.178  30.075  1.00  0.00    -0.206 F 
ATOM     69  C   UNL A   1      48.215  26.868  32.484  1.00  0.00     0.060 A 
BRANCH  69  70
ATOM     70  S   UNL A   1      49.760  26.004  32.833  1.00  0.00     0.124 S 
ATOM     71  O   UNL A   1      49.457  25.377  34.116  1.00  0.00    -0.237 OA
ATOM     72  O   UNL A   1      49.877  25.095  31.697  1.00  0.00    -0.237 OA
ATOM     73  O   UNL A   1      50.748  27.079  32.876  1.00  0.00    -0.744 OA
ENDBRANCH  69  70
ENDBRANCH  48  62
BRANCH  49  74
ATOM     74  C   UNL A   1      37.109  32.729  30.035  1.00  0.00     0.058 A 
ATOM     75  C   UNL A   1      35.966  32.510  30.818  1.00  0.00     0.135 A 
ATOM     76  C   UNL A   1      37.010  33.637  28.970  1.00  0.00     0.135 A 
ATOM     77  F   UNL A   1      36.013  31.647  31.845  1.00  0.00    -0.206 F 
ATOM     78  C   UNL A   1      34.768  33.165  30.557  1.00  0.00     0.059 A 
ATOM     79  C   UNL A   1      35.826  34.316  28.698  1.00  0.00     0.059 A 
ATOM     80  F   UNL A   1      38.081  33.889  28.202  1.00  0.00    -0.206 F 
ATOM     81  C   UNL A   1      34.709  34.070  29.496  1.00  0.00     0.060 A 
BRANCH  81  82
ATOM     82  S   UNL A   1      33.166  34.965  29.206  1.00  0.00     0.124 S 
ATOM     83  O   UNL A   1      32.538  34.142  28.180  1.00  0.00    -0.237 OA
ATOM     84  O   UNL A   1      32.540  34.931  30.524  1.00  0.00    -0.237 OA
ATOM     85  O   UNL A   1      33.621  36.282  28.771  1.00  0.00    -0.744 OA
ENDBRANCH  81  82
ENDBRANCH  49  74
BRANCH  61  86
ATOM     86  C   UNL A   1      42.802  34.560  33.628  1.00  0.00     0.058 A 
ATOM     87  C   UNL A   1      42.710  34.592  35.027  1.00  0.00     0.135 A 
ATOM     88  C   UNL A   1      43.349  35.675  32.974  1.00  0.00     0.135 A 
ATOM     89  F   UNL A   1      42.187  33.551  35.693  1.00  0.00    -0.206 F 
ATOM     90  C   UNL A   1      43.155  35.689  35.756  1.00  0.00     0.059 A 
ATOM     91  C   UNL A   1      43.815  36.776  33.684  1.00  0.00     0.059 A 
ATOM     92  F   UNL A   1      43.462  35.686  31.636  1.00  0.00    -0.206 F 
ATOM     93  C   UNL A   1      43.715  36.774  35.075  1.00  0.00     0.060 A 
BRANCH  93  94
ATOM     94  S   UNL A   1      44.364  38.156  36.038  1.00  0.00     0.124 S 
ATOM     95  O   UNL A   1      43.551  38.079  37.247  1.00  0.00    -0.237 OA
ATOM     96  O   UNL A   1      45.770  37.796  36.196  1.00  0.00    -0.237 OA
ATOM     97  O   UNL A   1      44.112  39.312  35.183  1.00  0.00    -0.744 OA
ENDBRANCH  93  94
ENDBRANCH  61  86
ENDBRANCH  35  36
ENDBRANCH  27  30
ENDBRANCH  25  26
ENDBRANCH   1  25
TORSDOF 15
ENDMDL
