MODEL 1
REMARK VINA RESULT:     -12.5      0.000      0.000
REMARK SMILES C[C@@H]1CCC[C@@]1(C(=O)NCCCCNC(=O)c1ccc(-c2c3nc(c(-c4c(F)cc(S(=O)(=O)[O-])cc4F)c4ccc([nH]4)c(-c4c(F)cc(S(=O)(=O)[O-])cc4F)c4nc(c(-c5c(F)cc(S(=O)(=O)[O-])cc5F)c5ccc2[nH]5)C=C4)C=C3)cc1)c1ccc(Cl)cc1Cl
REMARK SMILES IDX 12 1 11 2 10 3 9 4 7 5 8 6 6 8 1 9 2 10 3 11 4 12 5 13 83 14
REMARK SMILES IDX 84 15 89 16 85 17 88 18 90 19 86 20 87 21 13 22 14 23 15 24
REMARK SMILES IDX 16 26 17 27 18 28 82 29 19 30 81 31 20 32 21 33 22 34 75 35
REMARK SMILES IDX 23 36 80 37 74 38 76 39 24 40 79 41 73 42 72 43 25 45 59 46
REMARK SMILES IDX 38 47 58 48 39 49 42 50 57 51 77 52 40 53 41 54 56 56 78 57
REMARK SMILES IDX 43 58 26 59 27 60 36 61 28 62 29 63 35 64 37 65 30 66 31 67
REMARK SMILES IDX 32 68 33 69 34 70 60 71 61 72 70 73 62 74 63 75 69 76 71 77
REMARK SMILES IDX 64 78 65 79 66 80 67 81 68 82 44 83 45 84 54 85 46 86 47 87
REMARK SMILES IDX 53 88 55 89 48 90 49 91 50 92 51 93 52 94
REMARK H PARENT 9 7 14 25 76 44 42 55
REMARK Flexibility Score: inf
ROOT
ATOM      1  C   UNL A   1      37.476  23.698  26.075  1.00  0.00     0.023 C 
ENDROOT
BRANCH   1   2
ATOM      2  C   UNL A   1      37.730  22.278  25.586  1.00  0.00     0.023 C 
BRANCH   2   3
ATOM      3  C   UNL A   1      36.478  21.535  25.135  1.00  0.00     0.116 C 
BRANCH   3   4
ATOM      4  N   UNL A   1      35.538  21.314  26.215  1.00  0.00    -0.355 N 
ATOM      5  C   UNL A   1      34.221  21.680  26.321  1.00  0.00     0.230 C 
ATOM      6  O   UNL A   1      33.627  21.377  27.359  1.00  0.00    -0.274 OA
ATOM      7  H   UNL A   1      35.898  20.826  26.991  1.00  0.00     0.163 HD
BRANCH   5   8
ATOM      8  C   UNL A   1      33.549  22.511  25.190  1.00  0.00     0.078 C 
ATOM      9  C   UNL A   1      32.608  20.104  24.656  1.00  0.00     0.009 C 
ATOM     10  C   UNL A   1      32.356  21.631  24.635  1.00  0.00     0.006 C 
ATOM     11  C   UNL A   1      32.178  22.034  23.164  1.00  0.00     0.005 C 
ATOM     12  C   UNL A   1      33.495  22.656  22.726  1.00  0.00     0.002 C 
ATOM     13  C   UNL A   1      34.441  22.607  23.928  1.00  0.00     0.022 C 
BRANCH   8  14
ATOM     14  C   UNL A   1      33.219  23.963  25.668  1.00  0.00    -0.013 A 
ATOM     15  C   UNL A   1      34.137  25.014  25.464  1.00  0.00     0.008 A 
ATOM     16  C   UNL A   1      31.976  24.326  26.253  1.00  0.00     0.046 A 
ATOM     17  C   UNL A   1      33.813  26.350  25.736  1.00  0.00     0.021 A 
ATOM     18  C   UNL A   1      31.635  25.670  26.475  1.00  0.00     0.041 A 
ATOM     19  Cl  UNL A   1      30.782  23.186  26.770  1.00  0.00    -0.084 Cl
ATOM     20  C   UNL A   1      32.551  26.674  26.206  1.00  0.00     0.042 A 
ATOM     21  Cl  UNL A   1      32.127  28.320  26.463  1.00  0.00    -0.084 Cl
ENDBRANCH   8  14
ENDBRANCH   5   8
ENDBRANCH   3   4
ENDBRANCH   2   3
ENDBRANCH   1   2
BRANCH   1  22
ATOM     22  C   UNL A   1      38.640  24.327  26.830  1.00  0.00     0.116 C 
BRANCH  22  23
ATOM     23  N   UNL A   1      39.854  24.435  26.029  1.00  0.00    -0.352 N 
ATOM     24  C   UNL A   1      40.944  25.247  26.232  1.00  0.00     0.251 C 
ATOM     25  H   UNL A   1      39.899  23.850  25.239  1.00  0.00     0.163 HD
ATOM     26  O   UNL A   1      41.843  25.304  25.401  1.00  0.00    -0.269 OA
BRANCH  24  27
ATOM     27  C   UNL A   1      40.987  26.074  27.452  1.00  0.00     0.039 A 
ATOM     28  C   UNL A   1      41.854  27.166  27.500  1.00  0.00     0.014 A 
ATOM     29  C   UNL A   1      40.100  25.816  28.501  1.00  0.00     0.014 A 
ATOM     30  C   UNL A   1      41.774  28.051  28.574  1.00  0.00     0.010 A 
ATOM     31  C   UNL A   1      39.963  26.746  29.522  1.00  0.00     0.010 A 
ATOM     32  C   UNL A   1      40.799  27.872  29.570  1.00  0.00    -0.014 A 
BRANCH  32  33
ATOM     33  C   UNL A   1      40.639  28.846  30.677  1.00  0.00     0.031 A 
ATOM     34  C   UNL A   1      41.496  28.723  31.906  1.00  0.00     0.074 A 
ATOM     35  C   UNL A   1      39.678  29.788  30.604  1.00  0.00     0.049 A 
ATOM     36  N   UNL A   1      41.463  29.426  33.009  1.00  0.00    -0.248 NA
ATOM     37  C   UNL A   1      42.499  27.645  31.912  1.00  0.00     0.031 C 
ATOM     38  C   UNL A   1      38.741  29.962  29.492  1.00  0.00     0.029 A 
ATOM     39  N   UNL A   1      39.323  30.774  31.491  1.00  0.00    -0.354 N 
ATOM     40  C   UNL A   1      42.422  28.864  33.842  1.00  0.00     0.074 A 
ATOM     41  C   UNL A   1      42.978  27.726  33.145  1.00  0.00     0.031 C 
ATOM     42  C   UNL A   1      37.939  31.008  29.749  1.00  0.00     0.029 A 
ATOM     43  C   UNL A   1      38.281  31.559  31.057  1.00  0.00     0.049 A 
ATOM     44  H   UNL A   1      39.774  30.907  32.356  1.00  0.00     0.167 HD
ATOM     45  C   UNL A   1      42.824  29.277  35.067  1.00  0.00     0.037 A 
ATOM     46  C   UNL A   1      37.673  32.605  31.647  1.00  0.00     0.037 A 
ATOM     47  C   UNL A   1      42.296  30.435  35.736  1.00  0.00     0.049 A 
ATOM     48  C   UNL A   1      38.160  33.066  32.994  1.00  0.00     0.074 A 
ATOM     49  C   UNL A   1      42.679  30.980  36.948  1.00  0.00     0.029 A 
ATOM     50  N   UNL A   1      41.269  31.230  35.247  1.00  0.00    -0.354 N 
ATOM     51  N   UNL A   1      39.116  32.565  33.740  1.00  0.00    -0.248 NA
ATOM     52  C   UNL A   1      37.494  34.239  33.576  1.00  0.00     0.031 C 
ATOM     53  C   UNL A   1      41.864  32.087  37.207  1.00  0.00     0.029 A 
ATOM     54  C   UNL A   1      40.999  32.255  36.137  1.00  0.00     0.049 A 
ATOM     55  H   UNL A   1      40.802  31.087  34.392  1.00  0.00     0.167 HD
ATOM     56  C   UNL A   1      39.183  33.376  34.867  1.00  0.00     0.074 A 
ATOM     57  C   UNL A   1      38.180  34.408  34.699  1.00  0.00     0.031 C 
ATOM     58  C   UNL A   1      40.002  33.277  35.944  1.00  0.00     0.037 A 
BRANCH  45  59
ATOM     59  C   UNL A   1      43.901  28.479  35.748  1.00  0.00     0.058 A 
ATOM     60  C   UNL A   1      43.594  27.437  36.638  1.00  0.00     0.135 A 
ATOM     61  C   UNL A   1      45.256  28.746  35.496  1.00  0.00     0.135 A 
ATOM     62  F   UNL A   1      42.314  27.152  36.929  1.00  0.00    -0.206 F 
ATOM     63  C   UNL A   1      44.590  26.709  37.279  1.00  0.00     0.059 A 
ATOM     64  C   UNL A   1      46.270  28.011  36.105  1.00  0.00     0.059 A 
ATOM     65  F   UNL A   1      45.607  29.732  34.656  1.00  0.00    -0.206 F 
ATOM     66  C   UNL A   1      45.926  27.005  37.007  1.00  0.00     0.060 A 
BRANCH  66  67
ATOM     67  S   UNL A   1      47.207  26.049  37.845  1.00  0.00     0.124 S 
ATOM     68  O   UNL A   1      46.522  25.662  39.075  1.00  0.00    -0.237 OA
ATOM     69  O   UNL A   1      47.464  24.970  36.897  1.00  0.00    -0.237 OA
ATOM     70  O   UNL A   1      48.295  27.008  38.008  1.00  0.00    -0.744 OA
ENDBRANCH  66  67
ENDBRANCH  45  59
BRANCH  46  71
ATOM     71  C   UNL A   1      36.562  33.310  30.954  1.00  0.00     0.058 A 
ATOM     72  C   UNL A   1      35.235  33.163  31.386  1.00  0.00     0.135 A 
ATOM     73  C   UNL A   1      36.803  34.156  29.860  1.00  0.00     0.135 A 
ATOM     74  F   UNL A   1      34.954  32.364  32.426  1.00  0.00    -0.206 F 
ATOM     75  C   UNL A   1      34.184  33.813  30.748  1.00  0.00     0.059 A 
ATOM     76  C   UNL A   1      35.772  34.834  29.219  1.00  0.00     0.059 A 
ATOM     77  F   UNL A   1      38.057  34.345  29.420  1.00  0.00    -0.206 F 
ATOM     78  C   UNL A   1      34.462  34.649  29.665  1.00  0.00     0.060 A 
BRANCH  78  79
ATOM     79  S   UNL A   1      33.097  35.527  28.874  1.00  0.00     0.124 S 
ATOM     80  O   UNL A   1      32.362  36.028  30.030  1.00  0.00    -0.237 OA
ATOM     81  O   UNL A   1      33.796  36.530  28.077  1.00  0.00    -0.237 OA
ATOM     82  O   UNL A   1      32.429  34.481  28.104  1.00  0.00    -0.744 OA
ENDBRANCH  78  79
ENDBRANCH  46  71
BRANCH  58  83
ATOM     83  C   UNL A   1      39.869  34.330  37.008  1.00  0.00     0.058 A 
ATOM     84  C   UNL A   1      40.497  35.579  36.890  1.00  0.00     0.135 A 
ATOM     85  C   UNL A   1      39.061  34.103  38.133  1.00  0.00     0.135 A 
ATOM     86  F   UNL A   1      41.284  35.843  35.835  1.00  0.00    -0.206 F 
ATOM     87  C   UNL A   1      40.347  36.560  37.864  1.00  0.00     0.059 A 
ATOM     88  C   UNL A   1      38.877  35.079  39.107  1.00  0.00     0.059 A 
ATOM     89  F   UNL A   1      38.429  32.928  38.287  1.00  0.00    -0.206 F 
ATOM     90  C   UNL A   1      39.534  36.301  38.969  1.00  0.00     0.060 A 
BRANCH  90  91
ATOM     91  S   UNL A   1      39.321  37.593  40.211  1.00  0.00     0.124 S 
ATOM     92  O   UNL A   1      40.661  38.167  40.270  1.00  0.00    -0.237 OA
ATOM     93  O   UNL A   1      38.295  38.440  39.609  1.00  0.00    -0.237 OA
ATOM     94  O   UNL A   1      38.899  36.856  41.398  1.00  0.00    -0.744 OA
ENDBRANCH  90  91
ENDBRANCH  58  83
ENDBRANCH  32  33
ENDBRANCH  24  27
ENDBRANCH  22  23
ENDBRANCH   1  22
TORSDOF 15
ENDMDL
MODEL 2
REMARK VINA RESULT:     -12.5      4.955     10.338
REMARK SMILES C[C@@H]1CCC[C@@]1(C(=O)NCCCCNC(=O)c1ccc(-c2c3nc(c(-c4c(F)cc(S(=O)(=O)[O-])cc4F)c4ccc([nH]4)c(-c4c(F)cc(S(=O)(=O)[O-])cc4F)c4nc(c(-c5c(F)cc(S(=O)(=O)[O-])cc5F)c5ccc2[nH]5)C=C4)C=C3)cc1)c1ccc(Cl)cc1Cl
REMARK SMILES IDX 12 1 11 2 10 3 9 4 7 5 8 6 6 8 1 9 2 10 3 11 4 12 5 13 83 14
REMARK SMILES IDX 84 15 89 16 85 17 88 18 90 19 86 20 87 21 13 22 14 23 15 24
REMARK SMILES IDX 16 26 17 27 18 28 82 29 19 30 81 31 20 32 21 33 22 34 75 35
REMARK SMILES IDX 23 36 80 37 74 38 76 39 24 40 79 41 73 42 72 43 25 45 59 46
REMARK SMILES IDX 38 47 58 48 39 49 42 50 57 51 77 52 40 53 41 54 56 56 78 57
REMARK SMILES IDX 43 58 26 59 27 60 36 61 28 62 29 63 35 64 37 65 30 66 31 67
REMARK SMILES IDX 32 68 33 69 34 70 60 71 61 72 70 73 62 74 63 75 69 76 71 77
REMARK SMILES IDX 64 78 65 79 66 80 67 81 68 82 44 83 45 84 54 85 46 86 47 87
REMARK SMILES IDX 53 88 55 89 48 90 49 91 50 92 51 93 52 94
REMARK H PARENT 9 7 14 25 76 44 42 55
REMARK Flexibility Score: inf
ROOT
ATOM      1  C   UNL A   1      33.736  28.307  25.784  1.00  0.00     0.023 C 
ENDROOT
BRANCH   1   2
ATOM      2  C   UNL A   1      32.796  27.312  25.115  1.00  0.00     0.023 C 
BRANCH   2   3
ATOM      3  C   UNL A   1      33.195  25.853  25.294  1.00  0.00     0.116 C 
BRANCH   3   4
ATOM      4  N   UNL A   1      32.175  25.070  25.962  1.00  0.00    -0.355 N 
ATOM      5  C   UNL A   1      31.870  23.739  25.840  1.00  0.00     0.230 C 
ATOM      6  O   UNL A   1      30.939  23.303  26.522  1.00  0.00    -0.274 OA
ATOM      7  H   UNL A   1      31.616  25.568  26.601  1.00  0.00     0.163 HD
BRANCH   5   8
ATOM      8  C   UNL A   1      32.638  22.853  24.817  1.00  0.00     0.078 C 
ATOM      9  C   UNL A   1      30.679  23.764  23.302  1.00  0.00     0.009 C 
ATOM     10  C   UNL A   1      32.155  23.305  23.379  1.00  0.00     0.006 C 
ATOM     11  C   UNL A   1      32.287  22.069  22.478  1.00  0.00     0.005 C 
ATOM     12  C   UNL A   1      32.288  20.861  23.402  1.00  0.00     0.002 C 
ATOM     13  C   UNL A   1      32.146  21.385  24.833  1.00  0.00     0.022 C 
BRANCH   8  14
ATOM     14  C   UNL A   1      34.176  22.857  25.101  1.00  0.00    -0.013 A 
ATOM     15  C   UNL A   1      35.091  23.247  24.100  1.00  0.00     0.008 A 
ATOM     16  C   UNL A   1      34.734  22.552  26.372  1.00  0.00     0.046 A 
ATOM     17  C   UNL A   1      36.457  23.412  24.364  1.00  0.00     0.021 A 
ATOM     18  C   UNL A   1      36.094  22.770  26.646  1.00  0.00     0.041 A 
ATOM     19  Cl  UNL A   1      33.834  21.872  27.683  1.00  0.00    -0.084 Cl
ATOM     20  C   UNL A   1      36.945  23.208  25.644  1.00  0.00     0.042 A 
ATOM     21  Cl  UNL A   1      38.607  23.489  25.985  1.00  0.00    -0.084 Cl
ENDBRANCH   8  14
ENDBRANCH   5   8
ENDBRANCH   3   4
ENDBRANCH   2   3
ENDBRANCH   1   2
BRANCH   1  22
ATOM     22  C   UNL A   1      33.501  28.496  27.277  1.00  0.00     0.116 C 
BRANCH  22  23
ATOM     23  N   UNL A   1      33.451  29.898  27.679  1.00  0.00    -0.352 N 
ATOM     24  C   UNL A   1      34.444  30.664  28.238  1.00  0.00     0.251 C 
ATOM     25  H   UNL A   1      32.592  30.354  27.530  1.00  0.00     0.163 HD
ATOM     26  O   UNL A   1      34.210  31.803  28.628  1.00  0.00    -0.269 OA
BRANCH  24  27
ATOM     27  C   UNL A   1      35.786  30.072  28.394  1.00  0.00     0.039 A 
ATOM     28  C   UNL A   1      36.674  30.113  27.318  1.00  0.00     0.014 A 
ATOM     29  C   UNL A   1      36.184  29.567  29.633  1.00  0.00     0.014 A 
ATOM     30  C   UNL A   1      37.996  29.716  27.512  1.00  0.00     0.010 A 
ATOM     31  C   UNL A   1      37.521  29.257  29.846  1.00  0.00     0.010 A 
ATOM     32  C   UNL A   1      38.439  29.327  28.787  1.00  0.00    -0.014 A 
BRANCH  32  33
ATOM     33  C   UNL A   1      39.860  28.981  29.037  1.00  0.00     0.031 A 
ATOM     34  C   UNL A   1      40.790  30.018  29.603  1.00  0.00     0.074 A 
ATOM     35  C   UNL A   1      40.323  27.765  28.685  1.00  0.00     0.049 A 
ATOM     36  N   UNL A   1      42.077  29.938  29.826  1.00  0.00    -0.248 NA
ATOM     37  C   UNL A   1      40.205  31.329  29.928  1.00  0.00     0.031 C 
ATOM     38  C   UNL A   1      39.530  26.701  28.065  1.00  0.00     0.029 A 
ATOM     39  N   UNL A   1      41.578  27.221  28.792  1.00  0.00    -0.354 N 
ATOM     40  C   UNL A   1      42.455  31.189  30.296  1.00  0.00     0.074 A 
ATOM     41  C   UNL A   1      41.277  32.028  30.270  1.00  0.00     0.031 C 
ATOM     42  C   UNL A   1      40.310  25.624  27.873  1.00  0.00     0.029 A 
ATOM     43  C   UNL A   1      41.663  25.930  28.326  1.00  0.00     0.049 A 
ATOM     44  H   UNL A   1      42.346  27.709  29.169  1.00  0.00     0.167 HD
ATOM     45  C   UNL A   1      43.669  31.595  30.739  1.00  0.00     0.037 A 
ATOM     46  C   UNL A   1      42.714  25.090  28.270  1.00  0.00     0.037 A 
ATOM     47  C   UNL A   1      44.825  30.742  30.801  1.00  0.00     0.049 A 
ATOM     48  C   UNL A   1      44.045  25.552  28.799  1.00  0.00     0.074 A 
ATOM     49  C   UNL A   1      46.084  31.032  31.295  1.00  0.00     0.029 A 
ATOM     50  N   UNL A   1      44.862  29.428  30.358  1.00  0.00    -0.354 N 
ATOM     51  N   UNL A   1      44.371  26.718  29.305  1.00  0.00    -0.248 NA
ATOM     52  C   UNL A   1      45.149  24.584  28.759  1.00  0.00     0.031 C 
ATOM     53  C   UNL A   1      46.891  29.902  31.122  1.00  0.00     0.029 A 
ATOM     54  C   UNL A   1      46.124  28.897  30.557  1.00  0.00     0.049 A 
ATOM     55  H   UNL A   1      44.102  28.944  29.961  1.00  0.00     0.167 HD
ATOM     56  C   UNL A   1      45.708  26.615  29.666  1.00  0.00     0.074 A 
ATOM     57  C   UNL A   1      46.129  25.269  29.333  1.00  0.00     0.031 C 
ATOM     58  C   UNL A   1      46.517  27.550  30.225  1.00  0.00     0.037 A 
BRANCH  45  59
ATOM     59  C   UNL A   1      43.795  33.017  31.206  1.00  0.00     0.058 A 
ATOM     60  C   UNL A   1      44.130  34.056  30.322  1.00  0.00     0.135 A 
ATOM     61  C   UNL A   1      43.563  33.351  32.550  1.00  0.00     0.135 A 
ATOM     62  F   UNL A   1      44.381  33.789  29.031  1.00  0.00    -0.206 F 
ATOM     63  C   UNL A   1      44.261  35.370  30.758  1.00  0.00     0.059 A 
ATOM     64  C   UNL A   1      43.662  34.665  33.003  1.00  0.00     0.059 A 
ATOM     65  F   UNL A   1      43.243  32.398  33.439  1.00  0.00    -0.206 F 
ATOM     66  C   UNL A   1      44.028  35.664  32.102  1.00  0.00     0.060 A 
BRANCH  66  67
ATOM     67  S   UNL A   1      44.199  37.374  32.651  1.00  0.00     0.124 S 
ATOM     68  O   UNL A   1      45.547  37.364  33.213  1.00  0.00    -0.237 OA
ATOM     69  O   UNL A   1      44.038  38.121  31.408  1.00  0.00    -0.237 OA
ATOM     70  O   UNL A   1      43.116  37.531  33.618  1.00  0.00    -0.744 OA
ENDBRANCH  66  67
ENDBRANCH  45  59
BRANCH  46  71
ATOM     71  C   UNL A   1      42.543  23.716  27.728  1.00  0.00     0.058 A 
ATOM     72  C   UNL A   1      42.538  23.484  26.345  1.00  0.00     0.135 A 
ATOM     73  C   UNL A   1      42.396  22.608  28.577  1.00  0.00     0.135 A 
ATOM     74  F   UNL A   1      42.673  24.511  25.492  1.00  0.00    -0.206 F 
ATOM     75  C   UNL A   1      42.377  22.205  25.820  1.00  0.00     0.059 A 
ATOM     76  C   UNL A   1      42.256  21.317  28.078  1.00  0.00     0.059 A 
ATOM     77  F   UNL A   1      42.413  22.775  29.909  1.00  0.00    -0.206 F 
ATOM     78  C   UNL A   1      42.237  21.127  26.695  1.00  0.00     0.060 A 
BRANCH  78  79
ATOM     79  S   UNL A   1      42.077  19.466  26.005  1.00  0.00     0.124 S 
ATOM     80  O   UNL A   1      42.927  19.556  24.824  1.00  0.00    -0.237 OA
ATOM     81  O   UNL A   1      42.580  18.632  27.092  1.00  0.00    -0.237 OA
ATOM     82  O   UNL A   1      40.645  19.348  25.747  1.00  0.00    -0.744 OA
ENDBRANCH  78  79
ENDBRANCH  46  71
BRANCH  58  83
ATOM     83  C   UNL A   1      47.928  27.139  30.541  1.00  0.00     0.058 A 
ATOM     84  C   UNL A   1      48.961  27.272  29.601  1.00  0.00     0.135 A 
ATOM     85  C   UNL A   1      48.257  26.657  31.818  1.00  0.00     0.135 A 
ATOM     86  F   UNL A   1      48.697  27.723  28.366  1.00  0.00    -0.206 F 
ATOM     87  C   UNL A   1      50.271  26.918  29.909  1.00  0.00     0.059 A 
ATOM     88  C   UNL A   1      49.564  26.321  32.156  1.00  0.00     0.059 A 
ATOM     89  F   UNL A   1      47.306  26.523  32.757  1.00  0.00    -0.206 F 
ATOM     90  C   UNL A   1      50.562  26.444  31.190  1.00  0.00     0.060 A 
BRANCH  90  91
ATOM     91  S   UNL A   1      52.270  26.018  31.589  1.00  0.00     0.124 S 
ATOM     92  O   UNL A   1      52.933  26.236  30.307  1.00  0.00    -0.237 OA
ATOM     93  O   UNL A   1      52.595  26.976  32.641  1.00  0.00    -0.237 OA
ATOM     94  O   UNL A   1      52.180  24.627  32.022  1.00  0.00    -0.744 OA
ENDBRANCH  90  91
ENDBRANCH  58  83
ENDBRANCH  32  33
ENDBRANCH  24  27
ENDBRANCH  22  23
ENDBRANCH   1  22
TORSDOF 15
ENDMDL
MODEL 3
REMARK VINA RESULT:     -12.2      5.014     10.357
REMARK SMILES C[C@@H]1CCC[C@@]1(C(=O)NCCCCNC(=O)c1ccc(-c2c3nc(c(-c4c(F)cc(S(=O)(=O)[O-])cc4F)c4ccc([nH]4)c(-c4c(F)cc(S(=O)(=O)[O-])cc4F)c4nc(c(-c5c(F)cc(S(=O)(=O)[O-])cc5F)c5ccc2[nH]5)C=C4)C=C3)cc1)c1ccc(Cl)cc1Cl
REMARK SMILES IDX 12 1 11 2 10 3 9 4 7 5 8 6 6 8 1 9 2 10 3 11 4 12 5 13 83 14
REMARK SMILES IDX 84 15 89 16 85 17 88 18 90 19 86 20 87 21 13 22 14 23 15 24
REMARK SMILES IDX 16 26 17 27 18 28 82 29 19 30 81 31 20 32 21 33 22 34 75 35
REMARK SMILES IDX 23 36 80 37 74 38 76 39 24 40 79 41 73 42 72 43 25 45 59 46
REMARK SMILES IDX 38 47 58 48 39 49 42 50 57 51 77 52 40 53 41 54 56 56 78 57
REMARK SMILES IDX 43 58 26 59 27 60 36 61 28 62 29 63 35 64 37 65 30 66 31 67
REMARK SMILES IDX 32 68 33 69 34 70 60 71 61 72 70 73 62 74 63 75 69 76 71 77
REMARK SMILES IDX 64 78 65 79 66 80 67 81 68 82 44 83 45 84 54 85 46 86 47 87
REMARK SMILES IDX 53 88 55 89 48 90 49 91 50 92 51 93 52 94
REMARK H PARENT 9 7 14 25 76 44 42 55
REMARK Flexibility Score: inf
ROOT
ATOM      1  C   UNL A   1      32.943  28.131  25.898  1.00  0.00     0.023 C 
ENDROOT
BRANCH   1   2
ATOM      2  C   UNL A   1      33.851  27.349  24.958  1.00  0.00     0.023 C 
BRANCH   2   3
ATOM      3  C   UNL A   1      33.967  25.865  25.286  1.00  0.00     0.116 C 
BRANCH   3   4
ATOM      4  N   UNL A   1      34.785  25.142  24.333  1.00  0.00    -0.355 N 
ATOM      5  C   UNL A   1      34.447  24.123  23.482  1.00  0.00     0.230 C 
ATOM      6  O   UNL A   1      35.338  23.662  22.763  1.00  0.00    -0.274 OA
ATOM      7  H   UNL A   1      35.727  25.426  24.291  1.00  0.00     0.163 HD
BRANCH   5   8
ATOM      8  C   UNL A   1      33.005  23.540  23.496  1.00  0.00     0.078 C 
ATOM      9  C   UNL A   1      34.220  21.882  25.152  1.00  0.00     0.009 C 
ATOM     10  C   UNL A   1      32.908  22.611  24.775  1.00  0.00     0.006 C 
ATOM     11  C   UNL A   1      31.874  21.528  24.437  1.00  0.00     0.005 C 
ATOM     12  C   UNL A   1      31.797  21.466  22.919  1.00  0.00     0.002 C 
ATOM     13  C   UNL A   1      32.787  22.497  22.373  1.00  0.00     0.022 C 
BRANCH   8  14
ATOM     14  C   UNL A   1      31.933  24.666  23.335  1.00  0.00    -0.013 A 
ATOM     15  C   UNL A   1      30.949  24.872  24.325  1.00  0.00     0.008 A 
ATOM     16  C   UNL A   1      31.923  25.582  22.248  1.00  0.00     0.046 A 
ATOM     17  C   UNL A   1      30.074  25.965  24.290  1.00  0.00     0.021 A 
ATOM     18  C   UNL A   1      31.081  26.705  22.243  1.00  0.00     0.041 A 
ATOM     19  Cl  UNL A   1      32.902  25.410  20.832  1.00  0.00    -0.084 Cl
ATOM     20  C   UNL A   1      30.169  26.896  23.268  1.00  0.00     0.042 A 
ATOM     21  Cl  UNL A   1      29.147  28.279  23.269  1.00  0.00    -0.084 Cl
ENDBRANCH   8  14
ENDBRANCH   5   8
ENDBRANCH   3   4
ENDBRANCH   2   3
ENDBRANCH   1   2
BRANCH   1  22
ATOM     22  C   UNL A   1      33.547  28.425  27.265  1.00  0.00     0.116 C 
BRANCH  22  23
ATOM     23  N   UNL A   1      33.496  29.837  27.626  1.00  0.00    -0.352 N 
ATOM     24  C   UNL A   1      34.490  30.621  28.160  1.00  0.00     0.251 C 
ATOM     25  H   UNL A   1      32.637  30.289  27.466  1.00  0.00     0.163 HD
ATOM     26  O   UNL A   1      34.256  31.771  28.516  1.00  0.00    -0.269 OA
BRANCH  24  27
ATOM     27  C   UNL A   1      35.833  30.035  28.330  1.00  0.00     0.039 A 
ATOM     28  C   UNL A   1      36.724  30.059  27.256  1.00  0.00     0.014 A 
ATOM     29  C   UNL A   1      36.228  29.552  29.579  1.00  0.00     0.014 A 
ATOM     30  C   UNL A   1      38.046  29.668  27.461  1.00  0.00     0.010 A 
ATOM     31  C   UNL A   1      37.565  29.249  29.801  1.00  0.00     0.010 A 
ATOM     32  C   UNL A   1      38.486  29.302  28.744  1.00  0.00    -0.014 A 
BRANCH  32  33
ATOM     33  C   UNL A   1      39.907  28.964  29.004  1.00  0.00     0.031 A 
ATOM     34  C   UNL A   1      40.828  30.005  29.579  1.00  0.00     0.074 A 
ATOM     35  C   UNL A   1      40.380  27.751  28.654  1.00  0.00     0.049 A 
ATOM     36  N   UNL A   1      42.113  29.932  29.811  1.00  0.00    -0.248 NA
ATOM     37  C   UNL A   1      40.233  31.312  29.901  1.00  0.00     0.031 C 
ATOM     38  C   UNL A   1      39.597  26.683  28.026  1.00  0.00     0.029 A 
ATOM     39  N   UNL A   1      41.637  27.214  28.770  1.00  0.00    -0.354 N 
ATOM     40  C   UNL A   1      42.480  31.184  30.286  1.00  0.00     0.074 A 
ATOM     41  C   UNL A   1      41.298  32.017  30.252  1.00  0.00     0.031 C 
ATOM     42  C   UNL A   1      40.385  25.611  27.838  1.00  0.00     0.029 A 
ATOM     43  C   UNL A   1      41.733  25.924  28.302  1.00  0.00     0.049 A 
ATOM     44  H   UNL A   1      42.399  27.706  29.153  1.00  0.00     0.167 HD
ATOM     45  C   UNL A   1      43.688  31.596  30.739  1.00  0.00     0.037 A 
ATOM     46  C   UNL A   1      42.789  25.091  28.253  1.00  0.00     0.037 A 
ATOM     47  C   UNL A   1      44.849  30.750  30.809  1.00  0.00     0.049 A 
ATOM     48  C   UNL A   1      44.113  25.559  28.792  1.00  0.00     0.074 A 
ATOM     49  C   UNL A   1      46.102  31.046  31.313  1.00  0.00     0.029 A 
ATOM     50  N   UNL A   1      44.896  29.437  30.364  1.00  0.00    -0.354 N 
ATOM     51  N   UNL A   1      44.428  26.726  29.303  1.00  0.00    -0.248 NA
ATOM     52  C   UNL A   1      45.223  24.597  28.759  1.00  0.00     0.031 C 
ATOM     53  C   UNL A   1      46.917  29.922  31.143  1.00  0.00     0.029 A 
ATOM     54  C   UNL A   1      46.160  28.913  30.571  1.00  0.00     0.049 A 
ATOM     55  H   UNL A   1      44.142  28.949  29.960  1.00  0.00     0.167 HD
ATOM     56  C   UNL A   1      45.764  26.630  29.674  1.00  0.00     0.074 A 
ATOM     57  C   UNL A   1      46.194  25.287  29.342  1.00  0.00     0.031 C 
ATOM     58  C   UNL A   1      46.563  27.569  30.241  1.00  0.00     0.037 A 
BRANCH  45  59
ATOM     59  C   UNL A   1      43.803  33.019  31.210  1.00  0.00     0.058 A 
ATOM     60  C   UNL A   1      43.629  33.364  32.559  1.00  0.00     0.135 A 
ATOM     61  C   UNL A   1      44.110  34.049  30.305  1.00  0.00     0.135 A 
ATOM     62  F   UNL A   1      43.316  32.421  33.463  1.00  0.00    -0.206 F 
ATOM     63  C   UNL A   1      43.721  34.683  32.992  1.00  0.00     0.059 A 
ATOM     64  C   UNL A   1      44.235  35.371  30.722  1.00  0.00     0.059 A 
ATOM     65  F   UNL A   1      44.285  33.776  29.003  1.00  0.00    -0.206 F 
ATOM     66  C   UNL A   1      44.022  35.680  32.064  1.00  0.00     0.060 A 
BRANCH  66  67
ATOM     67  S   UNL A   1      44.142  37.385  32.643  1.00  0.00     0.124 S 
ATOM     68  O   UNL A   1      43.064  37.434  33.626  1.00  0.00    -0.237 OA
ATOM     69  O   UNL A   1      45.495  37.439  33.184  1.00  0.00    -0.237 OA
ATOM     70  O   UNL A   1      43.923  38.171  31.431  1.00  0.00    -0.744 OA
ENDBRANCH  66  67
ENDBRANCH  45  59
BRANCH  46  71
ATOM     71  C   UNL A   1      42.630  23.716  27.708  1.00  0.00     0.058 A 
ATOM     72  C   UNL A   1      42.746  23.471  26.331  1.00  0.00     0.135 A 
ATOM     73  C   UNL A   1      42.375  22.621  28.548  1.00  0.00     0.135 A 
ATOM     74  F   UNL A   1      42.986  24.486  25.487  1.00  0.00    -0.206 F 
ATOM     75  C   UNL A   1      42.597  22.192  25.803  1.00  0.00     0.059 A 
ATOM     76  C   UNL A   1      42.244  21.330  28.047  1.00  0.00     0.059 A 
ATOM     77  F   UNL A   1      42.274  22.800  29.874  1.00  0.00    -0.206 F 
ATOM     78  C   UNL A   1      42.348  21.127  26.670  1.00  0.00     0.060 A 
BRANCH  78  79
ATOM     79  S   UNL A   1      42.205  19.464  25.980  1.00  0.00     0.124 S 
ATOM     80  O   UNL A   1      42.747  18.651  27.062  1.00  0.00    -0.237 OA
ATOM     81  O   UNL A   1      40.768  19.348  25.752  1.00  0.00    -0.237 OA
ATOM     82  O   UNL A   1      43.019  19.533  24.770  1.00  0.00    -0.744 OA
ENDBRANCH  78  79
ENDBRANCH  46  71
BRANCH  58  83
ATOM     83  C   UNL A   1      47.974  27.165  30.567  1.00  0.00     0.058 A 
ATOM     84  C   UNL A   1      48.319  26.645  31.823  1.00  0.00     0.135 A 
ATOM     85  C   UNL A   1      48.980  27.252  29.591  1.00  0.00     0.135 A 
ATOM     86  F   UNL A   1      47.394  26.546  32.791  1.00  0.00    -0.206 F 
ATOM     87  C   UNL A   1      49.620  26.245  32.110  1.00  0.00     0.059 A 
ATOM     88  C   UNL A   1      50.281  26.836  29.848  1.00  0.00     0.059 A 
ATOM     89  F   UNL A   1      48.698  27.732  28.369  1.00  0.00    -0.206 F 
ATOM     90  C   UNL A   1      50.594  26.344  31.115  1.00  0.00     0.060 A 
BRANCH  90  91
ATOM     91  S   UNL A   1      52.273  25.793  31.487  1.00  0.00     0.124 S 
ATOM     92  O   UNL A   1      52.047  24.403  31.868  1.00  0.00    -0.237 OA
ATOM     93  O   UNL A   1      52.959  25.998  30.215  1.00  0.00    -0.237 OA
ATOM     94  O   UNL A   1      52.690  26.682  32.567  1.00  0.00    -0.744 OA
ENDBRANCH  90  91
ENDBRANCH  58  83
ENDBRANCH  32  33
ENDBRANCH  24  27
ENDBRANCH  22  23
ENDBRANCH   1  22
TORSDOF 15
ENDMDL
