MODEL 1
REMARK VINA RESULT:     -12.9      0.000      0.000
REMARK SMILES NS(=O)(=O)c1ccc(-c2coc(=O)n2-c2ccc(C(=O)NCCCCNC(=O)c3ccc(-c4c5nc(c(-c6c(F)cc(S(=O)(=O)[O-])cc6F)c6ccc([nH]6)c(-c6c(F)cc(S(=O)(=O)[O-])cc6F)c6nc(c(-c7c(F)cc(S(=O)(=O)[O-])cc7F)c7ccc4[nH]7)C=C6)C=C5)cc3)cc2)cc1
REMARK SMILES IDX 23 1 22 2 21 3 19 4 20 5 18 7 15 8 16 9 96 10 17 11 95 12
REMARK SMILES IDX 14 13 9 14 10 15 11 16 12 17 13 18 8 19 5 20 6 21 98 22 7 23
REMARK SMILES IDX 97 24 2 25 3 26 4 27 1 28 24 31 25 32 26 33 27 34 28 36
REMARK SMILES IDX 29 37 30 38 94 39 31 40 93 41 32 42 33 43 34 44 87 45 35 46
REMARK SMILES IDX 92 47 86 48 88 49 36 50 91 51 85 52 84 53 37 55 71 56 50 57
REMARK SMILES IDX 70 58 51 59 54 60 69 61 89 62 52 63 53 64 68 66 90 67 55 68
REMARK SMILES IDX 38 69 39 70 48 71 40 72 41 73 47 74 49 75 42 76 43 77 44 78
REMARK SMILES IDX 45 79 46 80 72 81 73 82 82 83 74 84 75 85 81 86 83 87 76 88
REMARK SMILES IDX 77 89 78 90 79 91 80 92 56 93 57 94 66 95 58 96 59 97 65 98
REMARK SMILES IDX 67 99 60 100 61 101 62 102 63 103 64 104
REMARK H PARENT 21 6 1 29 1 30 26 35 88 54 54 65
REMARK Flexibility Score: inf
ROOT
ATOM      1  C   UNL A   1      40.060  20.296  26.658  1.00  0.00     0.023 C 
ENDROOT
BRANCH   1   2
ATOM      2  C   UNL A   1      39.110  21.079  25.742  1.00  0.00     0.116 C 
BRANCH   2   3
ATOM      3  N   UNL A   1      39.239  22.511  25.953  1.00  0.00    -0.352 N 
ATOM      4  C   UNL A   1      38.364  23.564  25.835  1.00  0.00     0.251 C 
ATOM      5  O   UNL A   1      38.795  24.690  26.087  1.00  0.00    -0.269 OA
ATOM      6  H   UNL A   1      40.140  22.784  26.240  1.00  0.00     0.163 HD
BRANCH   4   7
ATOM      7  C   UNL A   1      36.925  23.418  25.461  1.00  0.00     0.039 A 
ATOM      8  C   UNL A   1      34.251  23.299  24.579  1.00  0.00     0.053 A 
ATOM      9  C   UNL A   1      35.288  23.200  23.654  1.00  0.00     0.028 A 
ATOM     10  C   UNL A   1      34.551  23.373  25.941  1.00  0.00     0.028 A 
ATOM     11  C   UNL A   1      36.615  23.291  24.093  1.00  0.00     0.016 A 
ATOM     12  C   UNL A   1      35.877  23.382  26.377  1.00  0.00     0.016 A 
BRANCH   8  13
ATOM     13  N   UNL A   1      32.907  23.372  24.173  1.00  0.00    -0.242 N 
ATOM     14  C   UNL A   1      32.109  22.349  23.744  1.00  0.00     0.095 A 
ATOM     15  C   UNL A   1      30.989  22.914  23.313  1.00  0.00     0.228 A 
ATOM     16  O   UNL A   1      30.964  24.303  23.433  1.00  0.00    -0.415 OA
ATOM     17  C   UNL A   1      32.211  24.565  24.007  1.00  0.00     0.424 A 
ATOM     18  O   UNL A   1      32.592  25.701  24.254  1.00  0.00    -0.223 OA
BRANCH  14  19
ATOM     19  C   UNL A   1      32.406  20.925  23.889  1.00  0.00     0.002 A 
ATOM     20  C   UNL A   1      33.058  18.219  24.195  1.00  0.00     0.082 A 
ATOM     21  C   UNL A   1      33.209  19.087  25.276  1.00  0.00     0.022 A 
ATOM     22  C   UNL A   1      32.581  18.687  22.965  1.00  0.00     0.022 A 
ATOM     23  C   UNL A   1      32.880  20.436  25.119  1.00  0.00     0.012 A 
ATOM     24  C   UNL A   1      32.246  20.037  22.818  1.00  0.00     0.012 A 
BRANCH  20  25
ATOM     25  S   UNL A   1      33.548  16.524  24.349  1.00  0.00     0.238 S 
ATOM     26  O   UNL A   1      34.089  16.066  23.095  1.00  0.00    -0.207 OA
ATOM     27  O   UNL A   1      32.507  15.819  25.062  1.00  0.00    -0.207 OA
BRANCH  25  28
ATOM     28  N   UNL A   1      34.855  16.624  25.401  1.00  0.00    -0.225 NA
ATOM     29  H   UNL A   1      35.416  17.443  25.170  1.00  0.00     0.137 HD
ATOM     30  H   UNL A   1      35.427  15.783  25.313  1.00  0.00     0.137 HD
ENDBRANCH  25  28
ENDBRANCH  20  25
ENDBRANCH  14  19
ENDBRANCH   8  13
ENDBRANCH   4   7
ENDBRANCH   2   3
ENDBRANCH   1   2
BRANCH   1  31
ATOM     31  C   UNL A   1      41.213  19.585  25.934  1.00  0.00     0.023 C 
BRANCH  31  32
ATOM     32  C   UNL A   1      42.582  19.765  26.585  1.00  0.00     0.116 C 
BRANCH  32  33
ATOM     33  N   UNL A   1      43.686  19.543  25.651  1.00  0.00    -0.352 N 
ATOM     34  C   UNL A   1      44.348  20.483  24.885  1.00  0.00     0.251 C 
ATOM     35  H   UNL A   1      43.996  18.613  25.559  1.00  0.00     0.163 HD
ATOM     36  O   UNL A   1      44.962  20.157  23.876  1.00  0.00    -0.269 OA
BRANCH  34  37
ATOM     37  C   UNL A   1      44.305  21.888  25.321  1.00  0.00     0.039 A 
ATOM     38  C   UNL A   1      43.353  22.779  24.821  1.00  0.00     0.014 A 
ATOM     39  C   UNL A   1      45.206  22.274  26.312  1.00  0.00     0.014 A 
ATOM     40  C   UNL A   1      43.252  24.044  25.397  1.00  0.00     0.010 A 
ATOM     41  C   UNL A   1      45.021  23.471  26.960  1.00  0.00     0.010 A 
ATOM     42  C   UNL A   1      44.072  24.376  26.486  1.00  0.00    -0.014 A 
BRANCH  42  43
ATOM     43  C   UNL A   1      43.883  25.632  27.208  1.00  0.00     0.031 A 
ATOM     44  C   UNL A   1      44.865  26.714  26.897  1.00  0.00     0.074 A 
ATOM     45  C   UNL A   1      42.760  25.901  27.909  1.00  0.00     0.049 A 
ATOM     46  N   UNL A   1      45.743  27.246  27.682  1.00  0.00    -0.248 NA
ATOM     47  C   UNL A   1      44.954  27.193  25.506  1.00  0.00     0.031 C 
ATOM     48  C   UNL A   1      41.545  25.086  28.030  1.00  0.00     0.029 A 
ATOM     49  N   UNL A   1      42.418  27.040  28.566  1.00  0.00    -0.354 N 
ATOM     50  C   UNL A   1      46.352  28.270  26.956  1.00  0.00     0.074 A 
ATOM     51  C   UNL A   1      45.954  28.074  25.585  1.00  0.00     0.031 C 
ATOM     52  C   UNL A   1      40.532  25.851  28.493  1.00  0.00     0.029 A 
ATOM     53  C   UNL A   1      41.067  27.145  28.871  1.00  0.00     0.049 A 
ATOM     54  H   UNL A   1      43.074  27.734  28.807  1.00  0.00     0.167 HD
ATOM     55  C   UNL A   1      46.965  29.323  27.569  1.00  0.00     0.037 A 
ATOM     56  C   UNL A   1      40.428  28.234  29.364  1.00  0.00     0.037 A 
ATOM     57  C   UNL A   1      47.152  29.070  28.975  1.00  0.00     0.049 A 
ATOM     58  C   UNL A   1      41.465  29.103  29.979  1.00  0.00     0.074 A 
ATOM     59  C   UNL A   1      47.825  28.114  29.712  1.00  0.00     0.029 A 
ATOM     60  N   UNL A   1      46.272  29.663  29.849  1.00  0.00    -0.354 N 
ATOM     61  N   UNL A   1      42.162  28.772  31.033  1.00  0.00    -0.248 NA
ATOM     62  C   UNL A   1      42.050  30.149  29.153  1.00  0.00     0.031 C 
ATOM     63  C   UNL A   1      46.973  27.843  30.822  1.00  0.00     0.029 A 
ATOM     64  C   UNL A   1      45.870  28.695  30.735  1.00  0.00     0.049 A 
ATOM     65  H   UNL A   1      45.984  30.604  29.842  1.00  0.00     0.167 HD
ATOM     66  C   UNL A   1      43.443  29.236  30.774  1.00  0.00     0.074 A 
ATOM     67  C   UNL A   1      43.290  30.159  29.651  1.00  0.00     0.031 C 
ATOM     68  C   UNL A   1      44.543  28.621  31.305  1.00  0.00     0.037 A 
BRANCH  55  69
ATOM     69  C   UNL A   1      47.096  30.717  26.997  1.00  0.00     0.058 A 
ATOM     70  C   UNL A   1      48.356  31.356  27.006  1.00  0.00     0.135 A 
ATOM     71  C   UNL A   1      45.996  31.550  26.703  1.00  0.00     0.135 A 
ATOM     72  F   UNL A   1      49.473  30.663  27.279  1.00  0.00    -0.206 F 
ATOM     73  C   UNL A   1      48.500  32.731  26.812  1.00  0.00     0.059 A 
ATOM     74  C   UNL A   1      46.123  32.913  26.452  1.00  0.00     0.059 A 
ATOM     75  F   UNL A   1      44.735  31.103  26.745  1.00  0.00    -0.206 F 
ATOM     76  C   UNL A   1      47.373  33.505  26.552  1.00  0.00     0.060 A 
BRANCH  76  77
ATOM     77  S   UNL A   1      47.540  35.293  26.411  1.00  0.00     0.124 S 
ATOM     78  O   UNL A   1      48.430  35.412  25.262  1.00  0.00    -0.237 OA
ATOM     79  O   UNL A   1      46.158  35.711  26.194  1.00  0.00    -0.237 OA
ATOM     80  O   UNL A   1      48.111  35.679  27.697  1.00  0.00    -0.744 OA
ENDBRANCH  76  77
ENDBRANCH  55  69
BRANCH  56  81
ATOM     81  C   UNL A   1      39.055  28.709  29.052  1.00  0.00     0.058 A 
ATOM     82  C   UNL A   1      38.083  28.837  30.060  1.00  0.00     0.135 A 
ATOM     83  C   UNL A   1      38.749  29.315  27.816  1.00  0.00     0.135 A 
ATOM     84  F   UNL A   1      38.298  28.306  31.273  1.00  0.00    -0.206 F 
ATOM     85  C   UNL A   1      36.906  29.570  29.873  1.00  0.00     0.059 A 
ATOM     86  C   UNL A   1      37.578  30.040  27.602  1.00  0.00     0.059 A 
ATOM     87  F   UNL A   1      39.629  29.304  26.803  1.00  0.00    -0.206 F 
ATOM     88  C   UNL A   1      36.672  30.188  28.646  1.00  0.00     0.060 A 
BRANCH  88  89
ATOM     89  S   UNL A   1      35.251  31.292  28.462  1.00  0.00     0.124 S 
ATOM     90  O   UNL A   1      34.254  30.406  27.872  1.00  0.00    -0.237 OA
ATOM     91  O   UNL A   1      35.002  31.704  29.839  1.00  0.00    -0.237 OA
ATOM     92  O   UNL A   1      35.750  32.345  27.581  1.00  0.00    -0.744 OA
ENDBRANCH  88  89
ENDBRANCH  56  81
BRANCH  68  93
ATOM     93  C   UNL A   1      44.339  27.619  32.413  1.00  0.00     0.058 A 
ATOM     94  C   UNL A   1      44.120  27.949  33.762  1.00  0.00     0.135 A 
ATOM     95  C   UNL A   1      44.209  26.267  32.060  1.00  0.00     0.135 A 
ATOM     96  F   UNL A   1      44.117  29.225  34.169  1.00  0.00    -0.206 F 
ATOM     97  C   UNL A   1      43.829  26.977  34.722  1.00  0.00     0.059 A 
ATOM     98  C   UNL A   1      43.888  25.285  32.994  1.00  0.00     0.059 A 
ATOM     99  F   UNL A   1      44.342  25.891  30.777  1.00  0.00    -0.206 F 
ATOM    100  C   UNL A   1      43.716  25.645  34.328  1.00  0.00     0.060 A 
BRANCH 100 101
ATOM    101  S   UNL A   1      43.276  24.397  35.557  1.00  0.00     0.124 S 
ATOM    102  O   UNL A   1      44.131  24.760  36.682  1.00  0.00    -0.237 OA
ATOM    103  O   UNL A   1      41.846  24.627  35.747  1.00  0.00    -0.237 OA
ATOM    104  O   UNL A   1      43.612  23.136  34.899  1.00  0.00    -0.744 OA
ENDBRANCH 100 101
ENDBRANCH  68  93
ENDBRANCH  42  43
ENDBRANCH  34  37
ENDBRANCH  32  33
ENDBRANCH  31  32
ENDBRANCH   1  31
TORSDOF 18
ENDMDL
MODEL 2
REMARK VINA RESULT:     -12.4      1.827      3.411
REMARK SMILES NS(=O)(=O)c1ccc(-c2coc(=O)n2-c2ccc(C(=O)NCCCCNC(=O)c3ccc(-c4c5nc(c(-c6c(F)cc(S(=O)(=O)[O-])cc6F)c6ccc([nH]6)c(-c6c(F)cc(S(=O)(=O)[O-])cc6F)c6nc(c(-c7c(F)cc(S(=O)(=O)[O-])cc7F)c7ccc4[nH]7)C=C6)C=C5)cc3)cc2)cc1
REMARK SMILES IDX 23 1 22 2 21 3 19 4 20 5 18 7 15 8 16 9 96 10 17 11 95 12
REMARK SMILES IDX 14 13 9 14 10 15 11 16 12 17 13 18 8 19 5 20 6 21 98 22 7 23
REMARK SMILES IDX 97 24 2 25 3 26 4 27 1 28 24 31 25 32 26 33 27 34 28 36
REMARK SMILES IDX 29 37 30 38 94 39 31 40 93 41 32 42 33 43 34 44 87 45 35 46
REMARK SMILES IDX 92 47 86 48 88 49 36 50 91 51 85 52 84 53 37 55 71 56 50 57
REMARK SMILES IDX 70 58 51 59 54 60 69 61 89 62 52 63 53 64 68 66 90 67 55 68
REMARK SMILES IDX 38 69 39 70 48 71 40 72 41 73 47 74 49 75 42 76 43 77 44 78
REMARK SMILES IDX 45 79 46 80 72 81 73 82 82 83 74 84 75 85 81 86 83 87 76 88
REMARK SMILES IDX 77 89 78 90 79 91 80 92 56 93 57 94 66 95 58 96 59 97 65 98
REMARK SMILES IDX 67 99 60 100 61 101 62 102 63 103 64 104
REMARK H PARENT 21 6 1 29 1 30 26 35 88 54 54 65
REMARK Flexibility Score: inf
ROOT
ATOM      1  C   UNL A   1      40.484  20.518  26.828  1.00  0.00     0.023 C 
ENDROOT
BRANCH   1   2
ATOM      2  C   UNL A   1      39.567  21.233  25.826  1.00  0.00     0.116 C 
BRANCH   2   3
ATOM      3  N   UNL A   1      39.619  22.675  26.001  1.00  0.00    -0.352 N 
ATOM      4  C   UNL A   1      38.671  23.667  25.934  1.00  0.00     0.251 C 
ATOM      5  O   UNL A   1      39.048  24.824  26.131  1.00  0.00    -0.269 OA
ATOM      6  H   UNL A   1      40.521  23.010  26.211  1.00  0.00     0.163 HD
BRANCH   4   7
ATOM      7  C   UNL A   1      37.220  23.423  25.679  1.00  0.00     0.039 A 
ATOM      8  C   UNL A   1      34.481  22.824  25.395  1.00  0.00     0.053 A 
ATOM      9  C   UNL A   1      34.975  23.219  26.635  1.00  0.00     0.028 A 
ATOM     10  C   UNL A   1      35.334  22.810  24.288  1.00  0.00     0.028 A 
ATOM     11  C   UNL A   1      36.344  23.485  26.779  1.00  0.00     0.016 A 
ATOM     12  C   UNL A   1      36.679  23.155  24.424  1.00  0.00     0.016 A 
BRANCH   8  13
ATOM     13  N   UNL A   1      33.152  22.395  25.235  1.00  0.00    -0.242 N 
ATOM     14  C   UNL A   1      32.019  23.160  25.264  1.00  0.00     0.095 A 
ATOM     15  C   UNL A   1      31.002  22.308  25.240  1.00  0.00     0.228 A 
ATOM     16  O   UNL A   1      31.377  20.967  25.183  1.00  0.00    -0.415 OA
ATOM     17  C   UNL A   1      32.772  21.059  25.165  1.00  0.00     0.424 A 
ATOM     18  O   UNL A   1      33.492  20.070  25.143  1.00  0.00    -0.223 OA
BRANCH  14  19
ATOM     19  C   UNL A   1      31.981  24.618  25.184  1.00  0.00     0.002 A 
ATOM     20  C   UNL A   1      31.830  27.413  25.072  1.00  0.00     0.082 A 
ATOM     21  C   UNL A   1      31.763  26.771  26.308  1.00  0.00     0.022 A 
ATOM     22  C   UNL A   1      31.976  26.674  23.892  1.00  0.00     0.022 A 
ATOM     23  C   UNL A   1      31.842  25.377  26.359  1.00  0.00     0.012 A 
ATOM     24  C   UNL A   1      32.062  25.279  23.951  1.00  0.00     0.012 A 
BRANCH  20  25
ATOM     25  S   UNL A   1      31.649  29.171  24.980  1.00  0.00     0.238 S 
ATOM     26  O   UNL A   1      31.782  29.736  26.298  1.00  0.00    -0.207 OA
ATOM     27  O   UNL A   1      30.535  29.463  24.106  1.00  0.00    -0.207 OA
BRANCH  25  28
ATOM     28  N   UNL A   1      33.034  29.630  24.145  1.00  0.00    -0.225 NA
ATOM     29  H   UNL A   1      33.385  28.839  23.606  1.00  0.00     0.137 HD
ATOM     30  H   UNL A   1      33.748  29.932  24.809  1.00  0.00     0.137 HD
ENDBRANCH  25  28
ENDBRANCH  20  25
ENDBRANCH  14  19
ENDBRANCH   8  13
ENDBRANCH   4   7
ENDBRANCH   2   3
ENDBRANCH   1   2
BRANCH   1  31
ATOM     31  C   UNL A   1      41.428  19.476  26.210  1.00  0.00     0.023 C 
BRANCH  31  32
ATOM     32  C   UNL A   1      42.865  19.537  26.717  1.00  0.00     0.116 C 
BRANCH  32  33
ATOM     33  N   UNL A   1      43.851  19.366  25.650  1.00  0.00    -0.352 N 
ATOM     34  C   UNL A   1      44.362  20.335  24.808  1.00  0.00     0.251 C 
ATOM     35  H   UNL A   1      44.191  18.452  25.515  1.00  0.00     0.163 HD
ATOM     36  O   UNL A   1      44.857  20.037  23.728  1.00  0.00    -0.269 OA
BRANCH  34  37
ATOM     37  C   UNL A   1      44.307  21.738  25.251  1.00  0.00     0.039 A 
ATOM     38  C   UNL A   1      43.238  22.569  24.910  1.00  0.00     0.014 A 
ATOM     39  C   UNL A   1      45.328  22.181  26.090  1.00  0.00     0.014 A 
ATOM     40  C   UNL A   1      43.155  23.830  25.501  1.00  0.00     0.010 A 
ATOM     41  C   UNL A   1      45.178  23.368  26.763  1.00  0.00     0.010 A 
ATOM     42  C   UNL A   1      44.116  24.215  26.448  1.00  0.00    -0.014 A 
BRANCH  42  43
ATOM     43  C   UNL A   1      43.969  25.461  27.196  1.00  0.00     0.031 A 
ATOM     44  C   UNL A   1      44.967  26.528  26.880  1.00  0.00     0.074 A 
ATOM     45  C   UNL A   1      42.869  25.740  27.928  1.00  0.00     0.049 A 
ATOM     46  N   UNL A   1      45.874  27.028  27.654  1.00  0.00    -0.248 NA
ATOM     47  C   UNL A   1      45.034  27.030  25.497  1.00  0.00     0.031 C 
ATOM     48  C   UNL A   1      41.640  24.949  28.063  1.00  0.00     0.029 A 
ATOM     49  N   UNL A   1      42.566  26.875  28.613  1.00  0.00    -0.354 N 
ATOM     50  C   UNL A   1      46.487  28.051  26.931  1.00  0.00     0.074 A 
ATOM     51  C   UNL A   1      46.053  27.888  25.567  1.00  0.00     0.031 C 
ATOM     52  C   UNL A   1      40.655  25.726  28.563  1.00  0.00     0.029 A 
ATOM     53  C   UNL A   1      41.225  27.002  28.951  1.00  0.00     0.049 A 
ATOM     54  H   UNL A   1      43.242  27.550  28.850  1.00  0.00     0.167 HD
ATOM     55  C   UNL A   1      47.136  29.081  27.548  1.00  0.00     0.037 A 
ATOM     56  C   UNL A   1      40.621  28.095  29.478  1.00  0.00     0.037 A 
ATOM     57  C   UNL A   1      47.351  28.800  28.945  1.00  0.00     0.049 A 
ATOM     58  C   UNL A   1      41.690  28.932  30.083  1.00  0.00     0.074 A 
ATOM     59  C   UNL A   1      48.020  27.817  29.648  1.00  0.00     0.029 A 
ATOM     60  N   UNL A   1      46.503  29.394  29.849  1.00  0.00    -0.354 N 
ATOM     61  N   UNL A   1      42.404  28.567  31.114  1.00  0.00    -0.248 NA
ATOM     62  C   UNL A   1      42.278  29.979  29.262  1.00  0.00     0.031 C 
ATOM     63  C   UNL A   1      47.188  27.544  30.774  1.00  0.00     0.029 A 
ATOM     64  C   UNL A   1      46.102  28.420  30.727  1.00  0.00     0.049 A 
ATOM     65  H   UNL A   1      46.235  30.341  29.865  1.00  0.00     0.167 HD
ATOM     66  C   UNL A   1      43.689  29.010  30.833  1.00  0.00     0.074 A 
ATOM     67  C   UNL A   1      43.529  29.956  29.730  1.00  0.00     0.031 C 
ATOM     68  C   UNL A   1      44.787  28.363  31.328  1.00  0.00     0.037 A 
BRANCH  55  69
ATOM     69  C   UNL A   1      47.283  30.482  26.997  1.00  0.00     0.058 A 
ATOM     70  C   UNL A   1      48.549  31.108  27.019  1.00  0.00     0.135 A 
ATOM     71  C   UNL A   1      46.192  31.331  26.713  1.00  0.00     0.135 A 
ATOM     72  F   UNL A   1      49.658  30.399  27.284  1.00  0.00    -0.206 F 
ATOM     73  C   UNL A   1      48.707  32.484  26.845  1.00  0.00     0.059 A 
ATOM     74  C   UNL A   1      46.334  32.696  26.483  1.00  0.00     0.059 A 
ATOM     75  F   UNL A   1      44.926  30.896  26.745  1.00  0.00    -0.206 F 
ATOM     76  C   UNL A   1      47.589  33.273  26.594  1.00  0.00     0.060 A 
BRANCH  76  77
ATOM     77  S   UNL A   1      47.775  35.061  26.480  1.00  0.00     0.124 S 
ATOM     78  O   UNL A   1      48.916  35.178  25.580  1.00  0.00    -0.237 OA
ATOM     79  O   UNL A   1      46.485  35.467  25.931  1.00  0.00    -0.237 OA
ATOM     80  O   UNL A   1      48.015  35.462  27.862  1.00  0.00    -0.744 OA
ENDBRANCH  76  77
ENDBRANCH  55  69
BRANCH  56  81
ATOM     81  C   UNL A   1      39.251  28.603  29.206  1.00  0.00     0.058 A 
ATOM     82  C   UNL A   1      38.330  28.801  30.249  1.00  0.00     0.135 A 
ATOM     83  C   UNL A   1      38.911  29.173  27.961  1.00  0.00     0.135 A 
ATOM     84  F   UNL A   1      38.580  28.309  31.472  1.00  0.00    -0.206 F 
ATOM     85  C   UNL A   1      37.169  29.565  30.085  1.00  0.00     0.059 A 
ATOM     86  C   UNL A   1      37.755  29.928  27.770  1.00  0.00     0.059 A 
ATOM     87  F   UNL A   1      39.744  29.095  26.914  1.00  0.00    -0.206 F 
ATOM     88  C   UNL A   1      36.901  30.145  28.845  1.00  0.00     0.060 A 
BRANCH  88  89
ATOM     89  S   UNL A   1      35.509  31.288  28.680  1.00  0.00     0.124 S 
ATOM     90  O   UNL A   1      35.209  31.603  30.072  1.00  0.00    -0.237 OA
ATOM     91  O   UNL A   1      36.092  32.370  27.893  1.00  0.00    -0.237 OA
ATOM     92  O   UNL A   1      34.498  30.494  27.987  1.00  0.00    -0.744 OA
ENDBRANCH  88  89
ENDBRANCH  56  81
BRANCH  68  93
ATOM     93  C   UNL A   1      44.588  27.345  32.422  1.00  0.00     0.058 A 
ATOM     94  C   UNL A   1      44.418  27.655  33.783  1.00  0.00     0.135 A 
ATOM     95  C   UNL A   1      44.410  26.004  32.049  1.00  0.00     0.135 A 
ATOM     96  F   UNL A   1      44.463  28.923  34.213  1.00  0.00    -0.206 F 
ATOM     97  C   UNL A   1      44.129  26.674  34.734  1.00  0.00     0.059 A 
ATOM     98  C   UNL A   1      44.090  25.014  32.974  1.00  0.00     0.059 A 
ATOM     99  F   UNL A   1      44.495  25.650  30.755  1.00  0.00    -0.206 F 
ATOM    100  C   UNL A   1      43.967  25.353  34.319  1.00  0.00     0.060 A 
BRANCH 100 101
ATOM    101  S   UNL A   1      43.529  24.094  35.537  1.00  0.00     0.124 S 
ATOM    102  O   UNL A   1      43.815  24.774  36.796  1.00  0.00    -0.237 OA
ATOM    103  O   UNL A   1      42.116  23.854  35.253  1.00  0.00    -0.237 OA
ATOM    104  O   UNL A   1      44.418  22.981  35.213  1.00  0.00    -0.744 OA
ENDBRANCH 100 101
ENDBRANCH  68  93
ENDBRANCH  42  43
ENDBRANCH  34  37
ENDBRANCH  32  33
ENDBRANCH  31  32
ENDBRANCH   1  31
TORSDOF 18
ENDMDL
MODEL 3
REMARK VINA RESULT:     -12.2      4.043      7.755
REMARK SMILES NS(=O)(=O)c1ccc(-c2coc(=O)n2-c2ccc(C(=O)NCCCCNC(=O)c3ccc(-c4c5nc(c(-c6c(F)cc(S(=O)(=O)[O-])cc6F)c6ccc([nH]6)c(-c6c(F)cc(S(=O)(=O)[O-])cc6F)c6nc(c(-c7c(F)cc(S(=O)(=O)[O-])cc7F)c7ccc4[nH]7)C=C6)C=C5)cc3)cc2)cc1
REMARK SMILES IDX 23 1 22 2 21 3 19 4 20 5 18 7 15 8 16 9 96 10 17 11 95 12
REMARK SMILES IDX 14 13 9 14 10 15 11 16 12 17 13 18 8 19 5 20 6 21 98 22 7 23
REMARK SMILES IDX 97 24 2 25 3 26 4 27 1 28 24 31 25 32 26 33 27 34 28 36
REMARK SMILES IDX 29 37 30 38 94 39 31 40 93 41 32 42 33 43 34 44 87 45 35 46
REMARK SMILES IDX 92 47 86 48 88 49 36 50 91 51 85 52 84 53 37 55 71 56 50 57
REMARK SMILES IDX 70 58 51 59 54 60 69 61 89 62 52 63 53 64 68 66 90 67 55 68
REMARK SMILES IDX 38 69 39 70 48 71 40 72 41 73 47 74 49 75 42 76 43 77 44 78
REMARK SMILES IDX 45 79 46 80 72 81 73 82 82 83 74 84 75 85 81 86 83 87 76 88
REMARK SMILES IDX 77 89 78 90 79 91 80 92 56 93 57 94 66 95 58 96 59 97 65 98
REMARK SMILES IDX 67 99 60 100 61 101 62 102 63 103 64 104
REMARK H PARENT 21 6 1 29 1 30 26 35 88 54 54 65
REMARK Flexibility Score: inf
ROOT
ATOM      1  C   UNL A   1      41.953  19.874  26.277  1.00  0.00     0.023 C 
ENDROOT
BRANCH   1   2
ATOM      2  C   UNL A   1      42.875  21.049  25.922  1.00  0.00     0.116 C 
BRANCH   2   3
ATOM      3  N   UNL A   1      44.017  20.603  25.141  1.00  0.00    -0.352 N 
ATOM      4  C   UNL A   1      45.078  21.258  24.564  1.00  0.00     0.251 C 
ATOM      5  O   UNL A   1      45.896  20.575  23.946  1.00  0.00    -0.269 OA
ATOM      6  H   UNL A   1      44.033  19.629  24.995  1.00  0.00     0.163 HD
BRANCH   4   7
ATOM      7  C   UNL A   1      45.314  22.728  24.677  1.00  0.00     0.039 A 
ATOM      8  C   UNL A   1      45.929  25.453  25.054  1.00  0.00     0.053 A 
ATOM      9  C   UNL A   1      46.959  24.531  24.883  1.00  0.00     0.028 A 
ATOM     10  C   UNL A   1      44.602  25.027  24.953  1.00  0.00     0.028 A 
ATOM     11  C   UNL A   1      46.650  23.172  24.727  1.00  0.00     0.016 A 
ATOM     12  C   UNL A   1      44.303  23.684  24.717  1.00  0.00     0.016 A 
BRANCH   8  13
ATOM     13  N   UNL A   1      46.190  26.797  25.370  1.00  0.00    -0.242 N 
ATOM     14  C   UNL A   1      45.973  27.431  26.562  1.00  0.00     0.095 A 
ATOM     15  C   UNL A   1      46.207  28.718  26.340  1.00  0.00     0.228 A 
ATOM     16  O   UNL A   1      46.592  29.015  25.034  1.00  0.00    -0.415 OA
ATOM     17  C   UNL A   1      46.586  27.750  24.438  1.00  0.00     0.424 A 
ATOM     18  O   UNL A   1      46.851  27.584  23.255  1.00  0.00    -0.223 OA
BRANCH  14  19
ATOM     19  C   UNL A   1      45.693  26.768  27.833  1.00  0.00     0.002 A 
ATOM     20  C   UNL A   1      45.100  25.563  30.292  1.00  0.00     0.082 A 
ATOM     21  C   UNL A   1      44.063  25.878  29.414  1.00  0.00     0.022 A 
ATOM     22  C   UNL A   1      46.429  25.839  29.953  1.00  0.00     0.022 A 
ATOM     23  C   UNL A   1      44.364  26.476  28.188  1.00  0.00     0.012 A 
ATOM     24  C   UNL A   1      46.724  26.431  28.720  1.00  0.00     0.012 A 
BRANCH  20  25
ATOM     25  S   UNL A   1      44.733  24.882  31.884  1.00  0.00     0.238 S 
ATOM     26  O   UNL A   1      44.392  23.489  31.741  1.00  0.00    -0.207 OA
ATOM     27  O   UNL A   1      43.903  25.827  32.597  1.00  0.00    -0.207 OA
BRANCH  25  28
ATOM     28  N   UNL A   1      46.234  24.909  32.640  1.00  0.00    -0.225 NA
ATOM     29  H   UNL A   1      46.934  25.274  31.994  1.00  0.00     0.137 HD
ATOM     30  H   UNL A   1      46.491  23.962  32.921  1.00  0.00     0.137 HD
ENDBRANCH  25  28
ENDBRANCH  20  25
ENDBRANCH  14  19
ENDBRANCH   8  13
ENDBRANCH   4   7
ENDBRANCH   2   3
ENDBRANCH   1   2
BRANCH   1  31
ATOM     31  C   UNL A   1      40.525  20.274  26.679  1.00  0.00     0.023 C 
BRANCH  31  32
ATOM     32  C   UNL A   1      40.314  21.772  26.877  1.00  0.00     0.116 C 
BRANCH  32  33
ATOM     33  N   UNL A   1      39.396  22.349  25.895  1.00  0.00    -0.352 N 
ATOM     34  C   UNL A   1      38.776  23.583  25.940  1.00  0.00     0.251 C 
ATOM     35  H   UNL A   1      39.196  21.792  25.108  1.00  0.00     0.163 HD
ATOM     36  O   UNL A   1      37.755  23.801  25.300  1.00  0.00    -0.269 OA
BRANCH  34  37
ATOM     37  C   UNL A   1      39.386  24.636  26.769  1.00  0.00     0.039 A 
ATOM     38  C   UNL A   1      40.292  25.553  26.232  1.00  0.00     0.014 A 
ATOM     39  C   UNL A   1      38.965  24.727  28.094  1.00  0.00     0.014 A 
ATOM     40  C   UNL A   1      40.702  26.629  27.019  1.00  0.00     0.010 A 
ATOM     41  C   UNL A   1      39.270  25.852  28.821  1.00  0.00     0.010 A 
ATOM     42  C   UNL A   1      40.166  26.788  28.306  1.00  0.00    -0.014 A 
BRANCH  42  43
ATOM     43  C   UNL A   1      40.456  27.985  29.093  1.00  0.00     0.031 A 
ATOM     44  C   UNL A   1      41.576  28.835  28.590  1.00  0.00     0.074 A 
ATOM     45  C   UNL A   1      39.620  28.440  30.051  1.00  0.00     0.049 A 
ATOM     46  N   UNL A   1      42.711  29.080  29.159  1.00  0.00    -0.248 NA
ATOM     47  C   UNL A   1      41.464  29.403  27.235  1.00  0.00     0.031 C 
ATOM     48  C   UNL A   1      38.302  27.918  30.434  1.00  0.00     0.029 A 
ATOM     49  N   UNL A   1      39.723  29.564  30.808  1.00  0.00    -0.354 N 
ATOM     50  C   UNL A   1      43.372  29.997  28.341  1.00  0.00     0.074 A 
ATOM     51  C   UNL A   1      42.640  30.021  27.100  1.00  0.00     0.031 C 
ATOM     52  C   UNL A   1      37.638  28.850  31.151  1.00  0.00     0.029 A 
ATOM     53  C   UNL A   1      38.543  29.949  31.431  1.00  0.00     0.049 A 
ATOM     54  H   UNL A   1      40.565  30.064  30.907  1.00  0.00     0.167 HD
ATOM     55  C   UNL A   1      44.345  30.823  28.823  1.00  0.00     0.037 A 
ATOM     56  C   UNL A   1      38.317  31.107  32.099  1.00  0.00     0.037 A 
ATOM     57  C   UNL A   1      44.777  30.410  30.134  1.00  0.00     0.049 A 
ATOM     58  C   UNL A   1      39.646  31.657  32.474  1.00  0.00     0.074 A 
ATOM     59  C   UNL A   1      45.343  29.263  30.656  1.00  0.00     0.029 A 
ATOM     60  N   UNL A   1      44.287  31.108  31.212  1.00  0.00    -0.354 N 
ATOM     61  N   UNL A   1      40.459  31.082  33.319  1.00  0.00    -0.248 NA
ATOM     62  C   UNL A   1      40.267  32.609  31.567  1.00  0.00     0.031 C 
ATOM     63  C   UNL A   1      44.724  29.097  31.929  1.00  0.00     0.029 A 
ATOM     64  C   UNL A   1      43.872  30.183  32.137  1.00  0.00     0.049 A 
ATOM     65  H   UNL A   1      44.243  32.087  31.305  1.00  0.00     0.167 HD
ATOM     66  C   UNL A   1      41.723  31.261  32.775  1.00  0.00     0.074 A 
ATOM     67  C   UNL A   1      41.551  32.291  31.752  1.00  0.00     0.031 C 
ATOM     68  C   UNL A   1      42.730  30.365  33.007  1.00  0.00     0.037 A 
BRANCH  55  69
ATOM     69  C   UNL A   1      44.679  32.195  28.282  1.00  0.00     0.058 A 
ATOM     70  C   UNL A   1      45.999  32.474  27.863  1.00  0.00     0.135 A 
ATOM     71  C   UNL A   1      43.837  33.319  28.419  1.00  0.00     0.135 A 
ATOM     72  F   UNL A   1      46.891  31.482  27.704  1.00  0.00    -0.206 F 
ATOM     73  C   UNL A   1      46.465  33.776  27.670  1.00  0.00     0.059 A 
ATOM     74  C   UNL A   1      44.265  34.621  28.179  1.00  0.00     0.059 A 
ATOM     75  F   UNL A   1      42.588  33.217  28.891  1.00  0.00    -0.206 F 
ATOM     76  C   UNL A   1      45.592  34.845  27.847  1.00  0.00     0.060 A 
BRANCH  76  77
ATOM     77  S   UNL A   1      46.216  36.530  27.707  1.00  0.00     0.124 S 
ATOM     78  O   UNL A   1      46.518  36.610  26.283  1.00  0.00    -0.237 OA
ATOM     79  O   UNL A   1      45.074  37.316  28.164  1.00  0.00    -0.237 OA
ATOM     80  O   UNL A   1      47.370  36.535  28.600  1.00  0.00    -0.744 OA
ENDBRANCH  76  77
ENDBRANCH  55  69
BRANCH  56  81
ATOM     81  C   UNL A   1      37.067  31.909  32.141  1.00  0.00     0.058 A 
ATOM     82  C   UNL A   1      36.526  32.348  33.362  1.00  0.00     0.135 A 
ATOM     83  C   UNL A   1      36.534  32.502  30.977  1.00  0.00     0.135 A 
ATOM     84  F   UNL A   1      36.986  31.850  34.520  1.00  0.00    -0.206 F 
ATOM     85  C   UNL A   1      35.557  33.355  33.430  1.00  0.00     0.059 A 
ATOM     86  C   UNL A   1      35.560  33.498  31.019  1.00  0.00     0.059 A 
ATOM     87  F   UNL A   1      37.017  32.201  29.763  1.00  0.00    -0.206 F 
ATOM     88  C   UNL A   1      35.095  33.941  32.252  1.00  0.00     0.060 A 
BRANCH  88  89
ATOM     89  S   UNL A   1      33.989  35.370  32.343  1.00  0.00     0.124 S 
ATOM     90  O   UNL A   1      32.763  34.770  32.857  1.00  0.00    -0.237 OA
ATOM     91  O   UNL A   1      34.701  36.251  33.262  1.00  0.00    -0.237 OA
ATOM     92  O   UNL A   1      33.924  35.838  30.961  1.00  0.00    -0.744 OA
ENDBRANCH  88  89
ENDBRANCH  56  81
BRANCH  68  93
ATOM     93  C   UNL A   1      42.543  29.341  34.098  1.00  0.00     0.058 A 
ATOM     94  C   UNL A   1      41.755  28.182  33.982  1.00  0.00     0.135 A 
ATOM     95  C   UNL A   1      43.324  29.466  35.257  1.00  0.00     0.135 A 
ATOM     96  F   UNL A   1      41.063  27.927  32.864  1.00  0.00    -0.206 F 
ATOM     97  C   UNL A   1      41.710  27.217  34.990  1.00  0.00     0.059 A 
ATOM     98  C   UNL A   1      43.319  28.500  36.261  1.00  0.00     0.059 A 
ATOM     99  F   UNL A   1      44.148  30.517  35.403  1.00  0.00    -0.206 F 
ATOM    100  C   UNL A   1      42.497  27.385  36.128  1.00  0.00     0.060 A 
BRANCH 100 101
ATOM    101  S   UNL A   1      42.489  26.105  37.402  1.00  0.00     0.124 S 
ATOM    102  O   UNL A   1      43.328  26.699  38.437  1.00  0.00    -0.237 OA
ATOM    103  O   UNL A   1      41.070  25.987  37.726  1.00  0.00    -0.237 OA
ATOM    104  O   UNL A   1      43.062  24.944  36.725  1.00  0.00    -0.744 OA
ENDBRANCH 100 101
ENDBRANCH  68  93
ENDBRANCH  42  43
ENDBRANCH  34  37
ENDBRANCH  32  33
ENDBRANCH  31  32
ENDBRANCH   1  31
TORSDOF 18
ENDMDL
