MODEL 1
REMARK VINA RESULT:     -11.5      0.000      0.000
REMARK SMILES CC[C@@](C)(NC(=O)N[C@@H](C)c1cccc(Br)c1)C(=O)NCCCCNC(=O)c1ccc(-c2c3nc(c(-c4c(F)cc(S(=O)(=O)[O-])cc4F)c4ccc([nH]4)c(-c4c(F)cc(S(=O)(=O)[O-])cc4F)c4nc(c(-c5c(F)cc(S(=O)(=O)[O-])cc5F)c5ccc2[nH]5)C=C4)C=C3)cc1
REMARK SMILES IDX 22 1 21 2 20 3 18 4 19 5 3 7 4 8 2 9 1 10 5 11 6 12 7 14
REMARK SMILES IDX 8 15 9 17 10 18 11 19 12 20 17 21 13 22 15 23 14 24 16 25
REMARK SMILES IDX 23 26 24 27 25 28 26 29 27 31 28 32 29 33 93 34 30 35 92 36
REMARK SMILES IDX 31 37 32 38 33 39 86 40 34 41 91 42 85 43 87 44 35 45 90 46
REMARK SMILES IDX 84 47 83 48 36 50 70 51 49 52 69 53 50 54 53 55 68 56 88 57
REMARK SMILES IDX 51 58 52 59 67 61 89 62 54 63 37 64 38 65 47 66 39 67 40 68
REMARK SMILES IDX 46 69 48 70 41 71 42 72 43 73 44 74 45 75 71 76 72 77 81 78
REMARK SMILES IDX 73 79 74 80 80 81 82 82 75 83 76 84 77 85 78 86 79 87 55 88
REMARK SMILES IDX 56 89 65 90 57 91 58 92 64 93 66 94 59 95 60 96 61 97 62 98
REMARK SMILES IDX 63 99
REMARK H PARENT 20 6 5 13 8 16 25 30 87 49 53 60
REMARK Flexibility Score: inf
ROOT
ATOM      1  C   UNL A   1      32.753  29.605  27.259  1.00  0.00     0.023 C 
ENDROOT
BRANCH   1   2
ATOM      2  C   UNL A   1      32.778  28.075  27.184  1.00  0.00     0.116 C 
BRANCH   2   3
ATOM      3  N   UNL A   1      31.517  27.349  27.161  1.00  0.00    -0.354 N 
ATOM      4  C   UNL A   1      30.877  26.613  26.198  1.00  0.00     0.245 C 
ATOM      5  O   UNL A   1      30.025  25.819  26.612  1.00  0.00    -0.272 OA
ATOM      6  H   UNL A   1      31.024  27.395  28.012  1.00  0.00     0.163 HD
BRANCH   4   7
ATOM      7  C   UNL A   1      31.270  26.664  24.690  1.00  0.00     0.117 C 
ATOM      8  C   UNL A   1      30.670  27.983  24.141  1.00  0.00     0.045 C 
BRANCH   7   9
ATOM      9  C   UNL A   1      32.788  26.682  24.336  1.00  0.00     0.035 C 
ATOM     10  C   UNL A   1      33.318  27.840  23.502  1.00  0.00     0.007 C 
ENDBRANCH   7   9
BRANCH   7  11
ATOM     11  N   UNL A   1      30.671  25.519  23.984  1.00  0.00    -0.324 N 
ATOM     12  C   UNL A   1      30.999  24.231  23.840  1.00  0.00     0.316 C 
ATOM     13  H   UNL A   1      29.841  25.756  23.510  1.00  0.00     0.166 HD
ATOM     14  O   UNL A   1      30.369  23.601  22.984  1.00  0.00    -0.249 OA
ATOM     15  N   UNL A   1      31.896  23.554  24.558  1.00  0.00    -0.332 N 
ATOM     16  H   UNL A   1      31.885  22.598  24.325  1.00  0.00     0.165 HD
BRANCH  15  17
ATOM     17  C   UNL A   1      32.894  23.827  25.592  1.00  0.00     0.111 C 
ATOM     18  C   UNL A   1      32.670  23.025  26.877  1.00  0.00     0.036 C 
BRANCH  17  19
ATOM     19  C   UNL A   1      34.296  23.524  25.093  1.00  0.00    -0.025 A 
ATOM     20  C   UNL A   1      34.470  23.069  23.776  1.00  0.00     0.006 A 
ATOM     21  C   UNL A   1      35.433  23.785  25.876  1.00  0.00     0.021 A 
ATOM     22  C   UNL A   1      35.748  22.887  23.250  1.00  0.00     0.002 A 
ATOM     23  C   UNL A   1      36.707  23.598  25.343  1.00  0.00     0.018 A 
ATOM     24  C   UNL A   1      36.869  23.154  24.033  1.00  0.00     0.016 A 
ATOM     25  Br  UNL A   1      38.227  23.981  26.399  1.00  0.00    -0.051 Br
ENDBRANCH  17  19
ENDBRANCH  15  17
ENDBRANCH   7  11
ENDBRANCH   4   7
ENDBRANCH   2   3
ENDBRANCH   1   2
BRANCH   1  26
ATOM     26  C   UNL A   1      34.032  30.397  26.993  1.00  0.00     0.023 C 
BRANCH  26  27
ATOM     27  C   UNL A   1      35.276  29.949  27.746  1.00  0.00     0.116 C 
BRANCH  27  28
ATOM     28  N   UNL A   1      35.301  30.466  29.102  1.00  0.00    -0.352 N 
ATOM     29  C   UNL A   1      36.317  30.455  30.024  1.00  0.00     0.251 C 
ATOM     30  H   UNL A   1      34.465  30.888  29.406  1.00  0.00     0.163 HD
ATOM     31  O   UNL A   1      36.074  30.764  31.187  1.00  0.00    -0.269 OA
BRANCH  29  32
ATOM     32  C   UNL A   1      37.690  30.060  29.632  1.00  0.00     0.039 A 
ATOM     33  C   UNL A   1      38.602  29.723  30.637  1.00  0.00     0.014 A 
ATOM     34  C   UNL A   1      38.097  30.064  28.295  1.00  0.00     0.014 A 
ATOM     35  C   UNL A   1      39.907  29.352  30.299  1.00  0.00     0.010 A 
ATOM     36  C   UNL A   1      39.379  29.634  27.955  1.00  0.00     0.010 A 
ATOM     37  C   UNL A   1      40.301  29.285  28.953  1.00  0.00    -0.014 A 
BRANCH  37  38
ATOM     38  C   UNL A   1      41.676  28.865  28.578  1.00  0.00     0.031 A 
ATOM     39  C   UNL A   1      42.786  29.880  28.511  1.00  0.00     0.074 A 
ATOM     40  C   UNL A   1      41.915  27.580  28.249  1.00  0.00     0.049 A 
ATOM     41  N   UNL A   1      44.033  29.718  28.149  1.00  0.00    -0.248 NA
ATOM     42  C   UNL A   1      42.443  31.263  28.875  1.00  0.00     0.031 C 
ATOM     43  C   UNL A   1      40.914  26.512  28.233  1.00  0.00     0.029 A 
ATOM     44  N   UNL A   1      43.071  26.956  27.855  1.00  0.00    -0.354 N 
ATOM     45  C   UNL A   1      44.620  30.976  28.231  1.00  0.00     0.074 A 
ATOM     46  C   UNL A   1      43.579  31.899  28.627  1.00  0.00     0.031 C 
ATOM     47  C   UNL A   1      41.501  25.363  27.863  1.00  0.00     0.029 A 
ATOM     48  C   UNL A   1      42.912  25.617  27.582  1.00  0.00     0.049 A 
ATOM     49  H   UNL A   1      43.935  27.423  27.773  1.00  0.00     0.167 HD
ATOM     50  C   UNL A   1      45.912  31.325  28.020  1.00  0.00     0.037 A 
ATOM     51  C   UNL A   1      43.797  24.700  27.148  1.00  0.00     0.037 A 
ATOM     52  C   UNL A   1      46.947  30.397  27.645  1.00  0.00     0.049 A 
ATOM     53  C   UNL A   1      45.227  25.109  26.920  1.00  0.00     0.074 A 
ATOM     54  C   UNL A   1      48.296  30.643  27.455  1.00  0.00     0.029 A 
ATOM     55  N   UNL A   1      46.750  29.045  27.403  1.00  0.00    -0.354 N 
ATOM     56  N   UNL A   1      45.777  26.292  27.060  1.00  0.00    -0.248 NA
ATOM     57  C   UNL A   1      46.159  24.060  26.487  1.00  0.00     0.031 C 
ATOM     58  C   UNL A   1      48.906  29.447  27.058  1.00  0.00     0.029 A 
ATOM     59  C   UNL A   1      47.949  28.446  27.049  1.00  0.00     0.049 A 
ATOM     60  H   UNL A   1      45.885  28.579  27.474  1.00  0.00     0.167 HD
ATOM     61  C   UNL A   1      47.123  26.125  26.754  1.00  0.00     0.074 A 
ATOM     62  C   UNL A   1      47.306  24.725  26.434  1.00  0.00     0.031 C 
ATOM     63  C   UNL A   1      48.116  27.048  26.738  1.00  0.00     0.037 A 
BRANCH  50  64
ATOM     64  C   UNL A   1      46.277  32.774  28.194  1.00  0.00     0.058 A 
ATOM     65  C   UNL A   1      46.741  33.274  29.423  1.00  0.00     0.135 A 
ATOM     66  C   UNL A   1      46.191  33.671  27.116  1.00  0.00     0.135 A 
ATOM     67  F   UNL A   1      46.830  32.466  30.491  1.00  0.00    -0.206 F 
ATOM     68  C   UNL A   1      47.071  34.615  29.586  1.00  0.00     0.059 A 
ATOM     69  C   UNL A   1      46.545  35.011  27.249  1.00  0.00     0.059 A 
ATOM     70  F   UNL A   1      45.758  33.247  25.918  1.00  0.00    -0.206 F 
ATOM     71  C   UNL A   1      46.966  35.478  28.494  1.00  0.00     0.060 A 
BRANCH  71  72
ATOM     72  S   UNL A   1      47.392  37.217  28.723  1.00  0.00     0.124 S 
ATOM     73  O   UNL A   1      46.751  37.506  30.002  1.00  0.00    -0.237 OA
ATOM     74  O   UNL A   1      48.851  37.182  28.739  1.00  0.00    -0.237 OA
ATOM     75  O   UNL A   1      46.797  37.869  27.562  1.00  0.00    -0.744 OA
ENDBRANCH  71  72
ENDBRANCH  50  64
BRANCH  51  76
ATOM     76  C   UNL A   1      43.358  23.297  26.920  1.00  0.00     0.058 A 
ATOM     77  C   UNL A   1      43.219  22.785  25.622  1.00  0.00     0.135 A 
ATOM     78  C   UNL A   1      43.092  22.435  27.995  1.00  0.00     0.135 A 
ATOM     79  F   UNL A   1      43.456  23.572  24.562  1.00  0.00    -0.206 F 
ATOM     80  C   UNL A   1      42.819  21.472  25.395  1.00  0.00     0.059 A 
ATOM     81  C   UNL A   1      42.716  21.111  27.795  1.00  0.00     0.059 A 
ATOM     82  F   UNL A   1      43.227  22.872  29.257  1.00  0.00    -0.206 F 
ATOM     83  C   UNL A   1      42.573  20.641  26.491  1.00  0.00     0.060 A 
BRANCH  83  84
ATOM     84  S   UNL A   1      42.109  18.923  26.185  1.00  0.00     0.124 S 
ATOM     85  O   UNL A   1      42.349  18.316  27.489  1.00  0.00    -0.237 OA
ATOM     86  O   UNL A   1      40.710  19.048  25.787  1.00  0.00    -0.237 OA
ATOM     87  O   UNL A   1      43.021  18.514  25.120  1.00  0.00    -0.744 OA
ENDBRANCH  83  84
ENDBRANCH  51  76
BRANCH  63  88
ATOM     88  C   UNL A   1      49.500  26.570  26.395  1.00  0.00     0.058 A 
ATOM     89  C   UNL A   1      50.040  26.736  25.110  1.00  0.00     0.135 A 
ATOM     90  C   UNL A   1      50.314  25.986  27.378  1.00  0.00     0.135 A 
ATOM     91  F   UNL A   1      49.301  27.283  24.131  1.00  0.00    -0.206 F 
ATOM     92  C   UNL A   1      51.333  26.320  24.806  1.00  0.00     0.059 A 
ATOM     93  C   UNL A   1      51.619  25.587  27.104  1.00  0.00     0.059 A 
ATOM     94  F   UNL A   1      49.849  25.813  28.626  1.00  0.00    -0.206 F 
ATOM     95  C   UNL A   1      52.115  25.747  25.811  1.00  0.00     0.060 A 
BRANCH  95  96
ATOM     96  S   UNL A   1      53.803  25.245  25.415  1.00  0.00     0.124 S 
ATOM     97  O   UNL A   1      53.882  25.578  23.996  1.00  0.00    -0.237 OA
ATOM     98  O   UNL A   1      54.598  26.084  26.307  1.00  0.00    -0.237 OA
ATOM     99  O   UNL A   1      53.815  23.820  25.728  1.00  0.00    -0.744 OA
ENDBRANCH  95  96
ENDBRANCH  63  88
ENDBRANCH  37  38
ENDBRANCH  29  32
ENDBRANCH  27  28
ENDBRANCH  26  27
ENDBRANCH   1  26
TORSDOF 18
ENDMDL
MODEL 2
REMARK VINA RESULT:     -11.5      1.306      1.906
REMARK SMILES CC[C@@](C)(NC(=O)N[C@@H](C)c1cccc(Br)c1)C(=O)NCCCCNC(=O)c1ccc(-c2c3nc(c(-c4c(F)cc(S(=O)(=O)[O-])cc4F)c4ccc([nH]4)c(-c4c(F)cc(S(=O)(=O)[O-])cc4F)c4nc(c(-c5c(F)cc(S(=O)(=O)[O-])cc5F)c5ccc2[nH]5)C=C4)C=C3)cc1
REMARK SMILES IDX 22 1 21 2 20 3 18 4 19 5 3 7 4 8 2 9 1 10 5 11 6 12 7 14
REMARK SMILES IDX 8 15 9 17 10 18 11 19 12 20 17 21 13 22 15 23 14 24 16 25
REMARK SMILES IDX 23 26 24 27 25 28 26 29 27 31 28 32 29 33 93 34 30 35 92 36
REMARK SMILES IDX 31 37 32 38 33 39 86 40 34 41 91 42 85 43 87 44 35 45 90 46
REMARK SMILES IDX 84 47 83 48 36 50 70 51 49 52 69 53 50 54 53 55 68 56 88 57
REMARK SMILES IDX 51 58 52 59 67 61 89 62 54 63 37 64 38 65 47 66 39 67 40 68
REMARK SMILES IDX 46 69 48 70 41 71 42 72 43 73 44 74 45 75 71 76 72 77 81 78
REMARK SMILES IDX 73 79 74 80 80 81 82 82 75 83 76 84 77 85 78 86 79 87 55 88
REMARK SMILES IDX 56 89 65 90 57 91 58 92 64 93 66 94 59 95 60 96 61 97 62 98
REMARK SMILES IDX 63 99
REMARK H PARENT 20 6 5 13 8 16 25 30 87 49 53 60
REMARK Flexibility Score: inf
ROOT
ATOM      1  C   UNL A   1      32.709  29.792  27.133  1.00  0.00     0.023 C 
ENDROOT
BRANCH   1   2
ATOM      2  C   UNL A   1      32.183  29.706  25.696  1.00  0.00     0.116 C 
BRANCH   2   3
ATOM      3  N   UNL A   1      33.134  29.699  24.596  1.00  0.00    -0.354 N 
ATOM      4  C   UNL A   1      33.338  28.852  23.538  1.00  0.00     0.245 C 
ATOM      5  O   UNL A   1      33.962  29.330  22.584  1.00  0.00    -0.272 OA
ATOM      6  H   UNL A   1      33.759  30.460  24.615  1.00  0.00     0.163 HD
BRANCH   4   7
ATOM      7  C   UNL A   1      32.721  27.423  23.465  1.00  0.00     0.117 C 
ATOM      8  C   UNL A   1      33.539  26.558  24.457  1.00  0.00     0.045 C 
BRANCH   7   9
ATOM      9  C   UNL A   1      31.221  27.257  23.860  1.00  0.00     0.035 C 
ATOM     10  C   UNL A   1      30.162  27.755  22.887  1.00  0.00     0.007 C 
ENDBRANCH   7   9
BRANCH   7  11
ATOM     11  N   UNL A   1      32.873  26.886  22.103  1.00  0.00    -0.324 N 
ATOM     12  C   UNL A   1      32.914  25.657  21.578  1.00  0.00     0.316 C 
ATOM     13  H   UNL A   1      32.968  27.593  21.423  1.00  0.00     0.166 HD
ATOM     14  O   UNL A   1      33.277  25.579  20.400  1.00  0.00    -0.249 OA
ATOM     15  N   UNL A   1      32.556  24.523  22.182  1.00  0.00    -0.332 N 
ATOM     16  H   UNL A   1      32.584  23.765  21.555  1.00  0.00     0.165 HD
BRANCH  15  17
ATOM     17  C   UNL A   1      32.133  24.083  23.512  1.00  0.00     0.111 C 
ATOM     18  C   UNL A   1      30.653  23.696  23.581  1.00  0.00     0.036 C 
BRANCH  17  19
ATOM     19  C   UNL A   1      32.948  22.889  23.978  1.00  0.00    -0.025 A 
ATOM     20  C   UNL A   1      32.307  21.654  24.164  1.00  0.00     0.006 A 
ATOM     21  C   UNL A   1      34.343  22.958  24.127  1.00  0.00     0.021 A 
ATOM     22  C   UNL A   1      33.041  20.513  24.484  1.00  0.00     0.002 A 
ATOM     23  C   UNL A   1      35.069  21.813  24.448  1.00  0.00     0.018 A 
ATOM     24  C   UNL A   1      34.425  20.591  24.624  1.00  0.00     0.016 A 
ATOM     25  Br  UNL A   1      36.949  21.916  24.618  1.00  0.00    -0.051 Br
ENDBRANCH  17  19
ENDBRANCH  15  17
ENDBRANCH   7  11
ENDBRANCH   4   7
ENDBRANCH   2   3
ENDBRANCH   1   2
BRANCH   1  26
ATOM     26  C   UNL A   1      33.986  29.048  27.518  1.00  0.00     0.023 C 
BRANCH  26  27
ATOM     27  C   UNL A   1      35.226  29.899  27.742  1.00  0.00     0.116 C 
BRANCH  27  28
ATOM     28  N   UNL A   1      35.254  30.471  29.076  1.00  0.00    -0.352 N 
ATOM     29  C   UNL A   1      36.276  30.506  29.992  1.00  0.00     0.251 C 
ATOM     30  H   UNL A   1      34.416  30.898  29.367  1.00  0.00     0.163 HD
ATOM     31  O   UNL A   1      36.037  30.860  31.143  1.00  0.00    -0.269 OA
BRANCH  29  32
ATOM     32  C   UNL A   1      37.649  30.106  29.608  1.00  0.00     0.039 A 
ATOM     33  C   UNL A   1      38.560  29.783  30.619  1.00  0.00     0.014 A 
ATOM     34  C   UNL A   1      38.060  30.093  28.271  1.00  0.00     0.014 A 
ATOM     35  C   UNL A   1      39.865  29.409  30.289  1.00  0.00     0.010 A 
ATOM     36  C   UNL A   1      39.343  29.660  27.940  1.00  0.00     0.010 A 
ATOM     37  C   UNL A   1      40.263  29.324  28.945  1.00  0.00    -0.014 A 
BRANCH  37  38
ATOM     38  C   UNL A   1      41.639  28.900  28.578  1.00  0.00     0.031 A 
ATOM     39  C   UNL A   1      42.753  29.911  28.522  1.00  0.00     0.074 A 
ATOM     40  C   UNL A   1      41.875  27.615  28.246  1.00  0.00     0.049 A 
ATOM     41  N   UNL A   1      44.002  29.745  28.169  1.00  0.00    -0.248 NA
ATOM     42  C   UNL A   1      42.413  31.294  28.889  1.00  0.00     0.031 C 
ATOM     43  C   UNL A   1      40.870  26.551  28.219  1.00  0.00     0.029 A 
ATOM     44  N   UNL A   1      43.032  26.988  27.858  1.00  0.00    -0.354 N 
ATOM     45  C   UNL A   1      44.593  31.001  28.260  1.00  0.00     0.074 A 
ATOM     46  C   UNL A   1      43.553  31.927  28.652  1.00  0.00     0.031 C 
ATOM     47  C   UNL A   1      41.456  25.402  27.849  1.00  0.00     0.029 A 
ATOM     48  C   UNL A   1      42.869  25.651  27.580  1.00  0.00     0.049 A 
ATOM     49  H   UNL A   1      43.898  27.452  27.784  1.00  0.00     0.167 HD
ATOM     50  C   UNL A   1      45.888  31.346  28.059  1.00  0.00     0.037 A 
ATOM     51  C   UNL A   1      43.754  24.732  27.148  1.00  0.00     0.037 A 
ATOM     52  C   UNL A   1      46.922  30.415  27.689  1.00  0.00     0.049 A 
ATOM     53  C   UNL A   1      45.188  25.137  26.933  1.00  0.00     0.074 A 
ATOM     54  C   UNL A   1      48.273  30.656  27.509  1.00  0.00     0.029 A 
ATOM     55  N   UNL A   1      46.722  29.064  27.440  1.00  0.00    -0.354 N 
ATOM     56  N   UNL A   1      45.740  26.317  27.080  1.00  0.00    -0.248 NA
ATOM     57  C   UNL A   1      46.119  24.085  26.502  1.00  0.00     0.031 C 
ATOM     58  C   UNL A   1      48.882  29.460  27.113  1.00  0.00     0.029 A 
ATOM     59  C   UNL A   1      47.921  28.463  27.092  1.00  0.00     0.049 A 
ATOM     60  H   UNL A   1      45.855  28.602  27.503  1.00  0.00     0.167 HD
ATOM     61  C   UNL A   1      47.088  26.146  26.783  1.00  0.00     0.074 A 
ATOM     62  C   UNL A   1      47.268  24.746  26.460  1.00  0.00     0.031 C 
ATOM     63  C   UNL A   1      48.085  27.065  26.778  1.00  0.00     0.037 A 
BRANCH  50  64
ATOM     64  C   UNL A   1      46.258  32.793  28.241  1.00  0.00     0.058 A 
ATOM     65  C   UNL A   1      46.117  33.726  27.200  1.00  0.00     0.135 A 
ATOM     66  C   UNL A   1      46.733  33.262  29.477  1.00  0.00     0.135 A 
ATOM     67  F   UNL A   1      45.681  33.331  25.993  1.00  0.00    -0.206 F 
ATOM     68  C   UNL A   1      46.466  35.062  27.367  1.00  0.00     0.059 A 
ATOM     69  C   UNL A   1      47.060  34.600  29.675  1.00  0.00     0.059 A 
ATOM     70  F   UNL A   1      46.884  32.415  30.508  1.00  0.00    -0.206 F 
ATOM     71  C   UNL A   1      46.941  35.490  28.608  1.00  0.00     0.060 A 
BRANCH  71  72
ATOM     72  S   UNL A   1      47.396  37.225  28.806  1.00  0.00     0.124 S 
ATOM     73  O   UNL A   1      48.679  37.270  28.111  1.00  0.00    -0.237 OA
ATOM     74  O   UNL A   1      46.293  37.915  28.145  1.00  0.00    -0.237 OA
ATOM     75  O   UNL A   1      47.461  37.397  30.254  1.00  0.00    -0.744 OA
ENDBRANCH  71  72
ENDBRANCH  50  64
BRANCH  51  76
ATOM     76  C   UNL A   1      43.311  23.332  26.913  1.00  0.00     0.058 A 
ATOM     77  C   UNL A   1      43.143  22.836  25.612  1.00  0.00     0.135 A 
ATOM     78  C   UNL A   1      43.071  22.455  27.982  1.00  0.00     0.135 A 
ATOM     79  F   UNL A   1      43.355  23.638  24.557  1.00  0.00    -0.206 F 
ATOM     80  C   UNL A   1      42.739  21.526  25.377  1.00  0.00     0.059 A 
ATOM     81  C   UNL A   1      42.691  21.133  27.774  1.00  0.00     0.059 A 
ATOM     82  F   UNL A   1      43.234  22.876  29.246  1.00  0.00    -0.206 F 
ATOM     83  C   UNL A   1      42.519  20.681  26.466  1.00  0.00     0.060 A 
BRANCH  83  84
ATOM     84  S   UNL A   1      42.050  18.966  26.149  1.00  0.00     0.124 S 
ATOM     85  O   UNL A   1      42.286  18.350  27.450  1.00  0.00    -0.237 OA
ATOM     86  O   UNL A   1      40.652  19.098  25.750  1.00  0.00    -0.237 OA
ATOM     87  O   UNL A   1      42.962  18.561  25.083  1.00  0.00    -0.744 OA
ENDBRANCH  83  84
ENDBRANCH  51  76
BRANCH  63  88
ATOM     88  C   UNL A   1      49.469  26.583  26.443  1.00  0.00     0.058 A 
ATOM     89  C   UNL A   1      49.980  26.655  25.138  1.00  0.00     0.135 A 
ATOM     90  C   UNL A   1      50.314  26.091  27.452  1.00  0.00     0.135 A 
ATOM     91  F   UNL A   1      49.211  27.110  24.136  1.00  0.00    -0.206 F 
ATOM     92  C   UNL A   1      51.273  26.236  24.839  1.00  0.00     0.059 A 
ATOM     93  C   UNL A   1      51.619  25.692  27.181  1.00  0.00     0.059 A 
ATOM     94  F   UNL A   1      49.878  26.011  28.719  1.00  0.00    -0.206 F 
ATOM     95  C   UNL A   1      52.086  25.757  25.869  1.00  0.00     0.060 A 
BRANCH  95  96
ATOM     96  S   UNL A   1      53.773  25.251  25.476  1.00  0.00     0.124 S 
ATOM     97  O   UNL A   1      53.540  24.088  24.625  1.00  0.00    -0.237 OA
ATOM     98  O   UNL A   1      54.306  26.432  24.802  1.00  0.00    -0.237 OA
ATOM     99  O   UNL A   1      54.356  24.967  26.783  1.00  0.00    -0.744 OA
ENDBRANCH  95  96
ENDBRANCH  63  88
ENDBRANCH  37  38
ENDBRANCH  29  32
ENDBRANCH  27  28
ENDBRANCH  26  27
ENDBRANCH   1  26
TORSDOF 18
ENDMDL
MODEL 3
REMARK VINA RESULT:     -11.1      4.933      6.260
REMARK SMILES CC[C@@](C)(NC(=O)N[C@@H](C)c1cccc(Br)c1)C(=O)NCCCCNC(=O)c1ccc(-c2c3nc(c(-c4c(F)cc(S(=O)(=O)[O-])cc4F)c4ccc([nH]4)c(-c4c(F)cc(S(=O)(=O)[O-])cc4F)c4nc(c(-c5c(F)cc(S(=O)(=O)[O-])cc5F)c5ccc2[nH]5)C=C4)C=C3)cc1
REMARK SMILES IDX 22 1 21 2 20 3 18 4 19 5 3 7 4 8 2 9 1 10 5 11 6 12 7 14
REMARK SMILES IDX 8 15 9 17 10 18 11 19 12 20 17 21 13 22 15 23 14 24 16 25
REMARK SMILES IDX 23 26 24 27 25 28 26 29 27 31 28 32 29 33 93 34 30 35 92 36
REMARK SMILES IDX 31 37 32 38 33 39 86 40 34 41 91 42 85 43 87 44 35 45 90 46
REMARK SMILES IDX 84 47 83 48 36 50 70 51 49 52 69 53 50 54 53 55 68 56 88 57
REMARK SMILES IDX 51 58 52 59 67 61 89 62 54 63 37 64 38 65 47 66 39 67 40 68
REMARK SMILES IDX 46 69 48 70 41 71 42 72 43 73 44 74 45 75 71 76 72 77 81 78
REMARK SMILES IDX 73 79 74 80 80 81 82 82 75 83 76 84 77 85 78 86 79 87 55 88
REMARK SMILES IDX 56 89 65 90 57 91 58 92 64 93 66 94 59 95 60 96 61 97 62 98
REMARK SMILES IDX 63 99
REMARK H PARENT 20 6 5 13 8 16 25 30 87 49 53 60
REMARK Flexibility Score: inf
ROOT
ATOM      1  C   UNL A   1      31.797  27.764  26.697  1.00  0.00     0.023 C 
ENDROOT
BRANCH   1   2
ATOM      2  C   UNL A   1      31.044  27.135  25.521  1.00  0.00     0.116 C 
BRANCH   2   3
ATOM      3  N   UNL A   1      30.569  25.765  25.639  1.00  0.00    -0.354 N 
ATOM      4  C   UNL A   1      30.896  24.600  24.995  1.00  0.00     0.245 C 
ATOM      5  O   UNL A   1      30.593  23.559  25.588  1.00  0.00    -0.272 OA
ATOM      6  H   UNL A   1      29.868  25.652  26.322  1.00  0.00     0.163 HD
BRANCH   4   7
ATOM      7  C   UNL A   1      31.713  24.565  23.668  1.00  0.00     0.117 C 
ATOM      8  C   UNL A   1      31.052  25.614  22.738  1.00  0.00     0.045 C 
BRANCH   7   9
ATOM      9  C   UNL A   1      33.229  24.922  23.738  1.00  0.00     0.035 C 
ATOM     10  C   UNL A   1      33.687  26.237  23.125  1.00  0.00     0.007 C 
ENDBRANCH   7   9
BRANCH   7  11
ATOM     11  N   UNL A   1      31.608  23.230  23.057  1.00  0.00    -0.324 N 
ATOM     12  C   UNL A   1      32.270  22.078  23.202  1.00  0.00     0.316 C 
ATOM     13  H   UNL A   1      30.886  23.172  22.390  1.00  0.00     0.166 HD
ATOM     14  O   UNL A   1      32.044  21.208  22.354  1.00  0.00    -0.249 OA
ATOM     15  N   UNL A   1      33.106  21.761  24.193  1.00  0.00    -0.332 N 
ATOM     16  H   UNL A   1      33.390  20.820  24.127  1.00  0.00     0.165 HD
BRANCH  15  17
ATOM     17  C   UNL A   1      33.723  22.412  25.349  1.00  0.00     0.111 C 
ATOM     18  C   UNL A   1      33.087  22.007  26.682  1.00  0.00     0.036 C 
BRANCH  17  19
ATOM     19  C   UNL A   1      35.206  22.098  25.426  1.00  0.00    -0.025 A 
ATOM     20  C   UNL A   1      35.677  20.882  24.905  1.00  0.00     0.006 A 
ATOM     21  C   UNL A   1      36.136  23.034  25.909  1.00  0.00     0.021 A 
ATOM     22  C   UNL A   1      37.043  20.609  24.859  1.00  0.00     0.002 A 
ATOM     23  C   UNL A   1      37.500  22.752  25.861  1.00  0.00     0.018 A 
ATOM     24  C   UNL A   1      37.957  21.547  25.336  1.00  0.00     0.016 A 
ATOM     25  Br  UNL A   1      38.741  24.033  26.489  1.00  0.00    -0.051 Br
ENDBRANCH  17  19
ENDBRANCH  15  17
ENDBRANCH   7  11
ENDBRANCH   4   7
ENDBRANCH   2   3
ENDBRANCH   1   2
BRANCH   1  26
ATOM     26  C   UNL A   1      33.321  27.674  26.756  1.00  0.00     0.023 C 
BRANCH  26  27
ATOM     27  C   UNL A   1      34.093  28.716  25.962  1.00  0.00     0.116 C 
BRANCH  27  28
ATOM     28  N   UNL A   1      33.751  30.067  26.369  1.00  0.00    -0.352 N 
ATOM     29  C   UNL A   1      34.292  30.845  27.361  1.00  0.00     0.251 C 
ATOM     30  H   UNL A   1      33.024  30.488  25.857  1.00  0.00     0.163 HD
ATOM     31  O   UNL A   1      33.727  31.888  27.680  1.00  0.00    -0.269 OA
BRANCH  29  32
ATOM     32  C   UNL A   1      35.532  30.430  28.057  1.00  0.00     0.039 A 
ATOM     33  C   UNL A   1      36.764  30.792  27.502  1.00  0.00     0.014 A 
ATOM     34  C   UNL A   1      35.493  29.652  29.217  1.00  0.00     0.014 A 
ATOM     35  C   UNL A   1      37.952  30.409  28.130  1.00  0.00     0.010 A 
ATOM     36  C   UNL A   1      36.677  29.324  29.877  1.00  0.00     0.010 A 
ATOM     37  C   UNL A   1      37.919  29.689  29.336  1.00  0.00    -0.014 A 
BRANCH  37  38
ATOM     38  C   UNL A   1      39.173  29.300  30.030  1.00  0.00     0.031 A 
ATOM     39  C   UNL A   1      39.611  30.033  31.270  1.00  0.00     0.074 A 
ATOM     40  C   UNL A   1      39.944  28.321  29.517  1.00  0.00     0.049 A 
ATOM     41  N   UNL A   1      40.699  29.878  31.981  1.00  0.00    -0.248 NA
ATOM     42  C   UNL A   1      38.720  31.095  31.762  1.00  0.00     0.031 C 
ATOM     43  C   UNL A   1      39.650  27.566  28.297  1.00  0.00     0.029 A 
ATOM     44  N   UNL A   1      41.137  27.800  29.950  1.00  0.00    -0.354 N 
ATOM     45  C   UNL A   1      40.629  30.828  32.995  1.00  0.00     0.074 A 
ATOM     46  C   UNL A   1      39.417  31.587  32.776  1.00  0.00     0.031 C 
ATOM     47  C   UNL A   1      40.628  26.671  28.088  1.00  0.00     0.029 A 
ATOM     48  C   UNL A   1      41.635  26.808  29.136  1.00  0.00     0.049 A 
ATOM     49  H   UNL A   1      41.595  28.107  30.765  1.00  0.00     0.167 HD
ATOM     50  C   UNL A   1      41.484  31.032  34.026  1.00  0.00     0.037 A 
ATOM     51  C   UNL A   1      42.776  26.097  29.219  1.00  0.00     0.037 A 
ATOM     52  C   UNL A   1      42.678  30.259  34.249  1.00  0.00     0.049 A 
ATOM     53  C   UNL A   1      43.710  26.339  30.374  1.00  0.00     0.074 A 
ATOM     54  C   UNL A   1      43.584  30.355  35.291  1.00  0.00     0.029 A 
ATOM     55  N   UNL A   1      43.134  29.246  33.416  1.00  0.00    -0.354 N 
ATOM     56  N   UNL A   1      43.598  27.202  31.356  1.00  0.00    -0.248 NA
ATOM     57  C   UNL A   1      44.919  25.507  30.438  1.00  0.00     0.031 C 
ATOM     58  C   UNL A   1      44.608  29.428  35.067  1.00  0.00     0.029 A 
ATOM     59  C   UNL A   1      44.317  28.721  33.912  1.00  0.00     0.049 A 
ATOM     60  H   UNL A   1      42.683  28.946  32.594  1.00  0.00     0.167 HD
ATOM     61  C   UNL A   1      44.709  27.001  32.168  1.00  0.00     0.074 A 
ATOM     62  C   UNL A   1      45.473  25.926  31.568  1.00  0.00     0.031 C 
ATOM     63  C   UNL A   1      45.064  27.647  33.305  1.00  0.00     0.037 A 
BRANCH  50  64
ATOM     64  C   UNL A   1      41.152  32.134  34.995  1.00  0.00     0.058 A 
ATOM     65  C   UNL A   1      40.296  31.920  36.089  1.00  0.00     0.135 A 
ATOM     66  C   UNL A   1      41.716  33.412  34.849  1.00  0.00     0.135 A 
ATOM     67  F   UNL A   1      39.717  30.723  36.270  1.00  0.00    -0.206 F 
ATOM     68  C   UNL A   1      39.984  32.942  36.980  1.00  0.00     0.059 A 
ATOM     69  C   UNL A   1      41.441  34.441  35.746  1.00  0.00     0.059 A 
ATOM     70  F   UNL A   1      42.544  33.672  33.824  1.00  0.00    -0.206 F 
ATOM     71  C   UNL A   1      40.558  34.200  36.798  1.00  0.00     0.060 A 
BRANCH  71  72
ATOM     72  S   UNL A   1      40.138  35.517  37.959  1.00  0.00     0.124 S 
ATOM     73  O   UNL A   1      39.940  36.647  37.057  1.00  0.00    -0.237 OA
ATOM     74  O   UNL A   1      38.933  34.997  38.598  1.00  0.00    -0.237 OA
ATOM     75  O   UNL A   1      41.314  35.601  38.820  1.00  0.00    -0.744 OA
ENDBRANCH  71  72
ENDBRANCH  50  64
BRANCH  51  76
ATOM     76  C   UNL A   1      43.085  25.072  28.187  1.00  0.00     0.058 A 
ATOM     77  C   UNL A   1      43.730  25.421  26.992  1.00  0.00     0.135 A 
ATOM     78  C   UNL A   1      42.765  23.720  28.385  1.00  0.00     0.135 A 
ATOM     79  F   UNL A   1      44.051  26.702  26.754  1.00  0.00    -0.206 F 
ATOM     80  C   UNL A   1      44.035  24.472  26.023  1.00  0.00     0.059 A 
ATOM     81  C   UNL A   1      43.082  22.747  27.443  1.00  0.00     0.059 A 
ATOM     82  F   UNL A   1      42.163  23.331  29.520  1.00  0.00    -0.206 F 
ATOM     83  C   UNL A   1      43.710  23.135  26.261  1.00  0.00     0.060 A 
BRANCH  83  84
ATOM     84  S   UNL A   1      44.160  21.901  25.021  1.00  0.00     0.124 S 
ATOM     85  O   UNL A   1      43.859  22.606  23.780  1.00  0.00    -0.237 OA
ATOM     86  O   UNL A   1      45.576  21.683  25.304  1.00  0.00    -0.237 OA
ATOM     87  O   UNL A   1      43.285  20.775  25.336  1.00  0.00    -0.744 OA
ENDBRANCH  83  84
ENDBRANCH  51  76
BRANCH  63  88
ATOM     88  C   UNL A   1      46.318  27.192  33.998  1.00  0.00     0.058 A 
ATOM     89  C   UNL A   1      46.301  26.170  34.960  1.00  0.00     0.135 A 
ATOM     90  C   UNL A   1      47.561  27.749  33.656  1.00  0.00     0.135 A 
ATOM     91  F   UNL A   1      45.138  25.609  35.329  1.00  0.00    -0.206 F 
ATOM     92  C   UNL A   1      47.469  25.731  35.575  1.00  0.00     0.059 A 
ATOM     93  C   UNL A   1      48.745  27.307  34.238  1.00  0.00     0.059 A 
ATOM     94  F   UNL A   1      47.635  28.722  32.734  1.00  0.00    -0.206 F 
ATOM     95  C   UNL A   1      48.688  26.305  35.206  1.00  0.00     0.060 A 
BRANCH  95  96
ATOM     96  S   UNL A   1      50.200  25.702  35.985  1.00  0.00     0.124 S 
ATOM     97  O   UNL A   1      51.225  26.387  35.204  1.00  0.00    -0.237 OA
ATOM     98  O   UNL A   1      50.046  26.156  37.364  1.00  0.00    -0.237 OA
ATOM     99  O   UNL A   1      50.126  24.257  35.796  1.00  0.00    -0.744 OA
ENDBRANCH  95  96
ENDBRANCH  63  88
ENDBRANCH  37  38
ENDBRANCH  29  32
ENDBRANCH  27  28
ENDBRANCH  26  27
ENDBRANCH   1  26
TORSDOF 18
ENDMDL
