MODEL 1
REMARK VINA RESULT:     -14.7      0.000      0.000
REMARK SMILES Cc1cc(C(=O)NCCCCNC(=O)c2ccc(-c3c4nc(c(-c5c(F)cc(S(=O)(=O)[O-])cc5F)c5ccc([nH]5)c(-c5c(F)cc(S(=O)(=O)[O-])cc5F)c5nc(c(-c6c(F)cc(S(=O)(=O)[O-])cc6F)c6ccc3[nH]6)C=C5)C=C4)cc2)ccc1NS(=O)(=O)c1ccc2c(c1)CCC2
REMARK SMILES IDX 9 1 8 2 7 3 5 4 6 5 4 7 1 8 2 9 3 10 83 11 82 12 81 13 84 14
REMARK SMILES IDX 85 16 86 17 87 18 88 19 89 20 93 21 90 22 92 23 91 24 94 25
REMARK SMILES IDX 96 26 95 27 10 28 11 29 12 30 13 31 14 33 15 34 16 35 80 36
REMARK SMILES IDX 17 37 79 38 18 39 19 40 20 41 73 42 21 43 78 44 72 45 74 46
REMARK SMILES IDX 22 47 77 48 71 49 70 50 23 52 57 53 36 54 56 55 37 56 40 57
REMARK SMILES IDX 55 58 75 59 38 60 39 61 54 63 76 64 41 65 24 66 25 67 34 68
REMARK SMILES IDX 26 69 27 70 33 71 35 72 28 73 29 74 30 75 31 76 32 77 58 78
REMARK SMILES IDX 59 79 68 80 60 81 61 82 67 83 69 84 62 85 63 86 64 87 65 88
REMARK SMILES IDX 66 89 42 90 43 91 52 92 44 93 45 94 51 95 53 96 46 97 47 98
REMARK SMILES IDX 48 99 49 100 50 101
REMARK H PARENT 7 6 84 15 12 32 74 51 40 62
REMARK Flexibility Score: inf
ROOT
ATOM      1  C   UNL A   1      32.557  30.090  25.527  1.00  0.00     0.023 C 
ENDROOT
BRANCH   1   2
ATOM      2  C   UNL A   1      31.077  29.886  25.178  1.00  0.00     0.116 C 
BRANCH   2   3
ATOM      3  N   UNL A   1      30.749  30.099  23.773  1.00  0.00    -0.352 N 
ATOM      4  C   UNL A   1      30.316  29.238  22.790  1.00  0.00     0.251 C 
ATOM      5  O   UNL A   1      30.147  29.664  21.648  1.00  0.00    -0.269 OA
ATOM      6  H   UNL A   1      30.857  31.030  23.473  1.00  0.00     0.163 HD
BRANCH   4   7
ATOM      7  C   UNL A   1      30.159  27.783  23.041  1.00  0.00     0.040 A 
ATOM      8  C   UNL A   1      32.391  24.739  22.693  1.00  0.00     0.046 C 
ATOM      9  C   UNL A   1      31.264  25.620  23.157  1.00  0.00    -0.026 A 
ATOM     10  C   UNL A   1      31.227  26.947  22.703  1.00  0.00     0.019 A 
ATOM     11  C   UNL A   1      30.252  25.180  24.026  1.00  0.00     0.052 A 
ATOM     12  C   UNL A   1      29.062  25.908  24.095  1.00  0.00     0.028 A 
ATOM     13  C   UNL A   1      29.017  27.218  23.602  1.00  0.00     0.016 A 
BRANCH  11  14
ATOM     14  N   UNL A   1      30.589  24.149  24.952  1.00  0.00    -0.279 N 
ATOM     15  H   UNL A   1      30.467  23.228  24.628  1.00  0.00     0.180 HD
BRANCH  14  16
ATOM     16  S   UNL A   1      31.162  24.295  26.511  1.00  0.00     0.261 S 
ATOM     17  O   UNL A   1      31.302  25.706  26.803  1.00  0.00    -0.201 OA
ATOM     18  O   UNL A   1      30.290  23.454  27.306  1.00  0.00    -0.201 OA
BRANCH  16  19
ATOM     19  C   UNL A   1      32.788  23.571  26.622  1.00  0.00     0.088 A 
ATOM     20  C   UNL A   1      33.049  22.388  27.330  1.00  0.00     0.022 A 
ATOM     21  C   UNL A   1      33.774  24.149  25.806  1.00  0.00     0.026 A 
ATOM     22  C   UNL A   1      34.211  21.660  27.062  1.00  0.00     0.005 A 
ATOM     23  C   UNL A   1      34.938  23.436  25.588  1.00  0.00    -0.043 A 
ATOM     24  C   UNL A   1      35.111  22.168  26.145  1.00  0.00    -0.045 A 
ATOM     25  C   UNL A   1      36.125  23.806  24.758  1.00  0.00     0.036 C 
ATOM     26  C   UNL A   1      36.332  21.500  25.586  1.00  0.00     0.036 C 
ATOM     27  C   UNL A   1      36.649  22.414  24.389  1.00  0.00     0.010 C 
ENDBRANCH  16  19
ENDBRANCH  14  16
ENDBRANCH  11  14
ENDBRANCH   4   7
ENDBRANCH   2   3
ENDBRANCH   1   2
BRANCH   1  28
ATOM     28  C   UNL A   1      32.885  30.331  27.000  1.00  0.00     0.023 C 
BRANCH  28  29
ATOM     29  C   UNL A   1      34.327  30.005  27.386  1.00  0.00     0.116 C 
BRANCH  29  30
ATOM     30  N   UNL A   1      35.137  31.178  27.697  1.00  0.00    -0.352 N 
ATOM     31  C   UNL A   1      36.434  31.230  28.189  1.00  0.00     0.251 C 
ATOM     32  H   UNL A   1      34.705  32.048  27.536  1.00  0.00     0.163 HD
ATOM     33  O   UNL A   1      36.945  32.284  28.524  1.00  0.00    -0.269 OA
BRANCH  31  34
ATOM     34  C   UNL A   1      37.209  29.969  28.225  1.00  0.00     0.039 A 
ATOM     35  C   UNL A   1      37.180  29.208  29.400  1.00  0.00     0.014 A 
ATOM     36  C   UNL A   1      38.127  29.691  27.219  1.00  0.00     0.014 A 
ATOM     37  C   UNL A   1      38.215  28.312  29.659  1.00  0.00     0.010 A 
ATOM     38  C   UNL A   1      39.205  28.884  27.522  1.00  0.00     0.010 A 
ATOM     39  C   UNL A   1      39.280  28.238  28.765  1.00  0.00    -0.014 A 
BRANCH  39  40
ATOM     40  C   UNL A   1      40.568  27.624  29.073  1.00  0.00     0.031 A 
ATOM     41  C   UNL A   1      40.844  26.218  28.692  1.00  0.00     0.074 A 
ATOM     42  C   UNL A   1      41.569  28.403  29.537  1.00  0.00     0.049 A 
ATOM     43  N   UNL A   1      41.870  25.533  29.071  1.00  0.00    -0.248 NA
ATOM     44  C   UNL A   1      39.916  25.444  27.878  1.00  0.00     0.031 C 
ATOM     45  C   UNL A   1      43.002  28.135  29.463  1.00  0.00     0.029 A 
ATOM     46  N   UNL A   1      41.478  29.536  30.341  1.00  0.00    -0.354 N 
ATOM     47  C   UNL A   1      41.901  24.367  28.333  1.00  0.00     0.074 A 
ATOM     48  C   UNL A   1      40.617  24.326  27.676  1.00  0.00     0.031 C 
ATOM     49  C   UNL A   1      43.641  28.924  30.339  1.00  0.00     0.029 A 
ATOM     50  C   UNL A   1      42.631  29.594  31.139  1.00  0.00     0.049 A 
ATOM     51  H   UNL A   1      40.736  30.184  30.347  1.00  0.00     0.167 HD
ATOM     52  C   UNL A   1      43.068  23.656  28.263  1.00  0.00     0.037 A 
ATOM     53  C   UNL A   1      42.550  29.488  32.500  1.00  0.00     0.037 A 
ATOM     54  C   UNL A   1      44.053  24.189  29.211  1.00  0.00     0.049 A 
ATOM     55  C   UNL A   1      43.238  28.271  33.076  1.00  0.00     0.074 A 
ATOM     56  C   UNL A   1      45.143  25.033  29.066  1.00  0.00     0.029 A 
ATOM     57  N   UNL A   1      43.811  24.098  30.580  1.00  0.00    -0.354 N 
ATOM     58  N   UNL A   1      43.612  27.240  32.371  1.00  0.00    -0.248 NA
ATOM     59  C   UNL A   1      43.544  28.112  34.496  1.00  0.00     0.031 C 
ATOM     60  C   UNL A   1      45.500  25.517  30.350  1.00  0.00     0.029 A 
ATOM     61  C   UNL A   1      44.647  24.948  31.280  1.00  0.00     0.049 A 
ATOM     62  H   UNL A   1      43.137  23.510  30.991  1.00  0.00     0.167 HD
ATOM     63  C   UNL A   1      44.143  26.285  33.195  1.00  0.00     0.074 A 
ATOM     64  C   UNL A   1      44.110  26.891  34.513  1.00  0.00     0.031 C 
ATOM     65  C   UNL A   1      44.549  25.067  32.729  1.00  0.00     0.037 A 
BRANCH  52  66
ATOM     66  C   UNL A   1      43.429  22.696  27.131  1.00  0.00     0.058 A 
ATOM     67  C   UNL A   1      42.776  21.444  27.012  1.00  0.00     0.135 A 
ATOM     68  C   UNL A   1      44.462  22.885  26.190  1.00  0.00     0.135 A 
ATOM     69  F   UNL A   1      41.694  21.147  27.744  1.00  0.00    -0.206 F 
ATOM     70  C   UNL A   1      43.199  20.433  26.141  1.00  0.00     0.059 A 
ATOM     71  C   UNL A   1      44.934  21.877  25.342  1.00  0.00     0.059 A 
ATOM     72  F   UNL A   1      45.028  24.078  25.994  1.00  0.00    -0.206 F 
ATOM     73  C   UNL A   1      44.309  20.643  25.337  1.00  0.00     0.060 A 
BRANCH  73  74
ATOM     74  S   UNL A   1      44.904  19.309  24.281  1.00  0.00     0.124 S 
ATOM     75  O   UNL A   1      44.114  18.173  24.747  1.00  0.00    -0.237 OA
ATOM     76  O   UNL A   1      44.580  19.805  22.949  1.00  0.00    -0.237 OA
ATOM     77  O   UNL A   1      46.329  19.238  24.592  1.00  0.00    -0.744 OA
ENDBRANCH  73  74
ENDBRANCH  52  66
BRANCH  53  78
ATOM     78  C   UNL A   1      41.342  30.140  33.074  1.00  0.00     0.058 A 
ATOM     79  C   UNL A   1      41.375  31.536  33.229  1.00  0.00     0.135 A 
ATOM     80  C   UNL A   1      40.084  29.520  33.011  1.00  0.00     0.135 A 
ATOM     81  F   UNL A   1      42.552  32.178  33.314  1.00  0.00    -0.206 F 
ATOM     82  C   UNL A   1      40.221  32.302  33.135  1.00  0.00     0.059 A 
ATOM     83  C   UNL A   1      38.913  30.273  32.909  1.00  0.00     0.059 A 
ATOM     84  F   UNL A   1      39.994  28.188  32.875  1.00  0.00    -0.206 F 
ATOM     85  C   UNL A   1      39.010  31.663  32.885  1.00  0.00     0.060 A 
BRANCH  85  86
ATOM     86  S   UNL A   1      37.643  32.687  32.290  1.00  0.00     0.124 S 
ATOM     87  O   UNL A   1      36.709  31.686  31.787  1.00  0.00    -0.237 OA
ATOM     88  O   UNL A   1      37.241  33.359  33.526  1.00  0.00    -0.237 OA
ATOM     89  O   UNL A   1      38.272  33.534  31.284  1.00  0.00    -0.744 OA
ENDBRANCH  85  86
ENDBRANCH  53  78
BRANCH  65  90
ATOM     90  C   UNL A   1      44.962  23.901  33.591  1.00  0.00     0.058 A 
ATOM     91  C   UNL A   1      44.096  22.862  33.970  1.00  0.00     0.135 A 
ATOM     92  C   UNL A   1      46.320  23.729  33.950  1.00  0.00     0.135 A 
ATOM     93  F   UNL A   1      42.808  22.859  33.596  1.00  0.00    -0.206 F 
ATOM     94  C   UNL A   1      44.528  21.759  34.710  1.00  0.00     0.059 A 
ATOM     95  C   UNL A   1      46.784  22.611  34.641  1.00  0.00     0.059 A 
ATOM     96  F   UNL A   1      47.248  24.643  33.626  1.00  0.00    -0.206 F 
ATOM     97  C   UNL A   1      45.875  21.642  35.041  1.00  0.00     0.060 A 
BRANCH  97  98
ATOM     98  S   UNL A   1      46.459  20.192  35.939  1.00  0.00     0.124 S 
ATOM     99  O   UNL A   1      47.896  20.443  35.992  1.00  0.00    -0.237 OA
ATOM    100  O   UNL A   1      45.756  20.290  37.214  1.00  0.00    -0.237 OA
ATOM    101  O   UNL A   1      46.039  19.085  35.084  1.00  0.00    -0.744 OA
ENDBRANCH  97  98
ENDBRANCH  65  90
ENDBRANCH  39  40
ENDBRANCH  31  34
ENDBRANCH  29  30
ENDBRANCH  28  29
ENDBRANCH   1  28
TORSDOF 17
ENDMDL
MODEL 2
REMARK VINA RESULT:     -14.5      4.520     11.287
REMARK SMILES Cc1cc(C(=O)NCCCCNC(=O)c2ccc(-c3c4nc(c(-c5c(F)cc(S(=O)(=O)[O-])cc5F)c5ccc([nH]5)c(-c5c(F)cc(S(=O)(=O)[O-])cc5F)c5nc(c(-c6c(F)cc(S(=O)(=O)[O-])cc6F)c6ccc3[nH]6)C=C5)C=C4)cc2)ccc1NS(=O)(=O)c1ccc2c(c1)CCC2
REMARK SMILES IDX 9 1 8 2 7 3 5 4 6 5 4 7 1 8 2 9 3 10 83 11 82 12 81 13 84 14
REMARK SMILES IDX 85 16 86 17 87 18 88 19 89 20 93 21 90 22 92 23 91 24 94 25
REMARK SMILES IDX 96 26 95 27 10 28 11 29 12 30 13 31 14 33 15 34 16 35 80 36
REMARK SMILES IDX 17 37 79 38 18 39 19 40 20 41 73 42 21 43 78 44 72 45 74 46
REMARK SMILES IDX 22 47 77 48 71 49 70 50 23 52 57 53 36 54 56 55 37 56 40 57
REMARK SMILES IDX 55 58 75 59 38 60 39 61 54 63 76 64 41 65 24 66 25 67 34 68
REMARK SMILES IDX 26 69 27 70 33 71 35 72 28 73 29 74 30 75 31 76 32 77 58 78
REMARK SMILES IDX 59 79 68 80 60 81 61 82 67 83 69 84 62 85 63 86 64 87 65 88
REMARK SMILES IDX 66 89 42 90 43 91 52 92 44 93 45 94 51 95 53 96 46 97 47 98
REMARK SMILES IDX 48 99 49 100 50 101
REMARK H PARENT 7 6 84 15 12 32 74 51 40 62
REMARK Flexibility Score: inf
ROOT
ATOM      1  C   UNL A   1      36.833  20.969  25.343  1.00  0.00     0.023 C 
ENDROOT
BRANCH   1   2
ATOM      2  C   UNL A   1      35.389  21.359  25.683  1.00  0.00     0.116 C 
BRANCH   2   3
ATOM      3  N   UNL A   1      34.488  20.232  25.892  1.00  0.00    -0.352 N 
ATOM      4  C   UNL A   1      33.220  19.970  25.420  1.00  0.00     0.251 C 
ATOM      5  O   UNL A   1      32.643  18.947  25.785  1.00  0.00    -0.269 OA
ATOM      6  H   UNL A   1      34.851  19.531  26.479  1.00  0.00     0.163 HD
BRANCH   4   7
ATOM      7  C   UNL A   1      32.485  20.944  24.576  1.00  0.00     0.040 A 
ATOM      8  C   UNL A   1      30.850  24.313  25.164  1.00  0.00     0.046 C 
ATOM      9  C   UNL A   1      31.492  23.161  24.443  1.00  0.00    -0.026 A 
ATOM     10  C   UNL A   1      31.953  22.076  25.203  1.00  0.00     0.019 A 
ATOM     11  C   UNL A   1      31.658  23.122  23.049  1.00  0.00     0.052 A 
ATOM     12  C   UNL A   1      31.893  21.890  22.434  1.00  0.00     0.028 A 
ATOM     13  C   UNL A   1      32.312  20.797  23.202  1.00  0.00     0.016 A 
BRANCH  11  14
ATOM     14  N   UNL A   1      31.804  24.369  22.374  1.00  0.00    -0.279 N 
ATOM     15  H   UNL A   1      30.986  24.727  21.958  1.00  0.00     0.180 HD
BRANCH  14  16
ATOM     16  S   UNL A   1      33.173  25.303  22.193  1.00  0.00     0.261 S 
ATOM     17  O   UNL A   1      34.286  24.575  22.764  1.00  0.00    -0.201 OA
ATOM     18  O   UNL A   1      33.175  25.692  20.797  1.00  0.00    -0.201 OA
BRANCH  16  19
ATOM     19  C   UNL A   1      32.997  26.811  23.129  1.00  0.00     0.088 A 
ATOM     20  C   UNL A   1      32.192  27.881  22.706  1.00  0.00     0.022 A 
ATOM     21  C   UNL A   1      33.565  26.808  24.413  1.00  0.00     0.026 A 
ATOM     22  C   UNL A   1      31.772  28.841  23.630  1.00  0.00     0.005 A 
ATOM     23  C   UNL A   1      33.174  27.792  25.300  1.00  0.00    -0.043 A 
ATOM     24  C   UNL A   1      32.223  28.745  24.933  1.00  0.00    -0.045 A 
ATOM     25  C   UNL A   1      33.604  28.005  26.716  1.00  0.00     0.036 C 
ATOM     26  C   UNL A   1      31.791  29.555  26.119  1.00  0.00     0.036 C 
ATOM     27  C   UNL A   1      32.369  28.720  27.275  1.00  0.00     0.010 C 
ENDBRANCH  16  19
ENDBRANCH  14  16
ENDBRANCH  11  14
ENDBRANCH   4   7
ENDBRANCH   2   3
ENDBRANCH   1   2
BRANCH   1  28
ATOM     28  C   UNL A   1      37.787  22.112  24.996  1.00  0.00     0.023 C 
BRANCH  28  29
ATOM     29  C   UNL A   1      38.048  23.086  26.144  1.00  0.00     0.116 C 
BRANCH  29  30
ATOM     30  N   UNL A   1      39.291  22.833  26.863  1.00  0.00    -0.352 N 
ATOM     31  C   UNL A   1      40.152  23.748  27.455  1.00  0.00     0.251 C 
ATOM     32  H   UNL A   1      39.555  21.887  26.939  1.00  0.00     0.163 HD
ATOM     33  O   UNL A   1      41.226  23.404  27.915  1.00  0.00    -0.269 OA
BRANCH  31  34
ATOM     34  C   UNL A   1      39.689  25.149  27.578  1.00  0.00     0.039 A 
ATOM     35  C   UNL A   1      40.221  26.100  26.699  1.00  0.00     0.014 A 
ATOM     36  C   UNL A   1      38.950  25.540  28.689  1.00  0.00     0.014 A 
ATOM     37  C   UNL A   1      40.199  27.447  27.055  1.00  0.00     0.010 A 
ATOM     38  C   UNL A   1      39.021  26.858  29.090  1.00  0.00     0.010 A 
ATOM     39  C   UNL A   1      39.695  27.804  28.303  1.00  0.00    -0.014 A 
BRANCH  39  40
ATOM     40  C   UNL A   1      39.925  29.097  28.941  1.00  0.00     0.031 A 
ATOM     41  C   UNL A   1      38.897  30.164  28.876  1.00  0.00     0.074 A 
ATOM     42  C   UNL A   1      40.999  29.246  29.748  1.00  0.00     0.049 A 
ATOM     43  N   UNL A   1      39.072  31.387  29.248  1.00  0.00    -0.248 NA
ATOM     44  C   UNL A   1      37.576  29.927  28.311  1.00  0.00     0.031 C 
ATOM     45  C   UNL A   1      41.170  30.226  30.816  1.00  0.00     0.029 A 
ATOM     46  N   UNL A   1      42.247  28.638  29.644  1.00  0.00    -0.354 N 
ATOM     47  C   UNL A   1      37.840  32.010  29.259  1.00  0.00     0.074 A 
ATOM     48  C   UNL A   1      36.966  31.083  28.584  1.00  0.00     0.031 C 
ATOM     49  C   UNL A   1      42.471  30.312  31.128  1.00  0.00     0.029 A 
ATOM     50  C   UNL A   1      43.205  29.529  30.148  1.00  0.00     0.049 A 
ATOM     51  H   UNL A   1      42.424  27.740  29.281  1.00  0.00     0.167 HD
ATOM     52  C   UNL A   1      37.690  33.172  29.966  1.00  0.00     0.037 A 
ATOM     53  C   UNL A   1      44.178  30.049  29.339  1.00  0.00     0.037 A 
ATOM     54  C   UNL A   1      38.992  33.668  30.424  1.00  0.00     0.049 A 
ATOM     55  C   UNL A   1      44.110  31.549  29.163  1.00  0.00     0.074 A 
ATOM     56  C   UNL A   1      39.654  33.601  31.640  1.00  0.00     0.029 A 
ATOM     57  N   UNL A   1      39.936  34.089  29.490  1.00  0.00    -0.354 N 
ATOM     58  N   UNL A   1      43.072  32.276  29.471  1.00  0.00    -0.248 NA
ATOM     59  C   UNL A   1      45.200  32.348  28.607  1.00  0.00     0.031 C 
ATOM     60  C   UNL A   1      41.022  33.901  31.415  1.00  0.00     0.029 A 
ATOM     61  C   UNL A   1      41.189  34.177  30.068  1.00  0.00     0.049 A 
ATOM     62  H   UNL A   1      39.738  34.294  28.547  1.00  0.00     0.167 HD
ATOM     63  C   UNL A   1      43.305  33.581  29.131  1.00  0.00     0.074 A 
ATOM     64  C   UNL A   1      44.664  33.582  28.625  1.00  0.00     0.031 C 
ATOM     65  C   UNL A   1      42.353  34.551  29.276  1.00  0.00     0.037 A 
BRANCH  52  66
ATOM     66  C   UNL A   1      36.358  33.686  30.511  1.00  0.00     0.058 A 
ATOM     67  C   UNL A   1      35.394  34.251  29.642  1.00  0.00     0.135 A 
ATOM     68  C   UNL A   1      35.996  33.748  31.873  1.00  0.00     0.135 A 
ATOM     69  F   UNL A   1      35.518  34.170  28.310  1.00  0.00    -0.206 F 
ATOM     70  C   UNL A   1      34.256  34.933  30.090  1.00  0.00     0.059 A 
ATOM     71  C   UNL A   1      34.891  34.461  32.350  1.00  0.00     0.059 A 
ATOM     72  F   UNL A   1      36.657  33.065  32.811  1.00  0.00    -0.206 F 
ATOM     73  C   UNL A   1      34.033  35.070  31.451  1.00  0.00     0.060 A 
BRANCH  73  74
ATOM     74  S   UNL A   1      32.615  36.022  32.026  1.00  0.00     0.124 S 
ATOM     75  O   UNL A   1      31.751  34.983  32.577  1.00  0.00    -0.237 OA
ATOM     76  O   UNL A   1      33.225  36.923  32.998  1.00  0.00    -0.237 OA
ATOM     77  O   UNL A   1      32.117  36.660  30.811  1.00  0.00    -0.744 OA
ENDBRANCH  73  74
ENDBRANCH  52  66
BRANCH  53  78
ATOM     78  C   UNL A   1      44.674  29.089  28.318  1.00  0.00     0.058 A 
ATOM     79  C   UNL A   1      45.598  28.118  28.740  1.00  0.00     0.135 A 
ATOM     80  C   UNL A   1      43.937  28.825  27.153  1.00  0.00     0.135 A 
ATOM     81  F   UNL A   1      46.343  28.329  29.838  1.00  0.00    -0.206 F 
ATOM     82  C   UNL A   1      45.655  26.866  28.145  1.00  0.00     0.059 A 
ATOM     83  C   UNL A   1      43.975  27.568  26.545  1.00  0.00     0.059 A 
ATOM     84  F   UNL A   1      43.048  29.721  26.698  1.00  0.00    -0.206 F 
ATOM     85  C   UNL A   1      44.774  26.575  27.107  1.00  0.00     0.060 A 
BRANCH  85  86
ATOM     86  S   UNL A   1      44.531  24.831  26.694  1.00  0.00     0.124 S 
ATOM     87  O   UNL A   1      45.768  24.509  25.991  1.00  0.00    -0.237 OA
ATOM     88  O   UNL A   1      44.393  24.246  28.027  1.00  0.00    -0.237 OA
ATOM     89  O   UNL A   1      43.322  24.845  25.880  1.00  0.00    -0.744 OA
ENDBRANCH  85  86
ENDBRANCH  53  78
BRANCH  65  90
ATOM     90  C   UNL A   1      42.463  35.960  28.753  1.00  0.00     0.058 A 
ATOM     91  C   UNL A   1      43.185  36.980  29.394  1.00  0.00     0.135 A 
ATOM     92  C   UNL A   1      41.938  36.288  27.479  1.00  0.00     0.135 A 
ATOM     93  F   UNL A   1      43.819  36.759  30.555  1.00  0.00    -0.206 F 
ATOM     94  C   UNL A   1      43.325  38.257  28.846  1.00  0.00     0.059 A 
ATOM     95  C   UNL A   1      42.111  37.538  26.889  1.00  0.00     0.059 A 
ATOM     96  F   UNL A   1      41.246  35.392  26.759  1.00  0.00    -0.206 F 
ATOM     97  C   UNL A   1      42.785  38.527  27.592  1.00  0.00     0.060 A 
BRANCH  97  98
ATOM     98  S   UNL A   1      43.015  40.150  26.842  1.00  0.00     0.124 S 
ATOM     99  O   UNL A   1      41.743  40.333  26.150  1.00  0.00    -0.237 OA
ATOM    100  O   UNL A   1      43.234  41.017  27.996  1.00  0.00    -0.237 OA
ATOM    101  O   UNL A   1      44.181  39.955  25.986  1.00  0.00    -0.744 OA
ENDBRANCH  97  98
ENDBRANCH  65  90
ENDBRANCH  39  40
ENDBRANCH  31  34
ENDBRANCH  29  30
ENDBRANCH  28  29
ENDBRANCH   1  28
TORSDOF 17
ENDMDL
MODEL 3
REMARK VINA RESULT:     -13.8      4.095     10.482
REMARK SMILES Cc1cc(C(=O)NCCCCNC(=O)c2ccc(-c3c4nc(c(-c5c(F)cc(S(=O)(=O)[O-])cc5F)c5ccc([nH]5)c(-c5c(F)cc(S(=O)(=O)[O-])cc5F)c5nc(c(-c6c(F)cc(S(=O)(=O)[O-])cc6F)c6ccc3[nH]6)C=C5)C=C4)cc2)ccc1NS(=O)(=O)c1ccc2c(c1)CCC2
REMARK SMILES IDX 9 1 8 2 7 3 5 4 6 5 4 7 1 8 2 9 3 10 83 11 82 12 81 13 84 14
REMARK SMILES IDX 85 16 86 17 87 18 88 19 89 20 93 21 90 22 92 23 91 24 94 25
REMARK SMILES IDX 96 26 95 27 10 28 11 29 12 30 13 31 14 33 15 34 16 35 80 36
REMARK SMILES IDX 17 37 79 38 18 39 19 40 20 41 73 42 21 43 78 44 72 45 74 46
REMARK SMILES IDX 22 47 77 48 71 49 70 50 23 52 57 53 36 54 56 55 37 56 40 57
REMARK SMILES IDX 55 58 75 59 38 60 39 61 54 63 76 64 41 65 24 66 25 67 34 68
REMARK SMILES IDX 26 69 27 70 33 71 35 72 28 73 29 74 30 75 31 76 32 77 58 78
REMARK SMILES IDX 59 79 68 80 60 81 61 82 67 83 69 84 62 85 63 86 64 87 65 88
REMARK SMILES IDX 66 89 42 90 43 91 52 92 44 93 45 94 51 95 53 96 46 97 47 98
REMARK SMILES IDX 48 99 49 100 50 101
REMARK H PARENT 7 6 84 15 12 32 74 51 40 62
REMARK Flexibility Score: inf
ROOT
ATOM      1  C   UNL A   1      35.448  21.651  26.047  1.00  0.00     0.023 C 
ENDROOT
BRANCH   1   2
ATOM      2  C   UNL A   1      35.337  20.493  25.047  1.00  0.00     0.116 C 
BRANCH   2   3
ATOM      3  N   UNL A   1      34.278  19.535  25.341  1.00  0.00    -0.352 N 
ATOM      4  C   UNL A   1      32.934  19.528  25.035  1.00  0.00     0.251 C 
ATOM      5  O   UNL A   1      32.229  18.606  25.444  1.00  0.00    -0.269 OA
ATOM      6  H   UNL A   1      34.577  18.751  25.855  1.00  0.00     0.163 HD
BRANCH   4   7
ATOM      7  C   UNL A   1      32.291  20.660  24.323  1.00  0.00     0.040 A 
ATOM      8  C   UNL A   1      30.885  24.028  25.349  1.00  0.00     0.046 C 
ATOM      9  C   UNL A   1      31.461  22.941  24.484  1.00  0.00    -0.026 A 
ATOM     10  C   UNL A   1      31.825  21.731  25.093  1.00  0.00     0.019 A 
ATOM     11  C   UNL A   1      31.658  23.081  23.101  1.00  0.00     0.052 A 
ATOM     12  C   UNL A   1      31.819  21.931  22.325  1.00  0.00     0.028 A 
ATOM     13  C   UNL A   1      32.141  20.715  22.940  1.00  0.00     0.016 A 
BRANCH  11  14
ATOM     14  N   UNL A   1      31.907  24.395  22.606  1.00  0.00    -0.279 N 
ATOM     15  H   UNL A   1      31.109  24.945  22.434  1.00  0.00     0.180 HD
BRANCH  14  16
ATOM     16  S   UNL A   1      33.370  25.125  22.280  1.00  0.00     0.261 S 
ATOM     17  O   UNL A   1      34.420  24.234  22.724  1.00  0.00    -0.201 OA
ATOM     18  O   UNL A   1      33.278  25.536  20.894  1.00  0.00    -0.201 OA
BRANCH  16  19
ATOM     19  C   UNL A   1      33.517  26.625  23.235  1.00  0.00     0.088 A 
ATOM     20  C   UNL A   1      33.558  27.900  22.649  1.00  0.00     0.022 A 
ATOM     21  C   UNL A   1      33.405  26.481  24.627  1.00  0.00     0.026 A 
ATOM     22  C   UNL A   1      33.271  29.028  23.422  1.00  0.00     0.005 A 
ATOM     23  C   UNL A   1      33.166  27.613  25.382  1.00  0.00    -0.043 A 
ATOM     24  C   UNL A   1      33.018  28.859  24.770  1.00  0.00    -0.045 A 
ATOM     25  C   UNL A   1      32.989  27.736  26.861  1.00  0.00     0.036 C 
ATOM     26  C   UNL A   1      32.539  29.885  25.752  1.00  0.00     0.036 C 
ATOM     27  C   UNL A   1      32.112  28.991  26.931  1.00  0.00     0.010 C 
ENDBRANCH  16  19
ENDBRANCH  14  16
ENDBRANCH  11  14
ENDBRANCH   4   7
ENDBRANCH   2   3
ENDBRANCH   1   2
BRANCH   1  28
ATOM     28  C   UNL A   1      36.117  22.929  25.542  1.00  0.00     0.023 C 
BRANCH  28  29
ATOM     29  C   UNL A   1      37.442  22.702  24.815  1.00  0.00     0.116 C 
BRANCH  29  30
ATOM     30  N   UNL A   1      38.434  21.983  25.606  1.00  0.00    -0.352 N 
ATOM     31  C   UNL A   1      39.436  22.500  26.417  1.00  0.00     0.251 C 
ATOM     32  H   UNL A   1      38.388  21.001  25.558  1.00  0.00     0.163 HD
ATOM     33  O   UNL A   1      40.279  21.781  26.923  1.00  0.00    -0.269 OA
BRANCH  31  34
ATOM     34  C   UNL A   1      39.402  23.951  26.713  1.00  0.00     0.039 A 
ATOM     35  C   UNL A   1      40.153  24.809  25.900  1.00  0.00     0.014 A 
ATOM     36  C   UNL A   1      38.850  24.402  27.906  1.00  0.00     0.014 A 
ATOM     37  C   UNL A   1      40.534  26.056  26.391  1.00  0.00     0.010 A 
ATOM     38  C   UNL A   1      39.314  25.590  28.433  1.00  0.00     0.010 A 
ATOM     39  C   UNL A   1      40.202  26.393  27.701  1.00  0.00    -0.014 A 
BRANCH  39  40
ATOM     40  C   UNL A   1      40.819  27.484  28.449  1.00  0.00     0.031 A 
ATOM     41  C   UNL A   1      40.064  28.728  28.729  1.00  0.00     0.074 A 
ATOM     42  C   UNL A   1      42.015  27.275  29.042  1.00  0.00     0.049 A 
ATOM     43  N   UNL A   1      40.569  29.810  29.220  1.00  0.00    -0.248 NA
ATOM     44  C   UNL A   1      38.649  28.859  28.407  1.00  0.00     0.031 C 
ATOM     45  C   UNL A   1      42.575  28.002  30.177  1.00  0.00     0.029 A 
ATOM     46  N   UNL A   1      43.059  26.459  28.616  1.00  0.00    -0.354 N 
ATOM     47  C   UNL A   1      39.529  30.653  29.555  1.00  0.00     0.074 A 
ATOM     48  C   UNL A   1      38.369  30.049  28.946  1.00  0.00     0.031 C 
ATOM     49  C   UNL A   1      43.894  27.772  30.238  1.00  0.00     0.029 A 
ATOM     50  C   UNL A   1      44.264  27.041  29.038  1.00  0.00     0.049 A 
ATOM     51  H   UNL A   1      42.967  25.620  28.108  1.00  0.00     0.167 HD
ATOM     52  C   UNL A   1      39.762  31.681  30.427  1.00  0.00     0.037 A 
ATOM     53  C   UNL A   1      45.185  27.489  28.131  1.00  0.00     0.037 A 
ATOM     54  C   UNL A   1      41.200  31.823  30.684  1.00  0.00     0.049 A 
ATOM     55  C   UNL A   1      45.430  28.981  28.174  1.00  0.00     0.074 A 
ATOM     56  C   UNL A   1      42.018  31.417  31.727  1.00  0.00     0.029 A 
ATOM     57  N   UNL A   1      42.051  32.203  29.648  1.00  0.00    -0.354 N 
ATOM     58  N   UNL A   1      44.648  29.834  28.774  1.00  0.00    -0.248 NA
ATOM     59  C   UNL A   1      46.568  29.631  27.528  1.00  0.00     0.031 C 
ATOM     60  C   UNL A   1      43.362  31.473  31.280  1.00  0.00     0.029 A 
ATOM     61  C   UNL A   1      43.367  31.939  29.976  1.00  0.00     0.049 A 
ATOM     62  H   UNL A   1      41.754  32.603  28.798  1.00  0.00     0.167 HD
ATOM     63  C   UNL A   1      45.113  31.106  28.572  1.00  0.00     0.074 A 
ATOM     64  C   UNL A   1      46.336  30.925  27.815  1.00  0.00     0.031 C 
ATOM     65  C   UNL A   1      44.442  32.206  29.030  1.00  0.00     0.037 A 
BRANCH  52  66
ATOM     66  C   UNL A   1      38.688  32.347  31.286  1.00  0.00     0.058 A 
ATOM     67  C   UNL A   1      37.946  31.591  32.226  1.00  0.00     0.135 A 
ATOM     68  C   UNL A   1      38.264  33.688  31.178  1.00  0.00     0.135 A 
ATOM     69  F   UNL A   1      38.290  30.335  32.543  1.00  0.00    -0.206 F 
ATOM     70  C   UNL A   1      36.811  32.079  32.885  1.00  0.00     0.059 A 
ATOM     71  C   UNL A   1      37.109  34.188  31.789  1.00  0.00     0.059 A 
ATOM     72  F   UNL A   1      38.983  34.605  30.527  1.00  0.00    -0.206 F 
ATOM     73  C   UNL A   1      36.373  33.369  32.628  1.00  0.00     0.060 A 
BRANCH  73  74
ATOM     74  S   UNL A   1      34.863  33.966  33.411  1.00  0.00     0.124 S 
ATOM     75  O   UNL A   1      35.153  33.765  34.827  1.00  0.00    -0.237 OA
ATOM     76  O   UNL A   1      34.813  35.353  32.962  1.00  0.00    -0.237 OA
ATOM     77  O   UNL A   1      33.827  33.095  32.863  1.00  0.00    -0.744 OA
ENDBRANCH  73  74
ENDBRANCH  52  66
BRANCH  53  78
ATOM     78  C   UNL A   1      45.277  26.641  26.913  1.00  0.00     0.058 A 
ATOM     79  C   UNL A   1      46.106  25.508  26.978  1.00  0.00     0.135 A 
ATOM     80  C   UNL A   1      44.264  26.653  25.942  1.00  0.00     0.135 A 
ATOM     81  F   UNL A   1      47.104  25.453  27.876  1.00  0.00    -0.206 F 
ATOM     82  C   UNL A   1      45.827  24.364  26.244  1.00  0.00     0.059 A 
ATOM     83  C   UNL A   1      43.963  25.510  25.199  1.00  0.00     0.059 A 
ATOM     84  F   UNL A   1      43.450  27.715  25.828  1.00  0.00    -0.206 F 
ATOM     85  C   UNL A   1      44.700  24.350  25.427  1.00  0.00     0.060 A 
BRANCH  85  86
ATOM     86  S   UNL A   1      44.095  22.734  24.883  1.00  0.00     0.124 S 
ATOM     87  O   UNL A   1      44.748  21.831  25.824  1.00  0.00    -0.237 OA
ATOM     88  O   UNL A   1      42.654  22.900  25.067  1.00  0.00    -0.237 OA
ATOM     89  O   UNL A   1      44.552  22.653  23.501  1.00  0.00    -0.744 OA
ENDBRANCH  85  86
ENDBRANCH  53  78
BRANCH  65  90
ATOM     90  C   UNL A   1      44.782  33.634  28.688  1.00  0.00     0.058 A 
ATOM     91  C   UNL A   1      44.370  34.276  27.508  1.00  0.00     0.135 A 
ATOM     92  C   UNL A   1      45.434  34.456  29.638  1.00  0.00     0.135 A 
ATOM     93  F   UNL A   1      43.650  33.630  26.580  1.00  0.00    -0.206 F 
ATOM     94  C   UNL A   1      44.641  35.623  27.255  1.00  0.00     0.059 A 
ATOM     95  C   UNL A   1      45.668  35.814  29.430  1.00  0.00     0.059 A 
ATOM     96  F   UNL A   1      45.857  33.963  30.812  1.00  0.00    -0.206 F 
ATOM     97  C   UNL A   1      45.291  36.384  28.222  1.00  0.00     0.060 A 
BRANCH  97  98
ATOM     98  S   UNL A   1      45.589  38.139  27.937  1.00  0.00     0.124 S 
ATOM     99  O   UNL A   1      45.426  38.229  26.489  1.00  0.00    -0.237 OA
ATOM    100  O   UNL A   1      44.544  38.783  28.728  1.00  0.00    -0.237 OA
ATOM    101  O   UNL A   1      46.948  38.327  28.435  1.00  0.00    -0.744 OA
ENDBRANCH  97  98
ENDBRANCH  65  90
ENDBRANCH  39  40
ENDBRANCH  31  34
ENDBRANCH  29  30
ENDBRANCH  28  29
ENDBRANCH   1  28
TORSDOF 17
ENDMDL
