MODEL 1
REMARK VINA RESULT:      -8.4      0.000      0.000
REMARK SMILES COc1ccc(-c2nc(NCC(=O)NCCCCNC(=O)c3ccc(-c4c5nc(c(-c6c(F)cc(S(=O)(=O)[O-])cc6F)c6ccc([nH]6)c(-c6c(F)cc(S(=O)(=O)[O-])cc6F)c6nc(c(-c7c(F)cc(S(=O)(=O)[O-])cc7F)c7ccc4[nH]7)C=C6)C=C5)cc3)sc2-c2ccc(OC)cc2)cc1
REMARK SMILES IDX 16 1 15 2 14 3 12 4 13 5 11 7 10 8 9 10 7 11 8 12 89 13
REMARK SMILES IDX 88 14 6 15 3 16 4 17 99 18 5 19 98 20 2 21 1 22 90 23 91 24
REMARK SMILES IDX 97 25 92 26 96 27 93 28 94 29 95 30 17 31 18 32 19 33 20 34
REMARK SMILES IDX 21 36 22 37 23 38 87 39 24 40 86 41 25 42 26 43 27 44 80 45
REMARK SMILES IDX 28 46 85 47 79 48 81 49 29 50 84 51 78 52 77 53 30 55 64 56
REMARK SMILES IDX 43 57 63 58 44 59 47 60 62 61 82 62 45 63 46 64 61 66 83 67
REMARK SMILES IDX 48 68 31 69 32 70 41 71 33 72 34 73 40 74 42 75 35 76 36 77
REMARK SMILES IDX 37 78 38 79 39 80 65 81 66 82 75 83 67 84 68 85 74 86 76 87
REMARK SMILES IDX 69 88 70 89 71 90 72 91 73 92 49 93 50 94 59 95 51 96 52 97
REMARK SMILES IDX 58 98 60 99 53 100 54 101 55 102 56 103 57 104
REMARK H PARENT 14 6 10 9 19 35 81 54 47 65
REMARK Flexibility Score: inf
ROOT
ATOM      1  C   UNL A   1      45.048  23.306  25.474  1.00  0.00     0.023 C 
ENDROOT
BRANCH   1   2
ATOM      2  C   UNL A   1      45.997  24.419  25.029  1.00  0.00     0.116 C 
BRANCH   2   3
ATOM      3  N   UNL A   1      45.359  25.719  25.082  1.00  0.00    -0.355 N 
ATOM      4  C   UNL A   1      45.936  26.956  24.972  1.00  0.00     0.239 C 
ATOM      5  O   UNL A   1      45.224  27.952  25.106  1.00  0.00    -0.273 OA
ATOM      6  H   UNL A   1      44.383  25.712  25.215  1.00  0.00     0.163 HD
BRANCH   4   7
ATOM      7  C   UNL A   1      47.429  27.080  24.641  1.00  0.00     0.215 C 
BRANCH   7   8
ATOM      8  N   UNL A   1      48.245  27.122  25.843  1.00  0.00    -0.352 N 
ATOM      9  H   UNL A   1      49.220  27.175  25.725  1.00  0.00     0.163 HD
BRANCH   8  10
ATOM     10  C   UNL A   1      47.777  27.094  27.109  1.00  0.00     0.184 A 
ATOM     11  C   UNL A   1      46.816  27.895  28.938  1.00  0.00     0.091 A 
ATOM     12  N   UNL A   1      47.359  28.189  27.700  1.00  0.00    -0.220 NA
ATOM     13  C   UNL A   1      46.769  26.547  29.265  1.00  0.00     0.064 A 
ATOM     14  S   UNL A   1      47.626  25.669  28.071  1.00  0.00    -0.096 S 
BRANCH  11  15
ATOM     15  C   UNL A   1      46.276  28.938  29.797  1.00  0.00     0.002 A 
ATOM     16  C   UNL A   1      45.078  30.759  31.551  1.00  0.00     0.118 A 
ATOM     17  C   UNL A   1      46.204  30.044  31.953  1.00  0.00     0.047 A 
ATOM     18  C   UNL A   1      44.587  30.617  30.253  1.00  0.00     0.047 A 
ATOM     19  C   UNL A   1      46.798  29.131  31.083  1.00  0.00     0.014 A 
ATOM     20  C   UNL A   1      45.188  29.709  29.374  1.00  0.00     0.014 A 
BRANCH  16  21
ATOM     21  O   UNL A   1      44.547  31.616  32.477  1.00  0.00    -0.497 OA
ATOM     22  C   UNL A   1      45.373  32.747  32.739  1.00  0.00     0.278 C 
ENDBRANCH  16  21
ENDBRANCH  11  15
BRANCH  13  23
ATOM     23  C   UNL A   1      46.109  25.853  30.376  1.00  0.00    -0.006 A 
ATOM     24  C   UNL A   1      44.924  25.132  30.200  1.00  0.00     0.013 A 
ATOM     25  C   UNL A   1      46.686  25.888  31.654  1.00  0.00     0.013 A 
ATOM     26  C   UNL A   1      44.351  24.443  31.273  1.00  0.00     0.047 A 
ATOM     27  C   UNL A   1      46.117  25.192  32.725  1.00  0.00     0.047 A 
ATOM     28  C   UNL A   1      44.952  24.453  32.534  1.00  0.00     0.118 A 
BRANCH  28  29
ATOM     29  O   UNL A   1      44.308  23.714  33.488  1.00  0.00    -0.497 OA
ATOM     30  C   UNL A   1      45.020  22.596  34.010  1.00  0.00     0.278 C 
ENDBRANCH  28  29
ENDBRANCH  13  23
ENDBRANCH   8  10
ENDBRANCH   7   8
ENDBRANCH   4   7
ENDBRANCH   2   3
ENDBRANCH   1   2
BRANCH   1  31
ATOM     31  C   UNL A   1      44.612  23.406  26.939  1.00  0.00     0.023 C 
BRANCH  31  32
ATOM     32  C   UNL A   1      43.117  23.628  27.159  1.00  0.00     0.116 C 
BRANCH  32  33
ATOM     33  N   UNL A   1      42.479  24.349  26.069  1.00  0.00    -0.352 N 
ATOM     34  C   UNL A   1      41.754  25.515  26.119  1.00  0.00     0.251 C 
ATOM     35  H   UNL A   1      42.581  23.948  25.175  1.00  0.00     0.163 HD
ATOM     36  O   UNL A   1      41.176  25.923  25.115  1.00  0.00    -0.269 OA
BRANCH  34  37
ATOM     37  C   UNL A   1      41.643  26.252  27.398  1.00  0.00     0.039 A 
ATOM     38  C   UNL A   1      42.557  27.272  27.670  1.00  0.00     0.014 A 
ATOM     39  C   UNL A   1      40.627  25.956  28.312  1.00  0.00     0.014 A 
ATOM     40  C   UNL A   1      42.410  28.044  28.825  1.00  0.00     0.010 A 
ATOM     41  C   UNL A   1      40.445  26.766  29.430  1.00  0.00     0.010 A 
ATOM     42  C   UNL A   1      41.330  27.822  29.695  1.00  0.00    -0.014 A 
BRANCH  42  43
ATOM     43  C   UNL A   1      41.103  28.690  30.880  1.00  0.00     0.031 A 
ATOM     44  C   UNL A   1      40.023  29.737  30.855  1.00  0.00     0.074 A 
ATOM     45  C   UNL A   1      41.909  28.575  31.956  1.00  0.00     0.049 A 
ATOM     46  N   UNL A   1      39.734  30.648  31.748  1.00  0.00    -0.248 NA
ATOM     47  C   UNL A   1      39.168  29.783  29.656  1.00  0.00     0.031 C 
ATOM     48  C   UNL A   1      43.019  27.628  32.087  1.00  0.00     0.029 A 
ATOM     49  N   UNL A   1      41.929  29.270  33.140  1.00  0.00    -0.354 N 
ATOM     50  C   UNL A   1      38.672  31.373  31.223  1.00  0.00     0.074 A 
ATOM     51  C   UNL A   1      38.400  30.834  29.908  1.00  0.00     0.031 C 
ATOM     52  C   UNL A   1      43.601  27.792  33.286  1.00  0.00     0.029 A 
ATOM     53  C   UNL A   1      42.932  28.878  33.996  1.00  0.00     0.049 A 
ATOM     54  H   UNL A   1      41.285  29.983  33.356  1.00  0.00     0.167 HD
ATOM     55  C   UNL A   1      37.967  32.379  31.794  1.00  0.00     0.037 A 
ATOM     56  C   UNL A   1      43.281  29.348  35.210  1.00  0.00     0.037 A 
ATOM     57  C   UNL A   1      38.224  32.899  33.113  1.00  0.00     0.049 A 
ATOM     58  C   UNL A   1      42.488  30.477  35.816  1.00  0.00     0.074 A 
ATOM     59  C   UNL A   1      37.547  33.899  33.789  1.00  0.00     0.029 A 
ATOM     60  N   UNL A   1      39.228  32.454  33.959  1.00  0.00    -0.354 N 
ATOM     61  N   UNL A   1      41.460  31.122  35.318  1.00  0.00    -0.248 NA
ATOM     62  C   UNL A   1      42.899  30.938  37.151  1.00  0.00     0.031 C 
ATOM     63  C   UNL A   1      38.159  34.080  35.033  1.00  0.00     0.029 A 
ATOM     64  C   UNL A   1      39.192  33.163  35.148  1.00  0.00     0.049 A 
ATOM     65  H   UNL A   1      39.871  31.740  33.747  1.00  0.00     0.167 HD
ATOM     66  C   UNL A   1      41.082  32.041  36.292  1.00  0.00     0.074 A 
ATOM     67  C   UNL A   1      41.982  31.860  37.411  1.00  0.00     0.031 C 
ATOM     68  C   UNL A   1      40.080  32.953  36.262  1.00  0.00     0.037 A 
BRANCH  55  69
ATOM     69  C   UNL A   1      36.830  32.972  31.011  1.00  0.00     0.058 A 
ATOM     70  C   UNL A   1      35.495  32.738  31.377  1.00  0.00     0.135 A 
ATOM     71  C   UNL A   1      37.072  33.836  29.931  1.00  0.00     0.135 A 
ATOM     72  F   UNL A   1      35.208  31.906  32.390  1.00  0.00    -0.206 F 
ATOM     73  C   UNL A   1      34.439  33.330  30.692  1.00  0.00     0.059 A 
ATOM     74  C   UNL A   1      36.032  34.460  29.248  1.00  0.00     0.059 A 
ATOM     75  F   UNL A   1      38.330  34.091  29.538  1.00  0.00    -0.206 F 
ATOM     76  C   UNL A   1      34.718  34.194  29.632  1.00  0.00     0.060 A 
BRANCH  76  77
ATOM     77  S   UNL A   1      33.335  34.982  28.780  1.00  0.00     0.124 S 
ATOM     78  O   UNL A   1      32.949  33.942  27.831  1.00  0.00    -0.237 OA
ATOM     79  O   UNL A   1      32.396  35.225  29.869  1.00  0.00    -0.237 OA
ATOM     80  O   UNL A   1      33.934  36.176  28.192  1.00  0.00    -0.744 OA
ENDBRANCH  76  77
ENDBRANCH  55  69
BRANCH  56  81
ATOM     81  C   UNL A   1      44.432  28.759  35.945  1.00  0.00     0.058 A 
ATOM     82  C   UNL A   1      45.726  29.283  35.803  1.00  0.00     0.135 A 
ATOM     83  C   UNL A   1      44.270  27.636  36.772  1.00  0.00     0.135 A 
ATOM     84  F   UNL A   1      45.932  30.353  35.019  1.00  0.00    -0.206 F 
ATOM     85  C   UNL A   1      46.824  28.695  36.420  1.00  0.00     0.059 A 
ATOM     86  C   UNL A   1      45.349  27.046  37.423  1.00  0.00     0.059 A 
ATOM     87  F   UNL A   1      43.051  27.108  36.959  1.00  0.00    -0.206 F 
ATOM     88  C   UNL A   1      46.626  27.570  37.223  1.00  0.00     0.060 A 
BRANCH  88  89
ATOM     89  S   UNL A   1      48.056  26.810  38.022  1.00  0.00     0.124 S 
ATOM     90  O   UNL A   1      48.462  25.831  37.020  1.00  0.00    -0.237 OA
ATOM     91  O   UNL A   1      48.951  27.949  38.202  1.00  0.00    -0.237 OA
ATOM     92  O   UNL A   1      47.497  26.261  39.253  1.00  0.00    -0.744 OA
ENDBRANCH  88  89
ENDBRANCH  56  81
BRANCH  68  93
ATOM     93  C   UNL A   1      39.869  33.791  37.492  1.00  0.00     0.058 A 
ATOM     94  C   UNL A   1      40.475  35.048  37.640  1.00  0.00     0.135 A 
ATOM     95  C   UNL A   1      39.007  33.352  38.510  1.00  0.00     0.135 A 
ATOM     96  F   UNL A   1      41.312  35.510  36.699  1.00  0.00    -0.206 F 
ATOM     97  C   UNL A   1      40.252  35.832  38.767  1.00  0.00     0.059 A 
ATOM     98  C   UNL A   1      38.748  34.131  39.633  1.00  0.00     0.059 A 
ATOM     99  F   UNL A   1      38.394  32.162  38.411  1.00  0.00    -0.206 F 
ATOM    100  C   UNL A   1      39.385  35.365  39.758  1.00  0.00     0.060 A 
BRANCH 100 101
ATOM    101  S   UNL A   1      39.074  36.408  41.200  1.00  0.00     0.124 S 
ATOM    102  O   UNL A   1      38.767  37.690  40.574  1.00  0.00    -0.237 OA
ATOM    103  O   UNL A   1      37.950  35.729  41.840  1.00  0.00    -0.237 OA
ATOM    104  O   UNL A   1      40.332  36.353  41.936  1.00  0.00    -0.744 OA
ENDBRANCH 100 101
ENDBRANCH  68  93
ENDBRANCH  42  43
ENDBRANCH  34  37
ENDBRANCH  32  33
ENDBRANCH  31  32
ENDBRANCH   1  31
TORSDOF 20
ENDMDL
MODEL 2
REMARK VINA RESULT:      -7.8      3.851     10.711
REMARK SMILES COc1ccc(-c2nc(NCC(=O)NCCCCNC(=O)c3ccc(-c4c5nc(c(-c6c(F)cc(S(=O)(=O)[O-])cc6F)c6ccc([nH]6)c(-c6c(F)cc(S(=O)(=O)[O-])cc6F)c6nc(c(-c7c(F)cc(S(=O)(=O)[O-])cc7F)c7ccc4[nH]7)C=C6)C=C5)cc3)sc2-c2ccc(OC)cc2)cc1
REMARK SMILES IDX 16 1 15 2 14 3 12 4 13 5 11 7 10 8 9 10 7 11 8 12 89 13
REMARK SMILES IDX 88 14 6 15 3 16 4 17 99 18 5 19 98 20 2 21 1 22 90 23 91 24
REMARK SMILES IDX 97 25 92 26 96 27 93 28 94 29 95 30 17 31 18 32 19 33 20 34
REMARK SMILES IDX 21 36 22 37 23 38 87 39 24 40 86 41 25 42 26 43 27 44 80 45
REMARK SMILES IDX 28 46 85 47 79 48 81 49 29 50 84 51 78 52 77 53 30 55 64 56
REMARK SMILES IDX 43 57 63 58 44 59 47 60 62 61 82 62 45 63 46 64 61 66 83 67
REMARK SMILES IDX 48 68 31 69 32 70 41 71 33 72 34 73 40 74 42 75 35 76 36 77
REMARK SMILES IDX 37 78 38 79 39 80 65 81 66 82 75 83 67 84 68 85 74 86 76 87
REMARK SMILES IDX 69 88 70 89 71 90 72 91 73 92 49 93 50 94 59 95 51 96 52 97
REMARK SMILES IDX 58 98 60 99 53 100 54 101 55 102 56 103 57 104
REMARK H PARENT 14 6 10 9 19 35 81 54 47 65
REMARK Flexibility Score: inf
ROOT
ATOM      1  C   UNL A   1      34.541  32.506  31.537  1.00  0.00     0.023 C 
ENDROOT
BRANCH   1   2
ATOM      2  C   UNL A   1      35.009  33.021  32.897  1.00  0.00     0.116 C 
BRANCH   2   3
ATOM      3  N   UNL A   1      36.158  33.895  32.772  1.00  0.00    -0.355 N 
ATOM      4  C   UNL A   1      37.425  33.711  33.258  1.00  0.00     0.239 C 
ATOM      5  O   UNL A   1      38.253  34.609  33.096  1.00  0.00    -0.273 OA
ATOM      6  H   UNL A   1      36.009  34.730  32.273  1.00  0.00     0.163 HD
BRANCH   4   7
ATOM      7  C   UNL A   1      37.801  32.392  33.945  1.00  0.00     0.215 C 
BRANCH   7   8
ATOM      8  N   UNL A   1      39.056  31.861  33.438  1.00  0.00    -0.352 N 
ATOM      9  H   UNL A   1      39.258  32.012  32.487  1.00  0.00     0.163 HD
BRANCH   8  10
ATOM     10  C   UNL A   1      39.968  31.179  34.163  1.00  0.00     0.184 A 
ATOM     11  C   UNL A   1      41.436  29.575  34.590  1.00  0.00     0.091 A 
ATOM     12  N   UNL A   1      40.431  30.022  33.751  1.00  0.00    -0.220 NA
ATOM     13  C   UNL A   1      41.780  30.436  35.622  1.00  0.00     0.064 A 
ATOM     14  S   UNL A   1      40.659  31.730  35.646  1.00  0.00    -0.096 S 
BRANCH  11  15
ATOM     15  C   UNL A   1      42.118  28.313  34.351  1.00  0.00     0.002 A 
ATOM     16  C   UNL A   1      43.599  25.953  34.084  1.00  0.00     0.118 A 
ATOM     17  C   UNL A   1      42.523  26.003  34.968  1.00  0.00     0.047 A 
ATOM     18  C   UNL A   1      43.897  27.057  33.284  1.00  0.00     0.047 A 
ATOM     19  C   UNL A   1      41.788  27.180  35.108  1.00  0.00     0.014 A 
ATOM     20  C   UNL A   1      43.155  28.236  33.414  1.00  0.00     0.014 A 
BRANCH  16  21
ATOM     21  O   UNL A   1      44.277  24.765  34.028  1.00  0.00    -0.497 OA
ATOM     22  C   UNL A   1      45.297  24.651  35.018  1.00  0.00     0.278 C 
ENDBRANCH  16  21
ENDBRANCH  11  15
BRANCH  13  23
ATOM     23  C   UNL A   1      42.897  30.396  36.571  1.00  0.00    -0.006 A 
ATOM     24  C   UNL A   1      43.022  31.326  37.608  1.00  0.00     0.013 A 
ATOM     25  C   UNL A   1      43.864  29.386  36.460  1.00  0.00     0.013 A 
ATOM     26  C   UNL A   1      44.075  31.225  38.523  1.00  0.00     0.047 A 
ATOM     27  C   UNL A   1      44.911  29.281  37.380  1.00  0.00     0.047 A 
ATOM     28  C   UNL A   1      45.013  30.195  38.426  1.00  0.00     0.118 A 
BRANCH  28  29
ATOM     29  O   UNL A   1      45.972  30.191  39.401  1.00  0.00    -0.497 OA
ATOM     30  C   UNL A   1      45.510  30.288  40.745  1.00  0.00     0.278 C 
ENDBRANCH  28  29
ENDBRANCH  13  23
ENDBRANCH   8  10
ENDBRANCH   7   8
ENDBRANCH   4   7
ENDBRANCH   2   3
ENDBRANCH   1   2
BRANCH   1  31
ATOM     31  C   UNL A   1      34.599  33.552  30.419  1.00  0.00     0.023 C 
BRANCH  31  32
ATOM     32  C   UNL A   1      35.088  33.034  29.068  1.00  0.00     0.116 C 
BRANCH  32  33
ATOM     33  N   UNL A   1      34.203  32.038  28.483  1.00  0.00    -0.352 N 
ATOM     34  C   UNL A   1      34.500  30.759  28.079  1.00  0.00     0.251 C 
ATOM     35  H   UNL A   1      33.267  32.318  28.361  1.00  0.00     0.163 HD
ATOM     36  O   UNL A   1      33.656  30.090  27.486  1.00  0.00    -0.269 OA
BRANCH  34  37
ATOM     37  C   UNL A   1      35.851  30.208  28.327  1.00  0.00     0.039 A 
ATOM     38  C   UNL A   1      36.812  30.301  27.318  1.00  0.00     0.014 A 
ATOM     39  C   UNL A   1      36.175  29.627  29.556  1.00  0.00     0.014 A 
ATOM     40  C   UNL A   1      38.120  29.876  27.567  1.00  0.00     0.010 A 
ATOM     41  C   UNL A   1      37.493  29.262  29.823  1.00  0.00     0.010 A 
ATOM     42  C   UNL A   1      38.480  29.389  28.834  1.00  0.00    -0.014 A 
BRANCH  42  43
ATOM     43  C   UNL A   1      39.885  29.018  29.147  1.00  0.00     0.031 A 
ATOM     44  C   UNL A   1      40.814  30.027  29.764  1.00  0.00     0.074 A 
ATOM     45  C   UNL A   1      40.339  27.790  28.820  1.00  0.00     0.049 A 
ATOM     46  N   UNL A   1      42.092  29.924  30.023  1.00  0.00    -0.248 NA
ATOM     47  C   UNL A   1      40.236  31.336  30.116  1.00  0.00     0.031 C 
ATOM     48  C   UNL A   1      39.550  26.735  28.180  1.00  0.00     0.029 A 
ATOM     49  N   UNL A   1      41.582  27.225  28.970  1.00  0.00    -0.354 N 
ATOM     50  C   UNL A   1      42.472  31.146  30.563  1.00  0.00     0.074 A 
ATOM     51  C   UNL A   1      41.302  31.998  30.545  1.00  0.00     0.031 C 
ATOM     52  C   UNL A   1      40.321  25.651  28.004  1.00  0.00     0.029 A 
ATOM     53  C   UNL A   1      41.669  25.941  28.484  1.00  0.00     0.049 A 
ATOM     54  H   UNL A   1      42.341  27.695  29.385  1.00  0.00     0.167 HD
ATOM     55  C   UNL A   1      43.678  31.518  31.054  1.00  0.00     0.037 A 
ATOM     56  C   UNL A   1      42.717  25.097  28.423  1.00  0.00     0.037 A 
ATOM     57  C   UNL A   1      44.835  30.661  31.093  1.00  0.00     0.049 A 
ATOM     58  C   UNL A   1      44.050  25.541  28.965  1.00  0.00     0.074 A 
ATOM     59  C   UNL A   1      46.094  30.939  31.597  1.00  0.00     0.029 A 
ATOM     60  N   UNL A   1      44.872  29.359  30.621  1.00  0.00    -0.354 N 
ATOM     61  N   UNL A   1      44.377  26.689  29.509  1.00  0.00    -0.248 NA
ATOM     62  C   UNL A   1      45.156  24.574  28.891  1.00  0.00     0.031 C 
ATOM     63  C   UNL A   1      46.902  29.814  31.404  1.00  0.00     0.029 A 
ATOM     64  C   UNL A   1      46.133  28.821  30.817  1.00  0.00     0.049 A 
ATOM     65  H   UNL A   1      44.115  28.884  30.208  1.00  0.00     0.167 HD
ATOM     66  C   UNL A   1      45.715  26.569  29.871  1.00  0.00     0.074 A 
ATOM     67  C   UNL A   1      46.133  25.235  29.496  1.00  0.00     0.031 C 
ATOM     68  C   UNL A   1      46.525  27.482  30.460  1.00  0.00     0.037 A 
BRANCH  55  69
ATOM     69  C   UNL A   1      43.808  32.905  31.619  1.00  0.00     0.058 A 
ATOM     70  C   UNL A   1      43.986  34.017  30.781  1.00  0.00     0.135 A 
ATOM     71  C   UNL A   1      43.685  33.136  32.998  1.00  0.00     0.135 A 
ATOM     72  F   UNL A   1      44.129  33.851  29.457  1.00  0.00    -0.206 F 
ATOM     73  C   UNL A   1      44.049  35.310  31.292  1.00  0.00     0.059 A 
ATOM     74  C   UNL A   1      43.720  34.422  33.529  1.00  0.00     0.059 A 
ATOM     75  F   UNL A   1      43.516  32.107  33.844  1.00  0.00    -0.206 F 
ATOM     76  C   UNL A   1      43.909  35.502  32.667  1.00  0.00     0.060 A 
BRANCH  76  77
ATOM     77  S   UNL A   1      43.957  37.190  33.307  1.00  0.00     0.124 S 
ATOM     78  O   UNL A   1      44.019  37.966  32.072  1.00  0.00    -0.237 OA
ATOM     79  O   UNL A   1      42.704  37.277  34.049  1.00  0.00    -0.237 OA
ATOM     80  O   UNL A   1      45.168  37.210  34.121  1.00  0.00    -0.744 OA
ENDBRANCH  76  77
ENDBRANCH  55  69
BRANCH  56  81
ATOM     81  C   UNL A   1      42.562  23.741  27.829  1.00  0.00     0.058 A 
ATOM     82  C   UNL A   1      42.437  22.605  28.644  1.00  0.00     0.135 A 
ATOM     83  C   UNL A   1      42.575  23.549  26.439  1.00  0.00     0.135 A 
ATOM     84  F   UNL A   1      42.424  22.738  29.980  1.00  0.00    -0.206 F 
ATOM     85  C   UNL A   1      42.371  21.325  28.106  1.00  0.00     0.059 A 
ATOM     86  C   UNL A   1      42.482  22.280  25.876  1.00  0.00     0.059 A 
ATOM     87  F   UNL A   1      42.671  24.603  25.614  1.00  0.00    -0.206 F 
ATOM     88  C   UNL A   1      42.402  21.172  26.719  1.00  0.00     0.060 A 
BRANCH  88  89
ATOM     89  S   UNL A   1      42.317  19.507  26.027  1.00  0.00     0.124 S 
ATOM     90  O   UNL A   1      43.219  19.619  24.887  1.00  0.00    -0.237 OA
ATOM     91  O   UNL A   1      42.789  18.685  27.137  1.00  0.00    -0.237 OA
ATOM     92  O   UNL A   1      40.901  19.353  25.701  1.00  0.00    -0.744 OA
ENDBRANCH  88  89
ENDBRANCH  56  81
BRANCH  68  93
ATOM     93  C   UNL A   1      47.930  27.056  30.783  1.00  0.00     0.058 A 
ATOM     94  C   UNL A   1      48.264  26.497  32.026  1.00  0.00     0.135 A 
ATOM     95  C   UNL A   1      48.943  27.160  29.816  1.00  0.00     0.135 A 
ATOM     96  F   UNL A   1      47.334  26.382  32.987  1.00  0.00    -0.206 F 
ATOM     97  C   UNL A   1      49.560  26.077  32.308  1.00  0.00     0.059 A 
ATOM     98  C   UNL A   1      50.239  26.722  30.066  1.00  0.00     0.059 A 
ATOM     99  F   UNL A   1      48.673  27.677  28.607  1.00  0.00    -0.206 F 
ATOM    100  C   UNL A   1      50.541  26.192  31.320  1.00  0.00     0.060 A 
BRANCH 100 101
ATOM    101  S   UNL A   1      52.211  25.609  31.685  1.00  0.00     0.124 S 
ATOM    102  O   UNL A   1      52.908  25.921  30.442  1.00  0.00    -0.237 OA
ATOM    103  O   UNL A   1      52.580  26.421  32.840  1.00  0.00    -0.237 OA
ATOM    104  O   UNL A   1      52.022  24.188  31.960  1.00  0.00    -0.744 OA
ENDBRANCH 100 101
ENDBRANCH  68  93
ENDBRANCH  42  43
ENDBRANCH  34  37
ENDBRANCH  32  33
ENDBRANCH  31  32
ENDBRANCH   1  31
TORSDOF 20
ENDMDL
MODEL 3
REMARK VINA RESULT:      -7.7      7.512     14.084
REMARK SMILES COc1ccc(-c2nc(NCC(=O)NCCCCNC(=O)c3ccc(-c4c5nc(c(-c6c(F)cc(S(=O)(=O)[O-])cc6F)c6ccc([nH]6)c(-c6c(F)cc(S(=O)(=O)[O-])cc6F)c6nc(c(-c7c(F)cc(S(=O)(=O)[O-])cc7F)c7ccc4[nH]7)C=C6)C=C5)cc3)sc2-c2ccc(OC)cc2)cc1
REMARK SMILES IDX 16 1 15 2 14 3 12 4 13 5 11 7 10 8 9 10 7 11 8 12 89 13
REMARK SMILES IDX 88 14 6 15 3 16 4 17 99 18 5 19 98 20 2 21 1 22 90 23 91 24
REMARK SMILES IDX 97 25 92 26 96 27 93 28 94 29 95 30 17 31 18 32 19 33 20 34
REMARK SMILES IDX 21 36 22 37 23 38 87 39 24 40 86 41 25 42 26 43 27 44 80 45
REMARK SMILES IDX 28 46 85 47 79 48 81 49 29 50 84 51 78 52 77 53 30 55 64 56
REMARK SMILES IDX 43 57 63 58 44 59 47 60 62 61 82 62 45 63 46 64 61 66 83 67
REMARK SMILES IDX 48 68 31 69 32 70 41 71 33 72 34 73 40 74 42 75 35 76 36 77
REMARK SMILES IDX 37 78 38 79 39 80 65 81 66 82 75 83 67 84 68 85 74 86 76 87
REMARK SMILES IDX 69 88 70 89 71 90 72 91 73 92 49 93 50 94 59 95 51 96 52 97
REMARK SMILES IDX 58 98 60 99 53 100 54 101 55 102 56 103 57 104
REMARK H PARENT 14 6 10 9 19 35 81 54 47 65
REMARK Flexibility Score: inf
ROOT
ATOM      1  C   UNL A   1      45.776  20.299  25.069  1.00  0.00     0.023 C 
ENDROOT
BRANCH   1   2
ATOM      2  C   UNL A   1      44.457  19.731  24.548  1.00  0.00     0.116 C 
BRANCH   2   3
ATOM      3  N   UNL A   1      44.110  18.489  25.209  1.00  0.00    -0.355 N 
ATOM      4  C   UNL A   1      43.268  18.296  26.271  1.00  0.00     0.239 C 
ATOM      5  O   UNL A   1      43.152  17.159  26.731  1.00  0.00    -0.273 OA
ATOM      6  H   UNL A   1      44.536  17.678  24.848  1.00  0.00     0.163 HD
BRANCH   4   7
ATOM      7  C   UNL A   1      42.458  19.471  26.833  1.00  0.00     0.215 C 
BRANCH   7   8
ATOM      8  N   UNL A   1      41.073  19.429  26.393  1.00  0.00    -0.352 N 
ATOM      9  H   UNL A   1      40.719  18.559  26.101  1.00  0.00     0.163 HD
BRANCH   8  10
ATOM     10  C   UNL A   1      40.232  20.484  26.350  1.00  0.00     0.184 A 
ATOM     11  C   UNL A   1      39.633  22.612  26.494  1.00  0.00     0.091 A 
ATOM     12  N   UNL A   1      40.619  21.675  26.744  1.00  0.00    -0.220 NA
ATOM     13  C   UNL A   1      38.502  22.133  25.847  1.00  0.00     0.064 A 
ATOM     14  S   UNL A   1      38.613  20.427  25.754  1.00  0.00    -0.096 S 
BRANCH  11  15
ATOM     15  C   UNL A   1      39.815  24.014  26.836  1.00  0.00     0.002 A 
ATOM     16  C   UNL A   1      39.955  26.763  27.343  1.00  0.00     0.118 A 
ATOM     17  C   UNL A   1      39.189  25.942  28.168  1.00  0.00     0.047 A 
ATOM     18  C   UNL A   1      40.704  26.207  26.305  1.00  0.00     0.047 A 
ATOM     19  C   UNL A   1      39.112  24.573  27.913  1.00  0.00     0.014 A 
ATOM     20  C   UNL A   1      40.638  24.831  26.054  1.00  0.00     0.014 A 
BRANCH  16  21
ATOM     21  O   UNL A   1      39.954  28.096  27.653  1.00  0.00    -0.497 OA
ATOM     22  C   UNL A   1      41.100  28.789  27.165  1.00  0.00     0.278 C 
ENDBRANCH  16  21
ENDBRANCH  11  15
BRANCH  13  23
ATOM     23  C   UNL A   1      37.361  22.843  25.260  1.00  0.00    -0.006 A 
ATOM     24  C   UNL A   1      37.038  22.732  23.904  1.00  0.00     0.013 A 
ATOM     25  C   UNL A   1      36.549  23.642  26.078  1.00  0.00     0.013 A 
ATOM     26  C   UNL A   1      35.913  23.386  23.391  1.00  0.00     0.047 A 
ATOM     27  C   UNL A   1      35.420  24.288  25.566  1.00  0.00     0.047 A 
ATOM     28  C   UNL A   1      35.089  24.151  24.220  1.00  0.00     0.118 A 
BRANCH  28  29
ATOM     29  O   UNL A   1      34.005  24.710  23.601  1.00  0.00    -0.497 OA
ATOM     30  C   UNL A   1      32.852  23.884  23.474  1.00  0.00     0.278 C 
ENDBRANCH  28  29
ENDBRANCH  13  23
ENDBRANCH   8  10
ENDBRANCH   7   8
ENDBRANCH   4   7
ENDBRANCH   2   3
ENDBRANCH   1   2
BRANCH   1  31
ATOM     31  C   UNL A   1      45.670  21.727  25.614  1.00  0.00     0.023 C 
BRANCH  31  32
ATOM     32  C   UNL A   1      44.251  22.278  25.725  1.00  0.00     0.116 C 
BRANCH  32  33
ATOM     33  N   UNL A   1      43.705  22.186  27.070  1.00  0.00    -0.352 N 
ATOM     34  C   UNL A   1      43.880  23.045  28.128  1.00  0.00     0.251 C 
ATOM     35  H   UNL A   1      43.133  21.404  27.246  1.00  0.00     0.163 HD
ATOM     36  O   UNL A   1      43.445  22.749  29.239  1.00  0.00    -0.269 OA
BRANCH  34  37
ATOM     37  C   UNL A   1      44.629  24.306  27.930  1.00  0.00     0.039 A 
ATOM     38  C   UNL A   1      45.473  24.756  28.947  1.00  0.00     0.014 A 
ATOM     39  C   UNL A   1      44.518  25.027  26.737  1.00  0.00     0.014 A 
ATOM     40  C   UNL A   1      46.261  25.891  28.741  1.00  0.00     0.010 A 
ATOM     41  C   UNL A   1      45.350  26.121  26.510  1.00  0.00     0.010 A 
ATOM     42  C   UNL A   1      46.235  26.560  27.507  1.00  0.00    -0.014 A 
BRANCH  42  43
ATOM     43  C   UNL A   1      47.132  27.714  27.235  1.00  0.00     0.031 A 
ATOM     44  C   UNL A   1      48.608  27.494  27.042  1.00  0.00     0.074 A 
ATOM     45  C   UNL A   1      46.626  28.964  27.222  1.00  0.00     0.049 A 
ATOM     46  N   UNL A   1      49.561  28.377  26.889  1.00  0.00    -0.248 NA
ATOM     47  C   UNL A   1      49.080  26.098  27.043  1.00  0.00     0.031 C 
ATOM     48  C   UNL A   1      45.220  29.313  27.437  1.00  0.00     0.029 A 
ATOM     49  N   UNL A   1      47.240  30.178  27.032  1.00  0.00    -0.354 N 
ATOM     50  C   UNL A   1      50.740  27.650  26.780  1.00  0.00     0.074 A 
ATOM     51  C   UNL A   1      50.392  26.254  26.938  1.00  0.00     0.031 C 
ATOM     52  C   UNL A   1      45.077  30.645  27.355  1.00  0.00     0.029 A 
ATOM     53  C   UNL A   1      46.384  31.251  27.117  1.00  0.00     0.049 A 
ATOM     54  H   UNL A   1      48.203  30.271  26.853  1.00  0.00     0.167 HD
ATOM     55  C   UNL A   1      51.995  28.100  26.542  1.00  0.00     0.037 A 
ATOM     56  C   UNL A   1      46.625  32.574  27.025  1.00  0.00     0.037 A 
ATOM     57  C   UNL A   1      52.336  29.487  26.361  1.00  0.00     0.049 A 
ATOM     58  C   UNL A   1      48.033  33.047  26.773  1.00  0.00     0.074 A 
ATOM     59  C   UNL A   1      53.576  30.040  26.089  1.00  0.00     0.029 A 
ATOM     60  N   UNL A   1      51.435  30.539  26.423  1.00  0.00    -0.354 N 
ATOM     61  N   UNL A   1      49.127  32.338  26.632  1.00  0.00    -0.248 NA
ATOM     62  C   UNL A   1      48.237  34.499  26.661  1.00  0.00     0.031 C 
ATOM     63  C   UNL A   1      53.431  31.429  26.014  1.00  0.00     0.029 A 
ATOM     64  C   UNL A   1      52.093  31.738  26.199  1.00  0.00     0.049 A 
ATOM     65  H   UNL A   1      50.471  30.449  26.600  1.00  0.00     0.167 HD
ATOM     66  C   UNL A   1      50.143  33.256  26.382  1.00  0.00     0.074 A 
ATOM     67  C   UNL A   1      49.531  34.568  26.379  1.00  0.00     0.031 C 
ATOM     68  C   UNL A   1      51.464  33.033  26.175  1.00  0.00     0.037 A 
BRANCH  55  69
ATOM     69  C   UNL A   1      53.097  27.083  26.434  1.00  0.00     0.058 A 
ATOM     70  C   UNL A   1      53.601  26.687  25.185  1.00  0.00     0.135 A 
ATOM     71  C   UNL A   1      53.702  26.552  27.584  1.00  0.00     0.135 A 
ATOM     72  F   UNL A   1      53.046  27.150  24.054  1.00  0.00    -0.206 F 
ATOM     73  C   UNL A   1      54.659  25.790  25.079  1.00  0.00     0.059 A 
ATOM     74  C   UNL A   1      54.778  25.673  27.503  1.00  0.00     0.059 A 
ATOM     75  F   UNL A   1      53.256  26.896  28.803  1.00  0.00    -0.206 F 
ATOM     76  C   UNL A   1      55.245  25.293  26.245  1.00  0.00     0.060 A 
BRANCH  76  77
ATOM     77  S   UNL A   1      56.640  24.159  26.087  1.00  0.00     0.124 S 
ATOM     78  O   UNL A   1      56.046  22.903  26.535  1.00  0.00    -0.237 OA
ATOM     79  O   UNL A   1      56.950  24.241  24.664  1.00  0.00    -0.237 OA
ATOM     80  O   UNL A   1      57.645  24.731  26.979  1.00  0.00    -0.744 OA
ENDBRANCH  76  77
ENDBRANCH  55  69
BRANCH  56  81
ATOM     81  C   UNL A   1      45.516  33.555  27.167  1.00  0.00     0.058 A 
ATOM     82  C   UNL A   1      44.678  33.861  26.084  1.00  0.00     0.135 A 
ATOM     83  C   UNL A   1      45.298  34.237  28.374  1.00  0.00     0.135 A 
ATOM     84  F   UNL A   1      44.852  33.239  24.907  1.00  0.00    -0.206 F 
ATOM     85  C   UNL A   1      43.689  34.834  26.178  1.00  0.00     0.059 A 
ATOM     86  C   UNL A   1      44.296  35.194  28.502  1.00  0.00     0.059 A 
ATOM     87  F   UNL A   1      46.057  33.968  29.447  1.00  0.00    -0.206 F 
ATOM     88  C   UNL A   1      43.511  35.501  27.391  1.00  0.00     0.060 A 
BRANCH  88  89
ATOM     89  S   UNL A   1      42.225  36.764  27.507  1.00  0.00     0.124 S 
ATOM     90  O   UNL A   1      41.016  35.961  27.371  1.00  0.00    -0.237 OA
ATOM     91  O   UNL A   1      42.469  37.333  28.829  1.00  0.00    -0.237 OA
ATOM     92  O   UNL A   1      42.526  37.650  26.386  1.00  0.00    -0.744 OA
ENDBRANCH  88  89
ENDBRANCH  56  81
BRANCH  68  93
ATOM     93  C   UNL A   1      52.330  34.225  25.878  1.00  0.00     0.058 A 
ATOM     94  C   UNL A   1      52.955  34.956  26.900  1.00  0.00     0.135 A 
ATOM     95  C   UNL A   1      52.578  34.607  24.550  1.00  0.00     0.135 A 
ATOM     96  F   UNL A   1      52.744  34.635  28.186  1.00  0.00    -0.206 F 
ATOM     97  C   UNL A   1      53.780  36.040  26.616  1.00  0.00     0.059 A 
ATOM     98  C   UNL A   1      53.420  35.671  24.241  1.00  0.00     0.059 A 
ATOM     99  F   UNL A   1      52.013  33.934  23.535  1.00  0.00    -0.206 F 
ATOM    100  C   UNL A   1      54.007  36.388  25.282  1.00  0.00     0.060 A 
BRANCH 100 101
ATOM    101  S   UNL A   1      55.109  37.774  24.925  1.00  0.00     0.124 S 
ATOM    102  O   UNL A   1      54.314  38.908  25.386  1.00  0.00    -0.237 OA
ATOM    103  O   UNL A   1      56.285  37.454  25.729  1.00  0.00    -0.237 OA
ATOM    104  O   UNL A   1      55.303  37.689  23.481  1.00  0.00    -0.744 OA
ENDBRANCH 100 101
ENDBRANCH  68  93
ENDBRANCH  42  43
ENDBRANCH  34  37
ENDBRANCH  32  33
ENDBRANCH  31  32
ENDBRANCH   1  31
TORSDOF 20
ENDMDL
