MODEL 1
REMARK VINA RESULT:     -11.5      0.000      0.000
REMARK SMILES O=C(/C=C/c1ccc(O)cc1)NC[C@@H]1CC[C@H](C(=O)NCCCCNC(=O)c2ccc(-c3c4nc(c(-c5c(F)cc(S(=O)(=O)[O-])cc5F)c5ccc([nH]5)c(-c5c(F)cc(S(=O)(=O)[O-])cc5F)c5nc(c(-c6c(F)cc(S(=O)(=O)[O-])cc6F)c6ccc3[nH]6)C=C5)C=C4)cc2)O1
REMARK SMILES IDX 21 1 20 2 18 3 19 4 17 6 14 7 15 8 94 9 16 10 13 11 12 12
REMARK SMILES IDX 1 13 2 14 3 16 4 17 5 18 6 19 11 20 7 21 10 22 8 23 9 24
REMARK SMILES IDX 22 26 23 27 24 28 25 29 26 30 27 32 28 33 29 34 93 35 30 36
REMARK SMILES IDX 92 37 31 38 32 39 33 40 86 41 34 42 91 43 85 44 87 45 35 46
REMARK SMILES IDX 90 47 84 48 83 49 36 51 70 52 49 53 69 54 50 55 53 56 68 57
REMARK SMILES IDX 88 58 51 59 52 60 67 62 89 63 54 64 37 65 38 66 47 67 39 68
REMARK SMILES IDX 40 69 46 70 48 71 41 72 42 73 43 74 44 75 45 76 71 77 72 78
REMARK SMILES IDX 81 79 73 80 74 81 80 82 82 83 75 84 76 85 77 86 78 87 79 88
REMARK SMILES IDX 55 89 56 90 65 91 57 92 58 93 64 94 66 95 59 96 60 97 61 98
REMARK SMILES IDX 62 99 63 100
REMARK H PARENT 20 5 12 15 9 25 25 31 87 50 53 61
REMARK Flexibility Score: inf
ROOT
ATOM      1  C   UNL A   1      39.080  21.205  25.896  1.00  0.00     0.116 C 
ENDROOT
BRANCH   1   2
ATOM      2  N   UNL A   1      38.430  22.495  25.985  1.00  0.00    -0.354 N 
ATOM      3  C   UNL A   1      37.148  22.844  25.677  1.00  0.00     0.249 C 
ATOM      4  O   UNL A   1      36.824  24.027  25.833  1.00  0.00    -0.272 OA
ATOM      5  H   UNL A   1      38.996  23.228  26.317  1.00  0.00     0.163 HD
BRANCH   3   6
ATOM      6  C   UNL A   1      36.134  21.828  25.096  1.00  0.00     0.207 C 
ATOM      7  C   UNL A   1      34.013  21.906  24.112  1.00  0.00     0.138 C 
ATOM      8  C   UNL A   1      33.790  21.770  25.610  1.00  0.00     0.037 C 
ATOM      9  O   UNL A   1      35.401  22.247  23.944  1.00  0.00    -0.363 OA
ATOM     10  C   UNL A   1      35.137  21.319  26.126  1.00  0.00     0.045 C 
BRANCH   7  11
ATOM     11  C   UNL A   1      33.149  22.947  23.374  1.00  0.00     0.148 C 
BRANCH  11  12
ATOM     12  N   UNL A   1      33.241  24.301  23.887  1.00  0.00    -0.350 N 
ATOM     13  O   UNL A   1      30.991  24.531  24.306  1.00  0.00    -0.270 OA
ATOM     14  C   UNL A   1      32.128  24.990  24.304  1.00  0.00     0.244 C 
ATOM     15  H   UNL A   1      34.122  24.737  23.936  1.00  0.00     0.163 HD
BRANCH  14  16
ATOM     16  C   UNL A   1      32.362  26.368  24.804  1.00  0.00     0.072 C 
ATOM     17  C   UNL A   1      32.721  26.669  26.062  1.00  0.00     0.014 C 
BRANCH  17  18
ATOM     18  C   UNL A   1      33.026  28.029  26.528  1.00  0.00    -0.025 A 
ATOM     19  C   UNL A   1      34.325  28.449  26.846  1.00  0.00     0.012 A 
ATOM     20  C   UNL A   1      31.977  28.957  26.607  1.00  0.00     0.012 A 
ATOM     21  C   UNL A   1      34.568  29.764  27.258  1.00  0.00     0.047 A 
ATOM     22  C   UNL A   1      32.218  30.269  27.018  1.00  0.00     0.047 A 
ATOM     23  C   UNL A   1      33.510  30.662  27.342  1.00  0.00     0.115 A 
BRANCH  23  24
ATOM     24  O   UNL A   1      33.700  31.952  27.741  1.00  0.00    -0.508 OA
ATOM     25  H   UNL A   1      34.223  32.529  27.220  1.00  0.00     0.293 HD
ENDBRANCH  23  24
ENDBRANCH  17  18
ENDBRANCH  14  16
ENDBRANCH  11  12
ENDBRANCH   7  11
ENDBRANCH   3   6
ENDBRANCH   1   2
BRANCH   1  26
ATOM     26  C   UNL A   1      40.446  21.212  26.581  1.00  0.00     0.023 C 
BRANCH  26  27
ATOM     27  C   UNL A   1      40.610  22.286  27.652  1.00  0.00     0.023 C 
BRANCH  27  28
ATOM     28  C   UNL A   1      41.759  23.266  27.426  1.00  0.00     0.116 C 
BRANCH  28  29
ATOM     29  N   UNL A   1      41.640  24.068  26.215  1.00  0.00    -0.352 N 
ATOM     30  C   UNL A   1      41.393  25.422  26.131  1.00  0.00     0.251 C 
ATOM     31  H   UNL A   1      41.747  23.588  25.361  1.00  0.00     0.163 HD
ATOM     32  O   UNL A   1      41.199  25.968  25.048  1.00  0.00    -0.269 OA
BRANCH  30  33
ATOM     33  C   UNL A   1      41.334  26.213  27.382  1.00  0.00     0.039 A 
ATOM     34  C   UNL A   1      42.394  27.061  27.708  1.00  0.00     0.014 A 
ATOM     35  C   UNL A   1      40.201  26.157  28.200  1.00  0.00     0.014 A 
ATOM     36  C   UNL A   1      42.283  27.914  28.811  1.00  0.00     0.010 A 
ATOM     37  C   UNL A   1      40.064  27.055  29.256  1.00  0.00     0.010 A 
ATOM     38  C   UNL A   1      41.099  27.949  29.569  1.00  0.00    -0.014 A 
BRANCH  38  39
ATOM     39  C   UNL A   1      40.914  28.924  30.676  1.00  0.00     0.031 A 
ATOM     40  C   UNL A   1      41.727  28.800  31.938  1.00  0.00     0.074 A 
ATOM     41  C   UNL A   1      39.947  29.861  30.588  1.00  0.00     0.049 A 
ATOM     42  N   UNL A   1      41.644  29.492  33.045  1.00  0.00    -0.248 NA
ATOM     43  C   UNL A   1      42.747  27.738  31.973  1.00  0.00     0.031 C 
ATOM     44  C   UNL A   1      39.037  30.037  29.452  1.00  0.00     0.029 A 
ATOM     45  N   UNL A   1      39.550  30.827  31.478  1.00  0.00    -0.354 N 
ATOM     46  C   UNL A   1      42.573  28.932  33.915  1.00  0.00     0.074 A 
ATOM     47  C   UNL A   1      43.187  27.824  33.220  1.00  0.00     0.031 C 
ATOM     48  C   UNL A   1      38.198  31.052  29.712  1.00  0.00     0.029 A 
ATOM     49  C   UNL A   1      38.486  31.582  31.041  1.00  0.00     0.049 A 
ATOM     50  H   UNL A   1      39.986  30.967  32.350  1.00  0.00     0.167 HD
ATOM     51  C   UNL A   1      42.895  29.320  35.171  1.00  0.00     0.037 A 
ATOM     52  C   UNL A   1      37.812  32.581  31.645  1.00  0.00     0.037 A 
ATOM     53  C   UNL A   1      42.326  30.463  35.837  1.00  0.00     0.049 A 
ATOM     54  C   UNL A   1      38.232  33.028  33.020  1.00  0.00     0.074 A 
ATOM     55  C   UNL A   1      42.673  31.001  37.064  1.00  0.00     0.029 A 
ATOM     56  N   UNL A   1      41.298  31.243  35.333  1.00  0.00    -0.354 N 
ATOM     57  N   UNL A   1      39.183  32.549  33.786  1.00  0.00    -0.248 NA
ATOM     58  C   UNL A   1      37.497  34.156  33.609  1.00  0.00     0.031 C 
ATOM     59  C   UNL A   1      41.829  32.087  37.319  1.00  0.00     0.029 A 
ATOM     60  C   UNL A   1      40.984  32.247  36.234  1.00  0.00     0.049 A 
ATOM     61  H   UNL A   1      40.857  31.105  34.465  1.00  0.00     0.167 HD
ATOM     62  C   UNL A   1      39.176  33.334  34.934  1.00  0.00     0.074 A 
ATOM     63  C   UNL A   1      38.137  34.326  34.758  1.00  0.00     0.031 C 
ATOM     64  C   UNL A   1      39.960  33.240  36.035  1.00  0.00     0.037 A 
BRANCH  51  65
ATOM     65  C   UNL A   1      43.927  28.520  35.914  1.00  0.00     0.058 A 
ATOM     66  C   UNL A   1      43.567  27.444  36.741  1.00  0.00     0.135 A 
ATOM     67  C   UNL A   1      45.295  28.781  35.734  1.00  0.00     0.135 A 
ATOM     68  F   UNL A   1      42.273  27.163  36.959  1.00  0.00    -0.206 F 
ATOM     69  C   UNL A   1      44.528  26.663  37.373  1.00  0.00     0.059 A 
ATOM     70  C   UNL A   1      46.274  27.997  36.337  1.00  0.00     0.059 A 
ATOM     71  F   UNL A   1      45.691  29.799  34.954  1.00  0.00    -0.206 F 
ATOM     72  C   UNL A   1      45.879  26.943  37.161  1.00  0.00     0.060 A 
BRANCH  72  73
ATOM     73  S   UNL A   1      47.114  25.889  37.952  1.00  0.00     0.124 S 
ATOM     74  O   UNL A   1      46.559  25.750  39.296  1.00  0.00    -0.237 OA
ATOM     75  O   UNL A   1      47.077  24.688  37.125  1.00  0.00    -0.237 OA
ATOM     76  O   UNL A   1      48.341  26.673  37.857  1.00  0.00    -0.744 OA
ENDBRANCH  72  73
ENDBRANCH  51  65
BRANCH  52  77
ATOM     77  C   UNL A   1      36.670  33.241  30.958  1.00  0.00     0.058 A 
ATOM     78  C   UNL A   1      36.885  34.135  29.897  1.00  0.00     0.135 A 
ATOM     79  C   UNL A   1      35.346  33.015  31.364  1.00  0.00     0.135 A 
ATOM     80  F   UNL A   1      38.134  34.387  29.477  1.00  0.00    -0.206 F 
ATOM     81  C   UNL A   1      35.832  34.807  29.286  1.00  0.00     0.059 A 
ATOM     82  C   UNL A   1      34.274  33.658  30.751  1.00  0.00     0.059 A 
ATOM     83  F   UNL A   1      35.086  32.154  32.361  1.00  0.00    -0.206 F 
ATOM     84  C   UNL A   1      34.529  34.566  29.724  1.00  0.00     0.060 A 
BRANCH  84  85
ATOM     85  S   UNL A   1      33.164  35.432  28.919  1.00  0.00     0.124 S 
ATOM     86  O   UNL A   1      32.433  35.957  30.067  1.00  0.00    -0.237 OA
ATOM     87  O   UNL A   1      33.863  36.419  28.101  1.00  0.00    -0.237 OA
ATOM     88  O   UNL A   1      32.494  34.373  28.171  1.00  0.00    -0.744 OA
ENDBRANCH  84  85
ENDBRANCH  52  77
BRANCH  64  89
ATOM     89  C   UNL A   1      39.754  34.258  37.121  1.00  0.00     0.058 A 
ATOM     90  C   UNL A   1      38.933  33.996  38.228  1.00  0.00     0.135 A 
ATOM     91  C   UNL A   1      40.430  35.488  37.078  1.00  0.00     0.135 A 
ATOM     92  F   UNL A   1      38.261  32.838  38.312  1.00  0.00    -0.206 F 
ATOM     93  C   UNL A   1      38.773  34.929  39.248  1.00  0.00     0.059 A 
ATOM     94  C   UNL A   1      40.303  36.425  38.098  1.00  0.00     0.059 A 
ATOM     95  F   UNL A   1      41.236  35.782  36.045  1.00  0.00    -0.206 F 
ATOM     96  C   UNL A   1      39.464  36.140  39.175  1.00  0.00     0.060 A 
BRANCH  96  97
ATOM     97  S   UNL A   1      39.280  37.328  40.521  1.00  0.00     0.124 S 
ATOM     98  O   UNL A   1      38.241  38.208  39.996  1.00  0.00    -0.237 OA
ATOM     99  O   UNL A   1      38.885  36.479  41.640  1.00  0.00    -0.237 OA
ATOM    100  O   UNL A   1      40.609  37.923  40.633  1.00  0.00    -0.744 OA
ENDBRANCH  96  97
ENDBRANCH  64  89
ENDBRANCH  38  39
ENDBRANCH  30  33
ENDBRANCH  28  29
ENDBRANCH  27  28
ENDBRANCH  26  27
ENDBRANCH   1  26
TORSDOF 19
ENDMDL
MODEL 2
REMARK VINA RESULT:     -11.3      5.010      7.248
REMARK SMILES O=C(/C=C/c1ccc(O)cc1)NC[C@@H]1CC[C@H](C(=O)NCCCCNC(=O)c2ccc(-c3c4nc(c(-c5c(F)cc(S(=O)(=O)[O-])cc5F)c5ccc([nH]5)c(-c5c(F)cc(S(=O)(=O)[O-])cc5F)c5nc(c(-c6c(F)cc(S(=O)(=O)[O-])cc6F)c6ccc3[nH]6)C=C5)C=C4)cc2)O1
REMARK SMILES IDX 21 1 20 2 18 3 19 4 17 6 14 7 15 8 94 9 16 10 13 11 12 12
REMARK SMILES IDX 1 13 2 14 3 16 4 17 5 18 6 19 11 20 7 21 10 22 8 23 9 24
REMARK SMILES IDX 22 26 23 27 24 28 25 29 26 30 27 32 28 33 29 34 93 35 30 36
REMARK SMILES IDX 92 37 31 38 32 39 33 40 86 41 34 42 91 43 85 44 87 45 35 46
REMARK SMILES IDX 90 47 84 48 83 49 36 51 70 52 49 53 69 54 50 55 53 56 68 57
REMARK SMILES IDX 88 58 51 59 52 60 67 62 89 63 54 64 37 65 38 66 47 67 39 68
REMARK SMILES IDX 40 69 46 70 48 71 41 72 42 73 43 74 44 75 45 76 71 77 72 78
REMARK SMILES IDX 81 79 73 80 74 81 80 82 82 83 75 84 76 85 77 86 78 87 79 88
REMARK SMILES IDX 55 89 56 90 65 91 57 92 58 93 64 94 66 95 59 96 60 97 61 98
REMARK SMILES IDX 62 99 63 100
REMARK H PARENT 20 5 12 15 9 25 25 31 87 50 53 61
REMARK Flexibility Score: inf
ROOT
ATOM      1  C   UNL A   1      33.841  25.569  25.054  1.00  0.00     0.116 C 
ENDROOT
BRANCH   1   2
ATOM      2  N   UNL A   1      34.137  26.766  24.296  1.00  0.00    -0.354 N 
ATOM      3  C   UNL A   1      33.288  27.708  23.794  1.00  0.00     0.249 C 
ATOM      4  O   UNL A   1      33.784  28.650  23.166  1.00  0.00    -0.272 OA
ATOM      5  H   UNL A   1      35.092  26.925  24.118  1.00  0.00     0.163 HD
BRANCH   3   6
ATOM      6  C   UNL A   1      31.750  27.591  23.938  1.00  0.00     0.207 C 
ATOM      7  C   UNL A   1      30.235  26.087  24.897  1.00  0.00     0.138 C 
ATOM      8  C   UNL A   1      30.467  25.618  23.469  1.00  0.00     0.037 C 
ATOM      9  O   UNL A   1      31.265  27.055  25.171  1.00  0.00    -0.363 OA
ATOM     10  C   UNL A   1      31.098  26.817  22.802  1.00  0.00     0.045 C 
BRANCH   7  11
ATOM     11  C   UNL A   1      30.261  25.007  25.995  1.00  0.00     0.148 C 
BRANCH  11  12
ATOM     12  N   UNL A   1      30.614  23.675  25.544  1.00  0.00    -0.350 N 
ATOM     13  O   UNL A   1      31.939  23.171  27.355  1.00  0.00    -0.270 OA
ATOM     14  C   UNL A   1      31.449  22.864  26.274  1.00  0.00     0.244 C 
ATOM     15  H   UNL A   1      30.247  23.343  24.692  1.00  0.00     0.163 HD
BRANCH  14  16
ATOM     16  C   UNL A   1      31.730  21.525  25.697  1.00  0.00     0.072 C 
ATOM     17  C   UNL A   1      32.672  21.280  24.772  1.00  0.00     0.014 C 
BRANCH  17  18
ATOM     18  C   UNL A   1      32.996  19.940  24.262  1.00  0.00    -0.025 A 
ATOM     19  C   UNL A   1      32.259  19.316  23.246  1.00  0.00     0.012 A 
ATOM     20  C   UNL A   1      34.122  19.284  24.781  1.00  0.00     0.012 A 
ATOM     21  C   UNL A   1      32.625  18.051  22.774  1.00  0.00     0.047 A 
ATOM     22  C   UNL A   1      34.489  18.022  24.310  1.00  0.00     0.047 A 
ATOM     23  C   UNL A   1      33.737  17.415  23.313  1.00  0.00     0.115 A 
BRANCH  23  24
ATOM     24  O   UNL A   1      34.129  16.181  22.885  1.00  0.00    -0.508 OA
ATOM     25  H   UNL A   1      34.835  15.739  23.316  1.00  0.00     0.293 HD
ENDBRANCH  23  24
ENDBRANCH  17  18
ENDBRANCH  14  16
ENDBRANCH  11  12
ENDBRANCH   7  11
ENDBRANCH   3   6
ENDBRANCH   1   2
BRANCH   1  26
ATOM     26  C   UNL A   1      34.393  24.318  24.372  1.00  0.00     0.023 C 
BRANCH  26  27
ATOM     27  C   UNL A   1      35.854  24.016  24.691  1.00  0.00     0.023 C 
BRANCH  27  28
ATOM     28  C   UNL A   1      36.104  23.342  26.039  1.00  0.00     0.116 C 
BRANCH  28  29
ATOM     29  N   UNL A   1      37.165  22.343  26.027  1.00  0.00    -0.352 N 
ATOM     30  C   UNL A   1      38.506  22.547  26.275  1.00  0.00     0.251 C 
ATOM     31  H   UNL A   1      36.893  21.420  25.819  1.00  0.00     0.163 HD
ATOM     32  O   UNL A   1      39.325  21.645  26.123  1.00  0.00    -0.269 OA
BRANCH  30  33
ATOM     33  C   UNL A   1      38.955  23.893  26.702  1.00  0.00     0.039 A 
ATOM     34  C   UNL A   1      38.838  24.261  28.044  1.00  0.00     0.014 A 
ATOM     35  C   UNL A   1      39.545  24.766  25.781  1.00  0.00     0.014 A 
ATOM     36  C   UNL A   1      39.387  25.472  28.478  1.00  0.00     0.010 A 
ATOM     37  C   UNL A   1      40.151  25.937  26.228  1.00  0.00     0.010 A 
ATOM     38  C   UNL A   1      40.086  26.300  27.582  1.00  0.00    -0.014 A 
BRANCH  38  39
ATOM     39  C   UNL A   1      40.774  27.536  28.042  1.00  0.00     0.031 A 
ATOM     40  C   UNL A   1      42.278  27.615  28.030  1.00  0.00     0.074 A 
ATOM     41  C   UNL A   1      40.050  28.550  28.562  1.00  0.00     0.049 A 
ATOM     42  N   UNL A   1      43.058  28.565  28.476  1.00  0.00    -0.248 NA
ATOM     43  C   UNL A   1      43.002  26.460  27.472  1.00  0.00     0.031 C 
ATOM     44  C   UNL A   1      38.592  28.566  28.703  1.00  0.00     0.029 A 
ATOM     45  N   UNL A   1      40.445  29.754  29.090  1.00  0.00    -0.354 N 
ATOM     46  C   UNL A   1      44.358  28.112  28.284  1.00  0.00     0.074 A 
ATOM     47  C   UNL A   1      44.264  26.789  27.709  1.00  0.00     0.031 C 
ATOM     48  C   UNL A   1      38.216  29.724  29.271  1.00  0.00     0.029 A 
ATOM     49  C   UNL A   1      39.404  30.520  29.562  1.00  0.00     0.049 A 
ATOM     50  H   UNL A   1      41.385  30.043  29.129  1.00  0.00     0.167 HD
ATOM     51  C   UNL A   1      45.523  28.750  28.546  1.00  0.00     0.037 A 
ATOM     52  C   UNL A   1      39.406  31.724  30.169  1.00  0.00     0.037 A 
ATOM     53  C   UNL A   1      45.614  30.092  29.060  1.00  0.00     0.049 A 
ATOM     54  C   UNL A   1      40.714  32.434  30.394  1.00  0.00     0.074 A 
ATOM     55  C   UNL A   1      46.747  30.863  29.250  1.00  0.00     0.029 A 
ATOM     56  N   UNL A   1      44.534  30.861  29.462  1.00  0.00    -0.354 N 
ATOM     57  N   UNL A   1      41.929  32.029  30.111  1.00  0.00    -0.248 NA
ATOM     58  C   UNL A   1      40.652  33.766  31.011  1.00  0.00     0.031 C 
ATOM     59  C   UNL A   1      46.356  32.087  29.801  1.00  0.00     0.029 A 
ATOM     60  C   UNL A   1      44.976  32.092  29.918  1.00  0.00     0.049 A 
ATOM     61  H   UNL A   1      43.593  30.575  29.429  1.00  0.00     0.167 HD
ATOM     62  C   UNL A   1      42.772  33.068  30.491  1.00  0.00     0.074 A 
ATOM     63  C   UNL A   1      41.930  34.123  31.012  1.00  0.00     0.031 C 
ATOM     64  C   UNL A   1      44.123  33.140  30.415  1.00  0.00     0.037 A 
BRANCH  51  65
ATOM     65  C   UNL A   1      46.806  28.020  28.266  1.00  0.00     0.058 A 
ATOM     66  C   UNL A   1      47.366  27.133  29.198  1.00  0.00     0.135 A 
ATOM     67  C   UNL A   1      47.439  28.149  27.019  1.00  0.00     0.135 A 
ATOM     68  F   UNL A   1      46.808  26.985  30.410  1.00  0.00    -0.206 F 
ATOM     69  C   UNL A   1      48.516  26.407  28.908  1.00  0.00     0.059 A 
ATOM     70  C   UNL A   1      48.578  27.415  26.698  1.00  0.00     0.059 A 
ATOM     71  F   UNL A   1      46.945  28.986  26.093  1.00  0.00    -0.206 F 
ATOM     72  C   UNL A   1      49.113  26.551  27.654  1.00  0.00     0.060 A 
BRANCH  72  73
ATOM     73  S   UNL A   1      50.578  25.566  27.277  1.00  0.00     0.124 S 
ATOM     74  O   UNL A   1      50.183  24.253  27.779  1.00  0.00    -0.237 OA
ATOM     75  O   UNL A   1      50.674  25.687  25.827  1.00  0.00    -0.237 OA
ATOM     76  O   UNL A   1      51.637  26.232  28.029  1.00  0.00    -0.744 OA
ENDBRANCH  72  73
ENDBRANCH  51  65
BRANCH  52  77
ATOM     77  C   UNL A   1      38.128  32.349  30.604  1.00  0.00     0.058 A 
ATOM     78  C   UNL A   1      37.401  33.181  29.739  1.00  0.00     0.135 A 
ATOM     79  C   UNL A   1      37.623  32.150  31.898  1.00  0.00     0.135 A 
ATOM     80  F   UNL A   1      37.846  33.406  28.493  1.00  0.00    -0.206 F 
ATOM     81  C   UNL A   1      36.237  33.822  30.152  1.00  0.00     0.059 A 
ATOM     82  C   UNL A   1      36.449  32.762  32.326  1.00  0.00     0.059 A 
ATOM     83  F   UNL A   1      38.272  31.347  32.756  1.00  0.00    -0.206 F 
ATOM     84  C   UNL A   1      35.772  33.611  31.451  1.00  0.00     0.060 A 
BRANCH  84  85
ATOM     85  S   UNL A   1      34.254  34.435  31.978  1.00  0.00     0.124 S 
ATOM     86  O   UNL A   1      33.709  33.467  32.923  1.00  0.00    -0.237 OA
ATOM     87  O   UNL A   1      34.761  35.676  32.557  1.00  0.00    -0.237 OA
ATOM     88  O   UNL A   1      33.511  34.593  30.732  1.00  0.00    -0.744 OA
ENDBRANCH  84  85
ENDBRANCH  52  77
BRANCH  64  89
ATOM     89  C   UNL A   1      44.776  34.414  30.871  1.00  0.00     0.058 A 
ATOM     90  C   UNL A   1      44.931  35.510  30.009  1.00  0.00     0.135 A 
ATOM     91  C   UNL A   1      45.201  34.557  32.202  1.00  0.00     0.135 A 
ATOM     92  F   UNL A   1      44.547  35.420  28.726  1.00  0.00    -0.206 F 
ATOM     93  C   UNL A   1      45.505  36.700  30.446  1.00  0.00     0.059 A 
ATOM     94  C   UNL A   1      45.755  35.745  32.665  1.00  0.00     0.059 A 
ATOM     95  F   UNL A   1      45.065  33.541  33.069  1.00  0.00    -0.206 F 
ATOM     96  C   UNL A   1      45.913  36.808  31.777  1.00  0.00     0.060 A 
BRANCH  96  97
ATOM     97  S   UNL A   1      46.622  38.368  32.344  1.00  0.00     0.124 S 
ATOM     98  O   UNL A   1      45.424  39.125  32.693  1.00  0.00    -0.237 OA
ATOM     99  O   UNL A   1      47.455  37.947  33.466  1.00  0.00    -0.237 OA
ATOM    100  O   UNL A   1      47.354  38.852  31.176  1.00  0.00    -0.744 OA
ENDBRANCH  96  97
ENDBRANCH  64  89
ENDBRANCH  38  39
ENDBRANCH  30  33
ENDBRANCH  28  29
ENDBRANCH  27  28
ENDBRANCH  26  27
ENDBRANCH   1  26
TORSDOF 19
ENDMDL
MODEL 3
REMARK VINA RESULT:     -11.3      6.499     12.838
REMARK SMILES O=C(/C=C/c1ccc(O)cc1)NC[C@@H]1CC[C@H](C(=O)NCCCCNC(=O)c2ccc(-c3c4nc(c(-c5c(F)cc(S(=O)(=O)[O-])cc5F)c5ccc([nH]5)c(-c5c(F)cc(S(=O)(=O)[O-])cc5F)c5nc(c(-c6c(F)cc(S(=O)(=O)[O-])cc6F)c6ccc3[nH]6)C=C5)C=C4)cc2)O1
REMARK SMILES IDX 21 1 20 2 18 3 19 4 17 6 14 7 15 8 94 9 16 10 13 11 12 12
REMARK SMILES IDX 1 13 2 14 3 16 4 17 5 18 6 19 11 20 7 21 10 22 8 23 9 24
REMARK SMILES IDX 22 26 23 27 24 28 25 29 26 30 27 32 28 33 29 34 93 35 30 36
REMARK SMILES IDX 92 37 31 38 32 39 33 40 86 41 34 42 91 43 85 44 87 45 35 46
REMARK SMILES IDX 90 47 84 48 83 49 36 51 70 52 49 53 69 54 50 55 53 56 68 57
REMARK SMILES IDX 88 58 51 59 52 60 67 62 89 63 54 64 37 65 38 66 47 67 39 68
REMARK SMILES IDX 40 69 46 70 48 71 41 72 42 73 43 74 44 75 45 76 71 77 72 78
REMARK SMILES IDX 81 79 73 80 74 81 80 82 82 83 75 84 76 85 77 86 78 87 79 88
REMARK SMILES IDX 55 89 56 90 65 91 57 92 58 93 64 94 66 95 59 96 60 97 61 98
REMARK SMILES IDX 62 99 63 100
REMARK H PARENT 20 5 12 15 9 25 25 31 87 50 53 61
REMARK Flexibility Score: inf
ROOT
ATOM      1  C   UNL A   1      34.838  34.563  31.664  1.00  0.00     0.116 C 
ENDROOT
BRANCH   1   2
ATOM      2  N   UNL A   1      34.122  35.819  31.624  1.00  0.00    -0.354 N 
ATOM      3  C   UNL A   1      33.336  36.340  30.639  1.00  0.00     0.249 C 
ATOM      4  O   UNL A   1      32.830  37.451  30.837  1.00  0.00    -0.272 OA
ATOM      5  H   UNL A   1      34.216  36.381  32.427  1.00  0.00     0.163 HD
BRANCH   3   6
ATOM      6  C   UNL A   1      33.118  35.614  29.289  1.00  0.00     0.207 C 
ATOM      7  C   UNL A   1      33.727  33.566  28.335  1.00  0.00     0.138 C 
ATOM      8  C   UNL A   1      34.842  34.546  28.004  1.00  0.00     0.037 C 
ATOM      9  O   UNL A   1      32.926  34.200  29.349  1.00  0.00    -0.363 OA
ATOM     10  C   UNL A   1      34.217  35.894  28.273  1.00  0.00     0.045 C 
BRANCH   7  11
ATOM     11  C   UNL A   1      34.153  32.172  28.833  1.00  0.00     0.148 C 
BRANCH  11  12
ATOM     12  N   UNL A   1      34.271  31.156  27.804  1.00  0.00    -0.350 N 
ATOM     13  O   UNL A   1      32.025  31.073  27.318  1.00  0.00    -0.270 OA
ATOM     14  C   UNL A   1      33.171  30.680  27.133  1.00  0.00     0.244 C 
ATOM     15  H   UNL A   1      35.162  30.800  27.582  1.00  0.00     0.163 HD
BRANCH  14  16
ATOM     16  C   UNL A   1      33.432  29.640  26.106  1.00  0.00     0.072 C 
ATOM     17  C   UNL A   1      33.475  28.321  26.354  1.00  0.00     0.014 C 
BRANCH  17  18
ATOM     18  C   UNL A   1      33.657  27.294  25.318  1.00  0.00    -0.025 A 
ATOM     19  C   UNL A   1      34.000  25.968  25.617  1.00  0.00     0.012 A 
ATOM     20  C   UNL A   1      33.426  27.648  23.981  1.00  0.00     0.012 A 
ATOM     21  C   UNL A   1      34.133  25.020  24.597  1.00  0.00     0.047 A 
ATOM     22  C   UNL A   1      33.558  26.703  22.962  1.00  0.00     0.047 A 
ATOM     23  C   UNL A   1      33.913  25.398  23.277  1.00  0.00     0.115 A 
BRANCH  23  24
ATOM     24  O   UNL A   1      34.034  24.508  22.252  1.00  0.00    -0.508 OA
ATOM     25  H   UNL A   1      34.480  23.695  22.388  1.00  0.00     0.293 HD
ENDBRANCH  23  24
ENDBRANCH  17  18
ENDBRANCH  14  16
ENDBRANCH  11  12
ENDBRANCH   7  11
ENDBRANCH   3   6
ENDBRANCH   1   2
BRANCH   1  26
ATOM     26  C   UNL A   1      36.059  34.636  32.579  1.00  0.00     0.023 C 
BRANCH  26  27
ATOM     27  C   UNL A   1      37.256  33.817  32.104  1.00  0.00     0.023 C 
BRANCH  27  28
ATOM     28  C   UNL A   1      37.446  32.471  32.801  1.00  0.00     0.116 C 
BRANCH  28  29
ATOM     29  N   UNL A   1      36.533  31.426  32.356  1.00  0.00    -0.352 N 
ATOM     30  C   UNL A   1      36.803  30.403  31.472  1.00  0.00     0.251 C 
ATOM     31  H   UNL A   1      35.622  31.455  32.729  1.00  0.00     0.163 HD
ATOM     32  O   UNL A   1      35.917  29.647  31.084  1.00  0.00    -0.269 OA
BRANCH  30  33
ATOM     33  C   UNL A   1      38.187  30.245  30.967  1.00  0.00     0.039 A 
ATOM     34  C   UNL A   1      39.193  29.828  31.840  1.00  0.00     0.014 A 
ATOM     35  C   UNL A   1      38.472  30.456  29.613  1.00  0.00     0.014 A 
ATOM     36  C   UNL A   1      40.467  29.541  31.339  1.00  0.00     0.010 A 
ATOM     37  C   UNL A   1      39.720  30.105  29.106  1.00  0.00     0.010 A 
ATOM     38  C   UNL A   1      40.730  29.636  29.961  1.00  0.00    -0.014 A 
BRANCH  38  39
ATOM     39  C   UNL A   1      42.042  29.232  29.391  1.00  0.00     0.031 A 
ATOM     40  C   UNL A   1      43.131  30.254  29.196  1.00  0.00     0.074 A 
ATOM     41  C   UNL A   1      42.222  27.966  28.958  1.00  0.00     0.049 A 
ATOM     42  N   UNL A   1      44.302  30.115  28.631  1.00  0.00    -0.248 NA
ATOM     43  C   UNL A   1      42.855  31.621  29.670  1.00  0.00     0.031 C 
ATOM     44  C   UNL A   1      41.219  26.899  29.017  1.00  0.00     0.029 A 
ATOM     45  N   UNL A   1      43.303  27.368  28.360  1.00  0.00    -0.354 N 
ATOM     46  C   UNL A   1      44.887  31.376  28.651  1.00  0.00     0.074 A 
ATOM     47  C   UNL A   1      43.931  32.275  29.257  1.00  0.00     0.031 C 
ATOM     48  C   UNL A   1      41.735  25.778  28.486  1.00  0.00     0.029 A 
ATOM     49  C   UNL A   1      43.091  26.051  28.022  1.00  0.00     0.049 A 
ATOM     50  H   UNL A   1      44.151  27.837  28.188  1.00  0.00     0.167 HD
ATOM     51  C   UNL A   1      46.117  31.745  28.222  1.00  0.00     0.037 A 
ATOM     52  C   UNL A   1      43.895  25.165  27.400  1.00  0.00     0.037 A 
ATOM     53  C   UNL A   1      47.091  30.834  27.677  1.00  0.00     0.049 A 
ATOM     54  C   UNL A   1      45.279  25.589  26.986  1.00  0.00     0.074 A 
ATOM     55  C   UNL A   1      48.403  31.095  27.321  1.00  0.00     0.029 A 
ATOM     56  N   UNL A   1      46.862  29.494  27.413  1.00  0.00    -0.354 N 
ATOM     57  N   UNL A   1      45.850  26.764  27.107  1.00  0.00    -0.248 NA
ATOM     58  C   UNL A   1      46.131  24.568  26.360  1.00  0.00     0.031 C 
ATOM     59  C   UNL A   1      48.958  29.918  26.808  1.00  0.00     0.029 A 
ATOM     60  C   UNL A   1      48.003  28.917  26.880  1.00  0.00     0.049 A 
ATOM     61  H   UNL A   1      46.015  29.021  27.579  1.00  0.00     0.167 HD
ATOM     62  C   UNL A   1      47.135  26.614  26.597  1.00  0.00     0.074 A 
ATOM     63  C   UNL A   1      47.262  25.235  26.178  1.00  0.00     0.031 C 
ATOM     64  C   UNL A   1      48.121  27.537  26.486  1.00  0.00     0.037 A 
BRANCH  51  65
ATOM     65  C   UNL A   1      46.500  33.193  28.336  1.00  0.00     0.058 A 
ATOM     66  C   UNL A   1      47.138  33.697  29.480  1.00  0.00     0.135 A 
ATOM     67  C   UNL A   1      46.300  34.068  27.256  1.00  0.00     0.135 A 
ATOM     68  F   UNL A   1      47.339  32.905  30.545  1.00  0.00    -0.206 F 
ATOM     69  C   UNL A   1      47.554  35.021  29.554  1.00  0.00     0.059 A 
ATOM     70  C   UNL A   1      46.729  35.391  27.299  1.00  0.00     0.059 A 
ATOM     71  F   UNL A   1      45.693  33.636  26.139  1.00  0.00    -0.206 F 
ATOM     72  C   UNL A   1      47.349  35.860  28.457  1.00  0.00     0.060 A 
BRANCH  72  73
ATOM     73  S   UNL A   1      47.937  37.565  28.553  1.00  0.00     0.124 S 
ATOM     74  O   UNL A   1      47.478  37.956  29.883  1.00  0.00    -0.237 OA
ATOM     75  O   UNL A   1      49.379  37.409  28.402  1.00  0.00    -0.237 OA
ATOM     76  O   UNL A   1      47.261  38.221  27.438  1.00  0.00    -0.744 OA
ENDBRANCH  72  73
ENDBRANCH  51  65
BRANCH  52  77
ATOM     77  C   UNL A   1      43.423  23.779  27.134  1.00  0.00     0.058 A 
ATOM     78  C   UNL A   1      43.031  23.386  25.845  1.00  0.00     0.135 A 
ATOM     79  C   UNL A   1      43.329  22.832  28.164  1.00  0.00     0.135 A 
ATOM     80  F   UNL A   1      43.098  24.260  24.829  1.00  0.00    -0.206 F 
ATOM     81  C   UNL A   1      42.529  22.114  25.593  1.00  0.00     0.059 A 
ATOM     82  C   UNL A   1      42.853  21.545  27.931  1.00  0.00     0.059 A 
ATOM     83  F   UNL A   1      43.711  23.153  29.410  1.00  0.00    -0.206 F 
ATOM     84  C   UNL A   1      42.438  21.201  26.645  1.00  0.00     0.060 A 
BRANCH  84  85
ATOM     85  S   UNL A   1      41.798  19.546  26.310  1.00  0.00     0.124 S 
ATOM     86  O   UNL A   1      42.473  19.219  25.059  1.00  0.00    -0.237 OA
ATOM     87  O   UNL A   1      42.238  18.800  27.486  1.00  0.00    -0.237 OA
ATOM     88  O   UNL A   1      40.357  19.759  26.217  1.00  0.00    -0.744 OA
ENDBRANCH  84  85
ENDBRANCH  52  77
BRANCH  64  89
ATOM     89  C   UNL A   1      49.437  27.081  25.924  1.00  0.00     0.058 A 
ATOM     90  C   UNL A   1      49.727  27.181  24.555  1.00  0.00     0.135 A 
ATOM     91  C   UNL A   1      50.440  26.589  26.776  1.00  0.00     0.135 A 
ATOM     92  F   UNL A   1      48.799  27.638  23.700  1.00  0.00    -0.206 F 
ATOM     93  C   UNL A   1      50.961  26.789  24.045  1.00  0.00     0.059 A 
ATOM     94  C   UNL A   1      51.688  26.215  26.291  1.00  0.00     0.059 A 
ATOM     95  F   UNL A   1      50.216  26.485  28.096  1.00  0.00    -0.206 F 
ATOM     96  C   UNL A   1      51.936  26.308  24.922  1.00  0.00     0.060 A 
BRANCH  96  97
ATOM     97  S   UNL A   1      53.546  25.838  24.256  1.00  0.00     0.124 S 
ATOM     98  O   UNL A   1      53.325  25.985  22.821  1.00  0.00    -0.237 OA
ATOM     99  O   UNL A   1      54.438  26.821  24.863  1.00  0.00    -0.237 OA
ATOM    100  O   UNL A   1      53.721  24.467  24.728  1.00  0.00    -0.744 OA
ENDBRANCH  96  97
ENDBRANCH  64  89
ENDBRANCH  38  39
ENDBRANCH  30  33
ENDBRANCH  28  29
ENDBRANCH  27  28
ENDBRANCH  26  27
ENDBRANCH   1  26
TORSDOF 19
ENDMDL
