MODEL 1
REMARK VINA RESULT:     -11.0      0.000      0.000
REMARK SMILES Cc1cscc1CNC(=O)CC(C)(C)C(=O)NCCCCNC(=O)c1ccc(-c2c3nc(c(-c4c(F)cc(S(=O)(=O)[O-])cc4F)c4ccc([nH]4)c(-c4c(F)cc(S(=O)(=O)[O-])cc4F)c4nc(c(-c5c(F)cc(S(=O)(=O)[O-])cc5F)c5ccc2[nH]5)C=C4)C=C3)cc1
REMARK SMILES IDX 19 1 18 2 17 3 15 4 16 5 12 7 13 8 14 9 11 10 9 11 8 12
REMARK SMILES IDX 10 14 7 15 6 16 1 17 2 18 3 19 4 20 5 21 20 22 21 23 22 24
REMARK SMILES IDX 23 25 24 27 25 28 26 29 90 30 27 31 89 32 28 33 29 34 30 35
REMARK SMILES IDX 83 36 31 37 88 38 82 39 84 40 32 41 87 42 81 43 80 44 33 46
REMARK SMILES IDX 67 47 46 48 66 49 47 50 50 51 65 52 85 53 48 54 49 55 64 57
REMARK SMILES IDX 86 58 51 59 34 60 35 61 44 62 36 63 37 64 43 65 45 66 38 67
REMARK SMILES IDX 39 68 40 69 41 70 42 71 68 72 69 73 78 74 70 75 71 76 77 77
REMARK SMILES IDX 79 78 72 79 73 80 74 81 75 82 76 83 52 84 53 85 62 86 54 87
REMARK SMILES IDX 55 88 61 89 63 90 56 91 57 92 58 93 59 94 60 95
REMARK H PARENT 17 6 8 13 22 26 84 45 50 56
REMARK Flexibility Score: inf
ROOT
ATOM      1  C   UNL A   1      39.423  22.039  26.230  1.00  0.00     0.023 C 
ENDROOT
BRANCH   1   2
ATOM      2  C   UNL A   1      38.192  22.922  26.052  1.00  0.00     0.116 C 
BRANCH   2   3
ATOM      3  N   UNL A   1      37.799  23.055  24.666  1.00  0.00    -0.356 N 
ATOM      4  C   UNL A   1      36.597  23.024  24.035  1.00  0.00     0.226 C 
ATOM      5  O   UNL A   1      36.652  23.178  22.813  1.00  0.00    -0.274 OA
ATOM      6  H   UNL A   1      38.558  23.197  24.055  1.00  0.00     0.163 HD
BRANCH   4   7
ATOM      7  C   UNL A   1      35.262  22.728  24.757  1.00  0.00     0.052 C 
ATOM      8  C   UNL A   1      35.219  21.337  25.413  1.00  0.00     0.022 C 
ATOM      9  C   UNL A   1      34.140  22.796  23.696  1.00  0.00     0.022 C 
BRANCH   7  10
ATOM     10  C   UNL A   1      34.941  23.814  25.840  1.00  0.00     0.116 C 
BRANCH  10  11
ATOM     11  C   UNL A   1      33.506  24.279  26.065  1.00  0.00     0.221 C 
ATOM     12  N   UNL A   1      33.029  25.437  25.546  1.00  0.00    -0.352 N 
ATOM     13  H   UNL A   1      32.049  25.526  25.583  1.00  0.00     0.163 HD
ATOM     14  O   UNL A   1      32.753  23.650  26.814  1.00  0.00    -0.275 OA
BRANCH  12  15
ATOM     15  C   UNL A   1      33.708  26.560  24.952  1.00  0.00     0.152 C 
BRANCH  15  16
ATOM     16  C   UNL A   1      33.307  27.851  25.611  1.00  0.00    -0.015 A 
ATOM     17  C   UNL A   1      31.063  28.129  24.300  1.00  0.00     0.045 C 
ATOM     18  C   UNL A   1      32.075  28.558  25.315  1.00  0.00    -0.035 A 
ATOM     19  C   UNL A   1      31.940  29.691  26.097  1.00  0.00     0.068 A 
ATOM     20  S   UNL A   1      33.251  29.925  27.160  1.00  0.00    -0.152 S 
ATOM     21  C   UNL A   1      34.029  28.520  26.587  1.00  0.00     0.070 A 
ENDBRANCH  15  16
ENDBRANCH  12  15
ENDBRANCH  10  11
ENDBRANCH   7  10
ENDBRANCH   4   7
ENDBRANCH   2   3
ENDBRANCH   1   2
BRANCH   1  22
ATOM     22  C   UNL A   1      40.227  22.279  27.507  1.00  0.00     0.023 C 
BRANCH  22  23
ATOM     23  C   UNL A   1      41.584  22.948  27.315  1.00  0.00     0.116 C 
BRANCH  23  24
ATOM     24  N   UNL A   1      41.640  23.811  26.142  1.00  0.00    -0.352 N 
ATOM     25  C   UNL A   1      41.544  25.179  26.060  1.00  0.00     0.251 C 
ATOM     26  H   UNL A   1      41.764  23.346  25.284  1.00  0.00     0.163 HD
ATOM     27  O   UNL A   1      41.502  25.725  24.960  1.00  0.00    -0.269 OA
BRANCH  25  28
ATOM     28  C   UNL A   1      41.453  25.984  27.296  1.00  0.00     0.039 A 
ATOM     29  C   UNL A   1      42.533  26.795  27.654  1.00  0.00     0.014 A 
ATOM     30  C   UNL A   1      40.295  25.965  28.078  1.00  0.00     0.014 A 
ATOM     31  C   UNL A   1      42.418  27.651  28.752  1.00  0.00     0.010 A 
ATOM     32  C   UNL A   1      40.156  26.871  29.125  1.00  0.00     0.010 A 
ATOM     33  C   UNL A   1      41.213  27.728  29.468  1.00  0.00    -0.014 A 
BRANCH  33  34
ATOM     34  C   UNL A   1      41.033  28.701  30.577  1.00  0.00     0.031 A 
ATOM     35  C   UNL A   1      41.889  28.603  31.810  1.00  0.00     0.074 A 
ATOM     36  C   UNL A   1      40.053  29.625  30.502  1.00  0.00     0.049 A 
ATOM     37  N   UNL A   1      41.820  29.290  32.920  1.00  0.00    -0.248 NA
ATOM     38  C   UNL A   1      42.946  27.578  31.802  1.00  0.00     0.031 C 
ATOM     39  C   UNL A   1      39.125  29.789  29.381  1.00  0.00     0.029 A 
ATOM     40  N   UNL A   1      39.667  30.593  31.394  1.00  0.00    -0.354 N 
ATOM     41  C   UNL A   1      42.815  28.778  33.744  1.00  0.00     0.074 A 
ATOM     42  C   UNL A   1      43.436  27.684  33.029  1.00  0.00     0.031 C 
ATOM     43  C   UNL A   1      38.288  30.806  29.646  1.00  0.00     0.029 A 
ATOM     44  C   UNL A   1      38.596  31.344  30.967  1.00  0.00     0.049 A 
ATOM     45  H   UNL A   1      40.114  30.738  32.259  1.00  0.00     0.167 HD
ATOM     46  C   UNL A   1      43.197  29.199  34.974  1.00  0.00     0.037 A 
ATOM     47  C   UNL A   1      37.930  32.344  31.576  1.00  0.00     0.037 A 
ATOM     48  C   UNL A   1      42.593  30.302  35.673  1.00  0.00     0.049 A 
ATOM     49  C   UNL A   1      38.374  32.792  32.944  1.00  0.00     0.074 A 
ATOM     50  C   UNL A   1      42.925  30.824  36.910  1.00  0.00     0.029 A 
ATOM     51  N   UNL A   1      41.536  31.059  35.191  1.00  0.00    -0.354 N 
ATOM     52  N   UNL A   1      39.346  32.323  33.690  1.00  0.00    -0.248 NA
ATOM     53  C   UNL A   1      37.636  33.910  33.550  1.00  0.00     0.031 C 
ATOM     54  C   UNL A   1      42.052  31.882  37.188  1.00  0.00     0.029 A 
ATOM     55  C   UNL A   1      41.201  32.041  36.107  1.00  0.00     0.049 A 
ATOM     56  H   UNL A   1      41.089  30.918  34.325  1.00  0.00     0.167 HD
ATOM     57  C   UNL A   1      39.353  33.107  34.839  1.00  0.00     0.074 A 
ATOM     58  C   UNL A   1      38.297  34.086  34.685  1.00  0.00     0.031 C 
ATOM     59  C   UNL A   1      40.159  33.021  35.926  1.00  0.00     0.037 A 
BRANCH  46  60
ATOM     60  C   UNL A   1      44.341  28.475  35.628  1.00  0.00     0.058 A 
ATOM     61  C   UNL A   1      45.672  28.859  35.401  1.00  0.00     0.135 A 
ATOM     62  C   UNL A   1      44.108  27.412  36.515  1.00  0.00     0.135 A 
ATOM     63  F   UNL A   1      45.951  29.859  34.549  1.00  0.00    -0.206 F 
ATOM     64  C   UNL A   1      46.735  28.197  36.006  1.00  0.00     0.059 A 
ATOM     65  C   UNL A   1      45.156  26.752  37.154  1.00  0.00     0.059 A 
ATOM     66  F   UNL A   1      42.855  27.004  36.768  1.00  0.00    -0.206 F 
ATOM     67  C   UNL A   1      46.466  27.143  36.880  1.00  0.00     0.060 A 
BRANCH  67  68
ATOM     68  S   UNL A   1      47.856  26.300  37.665  1.00  0.00     0.124 S 
ATOM     69  O   UNL A   1      47.342  26.087  39.015  1.00  0.00    -0.237 OA
ATOM     70  O   UNL A   1      47.998  25.100  36.846  1.00  0.00    -0.237 OA
ATOM     71  O   UNL A   1      48.946  27.265  37.553  1.00  0.00    -0.744 OA
ENDBRANCH  67  68
ENDBRANCH  46  60
BRANCH  47  72
ATOM     72  C   UNL A   1      36.785  33.008  30.898  1.00  0.00     0.058 A 
ATOM     73  C   UNL A   1      36.994  33.908  29.843  1.00  0.00     0.135 A 
ATOM     74  C   UNL A   1      35.462  32.770  31.302  1.00  0.00     0.135 A 
ATOM     75  F   UNL A   1      38.241  34.170  29.423  1.00  0.00    -0.206 F 
ATOM     76  C   UNL A   1      35.937  34.574  29.231  1.00  0.00     0.059 A 
ATOM     77  C   UNL A   1      34.385  33.405  30.689  1.00  0.00     0.059 A 
ATOM     78  F   UNL A   1      35.206  31.903  32.294  1.00  0.00    -0.206 F 
ATOM     79  C   UNL A   1      34.635  34.319  29.666  1.00  0.00     0.060 A 
BRANCH  79  80
ATOM     80  S   UNL A   1      33.266  35.173  28.855  1.00  0.00     0.124 S 
ATOM     81  O   UNL A   1      32.476  35.613  29.999  1.00  0.00    -0.237 OA
ATOM     82  O   UNL A   1      33.954  36.224  28.111  1.00  0.00    -0.237 OA
ATOM     83  O   UNL A   1      32.662  34.130  28.032  1.00  0.00    -0.744 OA
ENDBRANCH  79  80
ENDBRANCH  47  72
BRANCH  59  84
ATOM     84  C   UNL A   1      39.962  34.039  37.013  1.00  0.00     0.058 A 
ATOM     85  C   UNL A   1      40.564  35.303  36.958  1.00  0.00     0.135 A 
ATOM     86  C   UNL A   1      39.117  33.758  38.099  1.00  0.00     0.135 A 
ATOM     87  F   UNL A   1      41.386  35.617  35.944  1.00  0.00    -0.206 F 
ATOM     88  C   UNL A   1      40.354  36.251  37.954  1.00  0.00     0.059 A 
ATOM     89  C   UNL A   1      38.872  34.700  39.094  1.00  0.00     0.059 A 
ATOM     90  F   UNL A   1      38.508  32.565  38.193  1.00  0.00    -0.206 F 
ATOM     91  C   UNL A   1      39.505  35.940  39.019  1.00  0.00     0.060 A 
BRANCH  91  92
ATOM     92  S   UNL A   1      39.208  37.190  40.286  1.00  0.00     0.124 S 
ATOM     93  O   UNL A   1      38.464  36.427  41.282  1.00  0.00    -0.237 OA
ATOM     94  O   UNL A   1      40.563  37.579  40.667  1.00  0.00    -0.237 OA
ATOM     95  O   UNL A   1      38.444  38.215  39.580  1.00  0.00    -0.744 OA
ENDBRANCH  91  92
ENDBRANCH  59  84
ENDBRANCH  33  34
ENDBRANCH  25  28
ENDBRANCH  23  24
ENDBRANCH  22  23
ENDBRANCH   1  22
TORSDOF 18
ENDMDL
MODEL 2
REMARK VINA RESULT:     -10.9      5.057     10.624
REMARK SMILES Cc1cscc1CNC(=O)CC(C)(C)C(=O)NCCCCNC(=O)c1ccc(-c2c3nc(c(-c4c(F)cc(S(=O)(=O)[O-])cc4F)c4ccc([nH]4)c(-c4c(F)cc(S(=O)(=O)[O-])cc4F)c4nc(c(-c5c(F)cc(S(=O)(=O)[O-])cc5F)c5ccc2[nH]5)C=C4)C=C3)cc1
REMARK SMILES IDX 19 1 18 2 17 3 15 4 16 5 12 7 13 8 14 9 11 10 9 11 8 12
REMARK SMILES IDX 10 14 7 15 6 16 1 17 2 18 3 19 4 20 5 21 20 22 21 23 22 24
REMARK SMILES IDX 23 25 24 27 25 28 26 29 90 30 27 31 89 32 28 33 29 34 30 35
REMARK SMILES IDX 83 36 31 37 88 38 82 39 84 40 32 41 87 42 81 43 80 44 33 46
REMARK SMILES IDX 67 47 46 48 66 49 47 50 50 51 65 52 85 53 48 54 49 55 64 57
REMARK SMILES IDX 86 58 51 59 34 60 35 61 44 62 36 63 37 64 43 65 45 66 38 67
REMARK SMILES IDX 39 68 40 69 41 70 42 71 68 72 69 73 78 74 70 75 71 76 77 77
REMARK SMILES IDX 79 78 72 79 73 80 74 81 75 82 76 83 52 84 53 85 62 86 54 87
REMARK SMILES IDX 55 88 61 89 63 90 56 91 57 92 58 93 59 94 60 95
REMARK H PARENT 17 6 8 13 22 26 84 45 50 56
REMARK Flexibility Score: inf
ROOT
ATOM      1  C   UNL A   1      32.208  27.463  25.241  1.00  0.00     0.023 C 
ENDROOT
BRANCH   1   2
ATOM      2  C   UNL A   1      33.516  27.589  24.464  1.00  0.00     0.116 C 
BRANCH   2   3
ATOM      3  N   UNL A   1      33.502  26.839  23.227  1.00  0.00    -0.356 N 
ATOM      4  C   UNL A   1      33.636  25.518  22.941  1.00  0.00     0.226 C 
ATOM      5  O   UNL A   1      33.568  25.240  21.743  1.00  0.00    -0.274 OA
ATOM      6  H   UNL A   1      33.368  27.400  22.429  1.00  0.00     0.163 HD
BRANCH   4   7
ATOM      7  C   UNL A   1      33.942  24.442  24.008  1.00  0.00     0.052 C 
ATOM      8  C   UNL A   1      34.958  24.905  25.067  1.00  0.00     0.022 C 
ATOM      9  C   UNL A   1      34.538  23.221  23.271  1.00  0.00     0.022 C 
BRANCH   7  10
ATOM     10  C   UNL A   1      32.638  23.957  24.728  1.00  0.00     0.116 C 
BRANCH  10  11
ATOM     11  C   UNL A   1      31.827  22.798  24.157  1.00  0.00     0.221 C 
ATOM     12  N   UNL A   1      31.860  21.555  24.699  1.00  0.00    -0.352 N 
ATOM     13  H   UNL A   1      31.150  20.953  24.379  1.00  0.00     0.163 HD
ATOM     14  O   UNL A   1      31.181  22.936  23.116  1.00  0.00    -0.275 OA
BRANCH  12  15
ATOM     15  C   UNL A   1      32.756  20.963  25.660  1.00  0.00     0.152 C 
BRANCH  15  16
ATOM     16  C   UNL A   1      33.286  19.644  25.172  1.00  0.00    -0.015 A 
ATOM     17  C   UNL A   1      35.779  20.410  25.003  1.00  0.00     0.045 C 
ATOM     18  C   UNL A   1      34.687  19.395  24.887  1.00  0.00    -0.035 A 
ATOM     19  C   UNL A   1      34.900  18.085  24.497  1.00  0.00     0.068 A 
ATOM     20  S   UNL A   1      33.468  17.163  24.456  1.00  0.00    -0.152 S 
ATOM     21  C   UNL A   1      32.534  18.501  24.951  1.00  0.00     0.070 A 
ENDBRANCH  15  16
ENDBRANCH  12  15
ENDBRANCH  10  11
ENDBRANCH   7  10
ENDBRANCH   4   7
ENDBRANCH   2   3
ENDBRANCH   1   2
BRANCH   1  22
ATOM     22  C   UNL A   1      32.255  27.938  26.692  1.00  0.00     0.023 C 
BRANCH  22  23
ATOM     23  C   UNL A   1      33.598  28.485  27.163  1.00  0.00     0.116 C 
BRANCH  23  24
ATOM     24  N   UNL A   1      33.535  29.875  27.593  1.00  0.00    -0.352 N 
ATOM     25  C   UNL A   1      34.501  30.651  28.187  1.00  0.00     0.251 C 
ATOM     26  H   UNL A   1      32.673  30.325  27.438  1.00  0.00     0.163 HD
ATOM     27  O   UNL A   1      34.223  31.781  28.582  1.00  0.00    -0.269 OA
BRANCH  25  28
ATOM     28  C   UNL A   1      35.862  30.108  28.379  1.00  0.00     0.039 A 
ATOM     29  C   UNL A   1      36.730  30.059  27.285  1.00  0.00     0.014 A 
ATOM     30  C   UNL A   1      36.291  29.681  29.638  1.00  0.00     0.014 A 
ATOM     31  C   UNL A   1      38.056  29.661  27.474  1.00  0.00     0.010 A 
ATOM     32  C   UNL A   1      37.629  29.355  29.839  1.00  0.00     0.010 A 
ATOM     33  C   UNL A   1      38.527  29.349  28.760  1.00  0.00    -0.014 A 
BRANCH  33  34
ATOM     34  C   UNL A   1      39.955  29.018  29.001  1.00  0.00     0.031 A 
ATOM     35  C   UNL A   1      40.893  30.070  29.524  1.00  0.00     0.074 A 
ATOM     36  C   UNL A   1      40.418  27.792  28.684  1.00  0.00     0.049 A 
ATOM     37  N   UNL A   1      42.187  30.007  29.706  1.00  0.00    -0.248 NA
ATOM     38  C   UNL A   1      40.302  31.376  29.862  1.00  0.00     0.031 C 
ATOM     39  C   UNL A   1      39.618  26.700  28.123  1.00  0.00     0.029 A 
ATOM     40  N   UNL A   1      41.681  27.261  28.775  1.00  0.00    -0.354 N 
ATOM     41  C   UNL A   1      42.565  31.261  30.170  1.00  0.00     0.074 A 
ATOM     42  C   UNL A   1      41.374  32.084  30.187  1.00  0.00     0.031 C 
ATOM     43  C   UNL A   1      40.405  25.627  27.936  1.00  0.00     0.029 A 
ATOM     44  C   UNL A   1      41.769  25.962  28.329  1.00  0.00     0.049 A 
ATOM     45  H   UNL A   1      42.451  27.762  29.127  1.00  0.00     0.167 HD
ATOM     46  C   UNL A   1      43.787  31.682  30.574  1.00  0.00     0.037 A 
ATOM     47  C   UNL A   1      42.832  25.140  28.237  1.00  0.00     0.037 A 
ATOM     48  C   UNL A   1      44.965  30.856  30.577  1.00  0.00     0.049 A 
ATOM     49  C   UNL A   1      44.181  25.633  28.690  1.00  0.00     0.074 A 
ATOM     50  C   UNL A   1      46.245  31.179  30.993  1.00  0.00     0.029 A 
ATOM     51  N   UNL A   1      45.005  29.536  30.152  1.00  0.00    -0.354 N 
ATOM     52  N   UNL A   1      44.511  26.810  29.167  1.00  0.00    -0.248 NA
ATOM     53  C   UNL A   1      45.301  24.685  28.600  1.00  0.00     0.031 C 
ATOM     54  C   UNL A   1      47.064  30.063  30.795  1.00  0.00     0.029 A 
ATOM     55  C   UNL A   1      46.287  29.033  30.292  1.00  0.00     0.049 A 
ATOM     56  H   UNL A   1      44.236  29.031  29.803  1.00  0.00     0.167 HD
ATOM     57  C   UNL A   1      45.868  26.733  29.460  1.00  0.00     0.074 A 
ATOM     58  C   UNL A   1      46.295  25.392  29.117  1.00  0.00     0.031 C 
ATOM     59  C   UNL A   1      46.688  27.687  29.965  1.00  0.00     0.037 A 
BRANCH  46  60
ATOM     60  C   UNL A   1      43.903  33.097  31.069  1.00  0.00     0.058 A 
ATOM     61  C   UNL A   1      44.027  34.173  30.176  1.00  0.00     0.135 A 
ATOM     62  C   UNL A   1      43.858  33.387  32.442  1.00  0.00     0.135 A 
ATOM     63  F   UNL A   1      44.093  33.950  28.853  1.00  0.00    -0.206 F 
ATOM     64  C   UNL A   1      44.131  35.485  30.626  1.00  0.00     0.059 A 
ATOM     65  C   UNL A   1      43.933  34.695  32.915  1.00  0.00     0.059 A 
ATOM     66  F   UNL A   1      43.741  32.396  33.339  1.00  0.00    -0.206 F 
ATOM     67  C   UNL A   1      44.084  35.735  31.998  1.00  0.00     0.060 A 
BRANCH  67  68
ATOM     68  S   UNL A   1      44.211  37.445  32.565  1.00  0.00     0.124 S 
ATOM     69  O   UNL A   1      43.162  37.492  33.581  1.00  0.00    -0.237 OA
ATOM     70  O   UNL A   1      45.580  37.508  33.067  1.00  0.00    -0.237 OA
ATOM     71  O   UNL A   1      43.951  38.224  31.359  1.00  0.00    -0.744 OA
ENDBRANCH  67  68
ENDBRANCH  46  60
BRANCH  47  72
ATOM     72  C   UNL A   1      42.670  23.758  27.710  1.00  0.00     0.058 A 
ATOM     73  C   UNL A   1      42.698  23.504  26.331  1.00  0.00     0.135 A 
ATOM     74  C   UNL A   1      42.465  22.670  28.572  1.00  0.00     0.135 A 
ATOM     75  F   UNL A   1      42.887  24.513  25.468  1.00  0.00    -0.206 F 
ATOM     76  C   UNL A   1      42.499  22.225  25.821  1.00  0.00     0.059 A 
ATOM     77  C   UNL A   1      42.288  21.377  28.087  1.00  0.00     0.059 A 
ATOM     78  F   UNL A   1      42.450  22.856  29.902  1.00  0.00    -0.206 F 
ATOM     79  C   UNL A   1      42.290  21.168  26.709  1.00  0.00     0.060 A 
BRANCH  79  80
ATOM     80  S   UNL A   1      42.049  19.508  26.040  1.00  0.00     0.124 S 
ATOM     81  O   UNL A   1      42.519  18.677  27.142  1.00  0.00    -0.237 OA
ATOM     82  O   UNL A   1      40.612  19.481  25.785  1.00  0.00    -0.237 OA
ATOM     83  O   UNL A   1      42.887  19.505  24.844  1.00  0.00    -0.744 OA
ENDBRANCH  79  80
ENDBRANCH  47  72
BRANCH  59  84
ATOM     84  C   UNL A   1      48.119  27.304  30.218  1.00  0.00     0.058 A 
ATOM     85  C   UNL A   1      49.100  27.420  29.224  1.00  0.00     0.135 A 
ATOM     86  C   UNL A   1      48.518  26.862  31.489  1.00  0.00     0.135 A 
ATOM     87  F   UNL A   1      48.767  27.832  27.990  1.00  0.00    -0.206 F 
ATOM     88  C   UNL A   1      50.428  27.091  29.473  1.00  0.00     0.059 A 
ATOM     89  C   UNL A   1      49.845  26.551  31.769  1.00  0.00     0.059 A 
ATOM     90  F   UNL A   1      47.618  26.743  32.479  1.00  0.00    -0.206 F 
ATOM     91  C   UNL A   1      50.792  26.657  30.750  1.00  0.00     0.060 A 
BRANCH  91  92
ATOM     92  S   UNL A   1      52.524  26.269  31.075  1.00  0.00     0.124 S 
ATOM     93  O   UNL A   1      53.089  26.306  29.730  1.00  0.00    -0.237 OA
ATOM     94  O   UNL A   1      52.929  27.355  31.962  1.00  0.00    -0.237 OA
ATOM     95  O   UNL A   1      52.466  24.949  31.695  1.00  0.00    -0.744 OA
ENDBRANCH  91  92
ENDBRANCH  59  84
ENDBRANCH  33  34
ENDBRANCH  25  28
ENDBRANCH  23  24
ENDBRANCH  22  23
ENDBRANCH   1  22
TORSDOF 18
ENDMDL
MODEL 3
REMARK VINA RESULT:     -10.8      1.243      2.010
REMARK SMILES Cc1cscc1CNC(=O)CC(C)(C)C(=O)NCCCCNC(=O)c1ccc(-c2c3nc(c(-c4c(F)cc(S(=O)(=O)[O-])cc4F)c4ccc([nH]4)c(-c4c(F)cc(S(=O)(=O)[O-])cc4F)c4nc(c(-c5c(F)cc(S(=O)(=O)[O-])cc5F)c5ccc2[nH]5)C=C4)C=C3)cc1
REMARK SMILES IDX 19 1 18 2 17 3 15 4 16 5 12 7 13 8 14 9 11 10 9 11 8 12
REMARK SMILES IDX 10 14 7 15 6 16 1 17 2 18 3 19 4 20 5 21 20 22 21 23 22 24
REMARK SMILES IDX 23 25 24 27 25 28 26 29 90 30 27 31 89 32 28 33 29 34 30 35
REMARK SMILES IDX 83 36 31 37 88 38 82 39 84 40 32 41 87 42 81 43 80 44 33 46
REMARK SMILES IDX 67 47 46 48 66 49 47 50 50 51 65 52 85 53 48 54 49 55 64 57
REMARK SMILES IDX 86 58 51 59 34 60 35 61 44 62 36 63 37 64 43 65 45 66 38 67
REMARK SMILES IDX 39 68 40 69 41 70 42 71 68 72 69 73 78 74 70 75 71 76 77 77
REMARK SMILES IDX 79 78 72 79 73 80 74 81 75 82 76 83 52 84 53 85 62 86 54 87
REMARK SMILES IDX 55 88 61 89 63 90 56 91 57 92 58 93 59 94 60 95
REMARK H PARENT 17 6 8 13 22 26 84 45 50 56
REMARK Flexibility Score: inf
ROOT
ATOM      1  C   UNL A   1      37.087  22.070  25.292  1.00  0.00     0.023 C 
ENDROOT
BRANCH   1   2
ATOM      2  C   UNL A   1      35.643  21.805  24.875  1.00  0.00     0.116 C 
BRANCH   2   3
ATOM      3  N   UNL A   1      35.129  22.817  23.977  1.00  0.00    -0.356 N 
ATOM      4  C   UNL A   1      33.898  23.362  23.801  1.00  0.00     0.226 C 
ATOM      5  O   UNL A   1      33.836  24.221  22.919  1.00  0.00    -0.274 OA
ATOM      6  H   UNL A   1      35.811  23.186  23.371  1.00  0.00     0.163 HD
BRANCH   4   7
ATOM      7  C   UNL A   1      32.640  22.894  24.568  1.00  0.00     0.052 C 
ATOM      8  C   UNL A   1      32.505  21.363  24.641  1.00  0.00     0.022 C 
ATOM      9  C   UNL A   1      31.409  23.451  23.816  1.00  0.00     0.022 C 
BRANCH   7  10
ATOM     10  C   UNL A   1      32.600  23.481  26.020  1.00  0.00     0.116 C 
BRANCH  10  11
ATOM     11  C   UNL A   1      31.305  24.059  26.583  1.00  0.00     0.221 C 
ATOM     12  N   UNL A   1      30.989  25.372  26.471  1.00  0.00    -0.352 N 
ATOM     13  H   UNL A   1      30.051  25.584  26.685  1.00  0.00     0.163 HD
ATOM     14  O   UNL A   1      30.541  23.354  27.248  1.00  0.00    -0.275 OA
BRANCH  12  15
ATOM     15  C   UNL A   1      31.787  26.511  26.096  1.00  0.00     0.152 C 
BRANCH  15  16
ATOM     16  C   UNL A   1      31.086  27.355  25.069  1.00  0.00    -0.015 A 
ATOM     17  C   UNL A   1      32.453  29.532  25.538  1.00  0.00     0.045 C 
ATOM     18  C   UNL A   1      31.413  28.744  24.807  1.00  0.00    -0.035 A 
ATOM     19  C   UNL A   1      30.642  29.262  23.781  1.00  0.00     0.068 A 
ATOM     20  S   UNL A   1      29.541  28.131  23.141  1.00  0.00    -0.152 S 
ATOM     21  C   UNL A   1      30.068  26.929  24.230  1.00  0.00     0.070 A 
ENDBRANCH  15  16
ENDBRANCH  12  15
ENDBRANCH  10  11
ENDBRANCH   7  10
ENDBRANCH   4   7
ENDBRANCH   2   3
ENDBRANCH   1   2
BRANCH   1  22
ATOM     22  C   UNL A   1      37.530  23.531  25.242  1.00  0.00     0.023 C 
BRANCH  22  23
ATOM     23  C   UNL A   1      38.416  23.991  26.394  1.00  0.00     0.116 C 
BRANCH  23  24
ATOM     24  N   UNL A   1      39.838  23.821  26.130  1.00  0.00    -0.352 N 
ATOM     25  C   UNL A   1      40.903  24.576  26.561  1.00  0.00     0.251 C 
ATOM     26  H   UNL A   1      40.071  23.055  25.558  1.00  0.00     0.163 HD
ATOM     27  O   UNL A   1      42.032  24.340  26.139  1.00  0.00    -0.269 OA
BRANCH  25  28
ATOM     28  C   UNL A   1      40.677  25.693  27.502  1.00  0.00     0.039 A 
ATOM     29  C   UNL A   1      39.657  25.579  28.451  1.00  0.00     0.014 A 
ATOM     30  C   UNL A   1      41.487  26.830  27.471  1.00  0.00     0.014 A 
ATOM     31  C   UNL A   1      39.507  26.571  29.424  1.00  0.00     0.010 A 
ATOM     32  C   UNL A   1      41.384  27.779  28.484  1.00  0.00     0.010 A 
ATOM     33  C   UNL A   1      40.397  27.656  29.475  1.00  0.00    -0.014 A 
BRANCH  33  34
ATOM     34  C   UNL A   1      40.319  28.671  30.556  1.00  0.00     0.031 A 
ATOM     35  C   UNL A   1      41.201  28.548  31.769  1.00  0.00     0.074 A 
ATOM     36  C   UNL A   1      39.406  29.661  30.478  1.00  0.00     0.049 A 
ATOM     37  N   UNL A   1      41.212  29.271  32.858  1.00  0.00    -0.248 NA
ATOM     38  C   UNL A   1      42.181  27.450  31.766  1.00  0.00     0.031 C 
ATOM     39  C   UNL A   1      38.460  29.859  29.377  1.00  0.00     0.029 A 
ATOM     40  N   UNL A   1      39.116  30.681  31.349  1.00  0.00    -0.354 N 
ATOM     41  C   UNL A   1      42.191  28.713  33.672  1.00  0.00     0.074 A 
ATOM     42  C   UNL A   1      42.712  27.556  32.975  1.00  0.00     0.031 C 
ATOM     43  C   UNL A   1      37.706  30.941  29.631  1.00  0.00     0.029 A 
ATOM     44  C   UNL A   1      38.089  31.494  30.926  1.00  0.00     0.049 A 
ATOM     45  H   UNL A   1      39.596  30.818  32.197  1.00  0.00     0.167 HD
ATOM     46  C   UNL A   1      42.638  29.142  34.876  1.00  0.00     0.037 A 
ATOM     47  C   UNL A   1      37.515  32.557  31.521  1.00  0.00     0.037 A 
ATOM     48  C   UNL A   1      42.134  30.306  35.556  1.00  0.00     0.049 A 
ATOM     49  C   UNL A   1      38.028  33.012  32.862  1.00  0.00     0.074 A 
ATOM     50  C   UNL A   1      42.538  30.839  36.767  1.00  0.00     0.029 A 
ATOM     51  N   UNL A   1      41.120  31.122  35.079  1.00  0.00    -0.354 N 
ATOM     52  N   UNL A   1      38.984  32.497  33.596  1.00  0.00    -0.248 NA
ATOM     53  C   UNL A   1      37.389  34.198  33.451  1.00  0.00     0.031 C 
ATOM     54  C   UNL A   1      41.751  31.965  37.034  1.00  0.00     0.029 A 
ATOM     55  C   UNL A   1      40.883  32.154  35.971  1.00  0.00     0.049 A 
ATOM     56  H   UNL A   1      40.640  30.989  34.230  1.00  0.00     0.167 HD
ATOM     57  C   UNL A   1      39.080  33.311  34.719  1.00  0.00     0.074 A 
ATOM     58  C   UNL A   1      38.093  34.359  34.562  1.00  0.00     0.031 C 
ATOM     59  C   UNL A   1      39.909  33.200  35.786  1.00  0.00     0.037 A 
BRANCH  46  60
ATOM     60  C   UNL A   1      43.745  28.357  35.524  1.00  0.00     0.058 A 
ATOM     61  C   UNL A   1      45.093  28.632  35.244  1.00  0.00     0.135 A 
ATOM     62  C   UNL A   1      43.462  27.345  36.455  1.00  0.00     0.135 A 
ATOM     63  F   UNL A   1      45.418  29.579  34.348  1.00  0.00    -0.206 F 
ATOM     64  C   UNL A   1      46.122  27.913  35.841  1.00  0.00     0.059 A 
ATOM     65  C   UNL A   1      44.478  26.630  37.086  1.00  0.00     0.059 A 
ATOM     66  F   UNL A   1      42.191  27.040  36.758  1.00  0.00    -0.206 F 
ATOM     67  C   UNL A   1      45.804  26.913  36.761  1.00  0.00     0.060 A 
BRANCH  67  68
ATOM     68  S   UNL A   1      47.152  25.995  37.534  1.00  0.00     0.124 S 
ATOM     69  O   UNL A   1      48.269  26.319  36.650  1.00  0.00    -0.237 OA
ATOM     70  O   UNL A   1      47.210  26.586  38.867  1.00  0.00    -0.237 OA
ATOM     71  O   UNL A   1      46.694  24.610  37.484  1.00  0.00    -0.744 OA
ENDBRANCH  67  68
ENDBRANCH  46  60
BRANCH  47  72
ATOM     72  C   UNL A   1      36.400  33.282  30.852  1.00  0.00     0.058 A 
ATOM     73  C   UNL A   1      36.637  34.096  29.735  1.00  0.00     0.135 A 
ATOM     74  C   UNL A   1      35.083  33.190  31.327  1.00  0.00     0.135 A 
ATOM     75  F   UNL A   1      37.880  34.218  29.246  1.00  0.00    -0.206 F 
ATOM     76  C   UNL A   1      35.614  34.818  29.128  1.00  0.00     0.059 A 
ATOM     77  C   UNL A   1      34.038  33.883  30.722  1.00  0.00     0.059 A 
ATOM     78  F   UNL A   1      34.800  32.409  32.382  1.00  0.00    -0.206 F 
ATOM     79  C   UNL A   1      34.317  34.708  29.634  1.00  0.00     0.060 A 
BRANCH  79  80
ATOM     80  S   UNL A   1      32.992  35.635  28.831  1.00  0.00     0.124 S 
ATOM     81  O   UNL A   1      33.740  36.684  28.147  1.00  0.00    -0.237 OA
ATOM     82  O   UNL A   1      32.381  34.623  27.974  1.00  0.00    -0.237 OA
ATOM     83  O   UNL A   1      32.166  36.075  29.951  1.00  0.00    -0.744 OA
ENDBRANCH  79  80
ENDBRANCH  47  72
BRANCH  59  84
ATOM     84  C   UNL A   1      39.816  34.261  36.846  1.00  0.00     0.058 A 
ATOM     85  C   UNL A   1      38.963  34.127  37.951  1.00  0.00     0.135 A 
ATOM     86  C   UNL A   1      40.629  35.404  36.776  1.00  0.00     0.135 A 
ATOM     87  F   UNL A   1      38.161  33.056  38.059  1.00  0.00    -0.206 F 
ATOM     88  C   UNL A   1      38.902  35.099  38.943  1.00  0.00     0.059 A 
ATOM     89  C   UNL A   1      40.603  36.378  37.770  1.00  0.00     0.059 A 
ATOM     90  F   UNL A   1      41.469  35.575  35.744  1.00  0.00    -0.206 F 
ATOM     91  C   UNL A   1      39.727  36.222  38.844  1.00  0.00     0.060 A 
BRANCH  91  92
ATOM     92  S   UNL A   1      39.669  37.461  40.156  1.00  0.00     0.124 S 
ATOM     93  O   UNL A   1      38.315  37.984  40.005  1.00  0.00    -0.237 OA
ATOM     94  O   UNL A   1      39.909  36.661  41.353  1.00  0.00    -0.237 OA
ATOM     95  O   UNL A   1      40.743  38.383  39.800  1.00  0.00    -0.744 OA
ENDBRANCH  91  92
ENDBRANCH  59  84
ENDBRANCH  33  34
ENDBRANCH  25  28
ENDBRANCH  23  24
ENDBRANCH  22  23
ENDBRANCH   1  22
TORSDOF 18
ENDMDL
