MODEL 1
REMARK VINA RESULT:     -11.9      0.000      0.000
REMARK SMILES COCC[C@@H](C)NC(=O)N1Cc2nc[nH]c2C[C@@H]1C(=O)NCCCCNC(=O)c1ccc(-c2c3nc(c(-c4c(F)cc(S(=O)(=O)[O-])cc4F)c4ccc([nH]4)c(-c4c(F)cc(S(=O)(=O)[O-])cc4F)c4nc(c(-c5c(F)cc(S(=O)(=O)[O-])cc5F)c5ccc2[nH]5)C=C4)C=C3)cc1
REMARK SMILES IDX 22 1 21 2 19 3 20 4 18 6 10 7 11 8 12 9 17 10 13 11 16 12
REMARK SMILES IDX 14 13 15 14 8 16 7 17 9 19 5 20 6 21 4 22 3 23 2 24 1 25
REMARK SMILES IDX 23 26 24 27 25 28 26 29 27 30 28 32 29 33 30 34 94 35 31 36
REMARK SMILES IDX 93 37 32 38 33 39 34 40 87 41 35 42 92 43 86 44 88 45 36 46
REMARK SMILES IDX 91 47 85 48 84 49 37 51 71 52 50 53 70 54 51 55 54 56 69 57
REMARK SMILES IDX 89 58 52 59 53 60 68 62 90 63 55 64 38 65 39 66 48 67 40 68
REMARK SMILES IDX 41 69 47 70 49 71 42 72 43 73 44 74 45 75 46 76 72 77 73 78
REMARK SMILES IDX 82 79 74 80 75 81 81 82 83 83 76 84 77 85 78 86 79 87 80 88
REMARK SMILES IDX 56 89 57 90 66 91 58 92 59 93 65 94 67 95 60 96 61 97 62 98
REMARK SMILES IDX 63 99 64 100
REMARK H PARENT 21 5 15 15 7 18 26 31 88 50 54 61
REMARK Flexibility Score: inf
ROOT
ATOM      1  C   UNL A   1      33.633  26.350  25.339  1.00  0.00     0.116 C 
ENDROOT
BRANCH   1   2
ATOM      2  N   UNL A   1      33.891  26.105  23.929  1.00  0.00    -0.354 N 
ATOM      3  C   UNL A   1      33.768  24.930  23.225  1.00  0.00     0.243 C 
ATOM      4  O   UNL A   1      33.523  25.016  22.023  1.00  0.00    -0.273 OA
ATOM      5  H   UNL A   1      34.194  26.884  23.409  1.00  0.00     0.163 HD
BRANCH   3   6
ATOM      6  C   UNL A   1      33.873  23.583  23.958  1.00  0.00     0.182 C 
ATOM      7  N   UNL A   1      35.195  22.958  24.339  1.00  0.00    -0.306 N 
ATOM      8  C   UNL A   1      35.117  21.646  25.046  1.00  0.00     0.180 C 
ATOM      9  C   UNL A   1      33.922  20.856  24.614  1.00  0.00     0.081 A 
ATOM     10  C   UNL A   1      32.993  22.632  23.090  1.00  0.00     0.091 C 
ATOM     11  N   UNL A   1      33.580  19.606  25.070  1.00  0.00    -0.240 NA
ATOM     12  C   UNL A   1      32.968  21.311  23.739  1.00  0.00     0.042 A 
ATOM     13  C   UNL A   1      32.464  19.303  24.437  1.00  0.00     0.197 A 
ATOM     14  N   UNL A   1      32.051  20.315  23.612  1.00  0.00    -0.348 N 
ATOM     15  H   UNL A   1      31.248  20.321  23.041  1.00  0.00     0.167 HD
BRANCH   7  16
ATOM     16  C   UNL A   1      36.411  23.236  23.766  1.00  0.00     0.318 C 
ATOM     17  N   UNL A   1      37.510  23.422  24.535  1.00  0.00    -0.335 N 
ATOM     18  H   UNL A   1      38.259  23.850  24.061  1.00  0.00     0.165 HD
ATOM     19  O   UNL A   1      36.604  23.175  22.550  1.00  0.00    -0.249 OA
BRANCH  17  20
ATOM     20  C   UNL A   1      37.795  23.109  25.931  1.00  0.00     0.083 C 
ATOM     21  C   UNL A   1      38.577  24.261  26.570  1.00  0.00     0.031 C 
BRANCH  20  22
ATOM     22  C   UNL A   1      38.564  21.778  26.052  1.00  0.00     0.053 C 
BRANCH  22  23
ATOM     23  C   UNL A   1      40.058  21.959  26.344  1.00  0.00     0.162 C 
BRANCH  23  24
ATOM     24  O   UNL A   1      40.491  21.280  27.525  1.00  0.00    -0.385 OA
ATOM     25  C   UNL A   1      41.538  21.941  28.213  1.00  0.00     0.194 C 
ENDBRANCH  23  24
ENDBRANCH  22  23
ENDBRANCH  20  22
ENDBRANCH  17  20
ENDBRANCH   7  16
ENDBRANCH   3   6
ENDBRANCH   1   2
BRANCH   1  26
ATOM     26  C   UNL A   1      34.107  27.707  25.862  1.00  0.00     0.023 C 
BRANCH  26  27
ATOM     27  C   UNL A   1      33.034  28.659  26.406  1.00  0.00     0.023 C 
BRANCH  27  28
ATOM     28  C   UNL A   1      33.478  29.475  27.611  1.00  0.00     0.116 C 
BRANCH  28  29
ATOM     29  N   UNL A   1      33.790  30.856  27.258  1.00  0.00    -0.352 N 
ATOM     30  C   UNL A   1      34.874  31.622  27.651  1.00  0.00     0.251 C 
ATOM     31  H   UNL A   1      33.147  31.303  26.662  1.00  0.00     0.163 HD
ATOM     32  O   UNL A   1      34.823  32.838  27.585  1.00  0.00    -0.269 OA
BRANCH  30  33
ATOM     33  C   UNL A   1      36.081  30.942  28.159  1.00  0.00     0.039 A 
ATOM     34  C   UNL A   1      36.371  29.630  27.776  1.00  0.00     0.014 A 
ATOM     35  C   UNL A   1      36.939  31.641  29.005  1.00  0.00     0.014 A 
ATOM     36  C   UNL A   1      37.580  29.067  28.173  1.00  0.00     0.010 A 
ATOM     37  C   UNL A   1      38.185  31.134  29.289  1.00  0.00     0.010 A 
ATOM     38  C   UNL A   1      38.501  29.836  28.903  1.00  0.00    -0.014 A 
BRANCH  38  39
ATOM     39  C   UNL A   1      39.860  29.340  29.123  1.00  0.00     0.031 A 
ATOM     40  C   UNL A   1      40.179  29.079  30.554  1.00  0.00     0.074 A 
ATOM     41  C   UNL A   1      40.687  28.940  28.134  1.00  0.00     0.049 A 
ATOM     42  N   UNL A   1      40.964  29.759  31.323  1.00  0.00    -0.248 NA
ATOM     43  C   UNL A   1      39.402  28.051  31.269  1.00  0.00     0.031 C 
ATOM     44  C   UNL A   1      40.392  28.833  26.701  1.00  0.00     0.029 A 
ATOM     45  N   UNL A   1      41.949  28.432  28.213  1.00  0.00    -0.354 N 
ATOM     46  C   UNL A   1      40.986  29.081  32.539  1.00  0.00     0.074 A 
ATOM     47  C   UNL A   1      39.849  28.200  32.517  1.00  0.00     0.031 C 
ATOM     48  C   UNL A   1      41.340  28.083  26.096  1.00  0.00     0.029 A 
ATOM     49  C   UNL A   1      42.394  27.800  27.054  1.00  0.00     0.049 A 
ATOM     50  H   UNL A   1      42.503  28.506  29.024  1.00  0.00     0.167 HD
ATOM     51  C   UNL A   1      42.094  29.103  33.332  1.00  0.00     0.037 A 
ATOM     52  C   UNL A   1      43.533  27.077  26.897  1.00  0.00     0.037 A 
ATOM     53  C   UNL A   1      43.000  30.147  32.912  1.00  0.00     0.049 A 
ATOM     54  C   UNL A   1      44.454  27.483  27.989  1.00  0.00     0.074 A 
ATOM     55  C   UNL A   1      42.913  31.517  32.760  1.00  0.00     0.029 A 
ATOM     56  N   UNL A   1      44.110  29.758  32.203  1.00  0.00    -0.354 N 
ATOM     57  N   UNL A   1      44.990  28.668  28.087  1.00  0.00    -0.248 NA
ATOM     58  C   UNL A   1      44.439  26.703  29.216  1.00  0.00     0.031 C 
ATOM     59  C   UNL A   1      43.689  31.811  31.601  1.00  0.00     0.029 A 
ATOM     60  C   UNL A   1      44.269  30.624  31.154  1.00  0.00     0.049 A 
ATOM     61  H   UNL A   1      44.690  28.991  32.413  1.00  0.00     0.167 HD
ATOM     62  C   UNL A   1      44.960  28.955  29.442  1.00  0.00     0.074 A 
ATOM     63  C   UNL A   1      44.722  27.669  30.094  1.00  0.00     0.031 C 
ATOM     64  C   UNL A   1      44.842  30.243  29.881  1.00  0.00     0.037 A 
BRANCH  51  65
ATOM     65  C   UNL A   1      42.571  27.946  34.191  1.00  0.00     0.058 A 
ATOM     66  C   UNL A   1      42.644  28.126  35.592  1.00  0.00     0.135 A 
ATOM     67  C   UNL A   1      43.233  26.799  33.698  1.00  0.00     0.135 A 
ATOM     68  F   UNL A   1      42.044  29.174  36.179  1.00  0.00    -0.206 F 
ATOM     69  C   UNL A   1      43.401  27.295  36.418  1.00  0.00     0.059 A 
ATOM     70  C   UNL A   1      43.949  25.929  34.513  1.00  0.00     0.059 A 
ATOM     71  F   UNL A   1      43.307  26.511  32.396  1.00  0.00    -0.206 F 
ATOM     72  C   UNL A   1      44.066  26.208  35.863  1.00  0.00     0.060 A 
BRANCH  72  73
ATOM     73  S   UNL A   1      45.124  25.191  36.905  1.00  0.00     0.124 S 
ATOM     74  O   UNL A   1      45.218  23.969  36.117  1.00  0.00    -0.237 OA
ATOM     75  O   UNL A   1      46.337  26.000  36.982  1.00  0.00    -0.237 OA
ATOM     76  O   UNL A   1      44.366  25.088  38.149  1.00  0.00    -0.744 OA
ENDBRANCH  72  73
ENDBRANCH  51  65
BRANCH  52  77
ATOM     77  C   UNL A   1      43.784  25.877  26.054  1.00  0.00     0.058 A 
ATOM     78  C   UNL A   1      45.057  25.631  25.506  1.00  0.00     0.135 A 
ATOM     79  C   UNL A   1      42.877  24.799  26.017  1.00  0.00     0.135 A 
ATOM     80  F   UNL A   1      45.990  26.596  25.503  1.00  0.00    -0.206 F 
ATOM     81  C   UNL A   1      45.434  24.374  25.019  1.00  0.00     0.059 A 
ATOM     82  C   UNL A   1      43.226  23.539  25.528  1.00  0.00     0.059 A 
ATOM     83  F   UNL A   1      41.649  24.911  26.547  1.00  0.00    -0.206 F 
ATOM     84  C   UNL A   1      44.517  23.325  25.060  1.00  0.00     0.060 A 
BRANCH  84  85
ATOM     85  S   UNL A   1      45.059  21.654  24.626  1.00  0.00     0.124 S 
ATOM     86  O   UNL A   1      44.761  21.602  23.199  1.00  0.00    -0.237 OA
ATOM     87  O   UNL A   1      46.474  21.687  24.980  1.00  0.00    -0.237 OA
ATOM     88  O   UNL A   1      44.229  20.800  25.470  1.00  0.00    -0.744 OA
ENDBRANCH  84  85
ENDBRANCH  52  77
BRANCH  64  89
ATOM     89  C   UNL A   1      45.147  31.358  28.913  1.00  0.00     0.058 A 
ATOM     90  C   UNL A   1      46.415  31.922  28.693  1.00  0.00     0.135 A 
ATOM     91  C   UNL A   1      44.102  31.786  28.078  1.00  0.00     0.135 A 
ATOM     92  F   UNL A   1      47.491  31.497  29.370  1.00  0.00    -0.206 F 
ATOM     93  C   UNL A   1      46.622  32.906  27.723  1.00  0.00     0.059 A 
ATOM     94  C   UNL A   1      44.293  32.737  27.081  1.00  0.00     0.059 A 
ATOM     95  F   UNL A   1      42.879  31.243  28.197  1.00  0.00    -0.206 F 
ATOM     96  C   UNL A   1      45.552  33.308  26.922  1.00  0.00     0.060 A 
BRANCH  96  97
ATOM     97  S   UNL A   1      45.826  34.542  25.633  1.00  0.00     0.124 S 
ATOM     98  O   UNL A   1      44.947  34.074  24.568  1.00  0.00    -0.237 OA
ATOM     99  O   UNL A   1      45.424  35.783  26.290  1.00  0.00    -0.237 OA
ATOM    100  O   UNL A   1      47.257  34.432  25.355  1.00  0.00    -0.744 OA
ENDBRANCH  96  97
ENDBRANCH  64  89
ENDBRANCH  38  39
ENDBRANCH  30  33
ENDBRANCH  28  29
ENDBRANCH  27  28
ENDBRANCH  26  27
ENDBRANCH   1  26
TORSDOF 19
ENDMDL
MODEL 2
REMARK VINA RESULT:     -11.8      2.544      9.039
REMARK SMILES COCC[C@@H](C)NC(=O)N1Cc2nc[nH]c2C[C@@H]1C(=O)NCCCCNC(=O)c1ccc(-c2c3nc(c(-c4c(F)cc(S(=O)(=O)[O-])cc4F)c4ccc([nH]4)c(-c4c(F)cc(S(=O)(=O)[O-])cc4F)c4nc(c(-c5c(F)cc(S(=O)(=O)[O-])cc5F)c5ccc2[nH]5)C=C4)C=C3)cc1
REMARK SMILES IDX 22 1 21 2 19 3 20 4 18 6 10 7 11 8 12 9 17 10 13 11 16 12
REMARK SMILES IDX 14 13 15 14 8 16 7 17 9 19 5 20 6 21 4 22 3 23 2 24 1 25
REMARK SMILES IDX 23 26 24 27 25 28 26 29 27 30 28 32 29 33 30 34 94 35 31 36
REMARK SMILES IDX 93 37 32 38 33 39 34 40 87 41 35 42 92 43 86 44 88 45 36 46
REMARK SMILES IDX 91 47 85 48 84 49 37 51 71 52 50 53 70 54 51 55 54 56 69 57
REMARK SMILES IDX 89 58 52 59 53 60 68 62 90 63 55 64 38 65 39 66 48 67 40 68
REMARK SMILES IDX 41 69 47 70 49 71 42 72 43 73 44 74 45 75 46 76 72 77 73 78
REMARK SMILES IDX 82 79 74 80 75 81 81 82 83 83 76 84 77 85 78 86 79 87 80 88
REMARK SMILES IDX 56 89 57 90 66 91 58 92 59 93 65 94 67 95 60 96 61 97 62 98
REMARK SMILES IDX 63 99 64 100
REMARK H PARENT 21 5 15 15 7 18 26 31 88 50 54 61
REMARK Flexibility Score: inf
ROOT
ATOM      1  C   UNL A   1      38.192  23.293  26.464  1.00  0.00     0.116 C 
ENDROOT
BRANCH   1   2
ATOM      2  N   UNL A   1      37.354  22.271  25.860  1.00  0.00    -0.354 N 
ATOM      3  C   UNL A   1      36.267  22.429  25.034  1.00  0.00     0.243 C 
ATOM      4  O   UNL A   1      36.025  21.523  24.239  1.00  0.00    -0.273 OA
ATOM      5  H   UNL A   1      37.598  21.340  26.071  1.00  0.00     0.163 HD
BRANCH   3   6
ATOM      6  C   UNL A   1      35.449  23.730  25.084  1.00  0.00     0.182 C 
ATOM      7  N   UNL A   1      34.393  23.994  26.132  1.00  0.00    -0.306 N 
ATOM      8  C   UNL A   1      33.692  25.309  26.036  1.00  0.00     0.180 C 
ATOM      9  C   UNL A   1      33.586  25.775  24.619  1.00  0.00     0.081 A 
ATOM     10  C   UNL A   1      34.894  23.862  23.633  1.00  0.00     0.091 C 
ATOM     11  N   UNL A   1      32.986  26.938  24.200  1.00  0.00    -0.240 NA
ATOM     12  C   UNL A   1      34.136  25.122  23.545  1.00  0.00     0.042 A 
ATOM     13  C   UNL A   1      33.135  26.950  22.891  1.00  0.00     0.197 A 
ATOM     14  N   UNL A   1      33.832  25.859  22.444  1.00  0.00    -0.348 N 
ATOM     15  H   UNL A   1      34.068  25.651  21.510  1.00  0.00     0.167 HD
BRANCH   7  16
ATOM     16  C   UNL A   1      33.739  23.042  26.873  1.00  0.00     0.318 C 
ATOM     17  N   UNL A   1      32.729  22.320  26.334  1.00  0.00    -0.335 N 
ATOM     18  H   UNL A   1      32.176  21.851  26.999  1.00  0.00     0.165 HD
ATOM     19  O   UNL A   1      34.128  22.683  27.987  1.00  0.00    -0.249 OA
BRANCH  17  20
ATOM     20  C   UNL A   1      32.305  22.104  24.954  1.00  0.00     0.083 C 
ATOM     21  C   UNL A   1      31.011  22.879  24.685  1.00  0.00     0.031 C 
BRANCH  20  22
ATOM     22  C   UNL A   1      32.127  20.601  24.660  1.00  0.00     0.053 C 
BRANCH  22  23
ATOM     23  C   UNL A   1      33.077  19.704  25.461  1.00  0.00     0.162 C 
BRANCH  23  24
ATOM     24  O   UNL A   1      32.459  18.506  25.936  1.00  0.00    -0.385 OA
ATOM     25  C   UNL A   1      32.527  17.427  25.021  1.00  0.00     0.194 C 
ENDBRANCH  23  24
ENDBRANCH  22  23
ENDBRANCH  20  22
ENDBRANCH  17  20
ENDBRANCH   7  16
ENDBRANCH   3   6
ENDBRANCH   1   2
BRANCH   1  26
ATOM     26  C   UNL A   1      39.618  22.852  26.802  1.00  0.00     0.023 C 
BRANCH  26  27
ATOM     27  C   UNL A   1      40.043  21.453  26.339  1.00  0.00     0.023 C 
BRANCH  27  28
ATOM     28  C   UNL A   1      41.121  20.812  27.201  1.00  0.00     0.116 C 
BRANCH  28  29
ATOM     29  N   UNL A   1      42.327  20.504  26.439  1.00  0.00    -0.352 N 
ATOM     30  C   UNL A   1      43.240  21.380  25.880  1.00  0.00     0.251 C 
ATOM     31  H   UNL A   1      42.517  19.548  26.306  1.00  0.00     0.163 HD
ATOM     32  O   UNL A   1      43.978  21.009  24.983  1.00  0.00    -0.269 OA
BRANCH  30  33
ATOM     33  C   UNL A   1      43.296  22.767  26.378  1.00  0.00     0.039 A 
ATOM     34  C   UNL A   1      42.860  23.827  25.578  1.00  0.00     0.014 A 
ATOM     35  C   UNL A   1      43.764  22.999  27.669  1.00  0.00     0.014 A 
ATOM     36  C   UNL A   1      42.810  25.105  26.126  1.00  0.00     0.010 A 
ATOM     37  C   UNL A   1      43.594  24.233  28.251  1.00  0.00     0.010 A 
ATOM     38  C   UNL A   1      43.147  25.298  27.477  1.00  0.00    -0.014 A 
BRANCH  38  39
ATOM     39  C   UNL A   1      42.875  26.582  28.124  1.00  0.00     0.031 A 
ATOM     40  C   UNL A   1      43.931  27.607  27.891  1.00  0.00     0.074 A 
ATOM     41  C   UNL A   1      41.695  26.906  28.695  1.00  0.00     0.049 A 
ATOM     42  N   UNL A   1      44.791  28.059  28.742  1.00  0.00    -0.248 NA
ATOM     43  C   UNL A   1      44.180  28.053  26.509  1.00  0.00     0.031 C 
ATOM     44  C   UNL A   1      40.457  26.120  28.713  1.00  0.00     0.029 A 
ATOM     45  N   UNL A   1      41.313  28.070  29.292  1.00  0.00    -0.354 N 
ATOM     46  C   UNL A   1      45.510  29.044  28.069  1.00  0.00     0.074 A 
ATOM     47  C   UNL A   1      45.254  28.828  26.670  1.00  0.00     0.031 C 
ATOM     48  C   UNL A   1      39.421  26.910  29.068  1.00  0.00     0.029 A 
ATOM     49  C   UNL A   1      39.938  28.207  29.468  1.00  0.00     0.049 A 
ATOM     50  H   UNL A   1      41.957  28.758  29.578  1.00  0.00     0.167 HD
ATOM     51  C   UNL A   1      46.022  30.116  28.737  1.00  0.00     0.037 A 
ATOM     52  C   UNL A   1      39.269  29.312  29.888  1.00  0.00     0.037 A 
ATOM     53  C   UNL A   1      46.014  29.879  30.162  1.00  0.00     0.049 A 
ATOM     54  C   UNL A   1      40.253  30.168  30.596  1.00  0.00     0.074 A 
ATOM     55  C   UNL A   1      46.555  28.924  31.000  1.00  0.00     0.029 A 
ATOM     56  N   UNL A   1      45.034  30.508  30.890  1.00  0.00    -0.354 N 
ATOM     57  N   UNL A   1      40.819  29.844  31.726  1.00  0.00    -0.248 NA
ATOM     58  C   UNL A   1      40.939  31.195  29.830  1.00  0.00     0.031 C 
ATOM     59  C   UNL A   1      45.570  28.715  32.009  1.00  0.00     0.029 A 
ATOM     60  C   UNL A   1      44.519  29.605  31.782  1.00  0.00     0.049 A 
ATOM     61  H   UNL A   1      44.751  31.446  30.789  1.00  0.00     0.167 HD
ATOM     62  C   UNL A   1      42.129  30.274  31.599  1.00  0.00     0.074 A 
ATOM     63  C   UNL A   1      42.113  31.198  30.466  1.00  0.00     0.031 C 
ATOM     64  C   UNL A   1      43.146  29.621  32.236  1.00  0.00     0.037 A 
BRANCH  51  65
ATOM     65  C   UNL A   1      46.129  31.521  28.173  1.00  0.00     0.058 A 
ATOM     66  C   UNL A   1      47.347  32.223  28.326  1.00  0.00     0.135 A 
ATOM     67  C   UNL A   1      45.029  32.310  27.769  1.00  0.00     0.135 A 
ATOM     68  F   UNL A   1      48.466  31.579  28.697  1.00  0.00    -0.206 F 
ATOM     69  C   UNL A   1      47.437  33.609  28.194  1.00  0.00     0.059 A 
ATOM     70  C   UNL A   1      45.111  33.685  27.579  1.00  0.00     0.059 A 
ATOM     71  F   UNL A   1      43.796  31.814  27.630  1.00  0.00    -0.206 F 
ATOM     72  C   UNL A   1      46.306  34.333  27.837  1.00  0.00     0.060 A 
BRANCH  72  73
ATOM     73  S   UNL A   1      46.392  36.129  27.761  1.00  0.00     0.124 S 
ATOM     74  O   UNL A   1      45.037  36.500  28.149  1.00  0.00    -0.237 OA
ATOM     75  O   UNL A   1      47.441  36.421  28.733  1.00  0.00    -0.237 OA
ATOM     76  O   UNL A   1      46.747  36.387  26.368  1.00  0.00    -0.744 OA
ENDBRANCH  72  73
ENDBRANCH  51  65
BRANCH  52  77
ATOM     77  C   UNL A   1      37.924  29.813  29.491  1.00  0.00     0.058 A 
ATOM     78  C   UNL A   1      37.011  30.276  30.457  1.00  0.00     0.135 A 
ATOM     79  C   UNL A   1      37.622  30.130  28.152  1.00  0.00     0.135 A 
ATOM     80  F   UNL A   1      37.221  30.029  31.759  1.00  0.00    -0.206 F 
ATOM     81  C   UNL A   1      35.906  31.069  30.124  1.00  0.00     0.059 A 
ATOM     82  C   UNL A   1      36.521  30.910  27.794  1.00  0.00     0.059 A 
ATOM     83  F   UNL A   1      38.444  29.772  27.154  1.00  0.00    -0.206 F 
ATOM     84  C   UNL A   1      35.685  31.403  28.789  1.00  0.00     0.060 A 
BRANCH  84  85
ATOM     85  S   UNL A   1      34.384  32.590  28.375  1.00  0.00     0.124 S 
ATOM     86  O   UNL A   1      33.978  33.065  29.694  1.00  0.00    -0.237 OA
ATOM     87  O   UNL A   1      35.098  33.554  27.545  1.00  0.00    -0.237 OA
ATOM     88  O   UNL A   1      33.396  31.778  27.671  1.00  0.00    -0.744 OA
ENDBRANCH  84  85
ENDBRANCH  52  77
BRANCH  64  89
ATOM     89  C   UNL A   1      42.797  28.699  33.376  1.00  0.00     0.058 A 
ATOM     90  C   UNL A   1      42.778  27.294  33.311  1.00  0.00     0.135 A 
ATOM     91  C   UNL A   1      42.588  29.284  34.635  1.00  0.00     0.135 A 
ATOM     92  F   UNL A   1      43.073  26.648  32.174  1.00  0.00    -0.206 F 
ATOM     93  C   UNL A   1      42.512  26.512  34.437  1.00  0.00     0.059 A 
ATOM     94  C   UNL A   1      42.357  28.523  35.777  1.00  0.00     0.059 A 
ATOM     95  F   UNL A   1      42.651  30.619  34.776  1.00  0.00    -0.206 F 
ATOM     96  C   UNL A   1      42.301  27.138  35.667  1.00  0.00     0.060 A 
BRANCH  96  97
ATOM     97  S   UNL A   1      42.007  26.128  37.134  1.00  0.00     0.124 S 
ATOM     98  O   UNL A   1      41.968  24.781  36.576  1.00  0.00    -0.237 OA
ATOM     99  O   UNL A   1      43.164  26.436  37.970  1.00  0.00    -0.237 OA
ATOM    100  O   UNL A   1      40.732  26.628  37.643  1.00  0.00    -0.744 OA
ENDBRANCH  96  97
ENDBRANCH  64  89
ENDBRANCH  38  39
ENDBRANCH  30  33
ENDBRANCH  28  29
ENDBRANCH  27  28
ENDBRANCH  26  27
ENDBRANCH   1  26
TORSDOF 19
ENDMDL
MODEL 3
REMARK VINA RESULT:     -11.8      2.102      3.647
REMARK SMILES COCC[C@@H](C)NC(=O)N1Cc2nc[nH]c2C[C@@H]1C(=O)NCCCCNC(=O)c1ccc(-c2c3nc(c(-c4c(F)cc(S(=O)(=O)[O-])cc4F)c4ccc([nH]4)c(-c4c(F)cc(S(=O)(=O)[O-])cc4F)c4nc(c(-c5c(F)cc(S(=O)(=O)[O-])cc5F)c5ccc2[nH]5)C=C4)C=C3)cc1
REMARK SMILES IDX 22 1 21 2 19 3 20 4 18 6 10 7 11 8 12 9 17 10 13 11 16 12
REMARK SMILES IDX 14 13 15 14 8 16 7 17 9 19 5 20 6 21 4 22 3 23 2 24 1 25
REMARK SMILES IDX 23 26 24 27 25 28 26 29 27 30 28 32 29 33 30 34 94 35 31 36
REMARK SMILES IDX 93 37 32 38 33 39 34 40 87 41 35 42 92 43 86 44 88 45 36 46
REMARK SMILES IDX 91 47 85 48 84 49 37 51 71 52 50 53 70 54 51 55 54 56 69 57
REMARK SMILES IDX 89 58 52 59 53 60 68 62 90 63 55 64 38 65 39 66 48 67 40 68
REMARK SMILES IDX 41 69 47 70 49 71 42 72 43 73 44 74 45 75 46 76 72 77 73 78
REMARK SMILES IDX 82 79 74 80 75 81 81 82 83 83 76 84 77 85 78 86 79 87 80 88
REMARK SMILES IDX 56 89 57 90 66 91 58 92 59 93 65 94 67 95 60 96 61 97 62 98
REMARK SMILES IDX 63 99 64 100
REMARK H PARENT 21 5 15 15 7 18 26 31 88 50 54 61
REMARK Flexibility Score: inf
ROOT
ATOM      1  C   UNL A   1      33.698  28.528  26.298  1.00  0.00     0.116 C 
ENDROOT
BRANCH   1   2
ATOM      2  N   UNL A   1      34.044  28.602  24.888  1.00  0.00    -0.354 N 
ATOM      3  C   UNL A   1      33.208  28.724  23.804  1.00  0.00     0.243 C 
ATOM      4  O   UNL A   1      33.660  29.275  22.802  1.00  0.00    -0.273 OA
ATOM      5  H   UNL A   1      35.007  28.560  24.683  1.00  0.00     0.163 HD
BRANCH   3   6
ATOM      6  C   UNL A   1      31.753  28.237  23.900  1.00  0.00     0.182 C 
ATOM      7  N   UNL A   1      31.355  26.794  23.688  1.00  0.00    -0.306 N 
ATOM      8  C   UNL A   1      29.899  26.494  23.817  1.00  0.00     0.180 C 
ATOM      9  C   UNL A   1      29.056  27.654  23.395  1.00  0.00     0.081 A 
ATOM     10  C   UNL A   1      30.985  29.211  22.954  1.00  0.00     0.091 C 
ATOM     11  N   UNL A   1      27.682  27.686  23.386  1.00  0.00    -0.240 NA
ATOM     12  C   UNL A   1      29.553  28.875  23.015  1.00  0.00     0.042 A 
ATOM     13  C   UNL A   1      27.369  28.893  22.959  1.00  0.00     0.197 A 
ATOM     14  N   UNL A   1      28.480  29.657  22.719  1.00  0.00    -0.348 N 
ATOM     15  H   UNL A   1      28.499  30.588  22.398  1.00  0.00     0.167 HD
BRANCH   7  16
ATOM     16  C   UNL A   1      32.085  25.850  23.011  1.00  0.00     0.318 C 
ATOM     17  N   UNL A   1      32.979  25.070  23.662  1.00  0.00    -0.335 N 
ATOM     18  H   UNL A   1      33.613  24.609  23.067  1.00  0.00     0.165 HD
ATOM     19  O   UNL A   1      31.860  25.553  21.835  1.00  0.00    -0.249 OA
BRANCH  17  20
ATOM     20  C   UNL A   1      33.182  24.782  25.078  1.00  0.00     0.083 C 
ATOM     21  C   UNL A   1      34.673  24.884  25.418  1.00  0.00     0.031 C 
BRANCH  20  22
ATOM     22  C   UNL A   1      32.620  23.394  25.445  1.00  0.00     0.053 C 
BRANCH  22  23
ATOM     23  C   UNL A   1      32.624  23.110  26.951  1.00  0.00     0.162 C 
BRANCH  23  24
ATOM     24  O   UNL A   1      31.385  23.425  27.590  1.00  0.00    -0.385 OA
ATOM     25  C   UNL A   1      30.249  23.213  26.771  1.00  0.00     0.194 C 
ENDBRANCH  23  24
ENDBRANCH  22  23
ENDBRANCH  20  22
ENDBRANCH  17  20
ENDBRANCH   7  16
ENDBRANCH   3   6
ENDBRANCH   1   2
BRANCH   1  26
ATOM     26  C   UNL A   1      34.281  29.640  27.172  1.00  0.00     0.023 C 
BRANCH  26  27
ATOM     27  C   UNL A   1      33.359  30.821  27.505  1.00  0.00     0.023 C 
BRANCH  27  28
ATOM     28  C   UNL A   1      34.088  32.141  27.712  1.00  0.00     0.116 C 
BRANCH  28  29
ATOM     29  N   UNL A   1      34.025  32.596  29.097  1.00  0.00    -0.352 N 
ATOM     30  C   UNL A   1      34.821  32.222  30.164  1.00  0.00     0.251 C 
ATOM     31  H   UNL A   1      33.324  33.257  29.299  1.00  0.00     0.163 HD
ATOM     32  O   UNL A   1      34.438  32.394  31.308  1.00  0.00    -0.269 OA
BRANCH  30  33
ATOM     33  C   UNL A   1      36.133  31.603  29.892  1.00  0.00     0.039 A 
ATOM     34  C   UNL A   1      37.244  32.397  29.595  1.00  0.00     0.014 A 
ATOM     35  C   UNL A   1      36.250  30.217  29.965  1.00  0.00     0.014 A 
ATOM     36  C   UNL A   1      38.489  31.788  29.469  1.00  0.00     0.010 A 
ATOM     37  C   UNL A   1      37.494  29.633  29.969  1.00  0.00     0.010 A 
ATOM     38  C   UNL A   1      38.616  30.407  29.690  1.00  0.00    -0.014 A 
BRANCH  38  39
ATOM     39  C   UNL A   1      39.942  29.798  29.792  1.00  0.00     0.031 A 
ATOM     40  C   UNL A   1      40.380  29.547  31.193  1.00  0.00     0.074 A 
ATOM     41  C   UNL A   1      40.629  29.301  28.741  1.00  0.00     0.049 A 
ATOM     42  N   UNL A   1      41.295  30.174  31.857  1.00  0.00    -0.248 NA
ATOM     43  C   UNL A   1      39.595  28.610  32.015  1.00  0.00     0.031 C 
ATOM     44  C   UNL A   1      40.183  29.183  27.348  1.00  0.00     0.029 A 
ATOM     45  N   UNL A   1      41.844  28.686  28.713  1.00  0.00    -0.354 N 
ATOM     46  C   UNL A   1      41.380  29.528  33.088  1.00  0.00     0.074 A 
ATOM     47  C   UNL A   1      40.176  28.751  33.208  1.00  0.00     0.031 C 
ATOM     48  C   UNL A   1      40.997  28.338  26.680  1.00  0.00     0.029 A 
ATOM     49  C   UNL A   1      42.114  27.987  27.539  1.00  0.00     0.049 A 
ATOM     50  H   UNL A   1      42.481  28.731  29.464  1.00  0.00     0.167 HD
ATOM     51  C   UNL A   1      42.561  29.472  33.767  1.00  0.00     0.037 A 
ATOM     52  C   UNL A   1      43.166  27.163  27.296  1.00  0.00     0.037 A 
ATOM     53  C   UNL A   1      43.505  30.421  33.225  1.00  0.00     0.049 A 
ATOM     54  C   UNL A   1      44.223  27.513  28.278  1.00  0.00     0.074 A 
ATOM     55  C   UNL A   1      43.521  31.789  33.036  1.00  0.00     0.029 A 
ATOM     56  N   UNL A   1      44.501  29.917  32.424  1.00  0.00    -0.354 N 
ATOM     57  N   UNL A   1      44.866  28.648  28.282  1.00  0.00    -0.248 NA
ATOM     58  C   UNL A   1      44.266  26.770  29.527  1.00  0.00     0.031 C 
ATOM     59  C   UNL A   1      44.198  31.983  31.796  1.00  0.00     0.029 A 
ATOM     60  C   UNL A   1      44.628  30.738  31.335  1.00  0.00     0.049 A 
ATOM     61  H   UNL A   1      45.032  29.107  32.602  1.00  0.00     0.167 HD
ATOM     62  C   UNL A   1      44.997  28.972  29.622  1.00  0.00     0.074 A 
ATOM     63  C   UNL A   1      44.716  27.729  30.339  1.00  0.00     0.031 C 
ATOM     64  C   UNL A   1      45.035  30.276  30.026  1.00  0.00     0.037 A 
BRANCH  51  65
ATOM     65  C   UNL A   1      43.021  28.300  34.615  1.00  0.00     0.058 A 
ATOM     66  C   UNL A   1      43.435  28.545  35.945  1.00  0.00     0.135 A 
ATOM     67  C   UNL A   1      43.357  27.025  34.107  1.00  0.00     0.135 A 
ATOM     68  F   UNL A   1      43.164  29.718  36.540  1.00  0.00    -0.206 F 
ATOM     69  C   UNL A   1      44.211  27.641  36.669  1.00  0.00     0.059 A 
ATOM     70  C   UNL A   1      44.084  26.088  34.834  1.00  0.00     0.059 A 
ATOM     71  F   UNL A   1      43.087  26.653  32.853  1.00  0.00    -0.206 F 
ATOM     72  C   UNL A   1      44.546  26.420  36.095  1.00  0.00     0.060 A 
BRANCH  72  73
ATOM     73  S   UNL A   1      45.628  25.290  36.984  1.00  0.00     0.124 S 
ATOM     74  O   UNL A   1      44.994  24.006  36.709  1.00  0.00    -0.237 OA
ATOM     75  O   UNL A   1      46.911  25.525  36.330  1.00  0.00    -0.237 OA
ATOM     76  O   UNL A   1      45.539  25.760  38.364  1.00  0.00    -0.744 OA
ENDBRANCH  72  73
ENDBRANCH  51  65
BRANCH  52  77
ATOM     77  C   UNL A   1      43.227  25.923  26.474  1.00  0.00     0.058 A 
ATOM     78  C   UNL A   1      44.197  25.772  25.465  1.00  0.00     0.135 A 
ATOM     79  C   UNL A   1      42.543  24.752  26.855  1.00  0.00     0.135 A 
ATOM     80  F   UNL A   1      44.904  26.831  25.043  1.00  0.00    -0.206 F 
ATOM     81  C   UNL A   1      44.522  24.524  24.919  1.00  0.00     0.059 A 
ATOM     82  C   UNL A   1      42.842  23.498  26.318  1.00  0.00     0.059 A 
ATOM     83  F   UNL A   1      41.626  24.774  27.834  1.00  0.00    -0.206 F 
ATOM     84  C   UNL A   1      43.857  23.387  25.374  1.00  0.00     0.060 A 
BRANCH  84  85
ATOM     85  S   UNL A   1      44.411  21.755  24.826  1.00  0.00     0.124 S 
ATOM     86  O   UNL A   1      45.649  21.588  25.580  1.00  0.00    -0.237 OA
ATOM     87  O   UNL A   1      43.300  20.900  25.229  1.00  0.00    -0.237 OA
ATOM     88  O   UNL A   1      44.575  21.920  23.385  1.00  0.00    -0.744 OA
ENDBRANCH  84  85
ENDBRANCH  52  77
BRANCH  64  89
ATOM     89  C   UNL A   1      45.334  31.334  28.995  1.00  0.00     0.058 A 
ATOM     90  C   UNL A   1      46.610  31.641  28.491  1.00  0.00     0.135 A 
ATOM     91  C   UNL A   1      44.239  31.983  28.405  1.00  0.00     0.135 A 
ATOM     92  F   UNL A   1      47.702  30.992  28.920  1.00  0.00    -0.206 F 
ATOM     93  C   UNL A   1      46.789  32.590  27.481  1.00  0.00     0.059 A 
ATOM     94  C   UNL A   1      44.391  32.904  27.374  1.00  0.00     0.059 A 
ATOM     95  F   UNL A   1      42.989  31.691  28.801  1.00  0.00    -0.206 F 
ATOM     96  C   UNL A   1      45.671  33.218  26.930  1.00  0.00     0.060 A 
BRANCH  96  97
ATOM     97  S   UNL A   1      45.896  34.408  25.591  1.00  0.00     0.124 S 
ATOM     98  O   UNL A   1      47.336  34.348  25.366  1.00  0.00    -0.237 OA
ATOM     99  O   UNL A   1      45.064  33.852  24.528  1.00  0.00    -0.237 OA
ATOM    100  O   UNL A   1      45.406  35.661  26.161  1.00  0.00    -0.744 OA
ENDBRANCH  96  97
ENDBRANCH  64  89
ENDBRANCH  38  39
ENDBRANCH  30  33
ENDBRANCH  28  29
ENDBRANCH  27  28
ENDBRANCH  26  27
ENDBRANCH   1  26
TORSDOF 19
ENDMDL
