MODEL 1
REMARK VINA RESULT:     -12.8      0.000      0.000
REMARK SMILES Cc1ccnc(C(=O)c2[nH]c3ccc(C(C)(C)C)cc3c2CC(=O)NCCCCNC(=O)c2ccc(-c3c4nc(c(-c5c(F)cc(S(=O)(=O)[O-])cc5F)c5ccc([nH]5)c(-c5c(F)cc(S(=O)(=O)[O-])cc5F)c5nc(c(-c6c(F)cc(S(=O)(=O)[O-])cc6F)c6ccc3[nH]6)C=C5)C=C4)cc2)c1
REMARK SMILES IDX 27 1 26 2 25 3 23 4 24 5 22 7 21 8 9 9 10 10 11 11 20 13
REMARK SMILES IDX 12 14 19 15 13 16 14 17 7 18 8 19 6 20 1 21 2 22 3 23 99 24
REMARK SMILES IDX 4 25 5 26 15 27 16 28 17 29 18 30 28 31 29 32 30 33 31 34
REMARK SMILES IDX 32 36 33 37 34 38 98 39 35 40 97 41 36 42 37 43 38 44 91 45
REMARK SMILES IDX 39 46 96 47 90 48 92 49 40 50 95 51 89 52 88 53 41 55 75 56
REMARK SMILES IDX 54 57 74 58 55 59 58 60 73 61 93 62 56 63 57 64 72 66 94 67
REMARK SMILES IDX 59 68 42 69 43 70 52 71 44 72 45 73 51 74 53 75 46 76 47 77
REMARK SMILES IDX 48 78 49 79 50 80 76 81 77 82 86 83 78 84 79 85 85 86 87 87
REMARK SMILES IDX 80 88 81 89 82 90 83 91 84 92 60 93 61 94 70 95 62 96 63 97
REMARK SMILES IDX 69 98 71 99 64 100 65 101 66 102 67 103 68 104
REMARK H PARENT 25 6 10 12 30 35 92 54 58 65
REMARK Flexibility Score: inf
ROOT
ATOM      1  C   UNL A   1      31.874  30.628  26.697  1.00  0.00     0.023 C 
ENDROOT
BRANCH   1   2
ATOM      2  C   UNL A   1      33.318  30.131  26.744  1.00  0.00     0.116 C 
BRANCH   2   3
ATOM      3  N   UNL A   1      33.715  29.421  25.545  1.00  0.00    -0.356 N 
ATOM      4  C   UNL A   1      33.485  28.122  25.192  1.00  0.00     0.224 C 
ATOM      5  O   UNL A   1      33.763  27.776  24.040  1.00  0.00    -0.275 OA
ATOM      6  H   UNL A   1      34.224  29.952  24.892  1.00  0.00     0.163 HD
BRANCH   4   7
ATOM      7  C   UNL A   1      32.778  27.161  26.137  1.00  0.00     0.138 C 
BRANCH   7   8
ATOM      8  C   UNL A   1      31.569  26.470  25.572  1.00  0.00    -0.002 A 
ATOM      9  C   UNL A   1      31.217  25.131  25.710  1.00  0.00     0.093 A 
ATOM     10  N   UNL A   1      29.980  24.971  25.128  1.00  0.00    -0.352 N 
ATOM     11  C   UNL A   1      29.580  26.129  24.510  1.00  0.00     0.046 A 
ATOM     12  H   UNL A   1      29.454  24.139  25.153  1.00  0.00     0.167 HD
ATOM     13  C   UNL A   1      30.561  27.082  24.752  1.00  0.00     0.004 A 
ATOM     14  C   UNL A   1      28.419  26.412  23.788  1.00  0.00     0.027 A 
ATOM     15  C   UNL A   1      30.372  28.381  24.232  1.00  0.00     0.015 A 
ATOM     16  C   UNL A   1      28.255  27.716  23.297  1.00  0.00     0.006 A 
ATOM     17  C   UNL A   1      29.211  28.721  23.502  1.00  0.00    -0.042 A 
BRANCH   9  18
ATOM     18  C   UNL A   1      31.908  24.067  26.420  1.00  0.00     0.227 C 
ATOM     19  O   UNL A   1      31.751  23.910  27.627  1.00  0.00    -0.285 OA
BRANCH  18  20
ATOM     20  C   UNL A   1      32.806  23.139  25.635  1.00  0.00     0.113 A 
ATOM     21  C   UNL A   1      32.863  19.710  24.009  1.00  0.00     0.044 C 
ATOM     22  C   UNL A   1      33.270  21.071  24.488  1.00  0.00    -0.047 A 
ATOM     23  C   UNL A   1      34.561  21.543  24.250  1.00  0.00     0.023 A 
ATOM     24  C   UNL A   1      32.372  21.895  25.175  1.00  0.00     0.036 A 
ATOM     25  C   UNL A   1      34.906  22.797  24.722  1.00  0.00     0.112 A 
ATOM     26  N   UNL A   1      34.067  23.591  25.415  1.00  0.00    -0.253 NA
ENDBRANCH  18  20
ENDBRANCH   9  18
BRANCH  17  27
ATOM     27  C   UNL A   1      29.025  30.165  23.001  1.00  0.00    -0.013 C 
ATOM     28  C   UNL A   1      29.711  30.317  21.626  1.00  0.00     0.016 C 
ATOM     29  C   UNL A   1      27.520  30.485  22.856  1.00  0.00     0.016 C 
ATOM     30  C   UNL A   1      29.628  31.234  23.939  1.00  0.00     0.016 C 
ENDBRANCH  17  27
ENDBRANCH   7   8
ENDBRANCH   4   7
ENDBRANCH   2   3
ENDBRANCH   1   2
BRANCH   1  31
ATOM     31  C   UNL A   1      31.690  32.138  26.862  1.00  0.00     0.023 C 
BRANCH  31  32
ATOM     32  C   UNL A   1      32.903  32.898  27.388  1.00  0.00     0.116 C 
BRANCH  32  33
ATOM     33  N   UNL A   1      32.601  34.264  27.783  1.00  0.00    -0.352 N 
ATOM     34  C   UNL A   1      33.172  35.025  28.781  1.00  0.00     0.251 C 
ATOM     35  H   UNL A   1      31.891  34.708  27.266  1.00  0.00     0.163 HD
ATOM     36  O   UNL A   1      32.728  36.132  29.032  1.00  0.00    -0.269 OA
BRANCH  34  37
ATOM     37  C   UNL A   1      34.297  34.473  29.575  1.00  0.00     0.039 A 
ATOM     38  C   UNL A   1      34.009  33.871  30.804  1.00  0.00     0.014 A 
ATOM     39  C   UNL A   1      35.617  34.543  29.120  1.00  0.00     0.014 A 
ATOM     40  C   UNL A   1      35.034  33.274  31.542  1.00  0.00     0.010 A 
ATOM     41  C   UNL A   1      36.631  33.907  29.833  1.00  0.00     0.010 A 
ATOM     42  C   UNL A   1      36.347  33.260  31.044  1.00  0.00    -0.014 A 
BRANCH  42  43
ATOM     43  C   UNL A   1      37.433  32.555  31.767  1.00  0.00     0.031 A 
ATOM     44  C   UNL A   1      37.905  33.056  33.100  1.00  0.00     0.074 A 
ATOM     45  C   UNL A   1      38.042  31.505  31.186  1.00  0.00     0.049 A 
ATOM     46  N   UNL A   1      38.892  32.624  33.841  1.00  0.00    -0.248 NA
ATOM     47  C   UNL A   1      37.183  34.205  33.666  1.00  0.00     0.031 C 
ATOM     48  C   UNL A   1      37.698  30.945  29.877  1.00  0.00     0.029 A 
ATOM     49  N   UNL A   1      39.086  30.726  31.618  1.00  0.00    -0.354 N 
ATOM     50  C   UNL A   1      38.932  33.464  34.945  1.00  0.00     0.074 A 
ATOM     51  C   UNL A   1      37.879  34.443  34.769  1.00  0.00     0.031 C 
ATOM     52  C   UNL A   1      38.501  29.897  29.624  1.00  0.00     0.029 A 
ATOM     53  C   UNL A   1      39.432  29.732  30.737  1.00  0.00     0.049 A 
ATOM     54  H   UNL A   1      39.542  30.866  32.479  1.00  0.00     0.167 HD
ATOM     55  C   UNL A   1      39.764  33.421  36.014  1.00  0.00     0.037 A 
ATOM     56  C   UNL A   1      40.392  28.791  30.815  1.00  0.00     0.037 A 
ATOM     57  C   UNL A   1      40.788  32.430  36.209  1.00  0.00     0.049 A 
ATOM     58  C   UNL A   1      41.287  28.746  32.020  1.00  0.00     0.074 A 
ATOM     59  C   UNL A   1      41.640  32.268  37.287  1.00  0.00     0.029 A 
ATOM     60  N   UNL A   1      41.097  31.428  35.300  1.00  0.00    -0.354 N 
ATOM     61  N   UNL A   1      41.288  29.527  33.073  1.00  0.00    -0.248 NA
ATOM     62  C   UNL A   1      42.311  27.694  32.046  1.00  0.00     0.031 C 
ATOM     63  C   UNL A   1      42.474  31.173  37.025  1.00  0.00     0.029 A 
ATOM     64  C   UNL A   1      42.131  30.647  35.790  1.00  0.00     0.049 A 
ATOM     65  H   UNL A   1      40.648  31.292  34.436  1.00  0.00     0.167 HD
ATOM     66  C   UNL A   1      42.303  29.054  33.895  1.00  0.00     0.074 A 
ATOM     67  C   UNL A   1      42.893  27.917  33.218  1.00  0.00     0.031 C 
ATOM     68  C   UNL A   1      42.706  29.518  35.103  1.00  0.00     0.037 A 
BRANCH  55  69
ATOM     69  C   UNL A   1      39.590  34.496  37.044  1.00  0.00     0.058 A 
ATOM     70  C   UNL A   1      40.203  35.751  36.904  1.00  0.00     0.135 A 
ATOM     71  C   UNL A   1      38.837  34.256  38.204  1.00  0.00     0.135 A 
ATOM     72  F   UNL A   1      40.948  36.020  35.820  1.00  0.00    -0.206 F 
ATOM     73  C   UNL A   1      40.112  36.718  37.899  1.00  0.00     0.059 A 
ATOM     74  C   UNL A   1      38.719  35.215  39.204  1.00  0.00     0.059 A 
ATOM     75  F   UNL A   1      38.234  33.070  38.386  1.00  0.00    -0.206 F 
ATOM     76  C   UNL A   1      39.382  36.434  39.054  1.00  0.00     0.060 A 
BRANCH  76  77
ATOM     77  S   UNL A   1      39.307  37.665  40.373  1.00  0.00     0.124 S 
ATOM     78  O   UNL A   1      40.607  38.313  40.236  1.00  0.00    -0.237 OA
ATOM     79  O   UNL A   1      38.153  38.476  39.995  1.00  0.00    -0.237 OA
ATOM     80  O   UNL A   1      39.129  36.855  41.573  1.00  0.00    -0.744 OA
ENDBRANCH  76  77
ENDBRANCH  55  69
BRANCH  56  81
ATOM     81  C   UNL A   1      40.521  27.790  29.730  1.00  0.00     0.058 A 
ATOM     82  C   UNL A   1      39.590  26.750  29.610  1.00  0.00     0.135 A 
ATOM     83  C   UNL A   1      41.535  27.883  28.766  1.00  0.00     0.135 A 
ATOM     84  F   UNL A   1      38.606  26.625  30.514  1.00  0.00    -0.206 F 
ATOM     85  C   UNL A   1      39.652  25.837  28.565  1.00  0.00     0.059 A 
ATOM     86  C   UNL A   1      41.612  26.987  27.705  1.00  0.00     0.059 A 
ATOM     87  F   UNL A   1      42.441  28.872  28.837  1.00  0.00    -0.206 F 
ATOM     88  C   UNL A   1      40.665  25.966  27.614  1.00  0.00     0.060 A 
BRANCH  88  89
ATOM     89  S   UNL A   1      40.691  24.830  26.209  1.00  0.00     0.124 S 
ATOM     90  O   UNL A   1      39.288  24.440  26.122  1.00  0.00    -0.237 OA
ATOM     91  O   UNL A   1      41.184  25.679  25.129  1.00  0.00    -0.237 OA
ATOM     92  O   UNL A   1      41.614  23.786  26.644  1.00  0.00    -0.744 OA
ENDBRANCH  88  89
ENDBRANCH  56  81
BRANCH  68  93
ATOM     93  C   UNL A   1      43.825  28.783  35.775  1.00  0.00     0.058 A 
ATOM     94  C   UNL A   1      43.576  27.696  36.626  1.00  0.00     0.135 A 
ATOM     95  C   UNL A   1      45.160  29.148  35.541  1.00  0.00     0.135 A 
ATOM     96  F   UNL A   1      42.314  27.317  36.885  1.00  0.00    -0.206 F 
ATOM     97  C   UNL A   1      44.615  26.998  37.232  1.00  0.00     0.059 A 
ATOM     98  C   UNL A   1      46.215  28.457  36.128  1.00  0.00     0.059 A 
ATOM     99  F   UNL A   1      45.446  30.180  34.734  1.00  0.00    -0.206 F 
ATOM    100  C   UNL A   1      45.931  27.389  36.980  1.00  0.00     0.060 A 
BRANCH 100 101
ATOM    101  S   UNL A   1      47.283  26.464  37.741  1.00  0.00     0.124 S 
ATOM    102  O   UNL A   1      46.773  25.097  37.678  1.00  0.00    -0.237 OA
ATOM    103  O   UNL A   1      48.410  26.760  36.862  1.00  0.00    -0.237 OA
ATOM    104  O   UNL A   1      47.372  27.042  39.079  1.00  0.00    -0.744 OA
ENDBRANCH 100 101
ENDBRANCH  68  93
ENDBRANCH  42  43
ENDBRANCH  34  37
ENDBRANCH  32  33
ENDBRANCH  31  32
ENDBRANCH   1  31
TORSDOF 18
ENDMDL
MODEL 2
REMARK VINA RESULT:     -12.8      2.393      8.971
REMARK SMILES Cc1ccnc(C(=O)c2[nH]c3ccc(C(C)(C)C)cc3c2CC(=O)NCCCCNC(=O)c2ccc(-c3c4nc(c(-c5c(F)cc(S(=O)(=O)[O-])cc5F)c5ccc([nH]5)c(-c5c(F)cc(S(=O)(=O)[O-])cc5F)c5nc(c(-c6c(F)cc(S(=O)(=O)[O-])cc6F)c6ccc3[nH]6)C=C5)C=C4)cc2)c1
REMARK SMILES IDX 27 1 26 2 25 3 23 4 24 5 22 7 21 8 9 9 10 10 11 11 20 13
REMARK SMILES IDX 12 14 19 15 13 16 14 17 7 18 8 19 6 20 1 21 2 22 3 23 99 24
REMARK SMILES IDX 4 25 5 26 15 27 16 28 17 29 18 30 28 31 29 32 30 33 31 34
REMARK SMILES IDX 32 36 33 37 34 38 98 39 35 40 97 41 36 42 37 43 38 44 91 45
REMARK SMILES IDX 39 46 96 47 90 48 92 49 40 50 95 51 89 52 88 53 41 55 75 56
REMARK SMILES IDX 54 57 74 58 55 59 58 60 73 61 93 62 56 63 57 64 72 66 94 67
REMARK SMILES IDX 59 68 42 69 43 70 52 71 44 72 45 73 51 74 53 75 46 76 47 77
REMARK SMILES IDX 48 78 49 79 50 80 76 81 77 82 86 83 78 84 79 85 85 86 87 87
REMARK SMILES IDX 80 88 81 89 82 90 83 91 84 92 60 93 61 94 70 95 62 96 63 97
REMARK SMILES IDX 69 98 71 99 64 100 65 101 66 102 67 103 68 104
REMARK H PARENT 25 6 10 12 30 35 92 54 58 65
REMARK Flexibility Score: inf
ROOT
ATOM      1  C   UNL A   1      36.061  23.880  24.964  1.00  0.00     0.023 C 
ENDROOT
BRANCH   1   2
ATOM      2  C   UNL A   1      34.822  24.231  25.786  1.00  0.00     0.116 C 
BRANCH   2   3
ATOM      3  N   UNL A   1      34.515  23.244  26.801  1.00  0.00    -0.356 N 
ATOM      4  C   UNL A   1      33.299  22.821  27.258  1.00  0.00     0.224 C 
ATOM      5  O   UNL A   1      33.270  21.839  28.005  1.00  0.00    -0.275 OA
ATOM      6  H   UNL A   1      35.295  22.817  27.222  1.00  0.00     0.163 HD
BRANCH   4   7
ATOM      7  C   UNL A   1      32.007  23.448  26.755  1.00  0.00     0.138 C 
BRANCH   7   8
ATOM      8  C   UNL A   1      31.713  23.241  25.296  1.00  0.00    -0.002 A 
ATOM      9  C   UNL A   1      31.142  24.149  24.409  1.00  0.00     0.093 A 
ATOM     10  N   UNL A   1      31.170  23.574  23.159  1.00  0.00    -0.352 N 
ATOM     11  C   UNL A   1      31.621  22.279  23.229  1.00  0.00     0.046 A 
ATOM     12  H   UNL A   1      30.904  24.029  22.328  1.00  0.00     0.167 HD
ATOM     13  C   UNL A   1      31.950  22.033  24.556  1.00  0.00     0.004 A 
ATOM     14  C   UNL A   1      31.791  21.327  22.223  1.00  0.00     0.027 A 
ATOM     15  C   UNL A   1      32.465  20.761  24.889  1.00  0.00     0.015 A 
ATOM     16  C   UNL A   1      32.316  20.078  22.585  1.00  0.00     0.006 A 
ATOM     17  C   UNL A   1      32.663  19.765  23.908  1.00  0.00    -0.042 A 
BRANCH   9  18
ATOM     18  C   UNL A   1      30.689  25.509  24.651  1.00  0.00     0.227 C 
ATOM     19  O   UNL A   1      29.520  25.743  24.940  1.00  0.00    -0.285 OA
BRANCH  18  20
ATOM     20  C   UNL A   1      31.698  26.632  24.566  1.00  0.00     0.113 A 
ATOM     21  C   UNL A   1      32.471  30.064  25.989  1.00  0.00     0.044 C 
ATOM     22  C   UNL A   1      32.553  28.795  25.195  1.00  0.00    -0.047 A 
ATOM     23  C   UNL A   1      33.587  28.605  24.277  1.00  0.00     0.023 A 
ATOM     24  C   UNL A   1      31.605  27.779  25.354  1.00  0.00     0.036 A 
ATOM     25  C   UNL A   1      33.620  27.429  23.549  1.00  0.00     0.112 A 
ATOM     26  N   UNL A   1      32.697  26.453  23.664  1.00  0.00    -0.253 NA
ENDBRANCH  18  20
ENDBRANCH   9  18
BRANCH  17  27
ATOM     27  C   UNL A   1      33.276  18.411  24.311  1.00  0.00    -0.013 C 
ATOM     28  C   UNL A   1      32.562  17.888  25.576  1.00  0.00     0.016 C 
ATOM     29  C   UNL A   1      33.099  17.388  23.167  1.00  0.00     0.016 C 
ATOM     30  C   UNL A   1      34.787  18.480  24.628  1.00  0.00     0.016 C 
ENDBRANCH  17  27
ENDBRANCH   7   8
ENDBRANCH   4   7
ENDBRANCH   2   3
ENDBRANCH   1   2
BRANCH   1  31
ATOM     31  C   UNL A   1      37.205  23.224  25.742  1.00  0.00     0.023 C 
BRANCH  31  32
ATOM     32  C   UNL A   1      38.192  24.182  26.400  1.00  0.00     0.116 C 
BRANCH  32  33
ATOM     33  N   UNL A   1      39.577  23.762  26.270  1.00  0.00    -0.352 N 
ATOM     34  C   UNL A   1      40.708  24.312  26.835  1.00  0.00     0.251 C 
ATOM     35  H   UNL A   1      39.730  22.974  25.700  1.00  0.00     0.163 HD
ATOM     36  O   UNL A   1      41.808  23.878  26.542  1.00  0.00    -0.269 OA
BRANCH  34  37
ATOM     37  C   UNL A   1      40.581  25.463  27.763  1.00  0.00     0.039 A 
ATOM     38  C   UNL A   1      39.481  25.501  28.626  1.00  0.00     0.014 A 
ATOM     39  C   UNL A   1      41.528  26.490  27.789  1.00  0.00     0.014 A 
ATOM     40  C   UNL A   1      39.370  26.530  29.565  1.00  0.00     0.010 A 
ATOM     41  C   UNL A   1      41.443  27.489  28.756  1.00  0.00     0.010 A 
ATOM     42  C   UNL A   1      40.368  27.512  29.657  1.00  0.00    -0.014 A 
BRANCH  42  43
ATOM     43  C   UNL A   1      40.317  28.562  30.704  1.00  0.00     0.031 A 
ATOM     44  C   UNL A   1      41.236  28.495  31.888  1.00  0.00     0.074 A 
ATOM     45  C   UNL A   1      39.392  29.535  30.621  1.00  0.00     0.049 A 
ATOM     46  N   UNL A   1      41.283  29.270  32.940  1.00  0.00    -0.248 NA
ATOM     47  C   UNL A   1      42.220  27.401  31.898  1.00  0.00     0.031 C 
ATOM     48  C   UNL A   1      38.418  29.688  29.538  1.00  0.00     0.029 A 
ATOM     49  N   UNL A   1      39.113  30.577  31.470  1.00  0.00    -0.354 N 
ATOM     50  C   UNL A   1      42.278  28.744  33.753  1.00  0.00     0.074 A 
ATOM     51  C   UNL A   1      42.798  27.571  33.079  1.00  0.00     0.031 C 
ATOM     52  C   UNL A   1      37.665  30.775  29.776  1.00  0.00     0.029 A 
ATOM     53  C   UNL A   1      38.082  31.376  31.040  1.00  0.00     0.049 A 
ATOM     54  H   UNL A   1      39.606  30.736  32.307  1.00  0.00     0.167 HD
ATOM     55  C   UNL A   1      42.724  29.198  34.949  1.00  0.00     0.037 A 
ATOM     56  C   UNL A   1      37.534  32.470  31.601  1.00  0.00     0.037 A 
ATOM     57  C   UNL A   1      42.234  30.381  35.605  1.00  0.00     0.049 A 
ATOM     58  C   UNL A   1      38.061  32.972  32.914  1.00  0.00     0.074 A 
ATOM     59  C   UNL A   1      42.666  30.955  36.788  1.00  0.00     0.029 A 
ATOM     60  N   UNL A   1      41.200  31.174  35.129  1.00  0.00    -0.354 N 
ATOM     61  N   UNL A   1      39.027  32.482  33.653  1.00  0.00    -0.248 NA
ATOM     62  C   UNL A   1      37.422  34.171  33.470  1.00  0.00     0.031 C 
ATOM     63  C   UNL A   1      41.882  32.091  37.034  1.00  0.00     0.029 A 
ATOM     64  C   UNL A   1      40.974  32.229  35.997  1.00  0.00     0.049 A 
ATOM     65  H   UNL A   1      40.701  31.011  34.297  1.00  0.00     0.167 HD
ATOM     66  C   UNL A   1      39.123  33.321  34.756  1.00  0.00     0.074 A 
ATOM     67  C   UNL A   1      38.117  34.351  34.586  1.00  0.00     0.031 C 
ATOM     68  C   UNL A   1      39.970  33.246  35.811  1.00  0.00     0.037 A 
BRANCH  55  69
ATOM     69  C   UNL A   1      43.797  28.390  35.617  1.00  0.00     0.058 A 
ATOM     70  C   UNL A   1      45.157  28.659  35.400  1.00  0.00     0.135 A 
ATOM     71  C   UNL A   1      43.461  27.310  36.447  1.00  0.00     0.135 A 
ATOM     72  F   UNL A   1      45.525  29.671  34.599  1.00  0.00    -0.206 F 
ATOM     73  C   UNL A   1      46.151  27.858  35.951  1.00  0.00     0.059 A 
ATOM     74  C   UNL A   1      44.440  26.505  37.021  1.00  0.00     0.059 A 
ATOM     75  F   UNL A   1      42.174  27.011  36.682  1.00  0.00    -0.206 F 
ATOM     76  C   UNL A   1      45.782  26.772  36.747  1.00  0.00     0.060 A 
BRANCH  76  77
ATOM     77  S   UNL A   1      47.066  25.695  37.418  1.00  0.00     0.124 S 
ATOM     78  O   UNL A   1      48.227  26.109  36.634  1.00  0.00    -0.237 OA
ATOM     79  O   UNL A   1      47.093  26.063  38.830  1.00  0.00    -0.237 OA
ATOM     80  O   UNL A   1      46.559  24.357  37.135  1.00  0.00    -0.744 OA
ENDBRANCH  76  77
ENDBRANCH  55  69
BRANCH  56  81
ATOM     81  C   UNL A   1      36.448  33.186  30.890  1.00  0.00     0.058 A 
ATOM     82  C   UNL A   1      35.129  33.119  31.360  1.00  0.00     0.135 A 
ATOM     83  C   UNL A   1      36.711  33.989  29.771  1.00  0.00     0.135 A 
ATOM     84  F   UNL A   1      34.836  32.360  32.426  1.00  0.00    -0.206 F 
ATOM     85  C   UNL A   1      34.105  33.831  30.749  1.00  0.00     0.059 A 
ATOM     86  C   UNL A   1      35.704  34.720  29.149  1.00  0.00     0.059 A 
ATOM     87  F   UNL A   1      37.962  34.091  29.297  1.00  0.00    -0.206 F 
ATOM     88  C   UNL A   1      34.402  34.633  29.646  1.00  0.00     0.060 A 
BRANCH  88  89
ATOM     89  S   UNL A   1      33.084  35.625  28.909  1.00  0.00     0.124 S 
ATOM     90  O   UNL A   1      32.441  34.653  28.033  1.00  0.00    -0.237 OA
ATOM     91  O   UNL A   1      32.313  36.038  30.078  1.00  0.00    -0.237 OA
ATOM     92  O   UNL A   1      33.812  36.699  28.240  1.00  0.00    -0.744 OA
ENDBRANCH  88  89
ENDBRANCH  56  81
BRANCH  68  93
ATOM     93  C   UNL A   1      39.856  34.318  36.852  1.00  0.00     0.058 A 
ATOM     94  C   UNL A   1      40.589  35.510  36.754  1.00  0.00     0.135 A 
ATOM     95  C   UNL A   1      38.982  34.166  37.940  1.00  0.00     0.135 A 
ATOM     96  F   UNL A   1      41.444  35.695  35.735  1.00  0.00    -0.206 F 
ATOM     97  C   UNL A   1      40.468  36.515  37.707  1.00  0.00     0.059 A 
ATOM     98  C   UNL A   1      38.837  35.163  38.898  1.00  0.00     0.059 A 
ATOM     99  F   UNL A   1      38.259  33.044  38.074  1.00  0.00    -0.206 F 
ATOM    100  C   UNL A   1      39.591  36.331  38.778  1.00  0.00     0.060 A 
BRANCH 100 101
ATOM    101  S   UNL A   1      39.408  37.649  39.999  1.00  0.00     0.124 S 
ATOM    102  O   UNL A   1      38.165  38.280  39.564  1.00  0.00    -0.237 OA
ATOM    103  O   UNL A   1      39.337  36.914  41.259  1.00  0.00    -0.237 OA
ATOM    104  O   UNL A   1      40.617  38.446  39.815  1.00  0.00    -0.744 OA
ENDBRANCH 100 101
ENDBRANCH  68  93
ENDBRANCH  42  43
ENDBRANCH  34  37
ENDBRANCH  32  33
ENDBRANCH  31  32
ENDBRANCH   1  31
TORSDOF 18
ENDMDL
MODEL 3
REMARK VINA RESULT:     -12.7      4.565      5.969
REMARK SMILES Cc1ccnc(C(=O)c2[nH]c3ccc(C(C)(C)C)cc3c2CC(=O)NCCCCNC(=O)c2ccc(-c3c4nc(c(-c5c(F)cc(S(=O)(=O)[O-])cc5F)c5ccc([nH]5)c(-c5c(F)cc(S(=O)(=O)[O-])cc5F)c5nc(c(-c6c(F)cc(S(=O)(=O)[O-])cc6F)c6ccc3[nH]6)C=C5)C=C4)cc2)c1
REMARK SMILES IDX 27 1 26 2 25 3 23 4 24 5 22 7 21 8 9 9 10 10 11 11 20 13
REMARK SMILES IDX 12 14 19 15 13 16 14 17 7 18 8 19 6 20 1 21 2 22 3 23 99 24
REMARK SMILES IDX 4 25 5 26 15 27 16 28 17 29 18 30 28 31 29 32 30 33 31 34
REMARK SMILES IDX 32 36 33 37 34 38 98 39 35 40 97 41 36 42 37 43 38 44 91 45
REMARK SMILES IDX 39 46 96 47 90 48 92 49 40 50 95 51 89 52 88 53 41 55 75 56
REMARK SMILES IDX 54 57 74 58 55 59 58 60 73 61 93 62 56 63 57 64 72 66 94 67
REMARK SMILES IDX 59 68 42 69 43 70 52 71 44 72 45 73 51 74 53 75 46 76 47 77
REMARK SMILES IDX 48 78 49 79 50 80 76 81 77 82 86 83 78 84 79 85 85 86 87 87
REMARK SMILES IDX 80 88 81 89 82 90 83 91 84 92 60 93 61 94 70 95 62 96 63 97
REMARK SMILES IDX 69 98 71 99 64 100 65 101 66 102 67 103 68 104
REMARK H PARENT 25 6 10 12 30 35 92 54 58 65
REMARK Flexibility Score: inf
ROOT
ATOM      1  C   UNL A   1      32.111  26.228  26.446  1.00  0.00     0.023 C 
ENDROOT
BRANCH   1   2
ATOM      2  C   UNL A   1      30.751  25.624  26.101  1.00  0.00     0.116 C 
BRANCH   2   3
ATOM      3  N   UNL A   1      30.809  24.198  25.850  1.00  0.00    -0.356 N 
ATOM      4  C   UNL A   1      30.767  23.525  24.663  1.00  0.00     0.224 C 
ATOM      5  O   UNL A   1      31.011  22.315  24.673  1.00  0.00    -0.275 OA
ATOM      6  H   UNL A   1      30.890  23.634  26.653  1.00  0.00     0.163 HD
BRANCH   4   7
ATOM      7  C   UNL A   1      30.566  24.261  23.346  1.00  0.00     0.138 C 
BRANCH   7   8
ATOM      8  C   UNL A   1      31.640  25.249  22.987  1.00  0.00    -0.002 A 
ATOM      9  C   UNL A   1      32.990  24.991  22.768  1.00  0.00     0.093 A 
ATOM     10  N   UNL A   1      33.569  26.169  22.353  1.00  0.00    -0.352 N 
ATOM     11  C   UNL A   1      32.670  27.203  22.420  1.00  0.00     0.046 A 
ATOM     12  H   UNL A   1      34.501  26.256  22.050  1.00  0.00     0.167 HD
ATOM     13  C   UNL A   1      31.457  26.665  22.832  1.00  0.00     0.004 A 
ATOM     14  C   UNL A   1      32.827  28.557  22.118  1.00  0.00     0.027 A 
ATOM     15  C   UNL A   1      30.351  27.533  22.958  1.00  0.00     0.015 A 
ATOM     16  C   UNL A   1      31.706  29.390  22.241  1.00  0.00     0.006 A 
ATOM     17  C   UNL A   1      30.456  28.910  22.658  1.00  0.00    -0.042 A 
BRANCH   9  18
ATOM     18  C   UNL A   1      33.705  23.727  22.826  1.00  0.00     0.227 C 
ATOM     19  O   UNL A   1      33.433  22.813  22.054  1.00  0.00    -0.285 OA
BRANCH  18  20
ATOM     20  C   UNL A   1      34.813  23.570  23.841  1.00  0.00     0.113 A 
ATOM     21  C   UNL A   1      37.650  21.251  24.829  1.00  0.00     0.044 C 
ATOM     22  C   UNL A   1      36.689  22.401  24.801  1.00  0.00    -0.047 A 
ATOM     23  C   UNL A   1      36.757  23.398  25.776  1.00  0.00     0.023 A 
ATOM     24  C   UNL A   1      35.712  22.503  23.806  1.00  0.00     0.036 A 
ATOM     25  C   UNL A   1      35.842  24.435  25.728  1.00  0.00     0.112 A 
ATOM     26  N   UNL A   1      34.872  24.533  24.797  1.00  0.00    -0.253 NA
ENDBRANCH  18  20
ENDBRANCH   9  18
BRANCH  17  27
ATOM     27  C   UNL A   1      29.209  29.807  22.761  1.00  0.00    -0.013 C 
ATOM     28  C   UNL A   1      29.400  30.810  23.919  1.00  0.00     0.016 C 
ATOM     29  C   UNL A   1      29.007  30.586  21.442  1.00  0.00     0.016 C 
ATOM     30  C   UNL A   1      27.902  29.030  23.033  1.00  0.00     0.016 C 
ENDBRANCH  17  27
ENDBRANCH   7   8
ENDBRANCH   4   7
ENDBRANCH   2   3
ENDBRANCH   1   2
BRANCH   1  31
ATOM     31  C   UNL A   1      32.143  27.753  26.569  1.00  0.00     0.023 C 
BRANCH  31  32
ATOM     32  C   UNL A   1      33.420  28.342  27.159  1.00  0.00     0.116 C 
BRANCH  32  33
ATOM     33  N   UNL A   1      33.301  29.749  27.503  1.00  0.00    -0.352 N 
ATOM     34  C   UNL A   1      34.248  30.595  28.039  1.00  0.00     0.251 C 
ATOM     35  H   UNL A   1      32.421  30.156  27.328  1.00  0.00     0.163 HD
ATOM     36  O   UNL A   1      33.943  31.734  28.348  1.00  0.00    -0.269 OA
BRANCH  34  37
ATOM     37  C   UNL A   1      35.625  30.099  28.280  1.00  0.00     0.039 A 
ATOM     38  C   UNL A   1      36.543  30.149  27.225  1.00  0.00     0.014 A 
ATOM     39  C   UNL A   1      36.013  29.592  29.523  1.00  0.00     0.014 A 
ATOM     40  C   UNL A   1      37.867  29.760  27.438  1.00  0.00     0.010 A 
ATOM     41  C   UNL A   1      37.345  29.250  29.748  1.00  0.00     0.010 A 
ATOM     42  C   UNL A   1      38.284  29.339  28.711  1.00  0.00    -0.014 A 
BRANCH  42  43
ATOM     43  C   UNL A   1      39.704  29.008  28.982  1.00  0.00     0.031 A 
ATOM     44  C   UNL A   1      40.623  30.039  29.569  1.00  0.00     0.074 A 
ATOM     45  C   UNL A   1      40.181  27.800  28.632  1.00  0.00     0.049 A 
ATOM     46  N   UNL A   1      41.908  29.963  29.799  1.00  0.00    -0.248 NA
ATOM     47  C   UNL A   1      40.020  31.333  29.926  1.00  0.00     0.031 C 
ATOM     48  C   UNL A   1      39.396  26.725  28.022  1.00  0.00     0.029 A 
ATOM     49  N   UNL A   1      41.445  27.275  28.732  1.00  0.00    -0.354 N 
ATOM     50  C   UNL A   1      42.276  31.205  30.300  1.00  0.00     0.074 A 
ATOM     51  C   UNL A   1      41.081  32.022  30.323  1.00  0.00     0.031 C 
ATOM     52  C   UNL A   1      40.191  25.660  27.824  1.00  0.00     0.029 A 
ATOM     53  C   UNL A   1      41.544  25.988  28.265  1.00  0.00     0.049 A 
ATOM     54  H   UNL A   1      42.207  27.774  29.105  1.00  0.00     0.167 HD
ATOM     55  C   UNL A   1      43.498  31.625  30.710  1.00  0.00     0.037 A 
ATOM     56  C   UNL A   1      42.607  25.163  28.199  1.00  0.00     0.037 A 
ATOM     57  C   UNL A   1      44.680  30.805  30.721  1.00  0.00     0.049 A 
ATOM     58  C   UNL A   1      43.945  25.640  28.683  1.00  0.00     0.074 A 
ATOM     59  C   UNL A   1      45.947  31.123  31.175  1.00  0.00     0.029 A 
ATOM     60  N   UNL A   1      44.736  29.500  30.255  1.00  0.00    -0.354 N 
ATOM     61  N   UNL A   1      44.269  26.807  29.187  1.00  0.00    -0.248 NA
ATOM     62  C   UNL A   1      45.062  24.691  28.586  1.00  0.00     0.031 C 
ATOM     63  C   UNL A   1      46.776  30.010  30.971  1.00  0.00     0.029 A 
ATOM     64  C   UNL A   1      46.018  28.999  30.404  1.00  0.00     0.049 A 
ATOM     65  H   UNL A   1      43.977  29.002  29.874  1.00  0.00     0.167 HD
ATOM     66  C   UNL A   1      45.624  26.728  29.482  1.00  0.00     0.074 A 
ATOM     67  C   UNL A   1      46.059  25.399  29.101  1.00  0.00     0.031 C 
ATOM     68  C   UNL A   1      46.433  27.672  30.021  1.00  0.00     0.037 A 
BRANCH  55  69
ATOM     69  C   UNL A   1      43.598  33.048  31.172  1.00  0.00     0.058 A 
ATOM     70  C   UNL A   1      44.017  34.070  30.307  1.00  0.00     0.135 A 
ATOM     71  C   UNL A   1      43.313  33.385  32.504  1.00  0.00     0.135 A 
ATOM     72  F   UNL A   1      44.319  33.791  29.029  1.00  0.00    -0.206 F 
ATOM     73  C   UNL A   1      44.192  35.374  30.758  1.00  0.00     0.059 A 
ATOM     74  C   UNL A   1      43.465  34.687  32.972  1.00  0.00     0.059 A 
ATOM     75  F   UNL A   1      42.912  32.442  33.371  1.00  0.00    -0.206 F 
ATOM     76  C   UNL A   1      43.930  35.669  32.096  1.00  0.00     0.060 A 
BRANCH  76  77
ATOM     77  S   UNL A   1      44.209  37.348  32.699  1.00  0.00     0.124 S 
ATOM     78  O   UNL A   1      45.639  37.314  32.993  1.00  0.00    -0.237 OA
ATOM     79  O   UNL A   1      43.818  38.172  31.559  1.00  0.00    -0.237 OA
ATOM     80  O   UNL A   1      43.328  37.435  33.859  1.00  0.00    -0.744 OA
ENDBRANCH  76  77
ENDBRANCH  55  69
BRANCH  56  81
ATOM     81  C   UNL A   1      42.426  23.783  27.689  1.00  0.00     0.058 A 
ATOM     82  C   UNL A   1      42.396  23.535  26.310  1.00  0.00     0.135 A 
ATOM     83  C   UNL A   1      42.337  22.688  28.560  1.00  0.00     0.135 A 
ATOM     84  F   UNL A   1      42.476  24.556  25.444  1.00  0.00    -0.206 F 
ATOM     85  C   UNL A   1      42.292  22.244  25.807  1.00  0.00     0.059 A 
ATOM     86  C   UNL A   1      42.243  21.385  28.080  1.00  0.00     0.059 A 
ATOM     87  F   UNL A   1      42.374  22.880  29.888  1.00  0.00    -0.206 F 
ATOM     88  C   UNL A   1      42.220  21.174  26.701  1.00  0.00     0.060 A 
BRANCH  88  89
ATOM     89  S   UNL A   1      42.173  19.492  26.042  1.00  0.00     0.124 S 
ATOM     90  O   UNL A   1      42.650  18.718  27.183  1.00  0.00    -0.237 OA
ATOM     91  O   UNL A   1      40.763  19.328  25.706  1.00  0.00    -0.237 OA
ATOM     92  O   UNL A   1      43.077  19.559  24.898  1.00  0.00    -0.744 OA
ENDBRANCH  88  89
ENDBRANCH  56  81
BRANCH  68  93
ATOM     93  C   UNL A   1      47.864  27.292  30.249  1.00  0.00     0.058 A 
ATOM     94  C   UNL A   1      48.860  27.604  29.312  1.00  0.00     0.135 A 
ATOM     95  C   UNL A   1      48.250  26.639  31.431  1.00  0.00     0.135 A 
ATOM     96  F   UNL A   1      48.537  28.221  28.164  1.00  0.00    -0.206 F 
ATOM     97  C   UNL A   1      50.193  27.272  29.533  1.00  0.00     0.059 A 
ATOM     98  C   UNL A   1      49.577  26.307  31.677  1.00  0.00     0.059 A 
ATOM     99  F   UNL A   1      47.332  26.322  32.357  1.00  0.00    -0.206 F 
ATOM    100  C   UNL A   1      50.541  26.620  30.718  1.00  0.00     0.060 A 
BRANCH 100 101
ATOM    101  S   UNL A   1      52.275  26.218  31.021  1.00  0.00     0.124 S 
ATOM    102  O   UNL A   1      52.802  26.149  29.661  1.00  0.00    -0.237 OA
ATOM    103  O   UNL A   1      52.733  27.350  31.821  1.00  0.00    -0.237 OA
ATOM    104  O   UNL A   1      52.203  24.945  31.734  1.00  0.00    -0.744 OA
ENDBRANCH 100 101
ENDBRANCH  68  93
ENDBRANCH  42  43
ENDBRANCH  34  37
ENDBRANCH  32  33
ENDBRANCH  31  32
ENDBRANCH   1  31
TORSDOF 18
ENDMDL
