MODEL 1
REMARK VINA RESULT:     -12.3      0.000      0.000
REMARK SMILES O=C(NCCCCNC(=O)c1cccc(Br)c1O[C@@H]1CCOC2(CCC2)C1)c1ccc(-c2c3nc(c(-c4c(F)cc(S(=O)(=O)[O-])cc4F)c4ccc([nH]4)c(-c4c(F)cc(S(=O)(=O)[O-])cc4F)c4nc(c(-c5c(F)cc(S(=O)(=O)[O-])cc5F)c5ccc2[nH]5)C=C4)C=C3)cc1
REMARK SMILES IDX 5 1 4 2 3 3 1 4 2 5 28 7 29 8 93 9 30 10 92 11 31 12 32 13
REMARK SMILES IDX 33 14 86 15 34 16 91 17 85 18 87 19 35 20 90 21 84 22 83 23
REMARK SMILES IDX 36 25 70 26 49 27 69 28 50 29 53 30 68 31 88 32 51 33 52 34
REMARK SMILES IDX 67 36 89 37 54 38 37 39 38 40 47 41 39 42 40 43 46 44 48 45
REMARK SMILES IDX 41 46 42 47 43 48 44 49 45 50 71 51 72 52 81 53 73 54 74 55
REMARK SMILES IDX 80 56 82 57 75 58 76 59 77 60 78 61 79 62 55 63 56 64 65 65
REMARK SMILES IDX 57 66 58 67 64 68 66 69 59 70 60 71 61 72 62 73 63 74 6 75
REMARK SMILES IDX 7 76 8 77 9 78 10 80 11 81 12 82 17 83 13 84 15 85 14 86
REMARK SMILES IDX 16 87 18 88 19 89 20 90 27 91 21 92 23 93 22 94 24 95 26 96
REMARK SMILES IDX 25 97
REMARK H PARENT 3 6 87 24 53 35 8 79
REMARK Flexibility Score: inf
ROOT
ATOM      1  C   UNL A   1      40.139  22.317  27.534  1.00  0.00     0.023 C 
ENDROOT
BRANCH   1   2
ATOM      2  C   UNL A   1      41.514  22.971  27.492  1.00  0.00     0.116 C 
BRANCH   2   3
ATOM      3  N   UNL A   1      41.731  23.743  26.277  1.00  0.00    -0.352 N 
ATOM      4  O   UNL A   1      41.723  25.574  24.960  1.00  0.00    -0.269 OA
ATOM      5  C   UNL A   1      41.674  25.106  26.095  1.00  0.00     0.251 C 
ATOM      6  H   UNL A   1      41.949  23.217  25.475  1.00  0.00     0.163 HD
BRANCH   5   7
ATOM      7  C   UNL A   1      41.529  26.000  27.265  1.00  0.00     0.039 A 
ATOM      8  C   UNL A   1      40.421  25.890  28.109  1.00  0.00     0.014 A 
ATOM      9  C   UNL A   1      42.511  26.961  27.516  1.00  0.00     0.014 A 
ATOM     10  C   UNL A   1      40.220  26.834  29.111  1.00  0.00     0.010 A 
ATOM     11  C   UNL A   1      42.352  27.850  28.584  1.00  0.00     0.010 A 
ATOM     12  C   UNL A   1      41.191  27.813  29.372  1.00  0.00    -0.014 A 
BRANCH  12  13
ATOM     13  C   UNL A   1      41.013  28.738  30.520  1.00  0.00     0.031 A 
ATOM     14  C   UNL A   1      41.851  28.612  31.760  1.00  0.00     0.074 A 
ATOM     15  C   UNL A   1      40.065  29.692  30.439  1.00  0.00     0.049 A 
ATOM     16  N   UNL A   1      41.791  29.304  32.869  1.00  0.00    -0.248 NA
ATOM     17  C   UNL A   1      42.885  27.566  31.762  1.00  0.00     0.031 C 
ATOM     18  C   UNL A   1      39.179  29.899  29.290  1.00  0.00     0.029 A 
ATOM     19  N   UNL A   1      39.678  30.656  31.334  1.00  0.00    -0.354 N 
ATOM     20  C   UNL A   1      42.759  28.768  33.710  1.00  0.00     0.074 A 
ATOM     21  C   UNL A   1      43.376  27.672  32.990  1.00  0.00     0.031 C 
ATOM     22  C   UNL A   1      38.362  30.931  29.543  1.00  0.00     0.029 A 
ATOM     23  C   UNL A   1      38.618  31.414  30.895  1.00  0.00     0.049 A 
ATOM     24  H   UNL A   1      40.117  30.794  32.204  1.00  0.00     0.167 HD
ATOM     25  C   UNL A   1      43.101  29.157  34.963  1.00  0.00     0.037 A 
ATOM     26  C   UNL A   1      37.898  32.364  31.521  1.00  0.00     0.037 A 
ATOM     27  C   UNL A   1      42.475  30.250  35.666  1.00  0.00     0.049 A 
ATOM     28  C   UNL A   1      38.271  32.758  32.920  1.00  0.00     0.074 A 
ATOM     29  C   UNL A   1      42.780  30.755  36.918  1.00  0.00     0.029 A 
ATOM     30  N   UNL A   1      41.402  30.993  35.188  1.00  0.00    -0.354 N 
ATOM     31  N   UNL A   1      39.225  32.278  33.681  1.00  0.00    -0.248 NA
ATOM     32  C   UNL A   1      37.476  33.822  33.547  1.00  0.00     0.031 C 
ATOM     33  C   UNL A   1      41.853  31.757  37.223  1.00  0.00     0.029 A 
ATOM     34  C   UNL A   1      41.012  31.927  36.135  1.00  0.00     0.049 A 
ATOM     35  H   UNL A   1      40.981  30.874  34.306  1.00  0.00     0.167 HD
ATOM     36  C   UNL A   1      39.159  32.993  34.871  1.00  0.00     0.074 A 
ATOM     37  C   UNL A   1      38.077  33.946  34.724  1.00  0.00     0.031 C 
ATOM     38  C   UNL A   1      39.931  32.872  35.978  1.00  0.00     0.037 A 
BRANCH  25  39
ATOM     39  C   UNL A   1      44.174  28.371  35.671  1.00  0.00     0.058 A 
ATOM     40  C   UNL A   1      43.883  27.237  36.448  1.00  0.00     0.135 A 
ATOM     41  C   UNL A   1      45.523  28.750  35.558  1.00  0.00     0.135 A 
ATOM     42  F   UNL A   1      42.613  26.829  36.598  1.00  0.00    -0.206 F 
ATOM     43  C   UNL A   1      44.880  26.541  37.127  1.00  0.00     0.059 A 
ATOM     44  C   UNL A   1      46.540  28.049  36.201  1.00  0.00     0.059 A 
ATOM     45  F   UNL A   1      45.866  29.819  34.822  1.00  0.00    -0.206 F 
ATOM     46  C   UNL A   1      46.205  26.961  37.004  1.00  0.00     0.060 A 
BRANCH  46  47
ATOM     47  S   UNL A   1      47.480  26.074  37.923  1.00  0.00     0.124 S 
ATOM     48  O   UNL A   1      48.206  27.177  38.547  1.00  0.00    -0.237 OA
ATOM     49  O   UNL A   1      46.693  25.243  38.828  1.00  0.00    -0.237 OA
ATOM     50  O   UNL A   1      48.210  25.351  36.886  1.00  0.00    -0.744 OA
ENDBRANCH  46  47
ENDBRANCH  25  39
BRANCH  26  51
ATOM     51  C   UNL A   1      36.741  32.974  30.815  1.00  0.00     0.058 A 
ATOM     52  C   UNL A   1      35.425  32.593  31.108  1.00  0.00     0.135 A 
ATOM     53  C   UNL A   1      36.932  34.010  29.886  1.00  0.00     0.135 A 
ATOM     54  F   UNL A   1      35.192  31.605  31.986  1.00  0.00    -0.206 F 
ATOM     55  C   UNL A   1      34.337  33.221  30.510  1.00  0.00     0.059 A 
ATOM     56  C   UNL A   1      35.861  34.672  29.297  1.00  0.00     0.059 A 
ATOM     57  F   UNL A   1      38.174  34.424  29.587  1.00  0.00    -0.206 F 
ATOM     58  C   UNL A   1      34.566  34.268  29.614  1.00  0.00     0.060 A 
BRANCH  58  59
ATOM     59  S   UNL A   1      33.145  35.134  28.914  1.00  0.00     0.124 S 
ATOM     60  O   UNL A   1      32.609  34.130  28.001  1.00  0.00    -0.237 OA
ATOM     61  O   UNL A   1      32.342  35.412  30.100  1.00  0.00    -0.237 OA
ATOM     62  O   UNL A   1      33.742  36.307  28.283  1.00  0.00    -0.744 OA
ENDBRANCH  58  59
ENDBRANCH  26  51
BRANCH  38  63
ATOM     63  C   UNL A   1      39.661  33.813  37.121  1.00  0.00     0.058 A 
ATOM     64  C   UNL A   1      38.847  33.449  38.206  1.00  0.00     0.135 A 
ATOM     65  C   UNL A   1      40.292  35.067  37.167  1.00  0.00     0.135 A 
ATOM     66  F   UNL A   1      38.210  32.268  38.206  1.00  0.00    -0.206 F 
ATOM     67  C   UNL A   1      38.666  34.298  39.293  1.00  0.00     0.059 A 
ATOM     68  C   UNL A   1      40.148  35.919  38.258  1.00  0.00     0.059 A 
ATOM     69  F   UNL A   1      41.084  35.463  36.158  1.00  0.00    -0.206 F 
ATOM     70  C   UNL A   1      39.328  35.527  39.315  1.00  0.00     0.060 A 
BRANCH  70  71
ATOM     71  S   UNL A   1      39.137  36.587  40.764  1.00  0.00     0.124 S 
ATOM     72  O   UNL A   1      38.517  37.772  40.183  1.00  0.00    -0.237 OA
ATOM     73  O   UNL A   1      38.281  35.780  41.628  1.00  0.00    -0.237 OA
ATOM     74  O   UNL A   1      40.507  36.765  41.238  1.00  0.00    -0.744 OA
ENDBRANCH  70  71
ENDBRANCH  38  63
ENDBRANCH  12  13
ENDBRANCH   5   7
ENDBRANCH   2   3
ENDBRANCH   1   2
BRANCH   1  75
ATOM     75  C   UNL A   1      39.463  22.147  26.177  1.00  0.00     0.023 C 
BRANCH  75  76
ATOM     76  C   UNL A   1      38.124  22.862  26.022  1.00  0.00     0.116 C 
BRANCH  76  77
ATOM     77  N   UNL A   1      37.773  23.143  24.635  1.00  0.00    -0.352 N 
ATOM     78  C   UNL A   1      36.621  22.837  23.940  1.00  0.00     0.255 C 
ATOM     79  H   UNL A   1      38.459  23.623  24.117  1.00  0.00     0.163 HD
ATOM     80  O   UNL A   1      36.494  23.171  22.769  1.00  0.00    -0.269 OA
BRANCH  78  81
ATOM     81  C   UNL A   1      35.530  22.144  24.655  1.00  0.00     0.083 A 
ATOM     82  C   UNL A   1      35.563  20.752  24.664  1.00  0.00     0.018 A 
ATOM     83  C   UNL A   1      34.472  22.859  25.265  1.00  0.00     0.146 A 
ATOM     84  C   UNL A   1      34.489  20.057  25.165  1.00  0.00     0.002 A 
ATOM     85  C   UNL A   1      33.242  22.237  25.769  1.00  0.00     0.060 A 
ATOM     86  C   UNL A   1      33.372  20.753  25.662  1.00  0.00     0.019 A 
ATOM     87  Br  UNL A   1      31.303  23.630  26.769  1.00  0.00    -0.047 Br
BRANCH  83  88
ATOM     88  O   UNL A   1      34.656  24.198  25.421  1.00  0.00    -0.488 OA
BRANCH  88  89
ATOM     89  C   UNL A   1      33.399  24.531  24.931  1.00  0.00     0.178 C 
ATOM     90  C   UNL A   1      33.654  24.709  23.010  1.00  0.00     0.074 C 
ATOM     91  C   UNL A   1      32.997  26.068  26.031  1.00  0.00     0.080 C 
ATOM     92  C   UNL A   1      33.511  26.472  22.248  1.00  0.00     0.165 C 
ATOM     93  C   UNL A   1      33.023  27.771  25.184  1.00  0.00     0.072 C 
ATOM     94  O   UNL A   1      33.126  27.880  23.372  1.00  0.00    -0.375 OA
ATOM     95  C   UNL A   1      31.886  28.747  25.699  1.00  0.00     0.036 C 
ATOM     96  C   UNL A   1      33.976  28.693  26.046  1.00  0.00     0.036 C 
ATOM     97  C   UNL A   1      32.975  29.826  25.849  1.00  0.00     0.006 C 
ENDBRANCH  88  89
ENDBRANCH  83  88
ENDBRANCH  78  81
ENDBRANCH  76  77
ENDBRANCH  75  76
ENDBRANCH   1  75
TORSDOF 16
ENDMDL
MODEL 2
REMARK VINA RESULT:     -12.1      6.382     11.909
REMARK SMILES O=C(NCCCCNC(=O)c1cccc(Br)c1O[C@@H]1CCOC2(CCC2)C1)c1ccc(-c2c3nc(c(-c4c(F)cc(S(=O)(=O)[O-])cc4F)c4ccc([nH]4)c(-c4c(F)cc(S(=O)(=O)[O-])cc4F)c4nc(c(-c5c(F)cc(S(=O)(=O)[O-])cc5F)c5ccc2[nH]5)C=C4)C=C3)cc1
REMARK SMILES IDX 5 1 4 2 3 3 1 4 2 5 28 7 29 8 93 9 30 10 92 11 31 12 32 13
REMARK SMILES IDX 33 14 86 15 34 16 91 17 85 18 87 19 35 20 90 21 84 22 83 23
REMARK SMILES IDX 36 25 70 26 49 27 69 28 50 29 53 30 68 31 88 32 51 33 52 34
REMARK SMILES IDX 67 36 89 37 54 38 37 39 38 40 47 41 39 42 40 43 46 44 48 45
REMARK SMILES IDX 41 46 42 47 43 48 44 49 45 50 71 51 72 52 81 53 73 54 74 55
REMARK SMILES IDX 80 56 82 57 75 58 76 59 77 60 78 61 79 62 55 63 56 64 65 65
REMARK SMILES IDX 57 66 58 67 64 68 66 69 59 70 60 71 61 72 62 73 63 74 6 75
REMARK SMILES IDX 7 76 8 77 9 78 10 80 11 81 12 82 17 83 13 84 15 85 14 86
REMARK SMILES IDX 16 87 18 88 19 89 20 90 27 91 21 92 23 93 22 94 24 95 26 96
REMARK SMILES IDX 25 97
REMARK H PARENT 3 6 87 24 53 35 8 79
REMARK Flexibility Score: inf
ROOT
ATOM      1  C   UNL A   1      34.422  30.405  27.257  1.00  0.00     0.023 C 
ENDROOT
BRANCH   1   2
ATOM      2  C   UNL A   1      35.359  29.782  28.284  1.00  0.00     0.116 C 
BRANCH   2   3
ATOM      3  N   UNL A   1      35.390  30.521  29.537  1.00  0.00    -0.352 N 
ATOM      4  O   UNL A   1      36.237  31.220  31.507  1.00  0.00    -0.269 OA
ATOM      5  C   UNL A   1      36.437  30.702  30.411  1.00  0.00     0.251 C 
ATOM      6  H   UNL A   1      34.544  30.951  29.796  1.00  0.00     0.163 HD
BRANCH   5   7
ATOM      7  C   UNL A   1      37.795  30.250  30.037  1.00  0.00     0.039 A 
ATOM      8  C   UNL A   1      38.686  29.794  31.011  1.00  0.00     0.014 A 
ATOM      9  C   UNL A   1      38.182  30.287  28.695  1.00  0.00     0.014 A 
ATOM     10  C   UNL A   1      40.006  29.519  30.668  1.00  0.00     0.010 A 
ATOM     11  C   UNL A   1      39.483  29.919  28.339  1.00  0.00     0.010 A 
ATOM     12  C   UNL A   1      40.415  29.561  29.326  1.00  0.00    -0.014 A 
BRANCH  12  13
ATOM     13  C   UNL A   1      41.796  29.150  28.965  1.00  0.00     0.031 A 
ATOM     14  C   UNL A   1      42.924  30.143  28.948  1.00  0.00     0.074 A 
ATOM     15  C   UNL A   1      42.021  27.865  28.633  1.00  0.00     0.049 A 
ATOM     16  N   UNL A   1      44.175  29.962  28.609  1.00  0.00    -0.248 NA
ATOM     17  C   UNL A   1      42.606  31.521  29.351  1.00  0.00     0.031 C 
ATOM     18  C   UNL A   1      40.999  26.816  28.599  1.00  0.00     0.029 A 
ATOM     19  N   UNL A   1      43.170  27.220  28.252  1.00  0.00    -0.354 N 
ATOM     20  C   UNL A   1      44.791  31.201  28.736  1.00  0.00     0.074 A 
ATOM     21  C   UNL A   1      43.767  32.135  29.158  1.00  0.00     0.031 C 
ATOM     22  C   UNL A   1      41.566  25.659  28.232  1.00  0.00     0.029 A 
ATOM     23  C   UNL A   1      42.975  25.897  27.937  1.00  0.00     0.049 A 
ATOM     24  H   UNL A   1      44.049  27.662  28.210  1.00  0.00     0.167 HD
ATOM     25  C   UNL A   1      46.090  31.526  28.522  1.00  0.00     0.037 A 
ATOM     26  C   UNL A   1      43.819  24.980  27.426  1.00  0.00     0.037 A 
ATOM     27  C   UNL A   1      47.097  30.584  28.100  1.00  0.00     0.049 A 
ATOM     28  C   UNL A   1      45.244  25.368  27.166  1.00  0.00     0.074 A 
ATOM     29  C   UNL A   1      48.450  30.801  27.903  1.00  0.00     0.029 A 
ATOM     30  N   UNL A   1      46.859  29.251  27.790  1.00  0.00    -0.354 N 
ATOM     31  N   UNL A   1      45.824  26.532  27.343  1.00  0.00    -0.248 NA
ATOM     32  C   UNL A   1      46.133  24.325  26.640  1.00  0.00     0.031 C 
ATOM     33  C   UNL A   1      49.016  29.620  27.412  1.00  0.00     0.029 A 
ATOM     34  C   UNL A   1      48.032  28.644  27.369  1.00  0.00     0.049 A 
ATOM     35  H   UNL A   1      45.985  28.802  27.858  1.00  0.00     0.167 HD
ATOM     36  C   UNL A   1      47.151  26.357  26.968  1.00  0.00     0.074 A 
ATOM     37  C   UNL A   1      47.290  24.972  26.564  1.00  0.00     0.031 C 
ATOM     38  C   UNL A   1      48.159  27.262  26.967  1.00  0.00     0.037 A 
BRANCH  25  39
ATOM     39  C   UNL A   1      46.488  32.969  28.702  1.00  0.00     0.058 A 
ATOM     40  C   UNL A   1      46.405  33.904  27.657  1.00  0.00     0.135 A 
ATOM     41  C   UNL A   1      46.948  33.428  29.948  1.00  0.00     0.135 A 
ATOM     42  F   UNL A   1      45.978  33.524  26.442  1.00  0.00    -0.206 F 
ATOM     43  C   UNL A   1      46.811  35.225  27.826  1.00  0.00     0.059 A 
ATOM     44  C   UNL A   1      47.328  34.752  30.149  1.00  0.00     0.059 A 
ATOM     45  F   UNL A   1      47.041  32.584  30.988  1.00  0.00    -0.206 F 
ATOM     46  C   UNL A   1      47.280  35.638  29.074  1.00  0.00     0.060 A 
BRANCH  46  47
ATOM     47  S   UNL A   1      47.841  37.342  29.265  1.00  0.00     0.124 S 
ATOM     48  O   UNL A   1      46.843  37.873  30.190  1.00  0.00    -0.237 OA
ATOM     49  O   UNL A   1      49.183  37.170  29.813  1.00  0.00    -0.237 OA
ATOM     50  O   UNL A   1      47.784  37.876  27.908  1.00  0.00    -0.744 OA
ENDBRANCH  46  47
ENDBRANCH  25  39
BRANCH  26  51
ATOM     51  C   UNL A   1      43.304  23.622  27.114  1.00  0.00     0.058 A 
ATOM     52  C   UNL A   1      43.020  23.235  25.798  1.00  0.00     0.135 A 
ATOM     53  C   UNL A   1      43.164  22.657  28.126  1.00  0.00     0.135 A 
ATOM     54  F   UNL A   1      43.136  24.123  24.797  1.00  0.00    -0.206 F 
ATOM     55  C   UNL A   1      42.619  21.938  25.492  1.00  0.00     0.059 A 
ATOM     56  C   UNL A   1      42.793  21.348  27.842  1.00  0.00     0.059 A 
ATOM     57  F   UNL A   1      43.444  22.974  29.399  1.00  0.00    -0.206 F 
ATOM     58  C   UNL A   1      42.520  20.999  26.521  1.00  0.00     0.060 A 
BRANCH  58  59
ATOM     59  S   UNL A   1      42.086  19.297  26.100  1.00  0.00     0.124 S 
ATOM     60  O   UNL A   1      40.650  19.408  25.873  1.00  0.00    -0.237 OA
ATOM     61  O   UNL A   1      42.903  19.059  24.915  1.00  0.00    -0.237 OA
ATOM     62  O   UNL A   1      42.483  18.545  27.286  1.00  0.00    -0.744 OA
ENDBRANCH  58  59
ENDBRANCH  26  51
BRANCH  38  63
ATOM     63  C   UNL A   1      49.522  26.786  26.544  1.00  0.00     0.058 A 
ATOM     64  C   UNL A   1      50.376  26.103  27.425  1.00  0.00     0.135 A 
ATOM     65  C   UNL A   1      49.946  26.948  25.215  1.00  0.00     0.135 A 
ATOM     66  F   UNL A   1      50.026  25.933  28.709  1.00  0.00    -0.206 F 
ATOM     67  C   UNL A   1      51.603  25.601  27.002  1.00  0.00     0.059 A 
ATOM     68  C   UNL A   1      51.156  26.428  24.764  1.00  0.00     0.059 A 
ATOM     69  F   UNL A   1      49.166  27.590  24.330  1.00  0.00    -0.206 F 
ATOM     70  C   UNL A   1      51.980  25.759  25.667  1.00  0.00     0.060 A 
BRANCH  70  71
ATOM     71  S   UNL A   1      53.543  25.042  25.118  1.00  0.00     0.124 S 
ATOM     72  O   UNL A   1      54.489  25.651  26.046  1.00  0.00    -0.237 OA
ATOM     73  O   UNL A   1      53.308  23.612  25.297  1.00  0.00    -0.237 OA
ATOM     74  O   UNL A   1      53.652  25.485  23.731  1.00  0.00    -0.744 OA
ENDBRANCH  70  71
ENDBRANCH  38  63
ENDBRANCH  12  13
ENDBRANCH   5   7
ENDBRANCH   2   3
ENDBRANCH   1   2
BRANCH   1  75
ATOM     75  C   UNL A   1      33.099  29.672  27.063  1.00  0.00     0.023 C 
BRANCH  75  76
ATOM     76  C   UNL A   1      33.219  28.206  26.655  1.00  0.00     0.116 C 
BRANCH  76  77
ATOM     77  N   UNL A   1      33.809  28.018  25.335  1.00  0.00    -0.352 N 
ATOM     78  C   UNL A   1      33.288  27.393  24.220  1.00  0.00     0.255 C 
ATOM     79  H   UNL A   1      34.712  28.392  25.221  1.00  0.00     0.163 HD
ATOM     80  O   UNL A   1      33.929  27.344  23.178  1.00  0.00    -0.269 OA
BRANCH  78  81
ATOM     81  C   UNL A   1      31.924  26.831  24.300  1.00  0.00     0.083 A 
ATOM     82  C   UNL A   1      30.923  27.499  23.600  1.00  0.00     0.018 A 
ATOM     83  C   UNL A   1      31.637  25.693  25.089  1.00  0.00     0.146 A 
ATOM     84  C   UNL A   1      29.613  27.121  23.776  1.00  0.00     0.002 A 
ATOM     85  C   UNL A   1      30.279  25.234  25.409  1.00  0.00     0.060 A 
ATOM     86  C   UNL A   1      29.297  26.070  24.654  1.00  0.00     0.019 A 
ATOM     87  Br  UNL A   1      29.837  23.207  26.956  1.00  0.00    -0.047 Br
BRANCH  83  88
ATOM     88  O   UNL A   1      32.704  24.971  25.525  1.00  0.00    -0.488 OA
BRANCH  88  89
ATOM     89  C   UNL A   1      32.902  24.335  24.306  1.00  0.00     0.178 C 
ATOM     90  C   UNL A   1      31.846  22.705  24.426  1.00  0.00     0.074 C 
ATOM     91  C   UNL A   1      34.833  24.272  24.260  1.00  0.00     0.080 C 
ATOM     92  C   UNL A   1      32.794  21.030  24.518  1.00  0.00     0.165 C 
ATOM     93  C   UNL A   1      35.651  22.572  24.501  1.00  0.00     0.072 C 
ATOM     94  O   UNL A   1      34.635  21.065  24.470  1.00  0.00    -0.375 OA
ATOM     95  C   UNL A   1      36.930  22.354  23.591  1.00  0.00     0.036 C 
ATOM     96  C   UNL A   1      36.711  22.738  25.664  1.00  0.00     0.036 C 
ATOM     97  C   UNL A   1      37.661  21.863  24.854  1.00  0.00     0.006 C 
ENDBRANCH  88  89
ENDBRANCH  83  88
ENDBRANCH  78  81
ENDBRANCH  76  77
ENDBRANCH  75  76
ENDBRANCH   1  75
TORSDOF 16
ENDMDL
MODEL 3
REMARK VINA RESULT:     -12.0      0.517      8.283
REMARK SMILES O=C(NCCCCNC(=O)c1cccc(Br)c1O[C@@H]1CCOC2(CCC2)C1)c1ccc(-c2c3nc(c(-c4c(F)cc(S(=O)(=O)[O-])cc4F)c4ccc([nH]4)c(-c4c(F)cc(S(=O)(=O)[O-])cc4F)c4nc(c(-c5c(F)cc(S(=O)(=O)[O-])cc5F)c5ccc2[nH]5)C=C4)C=C3)cc1
REMARK SMILES IDX 5 1 4 2 3 3 1 4 2 5 28 7 29 8 93 9 30 10 92 11 31 12 32 13
REMARK SMILES IDX 33 14 86 15 34 16 91 17 85 18 87 19 35 20 90 21 84 22 83 23
REMARK SMILES IDX 36 25 70 26 49 27 69 28 50 29 53 30 68 31 88 32 51 33 52 34
REMARK SMILES IDX 67 36 89 37 54 38 37 39 38 40 47 41 39 42 40 43 46 44 48 45
REMARK SMILES IDX 41 46 42 47 43 48 44 49 45 50 71 51 72 52 81 53 73 54 74 55
REMARK SMILES IDX 80 56 82 57 75 58 76 59 77 60 78 61 79 62 55 63 56 64 65 65
REMARK SMILES IDX 57 66 58 67 64 68 66 69 59 70 60 71 61 72 62 73 63 74 6 75
REMARK SMILES IDX 7 76 8 77 9 78 10 80 11 81 12 82 17 83 13 84 15 85 14 86
REMARK SMILES IDX 16 87 18 88 19 89 20 90 27 91 21 92 23 93 22 94 24 95 26 96
REMARK SMILES IDX 25 97
REMARK H PARENT 3 6 87 24 53 35 8 79
REMARK Flexibility Score: inf
ROOT
ATOM      1  C   UNL A   1      40.407  21.883  27.060  1.00  0.00     0.023 C 
ENDROOT
BRANCH   1   2
ATOM      2  C   UNL A   1      40.447  23.384  27.316  1.00  0.00     0.116 C 
BRANCH   2   3
ATOM      3  N   UNL A   1      41.021  24.128  26.205  1.00  0.00    -0.352 N 
ATOM      4  O   UNL A   1      41.571  25.955  25.002  1.00  0.00    -0.269 OA
ATOM      5  C   UNL A   1      41.225  25.483  26.082  1.00  0.00     0.251 C 
ATOM      6  H   UNL A   1      41.304  23.586  25.434  1.00  0.00     0.163 HD
BRANCH   5   7
ATOM      7  C   UNL A   1      41.000  26.370  27.246  1.00  0.00     0.039 A 
ATOM      8  C   UNL A   1      41.819  27.481  27.461  1.00  0.00     0.014 A 
ATOM      9  C   UNL A   1      39.960  26.082  28.133  1.00  0.00     0.014 A 
ATOM     10  C   UNL A   1      41.696  28.214  28.637  1.00  0.00     0.010 A 
ATOM     11  C   UNL A   1      39.778  26.879  29.268  1.00  0.00     0.010 A 
ATOM     12  C   UNL A   1      40.663  27.933  29.544  1.00  0.00    -0.014 A 
BRANCH  12  13
ATOM     13  C   UNL A   1      40.475  28.800  30.736  1.00  0.00     0.031 A 
ATOM     14  C   UNL A   1      39.434  29.883  30.755  1.00  0.00     0.074 A 
ATOM     15  C   UNL A   1      41.274  28.610  31.804  1.00  0.00     0.049 A 
ATOM     16  N   UNL A   1      39.173  30.758  31.693  1.00  0.00    -0.248 NA
ATOM     17  C   UNL A   1      38.581  30.009  29.565  1.00  0.00     0.031 C 
ATOM     18  C   UNL A   1      42.331  27.600  31.891  1.00  0.00     0.029 A 
ATOM     19  N   UNL A   1      41.334  29.258  33.011  1.00  0.00    -0.354 N 
ATOM     20  C   UNL A   1      38.144  31.552  31.202  1.00  0.00     0.074 A 
ATOM     21  C   UNL A   1      37.845  31.071  29.869  1.00  0.00     0.031 C 
ATOM     22  C   UNL A   1      42.925  27.686  33.090  1.00  0.00     0.029 A 
ATOM     23  C   UNL A   1      42.340  28.800  33.827  1.00  0.00     0.049 A 
ATOM     24  H   UNL A   1      40.715  29.980  33.268  1.00  0.00     0.167 HD
ATOM     25  C   UNL A   1      37.508  32.584  31.810  1.00  0.00     0.037 A 
ATOM     26  C   UNL A   1      42.778  29.248  35.019  1.00  0.00     0.037 A 
ATOM     27  C   UNL A   1      37.819  33.051  33.138  1.00  0.00     0.049 A 
ATOM     28  C   UNL A   1      42.082  30.411  35.661  1.00  0.00     0.074 A 
ATOM     29  C   UNL A   1      37.202  34.056  33.863  1.00  0.00     0.029 A 
ATOM     30  N   UNL A   1      38.848  32.562  33.934  1.00  0.00    -0.354 N 
ATOM     31  N   UNL A   1      41.074  31.117  35.206  1.00  0.00    -0.248 NA
ATOM     32  C   UNL A   1      42.576  30.841  36.975  1.00  0.00     0.031 C 
ATOM     33  C   UNL A   1      37.897  34.218  35.067  1.00  0.00     0.029 A 
ATOM     34  C   UNL A   1      38.904  33.267  35.125  1.00  0.00     0.049 A 
ATOM     35  H   UNL A   1      39.449  31.822  33.687  1.00  0.00     0.167 HD
ATOM     36  C   UNL A   1      40.800  32.064  36.186  1.00  0.00     0.074 A 
ATOM     37  C   UNL A   1      41.742  31.832  37.263  1.00  0.00     0.031 C 
ATOM     38  C   UNL A   1      39.849  33.029  36.192  1.00  0.00     0.037 A 
BRANCH  25  39
ATOM     39  C   UNL A   1      36.439  33.304  31.028  1.00  0.00     0.058 A 
ATOM     40  C   UNL A   1      36.742  34.148  29.947  1.00  0.00     0.135 A 
ATOM     41  C   UNL A   1      35.083  33.136  31.359  1.00  0.00     0.135 A 
ATOM     42  F   UNL A   1      38.019  34.353  29.587  1.00  0.00    -0.206 F 
ATOM     43  C   UNL A   1      35.748  34.836  29.257  1.00  0.00     0.059 A 
ATOM     44  C   UNL A   1      34.070  33.788  30.662  1.00  0.00     0.059 A 
ATOM     45  F   UNL A   1      34.730  32.335  32.377  1.00  0.00    -0.206 F 
ATOM     46  C   UNL A   1      34.415  34.656  29.628  1.00  0.00     0.060 A 
BRANCH  46  47
ATOM     47  S   UNL A   1      33.141  35.587  28.751  1.00  0.00     0.124 S 
ATOM     48  O   UNL A   1      33.949  36.545  28.001  1.00  0.00    -0.237 OA
ATOM     49  O   UNL A   1      32.488  34.553  27.957  1.00  0.00    -0.237 OA
ATOM     50  O   UNL A   1      32.332  36.155  29.825  1.00  0.00    -0.744 OA
ENDBRANCH  46  47
ENDBRANCH  25  39
BRANCH  26  51
ATOM     51  C   UNL A   1      43.953  28.590  35.648  1.00  0.00     0.058 A 
ATOM     52  C   UNL A   1      45.258  29.028  35.390  1.00  0.00     0.135 A 
ATOM     53  C   UNL A   1      43.781  27.557  36.586  1.00  0.00     0.135 A 
ATOM     54  F   UNL A   1      45.474  30.009  34.500  1.00  0.00    -0.206 F 
ATOM     55  C   UNL A   1      46.354  28.471  36.042  1.00  0.00     0.059 A 
ATOM     56  C   UNL A   1      44.856  27.004  37.270  1.00  0.00     0.059 A 
ATOM     57  F   UNL A   1      42.548  27.117  36.881  1.00  0.00    -0.206 F 
ATOM     58  C   UNL A   1      46.141  27.466  36.989  1.00  0.00     0.060 A 
BRANCH  58  59
ATOM     59  S   UNL A   1      47.561  26.814  37.893  1.00  0.00     0.124 S 
ATOM     60  O   UNL A   1      47.709  27.799  38.959  1.00  0.00    -0.237 OA
ATOM     61  O   UNL A   1      47.084  25.497  38.302  1.00  0.00    -0.237 OA
ATOM     62  O   UNL A   1      48.622  26.803  36.891  1.00  0.00    -0.744 OA
ENDBRANCH  58  59
ENDBRANCH  26  51
BRANCH  38  63
ATOM     63  C   UNL A   1      39.748  33.901  37.414  1.00  0.00     0.058 A 
ATOM     64  C   UNL A   1      40.375  35.155  37.485  1.00  0.00     0.135 A 
ATOM     65  C   UNL A   1      38.948  33.507  38.499  1.00  0.00     0.135 A 
ATOM     66  F   UNL A   1      41.163  35.574  36.482  1.00  0.00    -0.206 F 
ATOM     67  C   UNL A   1      40.214  35.986  38.589  1.00  0.00     0.059 A 
ATOM     68  C   UNL A   1      38.749  34.334  39.601  1.00  0.00     0.059 A 
ATOM     69  F   UNL A   1      38.323  32.319  38.482  1.00  0.00    -0.206 F 
ATOM     70  C   UNL A   1      39.391  35.571  39.638  1.00  0.00     0.060 A 
BRANCH  70  71
ATOM     71  S   UNL A   1      39.137  36.689  41.032  1.00  0.00     0.124 S 
ATOM     72  O   UNL A   1      38.578  37.863  40.372  1.00  0.00    -0.237 OA
ATOM     73  O   UNL A   1      38.211  35.933  41.872  1.00  0.00    -0.237 OA
ATOM     74  O   UNL A   1      40.478  36.858  41.582  1.00  0.00    -0.744 OA
ENDBRANCH  70  71
ENDBRANCH  38  63
ENDBRANCH  12  13
ENDBRANCH   5   7
ENDBRANCH   2   3
ENDBRANCH   1   2
BRANCH   1  75
ATOM     75  C   UNL A   1      39.316  21.421  26.100  1.00  0.00     0.023 C 
BRANCH  75  76
ATOM     76  C   UNL A   1      38.098  22.336  26.008  1.00  0.00     0.116 C 
BRANCH  76  77
ATOM     77  N   UNL A   1      37.769  22.730  24.644  1.00  0.00    -0.352 N 
ATOM     78  C   UNL A   1      36.606  22.532  23.928  1.00  0.00     0.255 C 
ATOM     79  H   UNL A   1      38.481  23.209  24.162  1.00  0.00     0.163 HD
ATOM     80  O   UNL A   1      36.501  22.953  22.783  1.00  0.00    -0.269 OA
BRANCH  78  81
ATOM     81  C   UNL A   1      35.478  21.849  24.592  1.00  0.00     0.083 A 
ATOM     82  C   UNL A   1      35.468  20.457  24.551  1.00  0.00     0.018 A 
ATOM     83  C   UNL A   1      34.427  22.574  25.202  1.00  0.00     0.146 A 
ATOM     84  C   UNL A   1      34.361  19.778  25.001  1.00  0.00     0.002 A 
ATOM     85  C   UNL A   1      33.167  21.973  25.655  1.00  0.00     0.060 A 
ATOM     86  C   UNL A   1      33.255  20.490  25.497  1.00  0.00     0.019 A 
ATOM     87  Br  UNL A   1      31.246  23.389  26.659  1.00  0.00    -0.047 Br
BRANCH  83  88
ATOM     88  O   UNL A   1      34.647  23.900  25.411  1.00  0.00    -0.488 OA
BRANCH  88  89
ATOM     89  C   UNL A   1      33.405  24.287  24.925  1.00  0.00     0.178 C 
ATOM     90  C   UNL A   1      33.694  24.592  23.026  1.00  0.00     0.074 C 
ATOM     91  C   UNL A   1      33.008  25.752  26.122  1.00  0.00     0.080 C 
ATOM     92  C   UNL A   1      33.592  26.406  22.385  1.00  0.00     0.165 C 
ATOM     93  C   UNL A   1      33.075  27.508  25.395  1.00  0.00     0.072 C 
ATOM     94  O   UNL A   1      33.211  27.740  23.597  1.00  0.00    -0.375 OA
ATOM     95  C   UNL A   1      31.945  28.466  25.958  1.00  0.00     0.036 C 
ATOM     96  C   UNL A   1      34.028  28.353  26.334  1.00  0.00     0.036 C 
ATOM     97  C   UNL A   1      33.049  29.513  26.199  1.00  0.00     0.006 C 
ENDBRANCH  88  89
ENDBRANCH  83  88
ENDBRANCH  78  81
ENDBRANCH  76  77
ENDBRANCH  75  76
ENDBRANCH   1  75
TORSDOF 16
ENDMDL
