MODEL 1
REMARK VINA RESULT:     -14.4      0.000      0.000
REMARK SMILES C[C@H]1[C@H](C)CC[C@@]2(C(=O)NCCCCNC(=O)c3ccc(-c4c5nc(c(-c6c(F)cc(S(=O)(=O)[O-])cc6F)c6ccc([nH]6)c(-c6c(F)cc(S(=O)(=O)[O-])cc6F)c6nc(c(-c7c(F)cc(S(=O)(=O)[O-])cc7F)c7ccc4[nH]7)C=C6)C=C5)cc3)CC[C@@]3(C)C(=CC[C@@H]4[C@@]5(C)CC[C@H](O)C(C)(C)[C@@H]5CC[C@]43C)[C@H]12
REMARK SMILES IDX 13 1 12 2 11 3 10 4 8 5 9 6 7 8 1 9 2 10 3 11 106 12 4 13
REMARK SMILES IDX 5 14 88 15 6 16 84 17 86 18 89 19 85 20 87 21 104 22 90 23
REMARK SMILES IDX 91 24 103 25 105 26 92 27 102 28 93 29 94 30 101 31 95 32
REMARK SMILES IDX 98 33 96 34 99 35 100 36 97 37 14 39 15 40 16 41 17 43 18 44
REMARK SMILES IDX 19 45 83 46 20 47 82 48 21 49 22 50 23 51 76 52 24 53 81 54
REMARK SMILES IDX 75 55 77 56 25 57 80 58 74 59 73 60 26 62 60 63 39 64 59 65
REMARK SMILES IDX 40 66 43 67 58 68 78 69 41 70 42 71 57 73 79 74 44 75 27 76
REMARK SMILES IDX 28 77 37 78 29 79 30 80 36 81 38 82 31 83 32 84 33 85 34 86
REMARK SMILES IDX 35 87 61 88 62 89 71 90 63 91 64 92 70 93 72 94 65 95 66 96
REMARK SMILES IDX 67 97 68 98 69 99 45 100 46 101 55 102 47 103 48 104 54 105
REMARK SMILES IDX 56 106 49 107 50 108 51 109 52 110 53 111
REMARK H PARENT 10 7 97 38 15 42 77 61 43 72
REMARK Flexibility Score: inf
ROOT
ATOM      1  C   UNL A   1      34.952  30.806  27.732  1.00  0.00     0.023 C 
ENDROOT
BRANCH   1   2
ATOM      2  C   UNL A   1      35.271  29.312  27.609  1.00  0.00     0.023 C 
BRANCH   2   3
ATOM      3  C   UNL A   1      34.335  28.469  26.740  1.00  0.00     0.116 C 
BRANCH   3   4
ATOM      4  N   UNL A   1      34.039  29.020  25.433  1.00  0.00    -0.356 N 
ATOM      5  C   UNL A   1      32.885  29.017  24.698  1.00  0.00     0.226 C 
ATOM      6  O   UNL A   1      33.075  28.931  23.477  1.00  0.00    -0.274 OA
ATOM      7  H   UNL A   1      34.797  29.476  25.002  1.00  0.00     0.163 HD
BRANCH   5   8
ATOM      8  C   UNL A   1      31.420  29.158  25.273  1.00  0.00     0.056 C 
ATOM      9  C   UNL A   1      28.778  29.047  22.338  1.00  0.00     0.008 C 
ATOM     10  C   UNL A   1      29.919  29.620  23.199  1.00  0.00    -0.003 C 
ATOM     11  C   UNL A   1      29.502  30.992  23.813  1.00  0.00    -0.011 C 
ATOM     12  C   UNL A   1      30.314  28.624  24.316  1.00  0.00     0.034 C 
ATOM     13  C   UNL A   1      29.284  32.089  22.757  1.00  0.00     0.008 C 
ATOM     14  C   UNL A   1      30.477  31.568  24.853  1.00  0.00     0.005 C 
ATOM     15  C   UNL A   1      30.748  27.192  23.954  1.00  0.00    -0.063 C 
ATOM     16  C   UNL A   1      31.150  30.583  25.790  1.00  0.00     0.018 C 
ATOM     17  C   UNL A   1      31.303  28.242  26.561  1.00  0.00     0.018 C 
ATOM     18  C   UNL A   1      30.598  26.142  25.093  1.00  0.00    -0.006 C 
ATOM     19  C   UNL A   1      31.479  26.950  22.845  1.00  0.00    -0.027 C 
ATOM     20  C   UNL A   1      31.327  26.716  26.359  1.00  0.00     0.013 C 
ATOM     21  C   UNL A   1      29.097  25.965  25.446  1.00  0.00     0.017 C 
ATOM     22  C   UNL A   1      31.230  24.702  24.662  1.00  0.00    -0.020 C 
ATOM     23  C   UNL A   1      32.392  25.764  22.682  1.00  0.00     0.032 C 
ATOM     24  C   UNL A   1      32.631  25.039  24.030  1.00  0.00     0.006 C 
ATOM     25  C   UNL A   1      31.356  23.725  25.863  1.00  0.00     0.008 C 
ATOM     26  C   UNL A   1      30.304  23.975  23.635  1.00  0.00     0.012 C 
ATOM     27  C   UNL A   1      33.785  23.955  24.047  1.00  0.00    -0.025 C 
ATOM     28  C   UNL A   1      32.303  22.551  25.595  1.00  0.00     0.005 C 
ATOM     29  C   UNL A   1      33.748  23.128  22.748  1.00  0.00     0.012 C 
ATOM     30  C   UNL A   1      35.150  24.717  24.117  1.00  0.00     0.010 C 
ATOM     31  C   UNL A   1      33.717  23.101  25.365  1.00  0.00     0.003 C 
ATOM     32  C   UNL A   1      36.366  23.818  24.328  1.00  0.00     0.033 C 
ATOM     33  C   UNL A   1      34.895  22.081  25.591  1.00  0.00    -0.006 C 
ATOM     34  C   UNL A   1      36.230  22.885  25.534  1.00  0.00     0.120 C 
ATOM     35  C   UNL A   1      34.903  20.882  24.621  1.00  0.00     0.014 C 
ATOM     36  C   UNL A   1      34.797  21.457  27.012  1.00  0.00     0.014 C 
BRANCH  34  37
ATOM     37  O   UNL A   1      37.362  22.014  25.583  1.00  0.00    -0.393 OA
ATOM     38  H   UNL A   1      38.171  22.541  25.669  1.00  0.00     0.210 HD
ENDBRANCH  34  37
ENDBRANCH   5   8
ENDBRANCH   3   4
ENDBRANCH   2   3
ENDBRANCH   1   2
BRANCH   1  39
ATOM     39  C   UNL A   1      35.600  31.576  28.884  1.00  0.00     0.116 C 
BRANCH  39  40
ATOM     40  N   UNL A   1      35.538  30.906  30.175  1.00  0.00    -0.352 N 
ATOM     41  C   UNL A   1      36.526  30.329  30.939  1.00  0.00     0.251 C 
ATOM     42  H   UNL A   1      34.636  30.856  30.568  1.00  0.00     0.163 HD
ATOM     43  O   UNL A   1      36.237  29.810  32.016  1.00  0.00    -0.269 OA
BRANCH  41  44
ATOM     44  C   UNL A   1      37.920  30.268  30.448  1.00  0.00     0.039 A 
ATOM     45  C   UNL A   1      38.949  30.151  31.387  1.00  0.00     0.014 A 
ATOM     46  C   UNL A   1      38.218  30.285  29.084  1.00  0.00     0.014 A 
ATOM     47  C   UNL A   1      40.259  29.926  30.959  1.00  0.00     0.010 A 
ATOM     48  C   UNL A   1      39.512  29.990  28.659  1.00  0.00     0.010 A 
ATOM     49  C   UNL A   1      40.540  29.775  29.591  1.00  0.00    -0.014 A 
BRANCH  49  50
ATOM     50  C   UNL A   1      41.880  29.325  29.126  1.00  0.00     0.031 A 
ATOM     51  C   UNL A   1      43.018  30.297  29.000  1.00  0.00     0.074 A 
ATOM     52  C   UNL A   1      42.042  28.046  28.727  1.00  0.00     0.049 A 
ATOM     53  N   UNL A   1      44.222  30.101  28.528  1.00  0.00    -0.248 NA
ATOM     54  C   UNL A   1      42.759  31.677  29.435  1.00  0.00     0.031 C 
ATOM     55  C   UNL A   1      40.999  27.017  28.738  1.00  0.00     0.029 A 
ATOM     56  N   UNL A   1      43.138  27.396  28.216  1.00  0.00    -0.354 N 
ATOM     57  C   UNL A   1      44.860  31.333  28.591  1.00  0.00     0.074 A 
ATOM     58  C   UNL A   1      43.891  32.281  29.103  1.00  0.00     0.031 C 
ATOM     59  C   UNL A   1      41.508  25.866  28.274  1.00  0.00     0.029 A 
ATOM     60  C   UNL A   1      42.902  26.080  27.897  1.00  0.00     0.049 A 
ATOM     61  H   UNL A   1      44.013  27.832  28.091  1.00  0.00     0.167 HD
ATOM     62  C   UNL A   1      46.140  31.646  28.271  1.00  0.00     0.037 A 
ATOM     63  C   UNL A   1      43.709  25.148  27.352  1.00  0.00     0.037 A 
ATOM     64  C   UNL A   1      47.105  30.697  27.779  1.00  0.00     0.049 A 
ATOM     65  C   UNL A   1      45.130  25.508  27.025  1.00  0.00     0.074 A 
ATOM     66  C   UNL A   1      48.441  30.903  27.480  1.00  0.00     0.029 A 
ATOM     67  N   UNL A   1      46.840  29.362  27.510  1.00  0.00    -0.354 N 
ATOM     68  N   UNL A   1      45.736  26.664  27.152  1.00  0.00    -0.248 NA
ATOM     69  C   UNL A   1      45.983  24.438  26.489  1.00  0.00     0.031 C 
ATOM     70  C   UNL A   1      48.973  29.701  26.997  1.00  0.00     0.029 A 
ATOM     71  C   UNL A   1      47.980  28.735  27.036  1.00  0.00     0.049 A 
ATOM     72  H   UNL A   1      45.967  28.923  27.638  1.00  0.00     0.167 HD
ATOM     73  C   UNL A   1      47.044  26.456  26.733  1.00  0.00     0.074 A 
ATOM     74  C   UNL A   1      47.145  25.061  26.358  1.00  0.00     0.031 C 
ATOM     75  C   UNL A   1      48.068  27.343  26.667  1.00  0.00     0.037 A 
BRANCH  62  76
ATOM     76  C   UNL A   1      46.561  33.080  28.446  1.00  0.00     0.058 A 
ATOM     77  C   UNL A   1      46.450  34.011  27.400  1.00  0.00     0.135 A 
ATOM     78  C   UNL A   1      47.090  33.529  29.667  1.00  0.00     0.135 A 
ATOM     79  F   UNL A   1      45.962  33.634  26.208  1.00  0.00    -0.206 F 
ATOM     80  C   UNL A   1      46.897  35.320  27.541  1.00  0.00     0.059 A 
ATOM     81  C   UNL A   1      47.516  34.842  29.839  1.00  0.00     0.059 A 
ATOM     82  F   UNL A   1      47.213  32.683  30.702  1.00  0.00    -0.206 F 
ATOM     83  C   UNL A   1      47.439  35.724  28.761  1.00  0.00     0.060 A 
BRANCH  83  84
ATOM     84  S   UNL A   1      48.054  37.414  28.917  1.00  0.00     0.124 S 
ATOM     85  O   UNL A   1      47.917  37.639  30.353  1.00  0.00    -0.237 OA
ATOM     86  O   UNL A   1      49.422  37.299  28.423  1.00  0.00    -0.237 OA
ATOM     87  O   UNL A   1      47.148  38.184  28.071  1.00  0.00    -0.744 OA
ENDBRANCH  83  84
ENDBRANCH  62  76
BRANCH  63  88
ATOM     88  C   UNL A   1      43.188  23.775  27.114  1.00  0.00     0.058 A 
ATOM     89  C   UNL A   1      42.885  23.336  25.818  1.00  0.00     0.135 A 
ATOM     90  C   UNL A   1      43.030  22.863  28.169  1.00  0.00     0.135 A 
ATOM     91  F   UNL A   1      43.014  24.174  24.779  1.00  0.00    -0.206 F 
ATOM     92  C   UNL A   1      42.443  22.040  25.572  1.00  0.00     0.059 A 
ATOM     93  C   UNL A   1      42.609  21.555  27.947  1.00  0.00     0.059 A 
ATOM     94  F   UNL A   1      43.324  23.230  29.426  1.00  0.00    -0.206 F 
ATOM     95  C   UNL A   1      42.315  21.154  26.644  1.00  0.00     0.060 A 
BRANCH  95  96
ATOM     96  S   UNL A   1      41.820  19.451  26.305  1.00  0.00     0.124 S 
ATOM     97  O   UNL A   1      42.607  19.147  25.115  1.00  0.00    -0.237 OA
ATOM     98  O   UNL A   1      42.222  18.765  27.529  1.00  0.00    -0.237 OA
ATOM     99  O   UNL A   1      40.378  19.555  26.099  1.00  0.00    -0.744 OA
ENDBRANCH  95  96
ENDBRANCH  63  88
BRANCH  75 100
ATOM    100  C   UNL A   1      49.400  26.828  26.196  1.00  0.00     0.058 A 
ATOM    101  C   UNL A   1      49.806  26.949  24.858  1.00  0.00     0.135 A 
ATOM    102  C   UNL A   1      50.303  26.255  27.107  1.00  0.00     0.135 A 
ATOM    103  F   UNL A   1      48.977  27.481  23.947  1.00  0.00    -0.206 F 
ATOM    104  C   UNL A   1      51.055  26.507  24.435  1.00  0.00     0.059 A 
ATOM    105  C   UNL A   1      51.566  25.827  26.711  1.00  0.00     0.059 A 
ATOM    106  F   UNL A   1      49.966  26.123  28.400  1.00  0.00    -0.206 F 
ATOM    107  C   UNL A   1      51.930  25.948  25.371  1.00  0.00     0.060 A 
BRANCH 107 108
ATOM    108  S   UNL A   1      53.565  25.416  24.819  1.00  0.00     0.124 S 
ATOM    109  O   UNL A   1      54.437  26.163  25.719  1.00  0.00    -0.237 OA
ATOM    110  O   UNL A   1      53.516  23.973  25.037  1.00  0.00    -0.237 OA
ATOM    111  O   UNL A   1      53.602  25.831  23.420  1.00  0.00    -0.744 OA
ENDBRANCH 107 108
ENDBRANCH  75 100
ENDBRANCH  49  50
ENDBRANCH  41  44
ENDBRANCH  39  40
ENDBRANCH   1  39
TORSDOF 15
ENDMDL
MODEL 2
REMARK VINA RESULT:     -14.4      5.936     11.564
REMARK SMILES C[C@H]1[C@H](C)CC[C@@]2(C(=O)NCCCCNC(=O)c3ccc(-c4c5nc(c(-c6c(F)cc(S(=O)(=O)[O-])cc6F)c6ccc([nH]6)c(-c6c(F)cc(S(=O)(=O)[O-])cc6F)c6nc(c(-c7c(F)cc(S(=O)(=O)[O-])cc7F)c7ccc4[nH]7)C=C6)C=C5)cc3)CC[C@@]3(C)C(=CC[C@@H]4[C@@]5(C)CC[C@H](O)C(C)(C)[C@@H]5CC[C@]43C)[C@H]12
REMARK SMILES IDX 13 1 12 2 11 3 10 4 8 5 9 6 7 8 1 9 2 10 3 11 106 12 4 13
REMARK SMILES IDX 5 14 88 15 6 16 84 17 86 18 89 19 85 20 87 21 104 22 90 23
REMARK SMILES IDX 91 24 103 25 105 26 92 27 102 28 93 29 94 30 101 31 95 32
REMARK SMILES IDX 98 33 96 34 99 35 100 36 97 37 14 39 15 40 16 41 17 43 18 44
REMARK SMILES IDX 19 45 83 46 20 47 82 48 21 49 22 50 23 51 76 52 24 53 81 54
REMARK SMILES IDX 75 55 77 56 25 57 80 58 74 59 73 60 26 62 60 63 39 64 59 65
REMARK SMILES IDX 40 66 43 67 58 68 78 69 41 70 42 71 57 73 79 74 44 75 27 76
REMARK SMILES IDX 28 77 37 78 29 79 30 80 36 81 38 82 31 83 32 84 33 85 34 86
REMARK SMILES IDX 35 87 61 88 62 89 71 90 63 91 64 92 70 93 72 94 65 95 66 96
REMARK SMILES IDX 67 97 68 98 69 99 45 100 46 101 55 102 47 103 48 104 54 105
REMARK SMILES IDX 56 106 49 107 50 108 51 109 52 110 53 111
REMARK H PARENT 10 7 97 38 15 42 77 61 43 72
REMARK Flexibility Score: inf
ROOT
ATOM      1  C   UNL A   1      38.834  22.834  26.202  1.00  0.00     0.023 C 
ENDROOT
BRANCH   1   2
ATOM      2  C   UNL A   1      38.020  24.131  26.141  1.00  0.00     0.023 C 
BRANCH   2   3
ATOM      3  C   UNL A   1      36.512  23.998  25.913  1.00  0.00     0.116 C 
BRANCH   3   4
ATOM      4  N   UNL A   1      35.880  22.882  26.587  1.00  0.00    -0.356 N 
ATOM      5  C   UNL A   1      35.080  21.882  26.107  1.00  0.00     0.226 C 
ATOM      6  O   UNL A   1      34.202  21.523  26.905  1.00  0.00    -0.274 OA
ATOM      7  H   UNL A   1      36.059  22.835  27.553  1.00  0.00     0.163 HD
BRANCH   5   8
ATOM      8  C   UNL A   1      35.228  21.167  24.705  1.00  0.00     0.056 C 
ATOM      9  C   UNL A   1      32.163  18.758  24.061  1.00  0.00     0.008 C 
ATOM     10  C   UNL A   1      33.459  19.259  24.725  1.00  0.00    -0.003 C 
ATOM     11  C   UNL A   1      34.599  18.208  24.557  1.00  0.00    -0.011 C 
ATOM     12  C   UNL A   1      33.888  20.623  24.131  1.00  0.00     0.034 C 
ATOM     13  C   UNL A   1      34.321  16.888  25.296  1.00  0.00     0.008 C 
ATOM     14  C   UNL A   1      35.994  18.677  25.001  1.00  0.00     0.005 C 
ATOM     15  C   UNL A   1      32.917  21.818  24.165  1.00  0.00    -0.063 C 
ATOM     16  C   UNL A   1      36.360  20.122  24.720  1.00  0.00     0.018 C 
ATOM     17  C   UNL A   1      35.701  22.247  23.647  1.00  0.00     0.018 C 
ATOM     18  C   UNL A   1      33.189  22.928  23.109  1.00  0.00    -0.006 C 
ATOM     19  C   UNL A   1      32.099  22.014  25.221  1.00  0.00    -0.027 C 
ATOM     20  C   UNL A   1      34.697  23.342  23.243  1.00  0.00     0.013 C 
ATOM     21  C   UNL A   1      32.977  22.355  21.682  1.00  0.00     0.017 C 
ATOM     22  C   UNL A   1      32.213  24.214  23.332  1.00  0.00    -0.020 C 
ATOM     23  C   UNL A   1      31.548  23.358  25.618  1.00  0.00     0.032 C 
ATOM     24  C   UNL A   1      32.269  24.512  24.876  1.00  0.00     0.006 C 
ATOM     25  C   UNL A   1      32.646  25.444  22.489  1.00  0.00     0.008 C 
ATOM     26  C   UNL A   1      30.756  23.891  22.869  1.00  0.00     0.012 C 
ATOM     27  C   UNL A   1      31.979  25.975  25.408  1.00  0.00    -0.025 C 
ATOM     28  C   UNL A   1      32.029  26.760  22.970  1.00  0.00     0.005 C 
ATOM     29  C   UNL A   1      30.485  26.123  25.751  1.00  0.00     0.012 C 
ATOM     30  C   UNL A   1      32.816  26.179  26.715  1.00  0.00     0.010 C 
ATOM     31  C   UNL A   1      32.524  27.045  24.394  1.00  0.00     0.003 C 
ATOM     32  C   UNL A   1      32.799  27.604  27.261  1.00  0.00     0.033 C 
ATOM     33  C   UNL A   1      32.441  28.547  24.862  1.00  0.00    -0.006 C 
ATOM     34  C   UNL A   1      33.193  28.657  26.222  1.00  0.00     0.120 C 
ATOM     35  C   UNL A   1      31.010  29.117  24.946  1.00  0.00     0.014 C 
ATOM     36  C   UNL A   1      33.187  29.464  23.850  1.00  0.00     0.014 C 
BRANCH  34  37
ATOM     37  O   UNL A   1      33.042  29.959  26.794  1.00  0.00    -0.393 OA
ATOM     38  H   UNL A   1      33.289  30.629  26.138  1.00  0.00     0.210 HD
ENDBRANCH  34  37
ENDBRANCH   5   8
ENDBRANCH   3   4
ENDBRANCH   2   3
ENDBRANCH   1   2
BRANCH   1  39
ATOM     39  C   UNL A   1      40.145  22.857  26.989  1.00  0.00     0.116 C 
BRANCH  39  40
ATOM     40  N   UNL A   1      41.306  23.292  26.225  1.00  0.00    -0.352 N 
ATOM     41  C   UNL A   1      42.025  24.464  26.269  1.00  0.00     0.251 C 
ATOM     42  H   UNL A   1      41.631  22.637  25.565  1.00  0.00     0.163 HD
ATOM     43  O   UNL A   1      42.985  24.616  25.516  1.00  0.00    -0.269 OA
BRANCH  41  44
ATOM     44  C   UNL A   1      41.616  25.567  27.165  1.00  0.00     0.039 A 
ATOM     45  C   UNL A   1      40.693  25.290  28.178  1.00  0.00     0.014 A 
ATOM     46  C   UNL A   1      42.155  26.849  27.042  1.00  0.00     0.014 A 
ATOM     47  C   UNL A   1      40.408  26.259  29.142  1.00  0.00     0.010 A 
ATOM     48  C   UNL A   1      41.923  27.791  28.044  1.00  0.00     0.010 A 
ATOM     49  C   UNL A   1      41.073  27.495  29.122  1.00  0.00    -0.014 A 
BRANCH  49  50
ATOM     50  C   UNL A   1      40.947  28.456  30.251  1.00  0.00     0.031 A 
ATOM     51  C   UNL A   1      41.812  28.325  31.471  1.00  0.00     0.074 A 
ATOM     52  C   UNL A   1      39.980  29.396  30.211  1.00  0.00     0.049 A 
ATOM     53  N   UNL A   1      41.779  29.012  32.584  1.00  0.00    -0.248 NA
ATOM     54  C   UNL A   1      42.829  27.263  31.451  1.00  0.00     0.031 C 
ATOM     55  C   UNL A   1      39.031  29.587  29.111  1.00  0.00     0.029 A 
ATOM     56  N   UNL A   1      39.621  30.355  31.125  1.00  0.00    -0.354 N 
ATOM     57  C   UNL A   1      42.755  28.458  33.403  1.00  0.00     0.074 A 
ATOM     58  C   UNL A   1      43.330  27.346  32.675  1.00  0.00     0.031 C 
ATOM     59  C   UNL A   1      38.212  30.608  29.407  1.00  0.00     0.029 A 
ATOM     60  C   UNL A   1      38.549  31.121  30.731  1.00  0.00     0.049 A 
ATOM     61  H   UNL A   1      40.087  30.482  31.984  1.00  0.00     0.167 HD
ATOM     62  C   UNL A   1      43.151  28.850  34.639  1.00  0.00     0.037 A 
ATOM     63  C   UNL A   1      37.901  32.120  31.363  1.00  0.00     0.037 A 
ATOM     64  C   UNL A   1      42.588  29.967  35.352  1.00  0.00     0.049 A 
ATOM     65  C   UNL A   1      38.370  32.554  32.723  1.00  0.00     0.074 A 
ATOM     66  C   UNL A   1      42.959  30.478  36.585  1.00  0.00     0.029 A 
ATOM     67  N   UNL A   1      41.534  30.747  34.900  1.00  0.00    -0.354 N 
ATOM     68  N   UNL A   1      39.338  32.058  33.456  1.00  0.00    -0.248 NA
ATOM     69  C   UNL A   1      37.665  33.685  33.341  1.00  0.00     0.031 C 
ATOM     70  C   UNL A   1      42.105  31.544  36.893  1.00  0.00     0.029 A 
ATOM     71  C   UNL A   1      41.230  31.725  35.833  1.00  0.00     0.049 A 
ATOM     72  H   UNL A   1      41.068  30.624  34.041  1.00  0.00     0.167 HD
ATOM     73  C   UNL A   1      39.374  32.831  34.611  1.00  0.00     0.074 A 
ATOM     74  C   UNL A   1      38.336  33.832  34.475  1.00  0.00     0.031 C 
ATOM     75  C   UNL A   1      40.194  32.719  35.685  1.00  0.00     0.037 A 
BRANCH  62  76
ATOM     76  C   UNL A   1      44.248  28.054  35.293  1.00  0.00     0.058 A 
ATOM     77  C   UNL A   1      43.964  26.958  36.126  1.00  0.00     0.135 A 
ATOM     78  C   UNL A   1      45.595  28.392  35.096  1.00  0.00     0.135 A 
ATOM     79  F   UNL A   1      42.692  26.597  36.358  1.00  0.00    -0.206 F 
ATOM     80  C   UNL A   1      44.974  26.261  36.781  1.00  0.00     0.059 A 
ATOM     81  C   UNL A   1      46.623  27.690  35.718  1.00  0.00     0.059 A 
ATOM     82  F   UNL A   1      45.925  29.426  34.305  1.00  0.00    -0.206 F 
ATOM     83  C   UNL A   1      46.300  26.642  36.578  1.00  0.00     0.060 A 
BRANCH  83  84
ATOM     84  S   UNL A   1      47.598  25.755  37.467  1.00  0.00     0.124 S 
ATOM     85  O   UNL A   1      47.323  24.375  37.078  1.00  0.00    -0.237 OA
ATOM     86  O   UNL A   1      48.816  26.339  36.911  1.00  0.00    -0.237 OA
ATOM     87  O   UNL A   1      47.334  26.079  38.865  1.00  0.00    -0.744 OA
ENDBRANCH  83  84
ENDBRANCH  62  76
BRANCH  63  88
ATOM     88  C   UNL A   1      36.758  32.793  30.692  1.00  0.00     0.058 A 
ATOM     89  C   UNL A   1      35.436  32.445  31.003  1.00  0.00     0.135 A 
ATOM     90  C   UNL A   1      36.962  33.827  29.766  1.00  0.00     0.135 A 
ATOM     91  F   UNL A   1      35.191  31.458  31.878  1.00  0.00    -0.206 F 
ATOM     92  C   UNL A   1      34.354  33.097  30.421  1.00  0.00     0.059 A 
ATOM     93  C   UNL A   1      35.898  34.509  29.185  1.00  0.00     0.059 A 
ATOM     94  F   UNL A   1      38.210  34.209  29.448  1.00  0.00    -0.206 F 
ATOM     95  C   UNL A   1      34.596  34.134  29.517  1.00  0.00     0.060 A 
BRANCH  95  96
ATOM     96  S   UNL A   1      33.186  35.029  28.829  1.00  0.00     0.124 S 
ATOM     97  O   UNL A   1      33.837  36.194  28.241  1.00  0.00    -0.237 OA
ATOM     98  O   UNL A   1      32.636  34.060  27.887  1.00  0.00    -0.237 OA
ATOM     99  O   UNL A   1      32.354  35.294  30.000  1.00  0.00    -0.744 OA
ENDBRANCH  95  96
ENDBRANCH  63  88
BRANCH  75 100
ATOM    100  C   UNL A   1      40.025  33.722  36.792  1.00  0.00     0.058 A 
ATOM    101  C   UNL A   1      40.726  34.938  36.799  1.00  0.00     0.135 A 
ATOM    102  C   UNL A   1      39.108  33.487  37.830  1.00  0.00     0.135 A 
ATOM    103  F   UNL A   1      41.619  35.208  35.834  1.00  0.00    -0.206 F 
ATOM    104  C   UNL A   1      40.536  35.880  37.805  1.00  0.00     0.059 A 
ATOM    105  C   UNL A   1      38.886  34.424  38.834  1.00  0.00     0.059 A 
ATOM    106  F   UNL A   1      38.408  32.342  37.866  1.00  0.00    -0.206 F 
ATOM    107  C   UNL A   1      39.611  35.614  38.818  1.00  0.00     0.060 A 
BRANCH 107 108
ATOM    108  S   UNL A   1      39.343  36.862  40.095  1.00  0.00     0.124 S 
ATOM    109  O   UNL A   1      38.761  37.954  39.322  1.00  0.00    -0.237 OA
ATOM    110  O   UNL A   1      38.435  36.181  41.014  1.00  0.00    -0.237 OA
ATOM    111  O   UNL A   1      40.684  37.107  40.617  1.00  0.00    -0.744 OA
ENDBRANCH 107 108
ENDBRANCH  75 100
ENDBRANCH  49  50
ENDBRANCH  41  44
ENDBRANCH  39  40
ENDBRANCH   1  39
TORSDOF 15
ENDMDL
MODEL 3
REMARK VINA RESULT:     -14.1      0.433      7.731
REMARK SMILES C[C@H]1[C@H](C)CC[C@@]2(C(=O)NCCCCNC(=O)c3ccc(-c4c5nc(c(-c6c(F)cc(S(=O)(=O)[O-])cc6F)c6ccc([nH]6)c(-c6c(F)cc(S(=O)(=O)[O-])cc6F)c6nc(c(-c7c(F)cc(S(=O)(=O)[O-])cc7F)c7ccc4[nH]7)C=C6)C=C5)cc3)CC[C@@]3(C)C(=CC[C@@H]4[C@@]5(C)CC[C@H](O)C(C)(C)[C@@H]5CC[C@]43C)[C@H]12
REMARK SMILES IDX 13 1 12 2 11 3 10 4 8 5 9 6 7 8 1 9 2 10 3 11 106 12 4 13
REMARK SMILES IDX 5 14 88 15 6 16 84 17 86 18 89 19 85 20 87 21 104 22 90 23
REMARK SMILES IDX 91 24 103 25 105 26 92 27 102 28 93 29 94 30 101 31 95 32
REMARK SMILES IDX 98 33 96 34 99 35 100 36 97 37 14 39 15 40 16 41 17 43 18 44
REMARK SMILES IDX 19 45 83 46 20 47 82 48 21 49 22 50 23 51 76 52 24 53 81 54
REMARK SMILES IDX 75 55 77 56 25 57 80 58 74 59 73 60 26 62 60 63 39 64 59 65
REMARK SMILES IDX 40 66 43 67 58 68 78 69 41 70 42 71 57 73 79 74 44 75 27 76
REMARK SMILES IDX 28 77 37 78 29 79 30 80 36 81 38 82 31 83 32 84 33 85 34 86
REMARK SMILES IDX 35 87 61 88 62 89 71 90 63 91 64 92 70 93 72 94 65 95 66 96
REMARK SMILES IDX 67 97 68 98 69 99 45 100 46 101 55 102 47 103 48 104 54 105
REMARK SMILES IDX 56 106 49 107 50 108 51 109 52 110 53 111
REMARK H PARENT 10 7 97 38 15 42 77 61 43 72
REMARK Flexibility Score: inf
ROOT
ATOM      1  C   UNL A   1      34.885  30.685  27.935  1.00  0.00     0.023 C 
ENDROOT
BRANCH   1   2
ATOM      2  C   UNL A   1      35.295  29.253  27.572  1.00  0.00     0.023 C 
BRANCH   2   3
ATOM      3  C   UNL A   1      34.322  28.448  26.707  1.00  0.00     0.116 C 
BRANCH   3   4
ATOM      4  N   UNL A   1      34.029  29.019  25.408  1.00  0.00    -0.356 N 
ATOM      5  C   UNL A   1      32.876  29.031  24.672  1.00  0.00     0.226 C 
ATOM      6  O   UNL A   1      33.066  28.961  23.450  1.00  0.00    -0.274 OA
ATOM      7  H   UNL A   1      34.790  29.477  24.983  1.00  0.00     0.163 HD
BRANCH   5   8
ATOM      8  C   UNL A   1      31.411  29.172  25.248  1.00  0.00     0.056 C 
ATOM      9  C   UNL A   1      28.766  29.054  22.315  1.00  0.00     0.008 C 
ATOM     10  C   UNL A   1      29.908  29.630  23.174  1.00  0.00    -0.003 C 
ATOM     11  C   UNL A   1      29.491  31.002  23.786  1.00  0.00    -0.011 C 
ATOM     12  C   UNL A   1      30.305  28.636  24.293  1.00  0.00     0.034 C 
ATOM     13  C   UNL A   1      29.271  32.097  22.729  1.00  0.00     0.008 C 
ATOM     14  C   UNL A   1      30.466  31.580  24.825  1.00  0.00     0.005 C 
ATOM     15  C   UNL A   1      30.740  27.203  23.933  1.00  0.00    -0.063 C 
ATOM     16  C   UNL A   1      31.140  30.598  25.763  1.00  0.00     0.018 C 
ATOM     17  C   UNL A   1      31.296  28.257  26.537  1.00  0.00     0.018 C 
ATOM     18  C   UNL A   1      30.591  26.155  25.073  1.00  0.00    -0.006 C 
ATOM     19  C   UNL A   1      31.470  26.961  22.823  1.00  0.00    -0.027 C 
ATOM     20  C   UNL A   1      31.321  26.731  26.337  1.00  0.00     0.013 C 
ATOM     21  C   UNL A   1      29.091  25.977  25.427  1.00  0.00     0.017 C 
ATOM     22  C   UNL A   1      31.225  24.715  24.644  1.00  0.00    -0.020 C 
ATOM     23  C   UNL A   1      32.384  25.775  22.661  1.00  0.00     0.032 C 
ATOM     24  C   UNL A   1      32.625  25.052  24.010  1.00  0.00     0.006 C 
ATOM     25  C   UNL A   1      31.353  23.739  25.846  1.00  0.00     0.008 C 
ATOM     26  C   UNL A   1      30.299  23.985  23.619  1.00  0.00     0.012 C 
ATOM     27  C   UNL A   1      33.780  23.969  24.028  1.00  0.00    -0.025 C 
ATOM     28  C   UNL A   1      32.301  22.567  25.579  1.00  0.00     0.005 C 
ATOM     29  C   UNL A   1      33.743  23.140  22.730  1.00  0.00     0.012 C 
ATOM     30  C   UNL A   1      35.145  24.733  24.095  1.00  0.00     0.010 C 
ATOM     31  C   UNL A   1      33.714  23.118  25.347  1.00  0.00     0.003 C 
ATOM     32  C   UNL A   1      36.362  23.836  24.307  1.00  0.00     0.033 C 
ATOM     33  C   UNL A   1      34.894  22.099  25.574  1.00  0.00    -0.006 C 
ATOM     34  C   UNL A   1      36.227  22.904  25.515  1.00  0.00     0.120 C 
ATOM     35  C   UNL A   1      34.902  20.898  24.605  1.00  0.00     0.014 C 
ATOM     36  C   UNL A   1      34.796  21.477  26.996  1.00  0.00     0.014 C 
BRANCH  34  37
ATOM     37  O   UNL A   1      37.360  22.034  25.564  1.00  0.00    -0.393 OA
ATOM     38  H   UNL A   1      37.785  22.108  26.433  1.00  0.00     0.210 HD
ENDBRANCH  34  37
ENDBRANCH   5   8
ENDBRANCH   3   4
ENDBRANCH   2   3
ENDBRANCH   1   2
BRANCH   1  39
ATOM     39  C   UNL A   1      35.663  31.382  29.051  1.00  0.00     0.116 C 
BRANCH  39  40
ATOM     40  N   UNL A   1      35.698  30.658  30.314  1.00  0.00    -0.352 N 
ATOM     41  C   UNL A   1      36.749  30.092  30.998  1.00  0.00     0.251 C 
ATOM     42  H   UNL A   1      34.822  30.556  30.752  1.00  0.00     0.163 HD
ATOM     43  O   UNL A   1      36.540  29.518  32.066  1.00  0.00    -0.269 OA
BRANCH  41  44
ATOM     44  C   UNL A   1      38.115  30.109  30.431  1.00  0.00     0.039 A 
ATOM     45  C   UNL A   1      39.197  29.975  31.307  1.00  0.00     0.014 A 
ATOM     46  C   UNL A   1      38.337  30.214  29.057  1.00  0.00     0.014 A 
ATOM     47  C   UNL A   1      40.488  29.821  30.797  1.00  0.00     0.010 A 
ATOM     48  C   UNL A   1      39.615  29.990  28.547  1.00  0.00     0.010 A 
ATOM     49  C   UNL A   1      40.699  29.759  29.410  1.00  0.00    -0.014 A 
BRANCH  49  50
ATOM     50  C   UNL A   1      42.025  29.383  28.849  1.00  0.00     0.031 A 
ATOM     51  C   UNL A   1      42.290  27.984  28.374  1.00  0.00     0.074 A 
ATOM     52  C   UNL A   1      43.024  30.290  28.856  1.00  0.00     0.049 A 
ATOM     53  N   UNL A   1      43.407  27.456  27.942  1.00  0.00    -0.248 NA
ATOM     54  C   UNL A   1      41.159  27.045  28.417  1.00  0.00     0.031 C 
ATOM     55  C   UNL A   1      42.914  31.666  29.351  1.00  0.00     0.029 A 
ATOM     56  N   UNL A   1      44.332  30.189  28.453  1.00  0.00    -0.354 N 
ATOM     57  C   UNL A   1      43.121  26.123  27.678  1.00  0.00     0.074 A 
ATOM     58  C   UNL A   1      41.735  25.912  28.045  1.00  0.00     0.031 C 
ATOM     59  C   UNL A   1      44.097  32.282  29.207  1.00  0.00     0.029 A 
ATOM     60  C   UNL A   1      45.060  31.340  28.646  1.00  0.00     0.049 A 
ATOM     61  H   UNL A   1      44.714  29.370  28.063  1.00  0.00     0.167 HD
ATOM     62  C   UNL A   1      43.929  25.166  27.160  1.00  0.00     0.037 A 
ATOM     63  C   UNL A   1      46.360  31.609  28.409  1.00  0.00     0.037 A 
ATOM     64  C   UNL A   1      45.302  25.385  26.781  1.00  0.00     0.049 A 
ATOM     65  C   UNL A   1      47.234  30.542  27.814  1.00  0.00     0.074 A 
ATOM     66  C   UNL A   1      46.186  24.495  26.195  1.00  0.00     0.029 A 
ATOM     67  N   UNL A   1      45.991  26.577  26.950  1.00  0.00    -0.354 N 
ATOM     68  N   UNL A   1      46.928  29.303  27.510  1.00  0.00    -0.248 NA
ATOM     69  C   UNL A   1      48.626  30.908  27.520  1.00  0.00     0.031 C 
ATOM     70  C   UNL A   1      47.420  25.139  26.044  1.00  0.00     0.029 A 
ATOM     71  C   UNL A   1      47.292  26.443  26.495  1.00  0.00     0.049 A 
ATOM     72  H   UNL A   1      45.610  27.399  27.337  1.00  0.00     0.167 HD
ATOM     73  C   UNL A   1      48.082  28.748  26.971  1.00  0.00     0.074 A 
ATOM     74  C   UNL A   1      49.090  29.789  26.981  1.00  0.00     0.031 C 
ATOM     75  C   UNL A   1      48.286  27.490  26.509  1.00  0.00     0.037 A 
BRANCH  62  76
ATOM     76  C   UNL A   1      43.340  23.793  26.979  1.00  0.00     0.058 A 
ATOM     77  C   UNL A   1      43.232  22.893  28.052  1.00  0.00     0.135 A 
ATOM     78  C   UNL A   1      42.887  23.367  25.720  1.00  0.00     0.135 A 
ATOM     79  F   UNL A   1      43.659  23.243  29.275  1.00  0.00    -0.206 F 
ATOM     80  C   UNL A   1      42.746  21.602  27.872  1.00  0.00     0.059 A 
ATOM     81  C   UNL A   1      42.370  22.090  25.524  1.00  0.00     0.059 A 
ATOM     82  F   UNL A   1      42.961  24.189  24.661  1.00  0.00    -0.206 F 
ATOM     83  C   UNL A   1      42.327  21.207  26.602  1.00  0.00     0.060 A 
BRANCH  83  84
ATOM     84  S   UNL A   1      41.737  19.515  26.374  1.00  0.00     0.124 S 
ATOM     85  O   UNL A   1      42.493  19.104  25.194  1.00  0.00    -0.237 OA
ATOM     86  O   UNL A   1      42.123  18.875  27.627  1.00  0.00    -0.237 OA
ATOM     87  O   UNL A   1      40.301  19.681  26.174  1.00  0.00    -0.744 OA
ENDBRANCH  83  84
ENDBRANCH  62  76
BRANCH  63  88
ATOM     88  C   UNL A   1      46.895  32.963  28.710  1.00  0.00     0.058 A 
ATOM     89  C   UNL A   1      47.452  33.253  29.964  1.00  0.00     0.135 A 
ATOM     90  C   UNL A   1      46.904  33.976  27.739  1.00  0.00     0.135 A 
ATOM     91  F   UNL A   1      47.460  32.319  30.925  1.00  0.00    -0.206 F 
ATOM     92  C   UNL A   1      48.001  34.500  30.246  1.00  0.00     0.059 A 
ATOM     93  C   UNL A   1      47.466  35.224  27.990  1.00  0.00     0.059 A 
ATOM     94  F   UNL A   1      46.398  33.742  26.517  1.00  0.00    -0.206 F 
ATOM     95  C   UNL A   1      48.010  35.477  29.249  1.00  0.00     0.060 A 
BRANCH  95  96
ATOM     96  S   UNL A   1      48.798  37.064  29.599  1.00  0.00     0.124 S 
ATOM     97  O   UNL A   1      49.257  37.463  28.273  1.00  0.00    -0.237 OA
ATOM     98  O   UNL A   1      47.694  37.841  30.153  1.00  0.00    -0.237 OA
ATOM     99  O   UNL A   1      49.848  36.713  30.552  1.00  0.00    -0.744 OA
ENDBRANCH  95  96
ENDBRANCH  63  88
BRANCH  75 100
ATOM    100  C   UNL A   1      49.644  27.170  25.947  1.00  0.00     0.058 A 
ATOM    101  C   UNL A   1      50.679  26.677  26.757  1.00  0.00     0.135 A 
ATOM    102  C   UNL A   1      49.895  27.308  24.572  1.00  0.00     0.135 A 
ATOM    103  F   UNL A   1      50.493  26.535  28.078  1.00  0.00    -0.206 F 
ATOM    104  C   UNL A   1      51.921  26.346  26.226  1.00  0.00     0.059 A 
ATOM    105  C   UNL A   1      51.122  26.962  24.016  1.00  0.00     0.059 A 
ATOM    106  F   UNL A   1      48.936  27.769  23.753  1.00  0.00    -0.206 F 
ATOM    107  C   UNL A   1      52.133  26.490  24.852  1.00  0.00     0.060 A 
BRANCH 107 108
ATOM    108  S   UNL A   1      53.735  26.017  24.167  1.00  0.00     0.124 S 
ATOM    109  O   UNL A   1      54.586  27.108  24.631  1.00  0.00    -0.237 OA
ATOM    110  O   UNL A   1      53.973  24.719  24.790  1.00  0.00    -0.237 OA
ATOM    111  O   UNL A   1      53.491  25.980  22.729  1.00  0.00    -0.744 OA
ENDBRANCH 107 108
ENDBRANCH  75 100
ENDBRANCH  49  50
ENDBRANCH  41  44
ENDBRANCH  39  40
ENDBRANCH   1  39
TORSDOF 15
ENDMDL
