MODEL 1
REMARK VINA RESULT:     -10.1      0.000      0.000
REMARK SMILES C=CC[N@@H+](CC(=O)NCCCCNC(=O)c1ccc(-c2c3nc(c(-c4c(F)cc(S(=O)(=O)[O-])cc4F)c4ccc([nH]4)c(-c4c(F)cc(S(=O)(=O)[O-])cc4F)c4nc(c(-c5c(F)cc(S(=O)(=O)[O-])cc5F)c5ccc2[nH]5)C=C4)C=C3)cc1)C1CCCCC1
REMARK SMILES IDX 10 1 9 2 8 3 6 4 7 5 5 7 4 8 3 10 2 11 1 12 82 13 83 14
REMARK SMILES IDX 87 15 84 16 86 17 85 18 11 19 12 20 13 21 14 22 15 24 16 25
REMARK SMILES IDX 17 26 81 27 18 28 80 29 19 30 20 31 21 32 74 33 22 34 79 35
REMARK SMILES IDX 73 36 75 37 23 38 78 39 72 40 71 41 24 43 58 44 37 45 57 46
REMARK SMILES IDX 38 47 41 48 56 49 76 50 39 51 40 52 55 54 77 55 42 56 25 57
REMARK SMILES IDX 26 58 35 59 27 60 28 61 34 62 36 63 29 64 30 65 31 66 32 67
REMARK SMILES IDX 33 68 59 69 60 70 69 71 61 72 62 73 68 74 70 75 63 76 64 77
REMARK SMILES IDX 65 78 66 79 67 80 43 81 44 82 53 83 45 84 46 85 52 86 54 87
REMARK SMILES IDX 47 88 48 89 49 90 50 91 51 92
REMARK H PARENT 8 6 4 9 13 23 75 42 41 53
REMARK Flexibility Score: inf
ROOT
ATOM      1  C   UNL A   1      33.121  29.116  24.378  1.00  0.00     0.023 C 
ENDROOT
BRANCH   1   2
ATOM      2  C   UNL A   1      32.252  28.589  23.234  1.00  0.00     0.116 C 
BRANCH   2   3
ATOM      3  N   UNL A   1      32.992  27.726  22.338  1.00  0.00    -0.351 N 
ATOM      4  C   UNL A   1      32.896  26.380  22.129  1.00  0.00     0.275 C 
ATOM      5  O   UNL A   1      33.601  25.899  21.233  1.00  0.00    -0.269 OA
ATOM      6  H   UNL A   1      33.674  28.182  21.793  1.00  0.00     0.163 HD
BRANCH   4   7
ATOM      7  C   UNL A   1      31.931  25.490  22.920  1.00  0.00     0.364 C 
BRANCH   7   8
ATOM      8  N   UNL A   1      32.519  24.526  23.873  1.00  0.00    -0.321 N 
ATOM      9  H   UNL A   1      32.422  23.641  23.375  1.00  0.00     0.349 HD
BRANCH   8  10
ATOM     10  C   UNL A   1      31.721  24.327  25.070  1.00  0.00     0.291 C 
BRANCH  10  11
ATOM     11  C   UNL A   1      31.056  22.995  25.251  1.00  0.00     0.025 C 
ATOM     12  C   UNL A   1      31.728  21.842  25.380  1.00  0.00     0.010 C 
ENDBRANCH  10  11
ENDBRANCH   8  10
BRANCH   8  13
ATOM     13  C   UNL A   1      33.978  24.349  23.936  1.00  0.00     0.184 C 
ATOM     14  C   UNL A   1      34.473  24.409  25.395  1.00  0.00     0.065 C 
ATOM     15  C   UNL A   1      34.578  23.136  23.199  1.00  0.00     0.065 C 
ATOM     16  C   UNL A   1      36.000  24.376  25.465  1.00  0.00     0.006 C 
ATOM     17  C   UNL A   1      36.101  23.072  23.318  1.00  0.00     0.006 C 
ATOM     18  C   UNL A   1      36.560  23.143  24.770  1.00  0.00     0.000 C 
ENDBRANCH   8  13
ENDBRANCH   7   8
ENDBRANCH   4   7
ENDBRANCH   2   3
ENDBRANCH   1   2
BRANCH   1  19
ATOM     19  C   UNL A   1      34.089  28.129  25.006  1.00  0.00     0.023 C 
BRANCH  19  20
ATOM     20  C   UNL A   1      34.199  28.225  26.515  1.00  0.00     0.116 C 
BRANCH  20  21
ATOM     21  N   UNL A   1      33.762  29.502  27.062  1.00  0.00    -0.352 N 
ATOM     22  C   UNL A   1      34.471  30.385  27.843  1.00  0.00     0.251 C 
ATOM     23  H   UNL A   1      32.840  29.768  26.843  1.00  0.00     0.163 HD
ATOM     24  O   UNL A   1      33.922  31.387  28.293  1.00  0.00    -0.269 OA
BRANCH  22  25
ATOM     25  C   UNL A   1      35.881  30.088  28.165  1.00  0.00     0.039 A 
ATOM     26  C   UNL A   1      36.200  29.551  29.413  1.00  0.00     0.014 A 
ATOM     27  C   UNL A   1      36.880  30.293  27.210  1.00  0.00     0.014 A 
ATOM     28  C   UNL A   1      37.516  29.171  29.681  1.00  0.00     0.010 A 
ATOM     29  C   UNL A   1      38.156  29.803  27.432  1.00  0.00     0.010 A 
ATOM     30  C   UNL A   1      38.497  29.270  28.682  1.00  0.00    -0.014 A 
BRANCH  30  31
ATOM     31  C   UNL A   1      39.911  28.906  28.940  1.00  0.00     0.031 A 
ATOM     32  C   UNL A   1      40.828  29.927  29.564  1.00  0.00     0.074 A 
ATOM     33  C   UNL A   1      40.381  27.702  28.563  1.00  0.00     0.049 A 
ATOM     34  N   UNL A   1      42.112  29.854  29.799  1.00  0.00    -0.248 NA
ATOM     35  C   UNL A   1      40.229  31.225  29.927  1.00  0.00     0.031 C 
ATOM     36  C   UNL A   1      39.605  26.660  27.885  1.00  0.00     0.029 A 
ATOM     37  N   UNL A   1      41.631  27.152  28.692  1.00  0.00    -0.354 N 
ATOM     38  C   UNL A   1      42.473  31.098  30.303  1.00  0.00     0.074 A 
ATOM     39  C   UNL A   1      41.294  31.931  30.269  1.00  0.00     0.031 C 
ATOM     40  C   UNL A   1      40.388  25.586  27.690  1.00  0.00     0.029 A 
ATOM     41  C   UNL A   1      41.724  25.871  28.203  1.00  0.00     0.049 A 
ATOM     42  H   UNL A   1      42.390  27.632  29.095  1.00  0.00     0.167 HD
ATOM     43  C   UNL A   1      43.670  31.500  30.791  1.00  0.00     0.037 A 
ATOM     44  C   UNL A   1      42.770  25.022  28.185  1.00  0.00     0.037 A 
ATOM     45  C   UNL A   1      44.820  30.641  30.881  1.00  0.00     0.049 A 
ATOM     46  C   UNL A   1      44.072  25.464  28.798  1.00  0.00     0.074 A 
ATOM     47  C   UNL A   1      46.065  30.919  31.412  1.00  0.00     0.029 A 
ATOM     48  N   UNL A   1      44.853  29.325  30.441  1.00  0.00    -0.354 N 
ATOM     49  N   UNL A   1      44.384  26.627  29.322  1.00  0.00    -0.248 NA
ATOM     50  C   UNL A   1      45.157  24.477  28.836  1.00  0.00     0.031 C 
ATOM     51  C   UNL A   1      46.859  29.775  31.277  1.00  0.00     0.029 A 
ATOM     52  C   UNL A   1      46.095  28.774  30.696  1.00  0.00     0.049 A 
ATOM     53  H   UNL A   1      44.102  28.854  30.013  1.00  0.00     0.167 HD
ATOM     54  C   UNL A   1      45.689  26.499  29.784  1.00  0.00     0.074 A 
ATOM     55  C   UNL A   1      46.103  25.143  29.484  1.00  0.00     0.031 C 
ATOM     56  C   UNL A   1      46.473  27.415  30.405  1.00  0.00     0.037 A 
BRANCH  43  57
ATOM     57  C   UNL A   1      43.778  32.917  31.282  1.00  0.00     0.058 A 
ATOM     58  C   UNL A   1      43.496  33.257  32.616  1.00  0.00     0.135 A 
ATOM     59  C   UNL A   1      44.169  33.948  30.413  1.00  0.00     0.135 A 
ATOM     60  F   UNL A   1      43.096  32.315  33.485  1.00  0.00    -0.206 F 
ATOM     61  C   UNL A   1      43.557  34.575  33.060  1.00  0.00     0.059 A 
ATOM     62  C   UNL A   1      44.267  35.269  30.845  1.00  0.00     0.059 A 
ATOM     63  F   UNL A   1      44.448  33.681  29.128  1.00  0.00    -0.206 F 
ATOM     64  C   UNL A   1      43.941  35.573  32.166  1.00  0.00     0.060 A 
BRANCH  64  65
ATOM     65  S   UNL A   1      44.011  37.278  32.756  1.00  0.00     0.124 S 
ATOM     66  O   UNL A   1      43.837  38.023  31.511  1.00  0.00    -0.237 OA
ATOM     67  O   UNL A   1      42.890  37.334  33.688  1.00  0.00    -0.237 OA
ATOM     68  O   UNL A   1      45.334  37.371  33.365  1.00  0.00    -0.744 OA
ENDBRANCH  64  65
ENDBRANCH  43  57
BRANCH  44  69
ATOM     69  C   UNL A   1      42.611  23.654  27.627  1.00  0.00     0.058 A 
ATOM     70  C   UNL A   1      42.338  22.562  28.466  1.00  0.00     0.135 A 
ATOM     71  C   UNL A   1      42.712  23.408  26.250  1.00  0.00     0.135 A 
ATOM     72  F   UNL A   1      42.232  22.746  29.792  1.00  0.00    -0.206 F 
ATOM     73  C   UNL A   1      42.194  21.274  27.965  1.00  0.00     0.059 A 
ATOM     74  C   UNL A   1      42.550  22.131  25.721  1.00  0.00     0.059 A 
ATOM     75  F   UNL A   1      42.951  24.421  25.402  1.00  0.00    -0.206 F 
ATOM     76  C   UNL A   1      42.302  21.067  26.589  1.00  0.00     0.060 A 
BRANCH  76  77
ATOM     77  S   UNL A   1      42.071  19.396  25.942  1.00  0.00     0.124 S 
ATOM     78  O   UNL A   1      40.628  19.360  25.732  1.00  0.00    -0.237 OA
ATOM     79  O   UNL A   1      42.892  19.418  24.735  1.00  0.00    -0.237 OA
ATOM     80  O   UNL A   1      42.576  18.548  27.017  1.00  0.00    -0.744 OA
ENDBRANCH  76  77
ENDBRANCH  44  69
BRANCH  56  81
ATOM     81  C   UNL A   1      47.835  26.965  30.849  1.00  0.00     0.058 A 
ATOM     82  C   UNL A   1      48.061  26.448  32.133  1.00  0.00     0.135 A 
ATOM     83  C   UNL A   1      48.918  27.010  29.955  1.00  0.00     0.135 A 
ATOM     84  F   UNL A   1      47.059  26.385  33.023  1.00  0.00    -0.206 F 
ATOM     85  C   UNL A   1      49.324  26.021  32.528  1.00  0.00     0.059 A 
ATOM     86  C   UNL A   1      50.182  26.564  30.320  1.00  0.00     0.059 A 
ATOM     87  F   UNL A   1      48.748  27.482  28.709  1.00  0.00    -0.206 F 
ATOM     88  C   UNL A   1      50.379  26.084  31.615  1.00  0.00     0.060 A 
BRANCH  88  89
ATOM     89  S   UNL A   1      52.009  25.508  32.131  1.00  0.00     0.124 S 
ATOM     90  O   UNL A   1      51.792  24.068  32.229  1.00  0.00    -0.237 OA
ATOM     91  O   UNL A   1      52.861  25.946  31.029  1.00  0.00    -0.237 OA
ATOM     92  O   UNL A   1      52.228  26.200  33.397  1.00  0.00    -0.744 OA
ENDBRANCH  88  89
ENDBRANCH  56  81
ENDBRANCH  30  31
ENDBRANCH  22  25
ENDBRANCH  20  21
ENDBRANCH  19  20
ENDBRANCH   1  19
TORSDOF 18
ENDMDL
MODEL 2
REMARK VINA RESULT:      -9.7      1.427      2.270
REMARK SMILES C=CC[N@@H+](CC(=O)NCCCCNC(=O)c1ccc(-c2c3nc(c(-c4c(F)cc(S(=O)(=O)[O-])cc4F)c4ccc([nH]4)c(-c4c(F)cc(S(=O)(=O)[O-])cc4F)c4nc(c(-c5c(F)cc(S(=O)(=O)[O-])cc5F)c5ccc2[nH]5)C=C4)C=C3)cc1)C1CCCCC1
REMARK SMILES IDX 10 1 9 2 8 3 6 4 7 5 5 7 4 8 3 10 2 11 1 12 82 13 83 14
REMARK SMILES IDX 87 15 84 16 86 17 85 18 11 19 12 20 13 21 14 22 15 24 16 25
REMARK SMILES IDX 17 26 81 27 18 28 80 29 19 30 20 31 21 32 74 33 22 34 79 35
REMARK SMILES IDX 73 36 75 37 23 38 78 39 72 40 71 41 24 43 58 44 37 45 57 46
REMARK SMILES IDX 38 47 41 48 56 49 76 50 39 51 40 52 55 54 77 55 42 56 25 57
REMARK SMILES IDX 26 58 35 59 27 60 28 61 34 62 36 63 29 64 30 65 31 66 32 67
REMARK SMILES IDX 33 68 59 69 60 70 69 71 61 72 62 73 68 74 70 75 63 76 64 77
REMARK SMILES IDX 65 78 66 79 67 80 43 81 44 82 53 83 45 84 46 85 52 86 54 87
REMARK SMILES IDX 47 88 48 89 49 90 50 91 51 92
REMARK H PARENT 8 6 4 9 13 23 75 42 41 53
REMARK Flexibility Score: inf
ROOT
ATOM      1  C   UNL A   1      33.299  25.990  25.976  1.00  0.00     0.023 C 
ENDROOT
BRANCH   1   2
ATOM      2  C   UNL A   1      34.044  25.493  24.736  1.00  0.00     0.116 C 
BRANCH   2   3
ATOM      3  N   UNL A   1      34.870  24.339  25.021  1.00  0.00    -0.351 N 
ATOM      4  C   UNL A   1      34.730  23.036  24.637  1.00  0.00     0.275 C 
ATOM      5  O   UNL A   1      35.636  22.255  24.955  1.00  0.00    -0.269 OA
ATOM      6  H   UNL A   1      35.658  24.522  25.583  1.00  0.00     0.163 HD
BRANCH   4   7
ATOM      7  C   UNL A   1      33.539  22.546  23.806  1.00  0.00     0.364 C 
BRANCH   7   8
ATOM      8  N   UNL A   1      32.836  21.333  24.272  1.00  0.00    -0.321 N 
ATOM      9  H   UNL A   1      32.011  21.315  23.673  1.00  0.00     0.349 HD
BRANCH   8  10
ATOM     10  C   UNL A   1      32.278  21.458  25.608  1.00  0.00     0.291 C 
BRANCH  10  11
ATOM     11  C   UNL A   1      31.081  22.344  25.782  1.00  0.00     0.025 C 
ATOM     12  C   UNL A   1      31.030  23.358  26.660  1.00  0.00     0.010 C 
ENDBRANCH  10  11
ENDBRANCH   8  10
BRANCH   8  13
ATOM     13  C   UNL A   1      33.243  20.009  23.777  1.00  0.00     0.184 C 
ATOM     14  C   UNL A   1      34.047  19.248  24.851  1.00  0.00     0.065 C 
ATOM     15  C   UNL A   1      32.148  19.112  23.168  1.00  0.00     0.065 C 
ATOM     16  C   UNL A   1      34.604  17.934  24.301  1.00  0.00     0.006 C 
ATOM     17  C   UNL A   1      32.697  17.774  22.669  1.00  0.00     0.006 C 
ATOM     18  C   UNL A   1      33.493  17.050  23.749  1.00  0.00     0.000 C 
ENDBRANCH   8  13
ENDBRANCH   7   8
ENDBRANCH   4   7
ENDBRANCH   2   3
ENDBRANCH   1   2
BRANCH   1  19
ATOM     19  C   UNL A   1      33.075  27.489  26.078  1.00  0.00     0.023 C 
BRANCH  19  20
ATOM     20  C   UNL A   1      34.172  28.244  26.801  1.00  0.00     0.116 C 
BRANCH  20  21
ATOM     21  N   UNL A   1      33.763  29.550  27.302  1.00  0.00    -0.352 N 
ATOM     22  C   UNL A   1      34.501  30.456  28.026  1.00  0.00     0.251 C 
ATOM     23  H   UNL A   1      32.839  29.817  27.095  1.00  0.00     0.163 HD
ATOM     24  O   UNL A   1      33.975  31.484  28.445  1.00  0.00    -0.269 OA
BRANCH  22  25
ATOM     25  C   UNL A   1      35.916  30.157  28.326  1.00  0.00     0.039 A 
ATOM     26  C   UNL A   1      36.257  29.643  29.578  1.00  0.00     0.014 A 
ATOM     27  C   UNL A   1      36.896  30.337  27.347  1.00  0.00     0.014 A 
ATOM     28  C   UNL A   1      37.575  29.259  29.827  1.00  0.00     0.010 A 
ATOM     29  C   UNL A   1      38.174  29.843  27.553  1.00  0.00     0.010 A 
ATOM     30  C   UNL A   1      38.537  29.332  28.806  1.00  0.00    -0.014 A 
BRANCH  30  31
ATOM     31  C   UNL A   1      39.953  28.964  29.044  1.00  0.00     0.031 A 
ATOM     32  C   UNL A   1      40.882  29.982  29.655  1.00  0.00     0.074 A 
ATOM     33  C   UNL A   1      40.414  27.759  28.657  1.00  0.00     0.049 A 
ATOM     34  N   UNL A   1      42.169  29.904  29.872  1.00  0.00    -0.248 NA
ATOM     35  C   UNL A   1      40.292  31.280  30.029  1.00  0.00     0.031 C 
ATOM     36  C   UNL A   1      39.626  26.720  27.989  1.00  0.00     0.029 A 
ATOM     37  N   UNL A   1      41.664  27.206  28.767  1.00  0.00    -0.354 N 
ATOM     38  C   UNL A   1      42.540  31.148  30.372  1.00  0.00     0.074 A 
ATOM     39  C   UNL A   1      41.363  31.984  30.357  1.00  0.00     0.031 C 
ATOM     40  C   UNL A   1      40.403  25.644  27.782  1.00  0.00     0.029 A 
ATOM     41  C   UNL A   1      41.747  25.925  28.275  1.00  0.00     0.049 A 
ATOM     42  H   UNL A   1      42.431  27.683  29.160  1.00  0.00     0.167 HD
ATOM     43  C   UNL A   1      43.746  31.545  30.843  1.00  0.00     0.037 A 
ATOM     44  C   UNL A   1      42.790  25.074  28.241  1.00  0.00     0.037 A 
ATOM     45  C   UNL A   1      44.894  30.683  30.915  1.00  0.00     0.049 A 
ATOM     46  C   UNL A   1      44.103  25.512  28.836  1.00  0.00     0.074 A 
ATOM     47  C   UNL A   1      46.148  30.957  31.429  1.00  0.00     0.029 A 
ATOM     48  N   UNL A   1      44.917  29.368  30.473  1.00  0.00    -0.354 N 
ATOM     49  N   UNL A   1      44.425  26.672  29.357  1.00  0.00    -0.248 NA
ATOM     50  C   UNL A   1      45.186  24.521  28.856  1.00  0.00     0.031 C 
ATOM     51  C   UNL A   1      46.937  29.811  31.280  1.00  0.00     0.029 A 
ATOM     52  C   UNL A   1      46.162  28.813  30.709  1.00  0.00     0.049 A 
ATOM     53  H   UNL A   1      44.159  28.899  30.055  1.00  0.00     0.167 HD
ATOM     54  C   UNL A   1      45.736  26.540  29.800  1.00  0.00     0.074 A 
ATOM     55  C   UNL A   1      46.143  25.184  29.491  1.00  0.00     0.031 C 
ATOM     56  C   UNL A   1      46.532  27.453  30.410  1.00  0.00     0.037 A 
BRANCH  43  57
ATOM     57  C   UNL A   1      43.865  32.961  31.335  1.00  0.00     0.058 A 
ATOM     58  C   UNL A   1      44.173  34.020  30.464  1.00  0.00     0.135 A 
ATOM     59  C   UNL A   1      43.667  33.267  32.690  1.00  0.00     0.135 A 
ATOM     60  F   UNL A   1      44.394  33.782  29.161  1.00  0.00    -0.206 F 
ATOM     61  C   UNL A   1      44.323  35.324  30.925  1.00  0.00     0.059 A 
ATOM     62  C   UNL A   1      43.781  34.571  33.169  1.00  0.00     0.059 A 
ATOM     63  F   UNL A   1      43.373  32.295  33.568  1.00  0.00    -0.206 F 
ATOM     64  C   UNL A   1      44.127  35.588  32.281  1.00  0.00     0.060 A 
BRANCH  64  65
ATOM     65  S   UNL A   1      44.328  37.284  32.866  1.00  0.00     0.124 S 
ATOM     66  O   UNL A   1      44.352  38.024  31.607  1.00  0.00    -0.237 OA
ATOM     67  O   UNL A   1      43.138  37.474  33.689  1.00  0.00    -0.237 OA
ATOM     68  O   UNL A   1      45.591  37.243  33.596  1.00  0.00    -0.744 OA
ENDBRANCH  64  65
ENDBRANCH  43  57
BRANCH  44  69
ATOM     69  C   UNL A   1      42.619  23.707  27.683  1.00  0.00     0.058 A 
ATOM     70  C   UNL A   1      42.426  22.604  28.529  1.00  0.00     0.135 A 
ATOM     71  C   UNL A   1      42.630  23.473  26.300  1.00  0.00     0.135 A 
ATOM     72  F   UNL A   1      42.409  22.775  29.861  1.00  0.00    -0.206 F 
ATOM     73  C   UNL A   1      42.273  21.316  28.028  1.00  0.00     0.059 A 
ATOM     74  C   UNL A   1      42.456  22.197  25.773  1.00  0.00     0.059 A 
ATOM     75  F   UNL A   1      42.790  24.497  25.447  1.00  0.00    -0.206 F 
ATOM     76  C   UNL A   1      42.290  21.122  26.646  1.00  0.00     0.060 A 
BRANCH  76  77
ATOM     77  S   UNL A   1      42.047  19.452  26.002  1.00  0.00     0.124 S 
ATOM     78  O   UNL A   1      42.894  19.470  24.815  1.00  0.00    -0.237 OA
ATOM     79  O   UNL A   1      42.516  18.624  27.109  1.00  0.00    -0.237 OA
ATOM     80  O   UNL A   1      40.610  19.395  25.753  1.00  0.00    -0.744 OA
ENDBRANCH  76  77
ENDBRANCH  44  69
BRANCH  56  81
ATOM     81  C   UNL A   1      47.899  26.999  30.834  1.00  0.00     0.058 A 
ATOM     82  C   UNL A   1      48.120  26.370  32.067  1.00  0.00     0.135 A 
ATOM     83  C   UNL A   1      48.993  27.157  29.967  1.00  0.00     0.135 A 
ATOM     84  F   UNL A   1      47.107  26.197  32.930  1.00  0.00    -0.206 F 
ATOM     85  C   UNL A   1      49.388  25.940  32.442  1.00  0.00     0.059 A 
ATOM     86  C   UNL A   1      50.264  26.711  30.310  1.00  0.00     0.059 A 
ATOM     87  F   UNL A   1      48.829  27.740  28.768  1.00  0.00    -0.206 F 
ATOM     88  C   UNL A   1      50.454  26.116  31.558  1.00  0.00     0.060 A 
BRANCH  88  89
ATOM     89  S   UNL A   1      52.092  25.537  32.045  1.00  0.00     0.124 S 
ATOM     90  O   UNL A   1      52.887  25.886  30.872  1.00  0.00    -0.237 OA
ATOM     91  O   UNL A   1      52.359  26.322  33.247  1.00  0.00    -0.237 OA
ATOM     92  O   UNL A   1      51.893  24.108  32.269  1.00  0.00    -0.744 OA
ENDBRANCH  88  89
ENDBRANCH  56  81
ENDBRANCH  30  31
ENDBRANCH  22  25
ENDBRANCH  20  21
ENDBRANCH  19  20
ENDBRANCH   1  19
TORSDOF 18
ENDMDL
MODEL 3
REMARK VINA RESULT:      -9.6      4.803     10.567
REMARK SMILES C=CC[N@@H+](CC(=O)NCCCCNC(=O)c1ccc(-c2c3nc(c(-c4c(F)cc(S(=O)(=O)[O-])cc4F)c4ccc([nH]4)c(-c4c(F)cc(S(=O)(=O)[O-])cc4F)c4nc(c(-c5c(F)cc(S(=O)(=O)[O-])cc5F)c5ccc2[nH]5)C=C4)C=C3)cc1)C1CCCCC1
REMARK SMILES IDX 10 1 9 2 8 3 6 4 7 5 5 7 4 8 3 10 2 11 1 12 82 13 83 14
REMARK SMILES IDX 87 15 84 16 86 17 85 18 11 19 12 20 13 21 14 22 15 24 16 25
REMARK SMILES IDX 17 26 81 27 18 28 80 29 19 30 20 31 21 32 74 33 22 34 79 35
REMARK SMILES IDX 73 36 75 37 23 38 78 39 72 40 71 41 24 43 58 44 37 45 57 46
REMARK SMILES IDX 38 47 41 48 56 49 76 50 39 51 40 52 55 54 77 55 42 56 25 57
REMARK SMILES IDX 26 58 35 59 27 60 28 61 34 62 36 63 29 64 30 65 31 66 32 67
REMARK SMILES IDX 33 68 59 69 60 70 69 71 61 72 62 73 68 74 70 75 63 76 64 77
REMARK SMILES IDX 65 78 66 79 67 80 43 81 44 82 53 83 45 84 46 85 52 86 54 87
REMARK SMILES IDX 47 88 48 89 49 90 50 91 51 92
REMARK H PARENT 8 6 4 9 13 23 75 42 41 53
REMARK Flexibility Score: inf
ROOT
ATOM      1  C   UNL A   1      36.972  23.752  26.105  1.00  0.00     0.023 C 
ENDROOT
BRANCH   1   2
ATOM      2  C   UNL A   1      35.777  22.823  25.883  1.00  0.00     0.116 C 
BRANCH   2   3
ATOM      3  N   UNL A   1      34.851  22.849  26.994  1.00  0.00    -0.351 N 
ATOM      4  C   UNL A   1      33.492  22.993  27.009  1.00  0.00     0.275 C 
ATOM      5  O   UNL A   1      32.929  22.897  28.107  1.00  0.00    -0.269 OA
ATOM      6  H   UNL A   1      35.265  22.748  27.882  1.00  0.00     0.163 HD
BRANCH   4   7
ATOM      7  C   UNL A   1      32.674  23.216  25.733  1.00  0.00     0.364 C 
BRANCH   7   8
ATOM      8  N   UNL A   1      32.694  24.569  25.138  1.00  0.00    -0.321 N 
ATOM      9  H   UNL A   1      31.707  24.736  24.942  1.00  0.00     0.349 HD
BRANCH   8  10
ATOM     10  C   UNL A   1      33.311  24.620  23.823  1.00  0.00     0.291 C 
BRANCH  10  11
ATOM     11  C   UNL A   1      32.406  24.609  22.628  1.00  0.00     0.025 C 
ATOM     12  C   UNL A   1      31.572  25.614  22.320  1.00  0.00     0.010 C 
ENDBRANCH  10  11
ENDBRANCH   8  10
BRANCH   8  13
ATOM     13  C   UNL A   1      32.738  25.755  26.006  1.00  0.00     0.184 C 
ATOM     14  C   UNL A   1      33.799  26.758  25.508  1.00  0.00     0.065 C 
ATOM     15  C   UNL A   1      31.404  26.465  26.305  1.00  0.00     0.065 C 
ATOM     16  C   UNL A   1      33.961  27.925  26.483  1.00  0.00     0.006 C 
ATOM     17  C   UNL A   1      31.575  27.668  27.235  1.00  0.00     0.006 C 
ATOM     18  C   UNL A   1      32.635  28.635  26.721  1.00  0.00     0.000 C 
ENDBRANCH   8  13
ENDBRANCH   7   8
ENDBRANCH   4   7
ENDBRANCH   2   3
ENDBRANCH   1   2
BRANCH   1  19
ATOM     19  C   UNL A   1      38.341  23.096  26.163  1.00  0.00     0.023 C 
BRANCH  19  20
ATOM     20  C   UNL A   1      39.407  23.918  26.857  1.00  0.00     0.116 C 
BRANCH  20  21
ATOM     21  N   UNL A   1      40.540  24.260  26.006  1.00  0.00    -0.352 N 
ATOM     22  C   UNL A   1      41.422  25.307  26.138  1.00  0.00     0.251 C 
ATOM     23  H   UNL A   1      40.693  23.664  25.238  1.00  0.00     0.163 HD
ATOM     24  O   UNL A   1      42.279  25.503  25.280  1.00  0.00    -0.269 OA
BRANCH  22  25
ATOM     25  C   UNL A   1      41.297  26.211  27.299  1.00  0.00     0.039 A 
ATOM     26  C   UNL A   1      41.913  27.463  27.260  1.00  0.00     0.014 A 
ATOM     27  C   UNL A   1      40.527  25.839  28.403  1.00  0.00     0.014 A 
ATOM     28  C   UNL A   1      41.709  28.361  28.309  1.00  0.00     0.010 A 
ATOM     29  C   UNL A   1      40.227  26.773  29.380  1.00  0.00     0.010 A 
ATOM     30  C   UNL A   1      40.843  28.031  29.363  1.00  0.00    -0.014 A 
BRANCH  30  31
ATOM     31  C   UNL A   1      40.628  28.946  30.510  1.00  0.00     0.031 A 
ATOM     32  C   UNL A   1      41.488  28.797  31.738  1.00  0.00     0.074 A 
ATOM     33  C   UNL A   1      39.633  29.854  30.475  1.00  0.00     0.049 A 
ATOM     34  N   UNL A   1      41.418  29.428  32.881  1.00  0.00    -0.248 NA
ATOM     35  C   UNL A   1      42.539  27.763  31.692  1.00  0.00     0.031 C 
ATOM     36  C   UNL A   1      38.690  30.042  29.370  1.00  0.00     0.029 A 
ATOM     37  N   UNL A   1      39.247  30.789  31.401  1.00  0.00    -0.354 N 
ATOM     38  C   UNL A   1      42.388  28.846  33.691  1.00  0.00     0.074 A 
ATOM     39  C   UNL A   1      42.980  27.765  32.939  1.00  0.00     0.031 C 
ATOM     40  C   UNL A   1      37.859  31.053  29.668  1.00  0.00     0.029 A 
ATOM     41  C   UNL A   1      38.190  31.567  30.993  1.00  0.00     0.049 A 
ATOM     42  H   UNL A   1      39.686  30.892  32.276  1.00  0.00     0.167 HD
ATOM     43  C   UNL A   1      42.779  29.208  34.935  1.00  0.00     0.037 A 
ATOM     44  C   UNL A   1      37.570  32.587  31.617  1.00  0.00     0.037 A 
ATOM     45  C   UNL A   1      42.228  30.328  35.648  1.00  0.00     0.049 A 
ATOM     46  C   UNL A   1      38.070  33.019  32.971  1.00  0.00     0.074 A 
ATOM     47  C   UNL A   1      42.589  30.825  36.886  1.00  0.00     0.029 A 
ATOM     48  N   UNL A   1      41.208  31.137  35.169  1.00  0.00    -0.354 N 
ATOM     49  N   UNL A   1      39.026  32.494  33.702  1.00  0.00    -0.248 NA
ATOM     50  C   UNL A   1      37.424  34.190  33.575  1.00  0.00     0.031 C 
ATOM     51  C   UNL A   1      41.772  31.926  37.165  1.00  0.00     0.029 A 
ATOM     52  C   UNL A   1      40.929  32.136  36.085  1.00  0.00     0.049 A 
ATOM     53  H   UNL A   1      40.750  31.018  34.306  1.00  0.00     0.167 HD
ATOM     54  C   UNL A   1      39.119  33.293  34.836  1.00  0.00     0.074 A 
ATOM     55  C   UNL A   1      38.128  34.340  34.689  1.00  0.00     0.031 C 
ATOM     56  C   UNL A   1      39.951  33.177  35.902  1.00  0.00     0.037 A 
BRANCH  43  57
ATOM     57  C   UNL A   1      43.868  28.396  35.581  1.00  0.00     0.058 A 
ATOM     58  C   UNL A   1      45.227  28.684  35.368  1.00  0.00     0.135 A 
ATOM     59  C   UNL A   1      43.554  27.319  36.424  1.00  0.00     0.135 A 
ATOM     60  F   UNL A   1      45.585  29.689  34.553  1.00  0.00    -0.206 F 
ATOM     61  C   UNL A   1      46.234  27.909  35.934  1.00  0.00     0.059 A 
ATOM     62  C   UNL A   1      44.546  26.549  37.026  1.00  0.00     0.059 A 
ATOM     63  F   UNL A   1      42.272  26.997  36.662  1.00  0.00    -0.206 F 
ATOM     64  C   UNL A   1      45.882  26.841  36.759  1.00  0.00     0.060 A 
BRANCH  64  65
ATOM     65  S   UNL A   1      47.200  25.841  37.483  1.00  0.00     0.124 S 
ATOM     66  O   UNL A   1      48.165  25.796  36.388  1.00  0.00    -0.237 OA
ATOM     67  O   UNL A   1      47.595  26.635  38.642  1.00  0.00    -0.237 OA
ATOM     68  O   UNL A   1      46.537  24.578  37.789  1.00  0.00    -0.744 OA
ENDBRANCH  64  65
ENDBRANCH  43  57
BRANCH  44  69
ATOM     69  C   UNL A   1      36.458  33.308  30.945  1.00  0.00     0.058 A 
ATOM     70  C   UNL A   1      35.140  33.194  31.413  1.00  0.00     0.135 A 
ATOM     71  C   UNL A   1      36.686  34.135  29.835  1.00  0.00     0.135 A 
ATOM     72  F   UNL A   1      34.870  32.414  32.473  1.00  0.00    -0.206 F 
ATOM     73  C   UNL A   1      34.085  33.853  30.794  1.00  0.00     0.059 A 
ATOM     74  C   UNL A   1      35.650  34.823  29.211  1.00  0.00     0.059 A 
ATOM     75  F   UNL A   1      37.931  34.295  29.361  1.00  0.00    -0.206 F 
ATOM     76  C   UNL A   1      34.349  34.667  29.691  1.00  0.00     0.060 A 
BRANCH  76  77
ATOM     77  S   UNL A   1      32.978  35.554  28.918  1.00  0.00     0.124 S 
ATOM     78  O   UNL A   1      32.214  35.985  30.083  1.00  0.00    -0.237 OA
ATOM     79  O   UNL A   1      33.670  36.608  28.182  1.00  0.00    -0.237 OA
ATOM     80  O   UNL A   1      32.346  34.533  28.087  1.00  0.00    -0.744 OA
ENDBRANCH  76  77
ENDBRANCH  44  69
BRANCH  56  81
ATOM     81  C   UNL A   1      39.862  34.237  36.961  1.00  0.00     0.058 A 
ATOM     82  C   UNL A   1      40.557  35.450  36.854  1.00  0.00     0.135 A 
ATOM     83  C   UNL A   1      39.028  34.050  38.076  1.00  0.00     0.135 A 
ATOM     84  F   UNL A   1      41.367  35.676  35.808  1.00  0.00    -0.206 F 
ATOM     85  C   UNL A   1      40.456  36.431  37.834  1.00  0.00     0.059 A 
ATOM     86  C   UNL A   1      38.891  35.027  39.055  1.00  0.00     0.059 A 
ATOM     87  F   UNL A   1      38.330  32.912  38.216  1.00  0.00    -0.206 F 
ATOM     88  C   UNL A   1      39.621  36.210  38.932  1.00  0.00     0.060 A 
BRANCH  88  89
ATOM     89  S   UNL A   1      39.480  37.497  40.189  1.00  0.00     0.124 S 
ATOM     90  O   UNL A   1      40.866  37.938  40.311  1.00  0.00    -0.237 OA
ATOM     91  O   UNL A   1      38.565  38.447  39.565  1.00  0.00    -0.237 OA
ATOM     92  O   UNL A   1      38.942  36.785  41.344  1.00  0.00    -0.744 OA
ENDBRANCH  88  89
ENDBRANCH  56  81
ENDBRANCH  30  31
ENDBRANCH  22  25
ENDBRANCH  20  21
ENDBRANCH  19  20
ENDBRANCH   1  19
TORSDOF 18
ENDMDL
