MODEL 1
REMARK VINA RESULT:     -11.5      0.000      0.000
REMARK SMILES O=C(CNC(=O)Nc1cccc2c1CCCC2)NCCCCNC(=O)c1ccc(-c2c3nc(c(-c4c(F)cc(S(=O)(=O)[O-])cc4F)c4ccc([nH]4)c(-c4c(F)cc(S(=O)(=O)[O-])cc4F)c4nc(c(-c5c(F)cc(S(=O)(=O)[O-])cc5F)c5ccc2[nH]5)C=C4)C=C3)cc1
REMARK SMILES IDX 21 1 20 2 19 3 18 4 1 5 2 6 3 8 4 9 5 10 6 12 7 13 8 15 9 16
REMARK SMILES IDX 13 17 10 18 12 19 14 20 11 21 17 22 15 23 16 24 22 25 23 26
REMARK SMILES IDX 24 27 25 29 26 30 27 31 91 32 28 33 90 34 29 35 30 36 31 37
REMARK SMILES IDX 84 38 32 39 89 40 83 41 85 42 33 43 88 44 82 45 81 46 34 48
REMARK SMILES IDX 68 49 47 50 67 51 48 52 51 53 66 54 86 55 49 56 50 57 65 59
REMARK SMILES IDX 87 60 52 61 35 62 36 63 45 64 37 65 38 66 44 67 46 68 39 69
REMARK SMILES IDX 40 70 41 71 42 72 43 73 69 74 70 75 79 76 71 77 72 78 78 79
REMARK SMILES IDX 80 80 73 81 74 82 75 83 76 84 77 85 53 86 54 87 63 88 55 89
REMARK SMILES IDX 56 90 62 91 64 92 57 93 58 94 59 95 60 96 61 97
REMARK H PARENT 18 7 4 11 7 14 23 28 85 47 51 58
REMARK Flexibility Score: inf
ROOT
ATOM      1  C   UNL A   1      35.438  23.568  25.671  1.00  0.00     0.023 C 
ENDROOT
BRANCH   1   2
ATOM      2  C   UNL A   1      34.198  23.743  24.789  1.00  0.00     0.023 C 
BRANCH   2   3
ATOM      3  C   UNL A   1      34.425  24.557  23.514  1.00  0.00     0.116 C 
BRANCH   3   4
ATOM      4  N   UNL A   1      33.783  25.850  23.593  1.00  0.00    -0.355 N 
ATOM      5  O   UNL A   1      33.520  26.112  21.326  1.00  0.00    -0.273 OA
ATOM      6  C   UNL A   1      33.429  26.557  22.468  1.00  0.00     0.239 C 
ATOM      7  H   UNL A   1      33.596  26.236  24.479  1.00  0.00     0.163 HD
BRANCH   6   8
ATOM      8  C   UNL A   1      33.200  28.037  22.734  1.00  0.00     0.217 C 
BRANCH   8   9
ATOM      9  N   UNL A   1      32.059  28.644  22.064  1.00  0.00    -0.329 N 
ATOM     10  C   UNL A   1      30.792  28.912  22.432  1.00  0.00     0.319 C 
ATOM     11  H   UNL A   1      32.257  28.920  21.140  1.00  0.00     0.165 HD
ATOM     12  O   UNL A   1      30.075  29.469  21.596  1.00  0.00    -0.248 OA
ATOM     13  N   UNL A   1      30.232  28.525  23.599  1.00  0.00    -0.308 N 
ATOM     14  H   UNL A   1      29.264  28.700  23.657  1.00  0.00     0.171 HD
BRANCH  13  15
ATOM     15  C   UNL A   1      30.772  27.925  24.743  1.00  0.00     0.046 A 
ATOM     16  C   UNL A   1      30.503  26.560  24.901  1.00  0.00     0.026 A 
ATOM     17  C   UNL A   1      31.596  28.601  25.663  1.00  0.00    -0.021 A 
ATOM     18  C   UNL A   1      31.183  25.822  25.865  1.00  0.00     0.002 A 
ATOM     19  C   UNL A   1      32.352  27.830  26.570  1.00  0.00    -0.043 A 
ATOM     20  C   UNL A   1      31.659  30.115  25.696  1.00  0.00     0.038 C 
ATOM     21  C   UNL A   1      32.131  26.447  26.670  1.00  0.00     0.004 A 
ATOM     22  C   UNL A   1      33.430  28.458  27.417  1.00  0.00     0.036 C 
ATOM     23  C   UNL A   1      32.704  30.709  26.643  1.00  0.00     0.005 C 
ATOM     24  C   UNL A   1      33.899  29.788  26.834  1.00  0.00     0.005 C 
ENDBRANCH  13  15
ENDBRANCH   8   9
ENDBRANCH   6   8
ENDBRANCH   3   4
ENDBRANCH   2   3
ENDBRANCH   1   2
BRANCH   1  25
ATOM     25  C   UNL A   1      36.771  23.835  24.981  1.00  0.00     0.116 C 
BRANCH  25  26
ATOM     26  N   UNL A   1      37.773  22.824  25.275  1.00  0.00    -0.352 N 
ATOM     27  C   UNL A   1      38.930  22.932  26.009  1.00  0.00     0.251 C 
ATOM     28  H   UNL A   1      37.598  21.933  24.893  1.00  0.00     0.163 HD
ATOM     29  O   UNL A   1      39.718  21.996  26.046  1.00  0.00    -0.269 OA
BRANCH  27  30
ATOM     30  C   UNL A   1      39.235  24.194  26.719  1.00  0.00     0.039 A 
ATOM     31  C   UNL A   1      38.742  24.369  28.014  1.00  0.00     0.014 A 
ATOM     32  C   UNL A   1      40.012  25.190  26.122  1.00  0.00     0.014 A 
ATOM     33  C   UNL A   1      39.085  25.515  28.736  1.00  0.00     0.010 A 
ATOM     34  C   UNL A   1      40.414  26.294  26.869  1.00  0.00     0.010 A 
ATOM     35  C   UNL A   1      39.955  26.469  28.184  1.00  0.00    -0.014 A 
BRANCH  35  36
ATOM     36  C   UNL A   1      40.403  27.647  28.972  1.00  0.00     0.031 A 
ATOM     37  C   UNL A   1      41.738  27.632  29.666  1.00  0.00     0.074 A 
ATOM     38  C   UNL A   1      39.580  28.706  29.112  1.00  0.00     0.049 A 
ATOM     39  N   UNL A   1      42.275  28.540  30.442  1.00  0.00    -0.248 NA
ATOM     40  C   UNL A   1      42.569  26.431  29.485  1.00  0.00     0.031 C 
ATOM     41  C   UNL A   1      38.242  28.821  28.524  1.00  0.00     0.029 A 
ATOM     42  N   UNL A   1      39.741  29.885  29.797  1.00  0.00    -0.354 N 
ATOM     43  C   UNL A   1      43.495  28.013  30.852  1.00  0.00     0.074 A 
ATOM     44  C   UNL A   1      43.596  26.688  30.283  1.00  0.00     0.031 C 
ATOM     45  C   UNL A   1      37.718  30.013  28.852  1.00  0.00     0.029 A 
ATOM     46  C   UNL A   1      38.661  30.730  29.707  1.00  0.00     0.049 A 
ATOM     47  H   UNL A   1      40.556  30.104  30.305  1.00  0.00     0.167 HD
ATOM     48  C   UNL A   1      44.452  28.592  31.618  1.00  0.00     0.037 A 
ATOM     49  C   UNL A   1      38.447  31.942  30.256  1.00  0.00     0.037 A 
ATOM     50  C   UNL A   1      44.353  29.921  32.163  1.00  0.00     0.049 A 
ATOM     51  C   UNL A   1      39.520  32.558  31.112  1.00  0.00     0.074 A 
ATOM     52  C   UNL A   1      45.295  30.621  32.896  1.00  0.00     0.029 A 
ATOM     53  N   UNL A   1      43.246  30.749  32.042  1.00  0.00    -0.354 N 
ATOM     54  N   UNL A   1      40.698  32.075  31.431  1.00  0.00    -0.248 NA
ATOM     55  C   UNL A   1      39.240  33.885  31.678  1.00  0.00     0.031 C 
ATOM     56  C   UNL A   1      44.737  31.849  33.266  1.00  0.00     0.029 A 
ATOM     57  C   UNL A   1      43.471  31.941  32.711  1.00  0.00     0.049 A 
ATOM     58  H   UNL A   1      42.421  30.523  31.554  1.00  0.00     0.167 HD
ATOM     59  C   UNL A   1      41.311  33.052  32.209  1.00  0.00     0.074 A 
ATOM     60  C   UNL A   1      40.378  34.157  32.302  1.00  0.00     0.031 C 
ATOM     61  C   UNL A   1      42.536  33.037  32.791  1.00  0.00     0.037 A 
BRANCH  48  62
ATOM     62  C   UNL A   1      45.691  27.790  31.915  1.00  0.00     0.058 A 
ATOM     63  C   UNL A   1      46.812  27.819  31.070  1.00  0.00     0.135 A 
ATOM     64  C   UNL A   1      45.773  27.013  33.082  1.00  0.00     0.135 A 
ATOM     65  F   UNL A   1      46.785  28.532  29.933  1.00  0.00    -0.206 F 
ATOM     66  C   UNL A   1      47.958  27.083  31.355  1.00  0.00     0.059 A 
ATOM     67  C   UNL A   1      46.921  26.294  33.403  1.00  0.00     0.059 A 
ATOM     68  F   UNL A   1      44.732  26.949  33.927  1.00  0.00    -0.206 F 
ATOM     69  C   UNL A   1      48.004  26.324  32.525  1.00  0.00     0.060 A 
BRANCH  69  70
ATOM     70  S   UNL A   1      49.502  25.383  32.882  1.00  0.00     0.124 S 
ATOM     71  O   UNL A   1      50.316  26.381  33.568  1.00  0.00    -0.237 OA
ATOM     72  O   UNL A   1      48.996  24.296  33.716  1.00  0.00    -0.237 OA
ATOM     73  O   UNL A   1      49.977  24.986  31.561  1.00  0.00    -0.744 OA
ENDBRANCH  69  70
ENDBRANCH  48  62
BRANCH  49  74
ATOM     74  C   UNL A   1      37.171  32.663  29.997  1.00  0.00     0.058 A 
ATOM     75  C   UNL A   1      37.084  33.634  28.987  1.00  0.00     0.135 A 
ATOM     76  C   UNL A   1      36.013  32.392  30.742  1.00  0.00     0.135 A 
ATOM     77  F   UNL A   1      38.165  33.934  28.250  1.00  0.00    -0.206 F 
ATOM     78  C   UNL A   1      35.903  34.324  28.737  1.00  0.00     0.059 A 
ATOM     79  C   UNL A   1      34.812  33.050  30.493  1.00  0.00     0.059 A 
ATOM     80  F   UNL A   1      36.038  31.461  31.709  1.00  0.00    -0.206 F 
ATOM     81  C   UNL A   1      34.770  34.021  29.495  1.00  0.00     0.060 A 
BRANCH  81  82
ATOM     82  S   UNL A   1      33.228  34.889  29.130  1.00  0.00     0.124 S 
ATOM     83  O   UNL A   1      32.643  34.031  28.106  1.00  0.00    -0.237 OA
ATOM     84  O   UNL A   1      32.561  34.885  30.427  1.00  0.00    -0.237 OA
ATOM     85  O   UNL A   1      33.682  36.199  28.672  1.00  0.00    -0.744 OA
ENDBRANCH  81  82
ENDBRANCH  49  74
BRANCH  61  86
ATOM     86  C   UNL A   1      42.961  34.265  33.549  1.00  0.00     0.058 A 
ATOM     87  C   UNL A   1      42.700  34.418  34.919  1.00  0.00     0.135 A 
ATOM     88  C   UNL A   1      43.688  35.281  32.903  1.00  0.00     0.135 A 
ATOM     89  F   UNL A   1      42.004  33.482  35.584  1.00  0.00    -0.206 F 
ATOM     90  C   UNL A   1      43.124  35.545  35.618  1.00  0.00     0.059 A 
ATOM     91  C   UNL A   1      44.147  36.400  33.589  1.00  0.00     0.059 A 
ATOM     92  F   UNL A   1      43.973  35.181  31.595  1.00  0.00    -0.206 F 
ATOM     93  C   UNL A   1      43.848  36.530  34.944  1.00  0.00     0.060 A 
BRANCH  93  94
ATOM     94  S   UNL A   1      44.422  37.969  35.871  1.00  0.00     0.124 S 
ATOM     95  O   UNL A   1      45.870  37.783  35.836  1.00  0.00    -0.237 OA
ATOM     96  O   UNL A   1      43.906  39.079  35.075  1.00  0.00    -0.237 OA
ATOM     97  O   UNL A   1      43.799  37.801  37.181  1.00  0.00    -0.744 OA
ENDBRANCH  93  94
ENDBRANCH  61  86
ENDBRANCH  35  36
ENDBRANCH  27  30
ENDBRANCH  25  26
ENDBRANCH   1  25
TORSDOF 16
ENDMDL
MODEL 2
REMARK VINA RESULT:     -11.4      3.118      4.000
REMARK SMILES O=C(CNC(=O)Nc1cccc2c1CCCC2)NCCCCNC(=O)c1ccc(-c2c3nc(c(-c4c(F)cc(S(=O)(=O)[O-])cc4F)c4ccc([nH]4)c(-c4c(F)cc(S(=O)(=O)[O-])cc4F)c4nc(c(-c5c(F)cc(S(=O)(=O)[O-])cc5F)c5ccc2[nH]5)C=C4)C=C3)cc1
REMARK SMILES IDX 21 1 20 2 19 3 18 4 1 5 2 6 3 8 4 9 5 10 6 12 7 13 8 15 9 16
REMARK SMILES IDX 13 17 10 18 12 19 14 20 11 21 17 22 15 23 16 24 22 25 23 26
REMARK SMILES IDX 24 27 25 29 26 30 27 31 91 32 28 33 90 34 29 35 30 36 31 37
REMARK SMILES IDX 84 38 32 39 89 40 83 41 85 42 33 43 88 44 82 45 81 46 34 48
REMARK SMILES IDX 68 49 47 50 67 51 48 52 51 53 66 54 86 55 49 56 50 57 65 59
REMARK SMILES IDX 87 60 52 61 35 62 36 63 45 64 37 65 38 66 44 67 46 68 39 69
REMARK SMILES IDX 40 70 41 71 42 72 43 73 69 74 70 75 79 76 71 77 72 78 78 79
REMARK SMILES IDX 80 80 73 81 74 82 75 83 76 84 77 85 53 86 54 87 63 88 55 89
REMARK SMILES IDX 56 90 62 91 64 92 57 93 58 94 59 95 60 96 61 97
REMARK H PARENT 18 7 4 11 7 14 23 28 85 47 51 58
REMARK Flexibility Score: inf
ROOT
ATOM      1  C   UNL A   1      37.395  23.360  25.531  1.00  0.00     0.023 C 
ENDROOT
BRANCH   1   2
ATOM      2  C   UNL A   1      35.911  23.731  25.602  1.00  0.00     0.023 C 
BRANCH   2   3
ATOM      3  C   UNL A   1      35.062  23.216  24.438  1.00  0.00     0.116 C 
BRANCH   3   4
ATOM      4  N   UNL A   1      33.651  23.281  24.745  1.00  0.00    -0.355 N 
ATOM      5  O   UNL A   1      32.950  22.275  22.802  1.00  0.00    -0.273 OA
ATOM      6  C   UNL A   1      32.693  22.847  23.859  1.00  0.00     0.239 C 
ATOM      7  H   UNL A   1      33.369  23.647  25.614  1.00  0.00     0.163 HD
BRANCH   6   8
ATOM      8  C   UNL A   1      31.307  23.401  24.153  1.00  0.00     0.217 C 
BRANCH   8   9
ATOM      9  N   UNL A   1      30.760  23.103  25.469  1.00  0.00    -0.329 N 
ATOM     10  C   UNL A   1      30.138  23.837  26.411  1.00  0.00     0.319 C 
ATOM     11  H   UNL A   1      30.867  22.159  25.726  1.00  0.00     0.165 HD
ATOM     12  O   UNL A   1      29.777  23.242  27.431  1.00  0.00    -0.248 OA
ATOM     13  N   UNL A   1      29.976  25.177  26.360  1.00  0.00    -0.308 N 
ATOM     14  H   UNL A   1      29.606  25.568  27.185  1.00  0.00     0.171 HD
BRANCH  13  15
ATOM     15  C   UNL A   1      30.234  26.113  25.352  1.00  0.00     0.046 A 
ATOM     16  C   UNL A   1      29.220  26.284  24.402  1.00  0.00     0.026 A 
ATOM     17  C   UNL A   1      31.399  26.903  25.302  1.00  0.00    -0.021 A 
ATOM     18  C   UNL A   1      29.275  27.347  23.506  1.00  0.00     0.002 A 
ATOM     19  C   UNL A   1      31.400  28.034  24.459  1.00  0.00    -0.043 A 
ATOM     20  C   UNL A   1      32.628  26.543  26.114  1.00  0.00     0.038 C 
ATOM     21  C   UNL A   1      30.341  28.240  23.561  1.00  0.00     0.004 A 
ATOM     22  C   UNL A   1      32.506  29.057  24.529  1.00  0.00     0.036 C 
ATOM     23  C   UNL A   1      33.763  27.568  26.076  1.00  0.00     0.005 C 
ATOM     24  C   UNL A   1      33.255  28.985  25.856  1.00  0.00     0.005 C 
ENDBRANCH  13  15
ENDBRANCH   8   9
ENDBRANCH   6   8
ENDBRANCH   3   4
ENDBRANCH   2   3
ENDBRANCH   1   2
BRANCH   1  25
ATOM     25  C   UNL A   1      38.304  24.121  26.489  1.00  0.00     0.116 C 
BRANCH  25  26
ATOM     26  N   UNL A   1      39.716  23.907  26.219  1.00  0.00    -0.352 N 
ATOM     27  C   UNL A   1      40.805  24.619  26.662  1.00  0.00     0.251 C 
ATOM     28  H   UNL A   1      39.923  23.142  25.634  1.00  0.00     0.163 HD
ATOM     29  O   UNL A   1      41.920  24.362  26.227  1.00  0.00    -0.269 OA
BRANCH  27  30
ATOM     30  C   UNL A   1      40.618  25.721  27.632  1.00  0.00     0.039 A 
ATOM     31  C   UNL A   1      39.598  25.610  28.581  1.00  0.00     0.014 A 
ATOM     32  C   UNL A   1      41.446  26.846  27.619  1.00  0.00     0.014 A 
ATOM     33  C   UNL A   1      39.454  26.596  29.559  1.00  0.00     0.010 A 
ATOM     34  C   UNL A   1      41.349  27.789  28.639  1.00  0.00     0.010 A 
ATOM     35  C   UNL A   1      40.352  27.674  29.620  1.00  0.00    -0.014 A 
BRANCH  35  36
ATOM     36  C   UNL A   1      40.268  28.683  30.709  1.00  0.00     0.031 A 
ATOM     37  C   UNL A   1      41.145  28.560  31.925  1.00  0.00     0.074 A 
ATOM     38  C   UNL A   1      39.359  29.675  30.629  1.00  0.00     0.049 A 
ATOM     39  N   UNL A   1      41.176  29.307  33.000  1.00  0.00    -0.248 NA
ATOM     40  C   UNL A   1      42.095  27.436  31.950  1.00  0.00     0.031 C 
ATOM     41  C   UNL A   1      38.421  29.876  29.521  1.00  0.00     0.029 A 
ATOM     42  N   UNL A   1      39.067  30.699  31.496  1.00  0.00    -0.354 N 
ATOM     43  C   UNL A   1      42.133  28.736  33.831  1.00  0.00     0.074 A 
ATOM     44  C   UNL A   1      42.623  27.552  33.161  1.00  0.00     0.031 C 
ATOM     45  C   UNL A   1      37.679  30.968  29.764  1.00  0.00     0.029 A 
ATOM     46  C   UNL A   1      38.055  31.522  31.061  1.00  0.00     0.049 A 
ATOM     47  H   UNL A   1      39.539  30.830  32.350  1.00  0.00     0.167 HD
ATOM     48  C   UNL A   1      42.578  29.172  35.035  1.00  0.00     0.037 A 
ATOM     49  C   UNL A   1      37.487  32.596  31.644  1.00  0.00     0.037 A 
ATOM     50  C   UNL A   1      42.101  30.365  35.686  1.00  0.00     0.049 A 
ATOM     51  C   UNL A   1      37.991  33.053  32.986  1.00  0.00     0.074 A 
ATOM     52  C   UNL A   1      42.534  30.926  36.875  1.00  0.00     0.029 A 
ATOM     53  N   UNL A   1      41.081  31.176  35.209  1.00  0.00    -0.354 N 
ATOM     54  N   UNL A   1      38.947  32.542  33.726  1.00  0.00    -0.248 NA
ATOM     55  C   UNL A   1      37.344  34.236  33.571  1.00  0.00     0.031 C 
ATOM     56  C   UNL A   1      41.739  32.045  37.144  1.00  0.00     0.029 A 
ATOM     57  C   UNL A   1      40.852  32.217  36.094  1.00  0.00     0.049 A 
ATOM     58  H   UNL A   1      40.592  31.034  34.366  1.00  0.00     0.167 HD
ATOM     59  C   UNL A   1      39.036  33.360  34.848  1.00  0.00     0.074 A 
ATOM     60  C   UNL A   1      38.046  34.404  34.684  1.00  0.00     0.031 C 
ATOM     61  C   UNL A   1      39.866  33.256  35.916  1.00  0.00     0.037 A 
BRANCH  48  62
ATOM     62  C   UNL A   1      43.633  28.354  35.730  1.00  0.00     0.058 A 
ATOM     63  C   UNL A   1      45.003  28.574  35.513  1.00  0.00     0.135 A 
ATOM     64  C   UNL A   1      43.270  27.363  36.657  1.00  0.00     0.135 A 
ATOM     65  F   UNL A   1      45.408  29.498  34.627  1.00  0.00    -0.206 F 
ATOM     66  C   UNL A   1      45.974  27.821  36.166  1.00  0.00     0.059 A 
ATOM     67  C   UNL A   1      44.225  26.620  37.346  1.00  0.00     0.059 A 
ATOM     68  F   UNL A   1      41.975  27.111  36.905  1.00  0.00    -0.206 F 
ATOM     69  C   UNL A   1      45.575  26.847  37.082  1.00  0.00     0.060 A 
BRANCH  69  70
ATOM     70  S   UNL A   1      46.848  25.885  37.926  1.00  0.00     0.124 S 
ATOM     71  O   UNL A   1      46.429  26.006  39.319  1.00  0.00    -0.237 OA
ATOM     72  O   UNL A   1      46.688  24.563  37.328  1.00  0.00    -0.237 OA
ATOM     73  O   UNL A   1      48.084  26.580  37.580  1.00  0.00    -0.744 OA
ENDBRANCH  69  70
ENDBRANCH  48  62
BRANCH  49  74
ATOM     74  C   UNL A   1      36.391  33.327  30.951  1.00  0.00     0.058 A 
ATOM     75  C   UNL A   1      35.066  33.241  31.407  1.00  0.00     0.135 A 
ATOM     76  C   UNL A   1      36.644  34.132  29.830  1.00  0.00     0.135 A 
ATOM     77  F   UNL A   1      34.772  32.479  32.471  1.00  0.00    -0.206 F 
ATOM     78  C   UNL A   1      34.030  33.910  30.766  1.00  0.00     0.059 A 
ATOM     79  C   UNL A   1      35.628  34.834  29.188  1.00  0.00     0.059 A 
ATOM     80  F   UNL A   1      37.896  34.262  29.363  1.00  0.00    -0.206 F 
ATOM     81  C   UNL A   1      34.321  34.708  29.658  1.00  0.00     0.060 A 
BRANCH  81  82
ATOM     82  S   UNL A   1      32.974  35.611  28.863  1.00  0.00     0.124 S 
ATOM     83  O   UNL A   1      33.704  36.627  28.113  1.00  0.00    -0.237 OA
ATOM     84  O   UNL A   1      32.334  34.567  28.069  1.00  0.00    -0.237 OA
ATOM     85  O   UNL A   1      32.188  36.101  29.991  1.00  0.00    -0.744 OA
ENDBRANCH  81  82
ENDBRANCH  49  74
BRANCH  61  86
ATOM     86  C   UNL A   1      39.770  34.319  36.977  1.00  0.00     0.058 A 
ATOM     87  C   UNL A   1      39.010  34.138  38.141  1.00  0.00     0.135 A 
ATOM     88  C   UNL A   1      40.495  35.516  36.847  1.00  0.00     0.135 A 
ATOM     89  F   UNL A   1      38.293  33.015  38.314  1.00  0.00    -0.206 F 
ATOM     90  C   UNL A   1      38.951  35.115  39.131  1.00  0.00     0.059 A 
ATOM     91  C   UNL A   1      40.475  36.494  37.837  1.00  0.00     0.059 A 
ATOM     92  F   UNL A   1      41.246  35.738  35.757  1.00  0.00    -0.206 F 
ATOM     93  C   UNL A   1      39.690  36.289  38.970  1.00  0.00     0.060 A 
BRANCH  93  94
ATOM     94  S   UNL A   1      39.632  37.533  40.277  1.00  0.00     0.124 S 
ATOM     95  O   UNL A   1      38.964  36.802  41.350  1.00  0.00    -0.237 OA
ATOM     96  O   UNL A   1      41.046  37.824  40.493  1.00  0.00    -0.237 OA
ATOM     97  O   UNL A   1      38.859  38.618  39.681  1.00  0.00    -0.744 OA
ENDBRANCH  93  94
ENDBRANCH  61  86
ENDBRANCH  35  36
ENDBRANCH  27  30
ENDBRANCH  25  26
ENDBRANCH   1  25
TORSDOF 16
ENDMDL
MODEL 3
REMARK VINA RESULT:     -11.3      3.115      9.387
REMARK SMILES O=C(CNC(=O)Nc1cccc2c1CCCC2)NCCCCNC(=O)c1ccc(-c2c3nc(c(-c4c(F)cc(S(=O)(=O)[O-])cc4F)c4ccc([nH]4)c(-c4c(F)cc(S(=O)(=O)[O-])cc4F)c4nc(c(-c5c(F)cc(S(=O)(=O)[O-])cc5F)c5ccc2[nH]5)C=C4)C=C3)cc1
REMARK SMILES IDX 21 1 20 2 19 3 18 4 1 5 2 6 3 8 4 9 5 10 6 12 7 13 8 15 9 16
REMARK SMILES IDX 13 17 10 18 12 19 14 20 11 21 17 22 15 23 16 24 22 25 23 26
REMARK SMILES IDX 24 27 25 29 26 30 27 31 91 32 28 33 90 34 29 35 30 36 31 37
REMARK SMILES IDX 84 38 32 39 89 40 83 41 85 42 33 43 88 44 82 45 81 46 34 48
REMARK SMILES IDX 68 49 47 50 67 51 48 52 51 53 66 54 86 55 49 56 50 57 65 59
REMARK SMILES IDX 87 60 52 61 35 62 36 63 45 64 37 65 38 66 44 67 46 68 39 69
REMARK SMILES IDX 40 70 41 71 42 72 43 73 69 74 70 75 79 76 71 77 72 78 78 79
REMARK SMILES IDX 80 80 73 81 74 82 75 83 76 84 77 85 53 86 54 87 63 88 55 89
REMARK SMILES IDX 56 90 62 91 64 92 57 93 58 94 59 95 60 96 61 97
REMARK H PARENT 18 7 4 11 7 14 23 28 85 47 51 58
REMARK Flexibility Score: inf
ROOT
ATOM      1  C   UNL A   1      33.837  28.036  25.762  1.00  0.00     0.023 C 
ENDROOT
BRANCH   1   2
ATOM      2  C   UNL A   1      32.718  28.371  24.770  1.00  0.00     0.023 C 
BRANCH   2   3
ATOM      3  C   UNL A   1      31.391  27.656  25.032  1.00  0.00     0.116 C 
BRANCH   3   4
ATOM      4  N   UNL A   1      31.569  26.223  25.098  1.00  0.00    -0.355 N 
ATOM      5  O   UNL A   1      30.994  25.822  22.910  1.00  0.00    -0.273 OA
ATOM      6  C   UNL A   1      31.296  25.405  24.026  1.00  0.00     0.239 C 
ATOM      7  H   UNL A   1      31.894  25.821  25.935  1.00  0.00     0.163 HD
BRANCH   6   8
ATOM      8  C   UNL A   1      31.106  23.948  24.415  1.00  0.00     0.217 C 
BRANCH   8   9
ATOM      9  N   UNL A   1      30.257  23.694  25.570  1.00  0.00    -0.329 N 
ATOM     10  C   UNL A   1      30.456  23.111  26.767  1.00  0.00     0.319 C 
ATOM     11  H   UNL A   1      29.335  24.020  25.450  1.00  0.00     0.165 HD
ATOM     12  O   UNL A   1      29.494  23.083  27.539  1.00  0.00    -0.248 OA
ATOM     13  N   UNL A   1      31.591  22.476  27.134  1.00  0.00    -0.308 N 
ATOM     14  H   UNL A   1      31.525  22.005  27.997  1.00  0.00     0.171 HD
BRANCH  13  15
ATOM     15  C   UNL A   1      32.842  22.364  26.518  1.00  0.00     0.046 A 
ATOM     16  C   UNL A   1      33.784  23.341  26.864  1.00  0.00     0.026 A 
ATOM     17  C   UNL A   1      33.193  21.311  25.651  1.00  0.00    -0.021 A 
ATOM     18  C   UNL A   1      35.116  23.187  26.497  1.00  0.00     0.002 A 
ATOM     19  C   UNL A   1      34.560  21.110  25.367  1.00  0.00    -0.043 A 
ATOM     20  C   UNL A   1      32.135  20.425  25.023  1.00  0.00     0.038 C 
ATOM     21  C   UNL A   1      35.509  22.057  25.784  1.00  0.00     0.004 A 
ATOM     22  C   UNL A   1      35.033  19.871  24.651  1.00  0.00     0.036 C 
ATOM     23  C   UNL A   1      32.667  19.233  24.224  1.00  0.00     0.005 C 
ATOM     24  C   UNL A   1      34.010  18.743  24.742  1.00  0.00     0.005 C 
ENDBRANCH  13  15
ENDBRANCH   8   9
ENDBRANCH   6   8
ENDBRANCH   3   4
ENDBRANCH   2   3
ENDBRANCH   1   2
BRANCH   1  25
ATOM     25  C   UNL A   1      33.516  28.315  27.226  1.00  0.00     0.116 C 
BRANCH  25  26
ATOM     26  N   UNL A   1      33.418  29.734  27.523  1.00  0.00    -0.352 N 
ATOM     27  C   UNL A   1      34.362  30.579  28.056  1.00  0.00     0.251 C 
ATOM     28  H   UNL A   1      32.550  30.151  27.313  1.00  0.00     0.163 HD
ATOM     29  O   UNL A   1      34.056  31.727  28.351  1.00  0.00    -0.269 OA
BRANCH  27  30
ATOM     30  C   UNL A   1      35.734  30.084  28.306  1.00  0.00     0.039 A 
ATOM     31  C   UNL A   1      36.656  30.109  27.257  1.00  0.00     0.014 A 
ATOM     32  C   UNL A   1      36.115  29.614  29.565  1.00  0.00     0.014 A 
ATOM     33  C   UNL A   1      37.978  29.725  27.489  1.00  0.00     0.010 A 
ATOM     34  C   UNL A   1      37.450  29.304  29.813  1.00  0.00     0.010 A 
ATOM     35  C   UNL A   1      38.396  29.356  28.778  1.00  0.00    -0.014 A 
BRANCH  35  36
ATOM     36  C   UNL A   1      39.820  29.034  29.062  1.00  0.00     0.031 A 
ATOM     37  C   UNL A   1      40.729  30.075  29.655  1.00  0.00     0.074 A 
ATOM     38  C   UNL A   1      40.307  27.821  28.728  1.00  0.00     0.049 A 
ATOM     39  N   UNL A   1      42.009  29.998  29.919  1.00  0.00    -0.248 NA
ATOM     40  C   UNL A   1      40.129  31.382  29.970  1.00  0.00     0.031 C 
ATOM     41  C   UNL A   1      39.535  26.742  28.105  1.00  0.00     0.029 A 
ATOM     42  N   UNL A   1      41.567  27.293  28.857  1.00  0.00    -0.354 N 
ATOM     43  C   UNL A   1      42.369  31.247  30.415  1.00  0.00     0.074 A 
ATOM     44  C   UNL A   1      41.186  32.077  30.366  1.00  0.00     0.031 C 
ATOM     45  C   UNL A   1      40.331  25.674  27.933  1.00  0.00     0.029 A 
ATOM     46  C   UNL A   1      41.678  26.004  28.390  1.00  0.00     0.049 A 
ATOM     47  H   UNL A   1      42.321  27.791  29.248  1.00  0.00     0.167 HD
ATOM     48  C   UNL A   1      43.571  31.656  30.887  1.00  0.00     0.037 A 
ATOM     49  C   UNL A   1      42.744  25.183  28.328  1.00  0.00     0.037 A 
ATOM     50  C   UNL A   1      44.739  30.816  30.954  1.00  0.00     0.049 A 
ATOM     51  C   UNL A   1      44.071  25.665  28.848  1.00  0.00     0.074 A 
ATOM     52  C   UNL A   1      45.985  31.117  31.475  1.00  0.00     0.029 A 
ATOM     53  N   UNL A   1      44.808  29.514  30.478  1.00  0.00    -0.354 N 
ATOM     54  N   UNL A   1      44.376  26.825  29.379  1.00  0.00    -0.248 NA
ATOM     55  C   UNL A   1      45.198  24.725  28.767  1.00  0.00     0.031 C 
ATOM     56  C   UNL A   1      46.824  30.017  31.265  1.00  0.00     0.029 A 
ATOM     57  C   UNL A   1      46.084  29.008  30.669  1.00  0.00     0.049 A 
ATOM     58  H   UNL A   1      44.062  29.021  30.067  1.00  0.00     0.167 HD
ATOM     59  C   UNL A   1      45.722  26.743  29.723  1.00  0.00     0.074 A 
ATOM     60  C   UNL A   1      46.167  25.417  29.350  1.00  0.00     0.031 C 
ATOM     61  C   UNL A   1      46.515  27.682  30.299  1.00  0.00     0.037 A 
BRANCH  48  62
ATOM     62  C   UNL A   1      43.688  33.078  31.368  1.00  0.00     0.058 A 
ATOM     63  C   UNL A   1      43.452  33.428  32.708  1.00  0.00     0.135 A 
ATOM     64  C   UNL A   1      44.080  34.098  30.487  1.00  0.00     0.135 A 
ATOM     65  F   UNL A   1      43.060  32.497  33.592  1.00  0.00    -0.206 F 
ATOM     66  C   UNL A   1      43.571  34.742  33.149  1.00  0.00     0.059 A 
ATOM     67  C   UNL A   1      44.237  35.414  30.913  1.00  0.00     0.059 A 
ATOM     68  F   UNL A   1      44.320  33.821  29.195  1.00  0.00    -0.206 F 
ATOM     69  C   UNL A   1      43.966  35.729  32.244  1.00  0.00     0.060 A 
BRANCH  69  70
ATOM     70  S   UNL A   1      44.122  37.426  32.836  1.00  0.00     0.124 S 
ATOM     71  O   UNL A   1      45.448  37.401  33.446  1.00  0.00    -0.237 OA
ATOM     72  O   UNL A   1      44.008  38.199  31.602  1.00  0.00    -0.237 OA
ATOM     73  O   UNL A   1      43.007  37.567  33.766  1.00  0.00    -0.744 OA
ENDBRANCH  69  70
ENDBRANCH  48  62
BRANCH  49  74
ATOM     74  C   UNL A   1      42.596  23.811  27.770  1.00  0.00     0.058 A 
ATOM     75  C   UNL A   1      42.643  23.586  26.385  1.00  0.00     0.135 A 
ATOM     76  C   UNL A   1      42.417  22.698  28.605  1.00  0.00     0.135 A 
ATOM     77  F   UNL A   1      42.805  24.619  25.544  1.00  0.00    -0.206 F 
ATOM     78  C   UNL A   1      42.497  22.312  25.847  1.00  0.00     0.059 A 
ATOM     79  C   UNL A   1      42.297  21.409  28.093  1.00  0.00     0.059 A 
ATOM     80  F   UNL A   1      42.383  22.855  29.938  1.00  0.00    -0.206 F 
ATOM     81  C   UNL A   1      42.328  21.228  26.711  1.00  0.00     0.060 A 
BRANCH  81  82
ATOM     82  S   UNL A   1      42.189  19.572  26.004  1.00  0.00     0.124 S 
ATOM     83  O   UNL A   1      42.661  18.741  27.106  1.00  0.00    -0.237 OA
ATOM     84  O   UNL A   1      40.764  19.487  25.703  1.00  0.00    -0.237 OA
ATOM     85  O   UNL A   1      43.065  19.631  24.837  1.00  0.00    -0.744 OA
ENDBRANCH  81  82
ENDBRANCH  49  74
BRANCH  61  86
ATOM     86  C   UNL A   1      47.939  27.299  30.599  1.00  0.00     0.058 A 
ATOM     87  C   UNL A   1      48.315  26.750  31.834  1.00  0.00     0.135 A 
ATOM     88  C   UNL A   1      48.932  27.437  29.614  1.00  0.00     0.135 A 
ATOM     89  F   UNL A   1      47.408  26.602  32.813  1.00  0.00    -0.206 F 
ATOM     90  C   UNL A   1      49.629  26.371  32.091  1.00  0.00     0.059 A 
ATOM     91  C   UNL A   1      50.245  27.037  29.838  1.00  0.00     0.059 A 
ATOM     92  F   UNL A   1      48.625  27.948  28.411  1.00  0.00    -0.206 F 
ATOM     93  C   UNL A   1      50.587  26.517  31.085  1.00  0.00     0.060 A 
BRANCH  93  94
ATOM     94  S   UNL A   1      52.281  25.989  31.420  1.00  0.00     0.124 S 
ATOM     95  O   UNL A   1      52.880  26.063  30.091  1.00  0.00    -0.237 OA
ATOM     96  O   UNL A   1      52.737  26.993  32.377  1.00  0.00    -0.237 OA
ATOM     97  O   UNL A   1      52.118  24.643  31.961  1.00  0.00    -0.744 OA
ENDBRANCH  93  94
ENDBRANCH  61  86
ENDBRANCH  35  36
ENDBRANCH  27  30
ENDBRANCH  25  26
ENDBRANCH   1  25
TORSDOF 16
ENDMDL
