MODEL 1
REMARK VINA RESULT:     -11.2      0.000      0.000
REMARK SMILES CC1(C)CCC[C@@H]1[C@H](O)C(=O)NCCCCNC(=O)c1ccc(-c2c3nc(c(-c4c(F)cc(S(=O)(=O)[O-])cc4F)c4ccc([nH]4)c(-c4c(F)cc(S(=O)(=O)[O-])cc4F)c4nc(c(-c5c(F)cc(S(=O)(=O)[O-])cc5F)c5ccc2[nH]5)C=C4)C=C3)cc1
REMARK SMILES IDX 15 1 14 2 13 3 12 4 10 5 11 6 8 8 7 9 1 10 2 11 3 12 4 13
REMARK SMILES IDX 5 14 6 15 9 16 16 18 17 19 18 20 19 22 20 23 21 24 85 25
REMARK SMILES IDX 22 26 84 27 23 28 24 29 25 30 78 31 26 32 83 33 77 34 79 35
REMARK SMILES IDX 27 36 82 37 76 38 75 39 28 41 62 42 41 43 61 44 42 45 45 46
REMARK SMILES IDX 60 47 80 48 43 49 44 50 59 52 81 53 46 54 29 55 30 56 39 57
REMARK SMILES IDX 31 58 32 59 38 60 40 61 33 62 34 63 35 64 36 65 37 66 63 67
REMARK SMILES IDX 64 68 73 69 65 70 66 71 72 72 74 73 67 74 68 75 69 76 70 77
REMARK SMILES IDX 71 78 47 79 48 80 57 81 49 82 50 83 56 84 58 85 51 86 52 87
REMARK SMILES IDX 53 88 54 89 55 90
REMARK H PARENT 12 7 9 17 17 21 79 40 45 51
REMARK Flexibility Score: inf
ROOT
ATOM      1  C   UNL A   1      40.108  22.326  27.481  1.00  0.00     0.023 C 
ENDROOT
BRANCH   1   2
ATOM      2  C   UNL A   1      39.443  21.823  26.201  1.00  0.00     0.023 C 
BRANCH   2   3
ATOM      3  C   UNL A   1      38.038  22.358  25.943  1.00  0.00     0.116 C 
BRANCH   3   4
ATOM      4  N   UNL A   1      37.748  22.514  24.530  1.00  0.00    -0.354 N 
ATOM      5  C   UNL A   1      36.569  22.845  23.927  1.00  0.00     0.249 C 
ATOM      6  O   UNL A   1      36.544  22.955  22.699  1.00  0.00    -0.272 OA
ATOM      7  H   UNL A   1      38.507  22.359  23.921  1.00  0.00     0.163 HD
BRANCH   5   8
ATOM      8  C   UNL A   1      35.300  23.106  24.768  1.00  0.00     0.206 C 
BRANCH   8   9
ATOM      9  C   UNL A   1      34.206  22.066  24.473  1.00  0.00     0.033 C 
ATOM     10  C   UNL A   1      31.957  23.306  24.623  1.00  0.00     0.011 C 
ATOM     11  C   UNL A   1      32.861  22.223  25.231  1.00  0.00    -0.030 C 
ATOM     12  C   UNL A   1      33.041  22.498  26.734  1.00  0.00     0.011 C 
ATOM     13  C   UNL A   1      32.240  20.834  25.002  1.00  0.00     0.007 C 
ATOM     14  C   UNL A   1      33.397  19.849  25.133  1.00  0.00     0.001 C 
ATOM     15  C   UNL A   1      34.664  20.632  24.795  1.00  0.00     0.007 C 
ENDBRANCH   8   9
BRANCH   8  16
ATOM     16  O   UNL A   1      34.803  24.428  24.594  1.00  0.00    -0.383 OA
ATOM     17  H   UNL A   1      33.855  24.393  24.389  1.00  0.00     0.211 HD
ENDBRANCH   8  16
ENDBRANCH   5   8
ENDBRANCH   3   4
ENDBRANCH   2   3
ENDBRANCH   1   2
BRANCH   1  18
ATOM     18  C   UNL A   1      41.487  22.953  27.306  1.00  0.00     0.116 C 
BRANCH  18  19
ATOM     19  N   UNL A   1      41.576  23.831  26.149  1.00  0.00    -0.352 N 
ATOM     20  C   UNL A   1      41.497  25.202  26.090  1.00  0.00     0.251 C 
ATOM     21  H   UNL A   1      41.712  23.379  25.284  1.00  0.00     0.163 HD
ATOM     22  O   UNL A   1      41.474  25.771  25.001  1.00  0.00    -0.269 OA
BRANCH  20  23
ATOM     23  C   UNL A   1      41.400  25.986  27.341  1.00  0.00     0.039 A 
ATOM     24  C   UNL A   1      42.492  26.760  27.739  1.00  0.00     0.014 A 
ATOM     25  C   UNL A   1      40.224  25.985  28.096  1.00  0.00     0.014 A 
ATOM     26  C   UNL A   1      42.375  27.598  28.851  1.00  0.00     0.010 A 
ATOM     27  C   UNL A   1      40.084  26.877  29.156  1.00  0.00     0.010 A 
ATOM     28  C   UNL A   1      41.155  27.696  29.541  1.00  0.00    -0.014 A 
BRANCH  28  29
ATOM     29  C   UNL A   1      40.975  28.668  30.652  1.00  0.00     0.031 A 
ATOM     30  C   UNL A   1      41.805  28.554  31.901  1.00  0.00     0.074 A 
ATOM     31  C   UNL A   1      40.009  29.603  30.567  1.00  0.00     0.049 A 
ATOM     32  N   UNL A   1      41.746  29.265  32.998  1.00  0.00    -0.248 NA
ATOM     33  C   UNL A   1      42.810  27.481  31.935  1.00  0.00     0.031 C 
ATOM     34  C   UNL A   1      39.093  29.774  29.436  1.00  0.00     0.029 A 
ATOM     35  N   UNL A   1      39.623  30.579  31.452  1.00  0.00    -0.354 N 
ATOM     36  C   UNL A   1      42.689  28.714  33.858  1.00  0.00     0.074 A 
ATOM     37  C   UNL A   1      43.270  27.580  33.174  1.00  0.00     0.031 C 
ATOM     38  C   UNL A   1      38.266  30.800  29.689  1.00  0.00     0.029 A 
ATOM     39  C   UNL A   1      38.567  31.340  31.011  1.00  0.00     0.049 A 
ATOM     40  H   UNL A   1      40.062  30.719  32.322  1.00  0.00     0.167 HD
ATOM     41  C   UNL A   1      43.051  29.128  35.096  1.00  0.00     0.037 A 
ATOM     42  C   UNL A   1      37.908  32.356  31.605  1.00  0.00     0.037 A 
ATOM     43  C   UNL A   1      42.489  30.277  35.758  1.00  0.00     0.049 A 
ATOM     44  C   UNL A   1      38.346  32.816  32.967  1.00  0.00     0.074 A 
ATOM     45  C   UNL A   1      42.846  30.828  36.977  1.00  0.00     0.029 A 
ATOM     46  N   UNL A   1      41.447  31.047  35.263  1.00  0.00    -0.354 N 
ATOM     47  N   UNL A   1      39.298  32.337  33.732  1.00  0.00    -0.248 NA
ATOM     48  C   UNL A   1      37.629  33.961  33.545  1.00  0.00     0.031 C 
ATOM     49  C   UNL A   1      41.992  31.904  37.238  1.00  0.00     0.029 A 
ATOM     50  C   UNL A   1      41.133  32.054  36.161  1.00  0.00     0.049 A 
ATOM     51  H   UNL A   1      40.997  30.900  34.400  1.00  0.00     0.167 HD
ATOM     52  C   UNL A   1      39.307  33.133  34.872  1.00  0.00     0.074 A 
ATOM     53  C   UNL A   1      38.276  34.133  34.690  1.00  0.00     0.031 C 
ATOM     54  C   UNL A   1      40.101  33.043  35.968  1.00  0.00     0.037 A 
BRANCH  41  55
ATOM     55  C   UNL A   1      44.107  28.332  35.813  1.00  0.00     0.058 A 
ATOM     56  C   UNL A   1      43.776  27.288  36.693  1.00  0.00     0.135 A 
ATOM     57  C   UNL A   1      45.468  28.604  35.606  1.00  0.00     0.135 A 
ATOM     58  F   UNL A   1      42.488  26.995  36.940  1.00  0.00    -0.206 F 
ATOM     59  C   UNL A   1      44.754  26.570  37.372  1.00  0.00     0.059 A 
ATOM     60  C   UNL A   1      46.466  27.877  36.251  1.00  0.00     0.059 A 
ATOM     61  F   UNL A   1      45.843  29.588  34.774  1.00  0.00    -0.206 F 
ATOM     62  C   UNL A   1      46.098  26.874  37.146  1.00  0.00     0.060 A 
BRANCH  62  63
ATOM     63  S   UNL A   1      47.357  25.941  38.043  1.00  0.00     0.124 S 
ATOM     64  O   UNL A   1      48.565  26.686  37.705  1.00  0.00    -0.237 OA
ATOM     65  O   UNL A   1      46.907  26.060  39.426  1.00  0.00    -0.237 OA
ATOM     66  O   UNL A   1      47.261  24.604  37.468  1.00  0.00    -0.744 OA
ENDBRANCH  62  63
ENDBRANCH  41  55
BRANCH  42  67
ATOM     67  C   UNL A   1      36.782  33.016  30.894  1.00  0.00     0.058 A 
ATOM     68  C   UNL A   1      35.454  32.800  31.291  1.00  0.00     0.135 A 
ATOM     69  C   UNL A   1      37.012  33.907  29.835  1.00  0.00     0.135 A 
ATOM     70  F   UNL A   1      35.183  31.952  32.295  1.00  0.00    -0.206 F 
ATOM     71  C   UNL A   1      34.392  33.440  30.660  1.00  0.00     0.059 A 
ATOM     72  C   UNL A   1      35.968  34.576  29.203  1.00  0.00     0.059 A 
ATOM     73  F   UNL A   1      38.266  34.160  29.430  1.00  0.00    -0.206 F 
ATOM     74  C   UNL A   1      34.660  34.333  29.620  1.00  0.00     0.060 A 
BRANCH  74  75
ATOM     75  S   UNL A   1      33.281  35.214  28.858  1.00  0.00     0.124 S 
ATOM     76  O   UNL A   1      32.501  35.607  30.025  1.00  0.00    -0.237 OA
ATOM     77  O   UNL A   1      33.961  36.295  28.151  1.00  0.00    -0.237 OA
ATOM     78  O   UNL A   1      32.670  34.203  28.000  1.00  0.00    -0.744 OA
ENDBRANCH  74  75
ENDBRANCH  42  67
BRANCH  54  79
ATOM     79  C   UNL A   1      39.901  34.066  37.052  1.00  0.00     0.058 A 
ATOM     80  C   UNL A   1      40.519  35.326  37.000  1.00  0.00     0.135 A 
ATOM     81  C   UNL A   1      39.039  33.802  38.129  1.00  0.00     0.135 A 
ATOM     82  F   UNL A   1      41.357  35.626  35.995  1.00  0.00    -0.206 F 
ATOM     83  C   UNL A   1      40.306  36.280  37.989  1.00  0.00     0.059 A 
ATOM     84  C   UNL A   1      38.792  34.751  39.115  1.00  0.00     0.059 A 
ATOM     85  F   UNL A   1      38.417  32.616  38.221  1.00  0.00    -0.206 F 
ATOM     86  C   UNL A   1      39.438  35.985  39.042  1.00  0.00     0.060 A 
BRANCH  86  87
ATOM     87  S   UNL A   1      39.143  37.243  40.302  1.00  0.00     0.124 S 
ATOM     88  O   UNL A   1      38.530  36.456  41.367  1.00  0.00    -0.237 OA
ATOM     89  O   UNL A   1      40.491  37.736  40.574  1.00  0.00    -0.237 OA
ATOM     90  O   UNL A   1      38.259  38.193  39.633  1.00  0.00    -0.744 OA
ENDBRANCH  86  87
ENDBRANCH  54  79
ENDBRANCH  28  29
ENDBRANCH  20  23
ENDBRANCH  18  19
ENDBRANCH   1  18
TORSDOF 16
ENDMDL
MODEL 2
REMARK VINA RESULT:     -11.1      5.114     10.699
REMARK SMILES CC1(C)CCC[C@@H]1[C@H](O)C(=O)NCCCCNC(=O)c1ccc(-c2c3nc(c(-c4c(F)cc(S(=O)(=O)[O-])cc4F)c4ccc([nH]4)c(-c4c(F)cc(S(=O)(=O)[O-])cc4F)c4nc(c(-c5c(F)cc(S(=O)(=O)[O-])cc5F)c5ccc2[nH]5)C=C4)C=C3)cc1
REMARK SMILES IDX 15 1 14 2 13 3 12 4 10 5 11 6 8 8 7 9 1 10 2 11 3 12 4 13
REMARK SMILES IDX 5 14 6 15 9 16 16 18 17 19 18 20 19 22 20 23 21 24 85 25
REMARK SMILES IDX 22 26 84 27 23 28 24 29 25 30 78 31 26 32 83 33 77 34 79 35
REMARK SMILES IDX 27 36 82 37 76 38 75 39 28 41 62 42 41 43 61 44 42 45 45 46
REMARK SMILES IDX 60 47 80 48 43 49 44 50 59 52 81 53 46 54 29 55 30 56 39 57
REMARK SMILES IDX 31 58 32 59 38 60 40 61 33 62 34 63 35 64 36 65 37 66 63 67
REMARK SMILES IDX 64 68 73 69 65 70 66 71 72 72 74 73 67 74 68 75 69 76 70 77
REMARK SMILES IDX 71 78 47 79 48 80 57 81 49 82 50 83 56 84 58 85 51 86 52 87
REMARK SMILES IDX 53 88 54 89 55 90
REMARK H PARENT 12 7 9 17 17 21 79 40 45 51
REMARK Flexibility Score: inf
ROOT
ATOM      1  C   UNL A   1      32.995  28.119  25.894  1.00  0.00     0.023 C 
ENDROOT
BRANCH   1   2
ATOM      2  C   UNL A   1      31.476  28.079  25.731  1.00  0.00     0.023 C 
BRANCH   2   3
ATOM      3  C   UNL A   1      30.907  26.743  25.266  1.00  0.00     0.116 C 
BRANCH   3   4
ATOM      4  N   UNL A   1      30.806  25.773  26.341  1.00  0.00    -0.354 N 
ATOM      5  C   UNL A   1      31.020  24.425  26.303  1.00  0.00     0.249 C 
ATOM      6  O   UNL A   1      30.907  23.780  27.349  1.00  0.00    -0.272 OA
ATOM      7  H   UNL A   1      30.546  26.136  27.219  1.00  0.00     0.163 HD
BRANCH   5   8
ATOM      8  C   UNL A   1      31.425  23.728  24.986  1.00  0.00     0.206 C 
BRANCH   8   9
ATOM      9  C   UNL A   1      32.821  24.175  24.518  1.00  0.00     0.033 C 
ATOM     10  C   UNL A   1      33.153  23.194  22.163  1.00  0.00     0.011 C 
ATOM     11  C   UNL A   1      33.616  23.184  23.628  1.00  0.00    -0.030 C 
ATOM     12  C   UNL A   1      33.593  21.740  24.158  1.00  0.00     0.011 C 
ATOM     13  C   UNL A   1      35.031  23.781  23.732  1.00  0.00     0.007 C 
ATOM     14  C   UNL A   1      35.178  24.218  25.186  1.00  0.00     0.001 C 
ATOM     15  C   UNL A   1      33.762  24.474  25.699  1.00  0.00     0.007 C 
ENDBRANCH   8   9
BRANCH   8  16
ATOM     16  O   UNL A   1      30.461  23.920  23.958  1.00  0.00    -0.383 OA
ATOM     17  H   UNL A   1      30.473  24.847  23.671  1.00  0.00     0.211 HD
ENDBRANCH   8  16
ENDBRANCH   5   8
ENDBRANCH   3   4
ENDBRANCH   2   3
ENDBRANCH   1   2
BRANCH   1  18
ATOM     18  C   UNL A   1      33.500  28.432  27.299  1.00  0.00     0.116 C 
BRANCH  18  19
ATOM     19  N   UNL A   1      33.463  29.851  27.619  1.00  0.00    -0.352 N 
ATOM     20  C   UNL A   1      34.449  30.649  28.149  1.00  0.00     0.251 C 
ATOM     21  H   UNL A   1      32.609  30.305  27.430  1.00  0.00     0.163 HD
ATOM     22  O   UNL A   1      34.197  31.809  28.466  1.00  0.00    -0.269 OA
BRANCH  20  23
ATOM     23  C   UNL A   1      35.801  30.093  28.372  1.00  0.00     0.039 A 
ATOM     24  C   UNL A   1      36.717  30.099  27.317  1.00  0.00     0.014 A 
ATOM     25  C   UNL A   1      36.175  29.603  29.627  1.00  0.00     0.014 A 
ATOM     26  C   UNL A   1      38.032  29.690  27.543  1.00  0.00     0.010 A 
ATOM     27  C   UNL A   1      37.504  29.268  29.868  1.00  0.00     0.010 A 
ATOM     28  C   UNL A   1      38.449  29.313  28.831  1.00  0.00    -0.014 A 
BRANCH  28  29
ATOM     29  C   UNL A   1      39.871  28.988  29.117  1.00  0.00     0.031 A 
ATOM     30  C   UNL A   1      40.783  30.029  29.706  1.00  0.00     0.074 A 
ATOM     31  C   UNL A   1      40.359  27.781  28.769  1.00  0.00     0.049 A 
ATOM     32  N   UNL A   1      42.064  29.952  29.962  1.00  0.00    -0.248 NA
ATOM     33  C   UNL A   1      40.186  31.336  30.018  1.00  0.00     0.031 C 
ATOM     34  C   UNL A   1      39.592  26.710  28.129  1.00  0.00     0.029 A 
ATOM     35  N   UNL A   1      41.621  27.255  28.891  1.00  0.00    -0.354 N 
ATOM     36  C   UNL A   1      42.429  31.203  30.445  1.00  0.00     0.074 A 
ATOM     37  C   UNL A   1      41.246  32.033  30.400  1.00  0.00     0.031 C 
ATOM     38  C   UNL A   1      40.393  25.651  27.930  1.00  0.00     0.029 A 
ATOM     39  C   UNL A   1      41.738  25.977  28.397  1.00  0.00     0.049 A 
ATOM     40  H   UNL A   1      42.372  27.746  29.295  1.00  0.00     0.167 HD
ATOM     41  C   UNL A   1      43.635  31.616  30.904  1.00  0.00     0.037 A 
ATOM     42  C   UNL A   1      42.806  25.160  28.320  1.00  0.00     0.037 A 
ATOM     43  C   UNL A   1      44.802  30.774  30.974  1.00  0.00     0.049 A 
ATOM     44  C   UNL A   1      44.128  25.629  28.861  1.00  0.00     0.074 A 
ATOM     45  C   UNL A   1      46.047  31.072  31.500  1.00  0.00     0.029 A 
ATOM     46  N   UNL A   1      44.871  29.473  30.499  1.00  0.00    -0.354 N 
ATOM     47  N   UNL A   1      44.436  26.787  29.393  1.00  0.00    -0.248 NA
ATOM     48  C   UNL A   1      45.247  24.678  28.801  1.00  0.00     0.031 C 
ATOM     49  C   UNL A   1      46.881  29.967  31.303  1.00  0.00     0.029 A 
ATOM     50  C   UNL A   1      46.143  28.962  30.699  1.00  0.00     0.049 A 
ATOM     51  H   UNL A   1      44.125  28.984  30.083  1.00  0.00     0.167 HD
ATOM     52  C   UNL A   1      45.777  26.699  29.749  1.00  0.00     0.074 A 
ATOM     53  C   UNL A   1      46.218  25.368  29.385  1.00  0.00     0.031 C 
ATOM     54  C   UNL A   1      46.570  27.635  30.328  1.00  0.00     0.037 A 
BRANCH  41  55
ATOM     55  C   UNL A   1      43.751  33.043  31.366  1.00  0.00     0.058 A 
ATOM     56  C   UNL A   1      43.523  33.408  32.704  1.00  0.00     0.135 A 
ATOM     57  C   UNL A   1      44.112  34.057  30.465  1.00  0.00     0.135 A 
ATOM     58  F   UNL A   1      43.161  32.480  33.605  1.00  0.00    -0.206 F 
ATOM     59  C   UNL A   1      43.609  34.731  33.122  1.00  0.00     0.059 A 
ATOM     60  C   UNL A   1      44.234  35.384  30.868  1.00  0.00     0.059 A 
ATOM     61  F   UNL A   1      44.345  33.765  29.176  1.00  0.00    -0.206 F 
ATOM     62  C   UNL A   1      43.962  35.714  32.195  1.00  0.00     0.060 A 
BRANCH  62  63
ATOM     63  S   UNL A   1      44.058  37.429  32.750  1.00  0.00     0.124 S 
ATOM     64  O   UNL A   1      43.835  38.151  31.501  1.00  0.00    -0.237 OA
ATOM     65  O   UNL A   1      42.975  37.503  33.725  1.00  0.00    -0.237 OA
ATOM     66  O   UNL A   1      45.404  37.532  33.304  1.00  0.00    -0.744 OA
ENDBRANCH  62  63
ENDBRANCH  41  55
BRANCH  42  67
ATOM     67  C   UNL A   1      42.655  23.805  27.727  1.00  0.00     0.058 A 
ATOM     68  C   UNL A   1      42.739  23.611  26.341  1.00  0.00     0.135 A 
ATOM     69  C   UNL A   1      42.465  22.674  28.536  1.00  0.00     0.135 A 
ATOM     70  F   UNL A   1      42.913  24.662  25.525  1.00  0.00    -0.206 F 
ATOM     71  C   UNL A   1      42.636  22.344  25.775  1.00  0.00     0.059 A 
ATOM     72  C   UNL A   1      42.382  21.394  27.995  1.00  0.00     0.059 A 
ATOM     73  F   UNL A   1      42.394  22.805  29.869  1.00  0.00    -0.206 F 
ATOM     74  C   UNL A   1      42.464  21.240  26.612  1.00  0.00     0.060 A 
BRANCH  74  75
ATOM     75  S   UNL A   1      42.407  19.593  25.873  1.00  0.00     0.124 S 
ATOM     76  O   UNL A   1      42.776  18.750  27.003  1.00  0.00    -0.237 OA
ATOM     77  O   UNL A   1      41.017  19.502  25.435  1.00  0.00    -0.237 OA
ATOM     78  O   UNL A   1      43.389  19.674  24.797  1.00  0.00    -0.744 OA
ENDBRANCH  74  75
ENDBRANCH  42  67
BRANCH  54  79
ATOM     79  C   UNL A   1      47.992  27.249  30.624  1.00  0.00     0.058 A 
ATOM     80  C   UNL A   1      48.339  26.546  31.788  1.00  0.00     0.135 A 
ATOM     81  C   UNL A   1      49.014  27.542  29.705  1.00  0.00     0.135 A 
ATOM     82  F   UNL A   1      47.401  26.248  32.702  1.00  0.00    -0.206 F 
ATOM     83  C   UNL A   1      49.652  26.164  32.041  1.00  0.00     0.059 A 
ATOM     84  C   UNL A   1      50.329  27.146  29.926  1.00  0.00     0.059 A 
ATOM     85  F   UNL A   1      48.734  28.204  28.571  1.00  0.00    -0.206 F 
ATOM     86  C   UNL A   1      50.641  26.467  31.103  1.00  0.00     0.060 A 
BRANCH  86  87
ATOM     87  S   UNL A   1      52.336  25.937  31.427  1.00  0.00     0.124 S 
ATOM     88  O   UNL A   1      52.926  26.008  30.094  1.00  0.00    -0.237 OA
ATOM     89  O   UNL A   1      52.801  26.940  32.380  1.00  0.00    -0.237 OA
ATOM     90  O   UNL A   1      52.173  24.592  31.971  1.00  0.00    -0.744 OA
ENDBRANCH  86  87
ENDBRANCH  54  79
ENDBRANCH  28  29
ENDBRANCH  20  23
ENDBRANCH  18  19
ENDBRANCH   1  18
TORSDOF 16
ENDMDL
MODEL 3
REMARK VINA RESULT:     -11.0      7.215     12.692
REMARK SMILES CC1(C)CCC[C@@H]1[C@H](O)C(=O)NCCCCNC(=O)c1ccc(-c2c3nc(c(-c4c(F)cc(S(=O)(=O)[O-])cc4F)c4ccc([nH]4)c(-c4c(F)cc(S(=O)(=O)[O-])cc4F)c4nc(c(-c5c(F)cc(S(=O)(=O)[O-])cc5F)c5ccc2[nH]5)C=C4)C=C3)cc1
REMARK SMILES IDX 15 1 14 2 13 3 12 4 10 5 11 6 8 8 7 9 1 10 2 11 3 12 4 13
REMARK SMILES IDX 5 14 6 15 9 16 16 18 17 19 18 20 19 22 20 23 21 24 85 25
REMARK SMILES IDX 22 26 84 27 23 28 24 29 25 30 78 31 26 32 83 33 77 34 79 35
REMARK SMILES IDX 27 36 82 37 76 38 75 39 28 41 62 42 41 43 61 44 42 45 45 46
REMARK SMILES IDX 60 47 80 48 43 49 44 50 59 52 81 53 46 54 29 55 30 56 39 57
REMARK SMILES IDX 31 58 32 59 38 60 40 61 33 62 34 63 35 64 36 65 37 66 63 67
REMARK SMILES IDX 64 68 73 69 65 70 66 71 72 72 74 73 67 74 68 75 69 76 70 77
REMARK SMILES IDX 71 78 47 79 48 80 57 81 49 82 50 83 56 84 58 85 51 86 52 87
REMARK SMILES IDX 53 88 54 89 55 90
REMARK H PARENT 12 7 9 17 17 21 79 40 45 51
REMARK Flexibility Score: inf
ROOT
ATOM      1  C   UNL A   1      33.753  29.952  27.281  1.00  0.00     0.023 C 
ENDROOT
BRANCH   1   2
ATOM      2  C   UNL A   1      33.488  28.851  26.256  1.00  0.00     0.023 C 
BRANCH   2   3
ATOM      3  C   UNL A   1      32.683  29.280  25.034  1.00  0.00     0.116 C 
BRANCH   3   4
ATOM      4  N   UNL A   1      32.495  28.202  24.080  1.00  0.00    -0.354 N 
ATOM      5  C   UNL A   1      31.653  28.142  23.008  1.00  0.00     0.249 C 
ATOM      6  O   UNL A   1      31.670  27.133  22.299  1.00  0.00    -0.272 OA
ATOM      7  H   UNL A   1      33.052  27.403  24.227  1.00  0.00     0.163 HD
BRANCH   5   8
ATOM      8  C   UNL A   1      30.720  29.326  22.671  1.00  0.00     0.206 C 
BRANCH   8   9
ATOM      9  C   UNL A   1      29.274  28.855  22.440  1.00  0.00     0.033 C 
ATOM     10  C   UNL A   1      28.105  30.711  21.096  1.00  0.00     0.011 C 
ATOM     11  C   UNL A   1      28.171  29.945  22.427  1.00  0.00    -0.030 C 
ATOM     12  C   UNL A   1      28.298  30.950  23.585  1.00  0.00     0.011 C 
ATOM     13  C   UNL A   1      26.911  29.078  22.593  1.00  0.00     0.007 C 
ATOM     14  C   UNL A   1      27.293  28.001  23.602  1.00  0.00     0.001 C 
ATOM     15  C   UNL A   1      28.811  27.850  23.510  1.00  0.00     0.007 C 
ENDBRANCH   8   9
BRANCH   8  16
ATOM     16  O   UNL A   1      31.190  30.083  21.562  1.00  0.00    -0.383 OA
ATOM     17  H   UNL A   1      31.730  30.823  21.881  1.00  0.00     0.211 HD
ENDBRANCH   8  16
ENDBRANCH   5   8
ENDBRANCH   3   4
ENDBRANCH   2   3
ENDBRANCH   1   2
BRANCH   1  18
ATOM     18  C   UNL A   1      35.168  29.999  27.848  1.00  0.00     0.116 C 
BRANCH  18  19
ATOM     19  N   UNL A   1      35.243  30.640  29.153  1.00  0.00    -0.352 N 
ATOM     20  C   UNL A   1      36.279  30.657  30.056  1.00  0.00     0.251 C 
ATOM     21  H   UNL A   1      34.435  31.132  29.429  1.00  0.00     0.163 HD
ATOM     22  O   UNL A   1      36.118  31.154  31.167  1.00  0.00    -0.269 OA
BRANCH  20  23
ATOM     23  C   UNL A   1      37.575  30.040  29.697  1.00  0.00     0.039 A 
ATOM     24  C   UNL A   1      37.934  29.959  28.349  1.00  0.00     0.014 A 
ATOM     25  C   UNL A   1      38.446  29.578  30.687  1.00  0.00     0.014 A 
ATOM     26  C   UNL A   1      39.202  29.489  28.000  1.00  0.00     0.010 A 
ATOM     27  C   UNL A   1      39.735  29.183  30.342  1.00  0.00     0.010 A 
ATOM     28  C   UNL A   1      40.129  29.140  28.997  1.00  0.00    -0.014 A 
BRANCH  28  29
ATOM     29  C   UNL A   1      41.522  28.751  28.650  1.00  0.00     0.031 A 
ATOM     30  C   UNL A   1      42.610  29.788  28.605  1.00  0.00     0.074 A 
ATOM     31  C   UNL A   1      41.788  27.478  28.297  1.00  0.00     0.049 A 
ATOM     32  N   UNL A   1      43.865  29.652  28.261  1.00  0.00    -0.248 NA
ATOM     33  C   UNL A   1      42.232  31.164  28.963  1.00  0.00     0.031 C 
ATOM     34  C   UNL A   1      40.805  26.393  28.235  1.00  0.00     0.029 A 
ATOM     35  N   UNL A   1      42.961  26.881  27.908  1.00  0.00    -0.354 N 
ATOM     36  C   UNL A   1      44.420  30.924  28.341  1.00  0.00     0.074 A 
ATOM     37  C   UNL A   1      43.353  31.825  28.718  1.00  0.00     0.031 C 
ATOM     38  C   UNL A   1      41.418  25.263  27.850  1.00  0.00     0.029 A 
ATOM     39  C   UNL A   1      42.830  25.547  27.604  1.00  0.00     0.049 A 
ATOM     40  H   UNL A   1      43.817  27.364  27.852  1.00  0.00     0.167 HD
ATOM     41  C   UNL A   1      45.705  31.303  28.138  1.00  0.00     0.037 A 
ATOM     42  C   UNL A   1      43.738  24.651  27.169  1.00  0.00     0.037 A 
ATOM     43  C   UNL A   1      46.768  30.395  27.793  1.00  0.00     0.049 A 
ATOM     44  C   UNL A   1      45.164  25.088  26.979  1.00  0.00     0.074 A 
ATOM     45  C   UNL A   1      48.117  30.666  27.648  1.00  0.00     0.029 A 
ATOM     46  N   UNL A   1      46.602  29.043  27.531  1.00  0.00    -0.354 N 
ATOM     47  N   UNL A   1      45.690  26.278  27.141  1.00  0.00    -0.248 NA
ATOM     48  C   UNL A   1      46.124  24.058  26.556  1.00  0.00     0.031 C 
ATOM     49  C   UNL A   1      48.760  29.487  27.256  1.00  0.00     0.029 A 
ATOM     50  C   UNL A   1      47.820  28.471  27.203  1.00  0.00     0.049 A 
ATOM     51  H   UNL A   1      45.745  28.561  27.572  1.00  0.00     0.167 HD
ATOM     52  C   UNL A   1      47.044  26.139  26.859  1.00  0.00     0.074 A 
ATOM     53  C   UNL A   1      47.259  24.744  26.531  1.00  0.00     0.031 C 
ATOM     54  C   UNL A   1      48.020  27.080  26.875  1.00  0.00     0.037 A 
BRANCH  41  55
ATOM     55  C   UNL A   1      46.030  32.764  28.287  1.00  0.00     0.058 A 
ATOM     56  C   UNL A   1      46.445  33.308  29.514  1.00  0.00     0.135 A 
ATOM     57  C   UNL A   1      45.942  33.630  27.185  1.00  0.00     0.135 A 
ATOM     58  F   UNL A   1      46.532  32.529  30.604  1.00  0.00    -0.206 F 
ATOM     59  C   UNL A   1      46.722  34.664  29.653  1.00  0.00     0.059 A 
ATOM     60  C   UNL A   1      46.245  34.985  27.294  1.00  0.00     0.059 A 
ATOM     61  F   UNL A   1      45.554  33.164  25.988  1.00  0.00    -0.206 F 
ATOM     62  C   UNL A   1      46.616  35.495  28.536  1.00  0.00     0.060 A 
BRANCH  62  63
ATOM     63  S   UNL A   1      46.967  37.255  28.734  1.00  0.00     0.124 S 
ATOM     64  O   UNL A   1      48.420  37.246  28.877  1.00  0.00    -0.237 OA
ATOM     65  O   UNL A   1      46.458  37.818  27.487  1.00  0.00    -0.237 OA
ATOM     66  O   UNL A   1      46.220  37.618  29.933  1.00  0.00    -0.744 OA
ENDBRANCH  62  63
ENDBRANCH  41  55
BRANCH  42  67
ATOM     67  C   UNL A   1      43.322  23.247  26.912  1.00  0.00     0.058 A 
ATOM     68  C   UNL A   1      43.237  22.750  25.603  1.00  0.00     0.135 A 
ATOM     69  C   UNL A   1      43.044  22.366  27.967  1.00  0.00     0.135 A 
ATOM     70  F   UNL A   1      43.487  23.556  24.560  1.00  0.00    -0.206 F 
ATOM     71  C   UNL A   1      42.884  21.428  25.348  1.00  0.00     0.059 A 
ATOM     72  C   UNL A   1      42.711  21.034  27.739  1.00  0.00     0.059 A 
ATOM     73  F   UNL A   1      43.128  22.790  29.237  1.00  0.00    -0.206 F 
ATOM     74  C   UNL A   1      42.630  20.575  26.424  1.00  0.00     0.060 A 
BRANCH  74  75
ATOM     75  S   UNL A   1      42.248  18.843  26.085  1.00  0.00     0.124 S 
ATOM     76  O   UNL A   1      42.554  18.217  27.365  1.00  0.00    -0.237 OA
ATOM     77  O   UNL A   1      40.834  18.906  25.726  1.00  0.00    -0.237 OA
ATOM     78  O   UNL A   1      43.149  18.510  24.986  1.00  0.00    -0.744 OA
ENDBRANCH  74  75
ENDBRANCH  42  67
BRANCH  54  79
ATOM     79  C   UNL A   1      49.418  26.633  26.546  1.00  0.00     0.058 A 
ATOM     80  C   UNL A   1      50.278  26.120  27.528  1.00  0.00     0.135 A 
ATOM     81  C   UNL A   1      49.882  26.669  25.220  1.00  0.00     0.135 A 
ATOM     82  F   UNL A   1      49.885  26.070  28.811  1.00  0.00    -0.206 F 
ATOM     83  C   UNL A   1      51.559  25.679  27.213  1.00  0.00     0.059 A 
ATOM     84  C   UNL A   1      51.149  26.208  24.878  1.00  0.00     0.059 A 
ATOM     85  F   UNL A   1      49.095  27.141  24.241  1.00  0.00    -0.206 F 
ATOM     86  C   UNL A   1      51.985  25.725  25.884  1.00  0.00     0.060 A 
BRANCH  86  87
ATOM     87  S   UNL A   1      53.637  25.117  25.481  1.00  0.00     0.124 S 
ATOM     88  O   UNL A   1      53.919  25.833  24.241  1.00  0.00    -0.237 OA
ATOM     89  O   UNL A   1      54.416  25.534  26.644  1.00  0.00    -0.237 OA
ATOM     90  O   UNL A   1      53.445  23.677  25.346  1.00  0.00    -0.744 OA
ENDBRANCH  86  87
ENDBRANCH  54  79
ENDBRANCH  28  29
ENDBRANCH  20  23
ENDBRANCH  18  19
ENDBRANCH   1  18
TORSDOF 16
ENDMDL
