MODEL 1
REMARK VINA RESULT:     -12.3      0.000      0.000
REMARK SMILES N#C/C(=C/c1cccc(OCC(=O)NCCCCNC(=O)c2ccc(-c3c4nc(c(-c5c(F)cc(S(=O)(=O)[O-])cc5F)c5ccc([nH]5)c(-c5c(F)cc(S(=O)(=O)[O-])cc5F)c5nc(c(-c6c(F)cc(S(=O)(=O)[O-])cc6F)c6ccc3[nH]6)C=C5)C=C4)cc2)c1)c1nc2ccccc2[nH]1
REMARK SMILES IDX 16 1 15 2 14 3 12 4 13 5 11 7 10 8 9 9 5 10 6 11 88 12 7 13
REMARK SMILES IDX 8 14 4 15 3 16 2 17 1 18 89 19 90 20 97 21 91 22 96 23 92 25
REMARK SMILES IDX 95 26 93 27 94 28 17 29 18 30 19 31 20 32 21 34 22 35 23 36
REMARK SMILES IDX 87 37 24 38 86 39 25 40 26 41 27 42 80 43 28 44 85 45 79 46
REMARK SMILES IDX 81 47 29 48 84 49 78 50 77 51 30 53 64 54 43 55 63 56 44 57
REMARK SMILES IDX 47 58 62 59 82 60 45 61 46 62 61 64 83 65 48 66 31 67 32 68
REMARK SMILES IDX 41 69 33 70 34 71 40 72 42 73 35 74 36 75 37 76 38 77 39 78
REMARK SMILES IDX 65 79 66 80 75 81 67 82 68 83 74 84 76 85 69 86 70 87 71 88
REMARK SMILES IDX 72 89 73 90 49 91 50 92 59 93 51 94 52 95 58 96 60 97 53 98
REMARK SMILES IDX 54 99 55 100 56 101 57 102
REMARK H PARENT 14 6 97 24 19 33 81 52 47 63
REMARK Flexibility Score: inf
ROOT
ATOM      1  C   UNL A   1      36.834  22.487  24.900  1.00  0.00     0.023 C 
ENDROOT
BRANCH   1   2
ATOM      2  C   UNL A   1      36.217  21.497  25.889  1.00  0.00     0.116 C 
BRANCH   2   3
ATOM      3  N   UNL A   1      35.311  20.523  25.311  1.00  0.00    -0.353 N 
ATOM      4  C   UNL A   1      33.996  20.699  24.967  1.00  0.00     0.257 C 
ATOM      5  O   UNL A   1      33.436  19.880  24.232  1.00  0.00    -0.271 OA
ATOM      6  H   UNL A   1      35.686  19.628  25.145  1.00  0.00     0.163 HD
BRANCH   4   7
ATOM      7  C   UNL A   1      33.238  21.941  25.447  1.00  0.00     0.329 C 
BRANCH   7   8
ATOM      8  O   UNL A   1      33.149  23.026  24.540  1.00  0.00    -0.484 OA
BRANCH   8   9
ATOM      9  C   UNL A   1      32.185  23.972  24.762  1.00  0.00     0.120 A 
ATOM     10  C   UNL A   1      30.757  25.868  24.220  1.00  0.00    -0.021 A 
ATOM     11  C   UNL A   1      30.107  25.726  25.450  1.00  0.00     0.008 A 
ATOM     12  C   UNL A   1      31.814  25.002  23.894  1.00  0.00     0.054 A 
ATOM     13  C   UNL A   1      30.495  24.718  26.334  1.00  0.00     0.004 A 
ATOM     14  C   UNL A   1      31.528  23.847  25.987  1.00  0.00     0.046 A 
BRANCH  10  15
ATOM     15  C   UNL A   1      30.320  26.921  23.285  1.00  0.00     0.031 C 
ATOM     16  C   UNL A   1      30.672  28.223  23.341  1.00  0.00     0.095 C 
BRANCH  16  17
ATOM     17  C   UNL A   1      30.137  29.196  22.303  1.00  0.00     0.103 C 
ATOM     18  N   UNL A   1      29.693  30.004  21.442  1.00  0.00    -0.192 NA
ENDBRANCH  16  17
BRANCH  16  19
ATOM     19  C   UNL A   1      31.606  28.713  24.297  1.00  0.00     0.149 A 
ATOM     20  N   UNL A   1      32.738  28.193  24.729  1.00  0.00    -0.228 NA
ATOM     21  N   UNL A   1      31.354  29.911  24.931  1.00  0.00    -0.337 N 
ATOM     22  C   UNL A   1      33.201  29.051  25.693  1.00  0.00     0.089 A 
ATOM     23  C   UNL A   1      32.337  30.122  25.863  1.00  0.00     0.066 A 
ATOM     24  H   UNL A   1      30.597  30.513  24.746  1.00  0.00     0.168 HD
ATOM     25  C   UNL A   1      34.353  28.972  26.484  1.00  0.00     0.030 A 
ATOM     26  C   UNL A   1      32.528  31.116  26.827  1.00  0.00     0.028 A 
ATOM     27  C   UNL A   1      34.566  29.947  27.466  1.00  0.00     0.002 A 
ATOM     28  C   UNL A   1      33.659  30.993  27.643  1.00  0.00     0.002 A 
ENDBRANCH  16  19
ENDBRANCH  10  15
ENDBRANCH   8   9
ENDBRANCH   7   8
ENDBRANCH   4   7
ENDBRANCH   2   3
ENDBRANCH   1   2
BRANCH   1  29
ATOM     29  C   UNL A   1      37.227  23.888  25.389  1.00  0.00     0.023 C 
BRANCH  29  30
ATOM     30  C   UNL A   1      38.238  24.028  26.526  1.00  0.00     0.116 C 
BRANCH  30  31
ATOM     31  N   UNL A   1      39.616  23.881  26.093  1.00  0.00    -0.352 N 
ATOM     32  C   UNL A   1      40.720  24.620  26.465  1.00  0.00     0.251 C 
ATOM     33  H   UNL A   1      39.784  23.156  25.448  1.00  0.00     0.163 HD
ATOM     34  O   UNL A   1      41.782  24.461  25.868  1.00  0.00    -0.269 OA
BRANCH  32  35
ATOM     35  C   UNL A   1      40.637  25.620  27.562  1.00  0.00     0.039 A 
ATOM     36  C   UNL A   1      41.589  26.644  27.618  1.00  0.00     0.014 A 
ATOM     37  C   UNL A   1      39.659  25.535  28.558  1.00  0.00     0.014 A 
ATOM     38  C   UNL A   1      41.530  27.608  28.635  1.00  0.00     0.010 A 
ATOM     39  C   UNL A   1      39.573  26.525  29.545  1.00  0.00     0.010 A 
ATOM     40  C   UNL A   1      40.507  27.573  29.597  1.00  0.00    -0.014 A 
BRANCH  40  41
ATOM     41  C   UNL A   1      40.406  28.619  30.658  1.00  0.00     0.031 A 
ATOM     42  C   UNL A   1      41.255  28.529  31.903  1.00  0.00     0.074 A 
ATOM     43  C   UNL A   1      39.515  29.626  30.534  1.00  0.00     0.049 A 
ATOM     44  N   UNL A   1      41.252  29.296  32.963  1.00  0.00    -0.248 NA
ATOM     45  C   UNL A   1      42.221  27.420  31.973  1.00  0.00     0.031 C 
ATOM     46  C   UNL A   1      38.612  29.821  29.398  1.00  0.00     0.029 A 
ATOM     47  N   UNL A   1      39.206  30.666  31.380  1.00  0.00    -0.354 N 
ATOM     48  C   UNL A   1      42.192  28.754  33.833  1.00  0.00     0.074 A 
ATOM     49  C   UNL A   1      42.729  27.576  33.188  1.00  0.00     0.031 C 
ATOM     50  C   UNL A   1      37.855  30.911  29.616  1.00  0.00     0.029 A 
ATOM     51  C   UNL A   1      38.187  31.472  30.923  1.00  0.00     0.049 A 
ATOM     52  H   UNL A   1      39.672  30.822  32.234  1.00  0.00     0.167 HD
ATOM     53  C   UNL A   1      42.579  29.203  35.051  1.00  0.00     0.037 A 
ATOM     54  C   UNL A   1      37.571  32.527  31.495  1.00  0.00     0.037 A 
ATOM     55  C   UNL A   1      42.076  30.400  35.674  1.00  0.00     0.049 A 
ATOM     56  C   UNL A   1      38.019  32.998  32.858  1.00  0.00     0.074 A 
ATOM     57  C   UNL A   1      42.476  30.977  36.869  1.00  0.00     0.029 A 
ATOM     58  N   UNL A   1      41.062  31.198  35.167  1.00  0.00    -0.354 N 
ATOM     59  N   UNL A   1      38.970  32.520  33.623  1.00  0.00    -0.248 NA
ATOM     60  C   UNL A   1      37.313  34.153  33.433  1.00  0.00     0.031 C 
ATOM     61  C   UNL A   1      41.664  32.087  37.115  1.00  0.00     0.029 A 
ATOM     62  C   UNL A   1      40.801  32.241  36.042  1.00  0.00     0.049 A 
ATOM     63  H   UNL A   1      40.597  31.047  34.313  1.00  0.00     0.167 HD
ATOM     64  C   UNL A   1      39.001  33.339  34.748  1.00  0.00     0.074 A 
ATOM     65  C   UNL A   1      37.981  34.347  34.562  1.00  0.00     0.031 C 
ATOM     66  C   UNL A   1      39.805  33.261  35.837  1.00  0.00     0.037 A 
BRANCH  53  67
ATOM     67  C   UNL A   1      43.600  28.407  35.819  1.00  0.00     0.058 A 
ATOM     68  C   UNL A   1      44.971  28.698  35.751  1.00  0.00     0.135 A 
ATOM     69  C   UNL A   1      43.185  27.412  36.721  1.00  0.00     0.135 A 
ATOM     70  F   UNL A   1      45.424  29.629  34.897  1.00  0.00    -0.206 F 
ATOM     71  C   UNL A   1      45.896  28.028  36.547  1.00  0.00     0.059 A 
ATOM     72  C   UNL A   1      44.088  26.749  37.546  1.00  0.00     0.059 A 
ATOM     73  F   UNL A   1      41.885  27.095  36.826  1.00  0.00    -0.206 F 
ATOM     74  C   UNL A   1      45.444  27.062  37.449  1.00  0.00     0.060 A 
BRANCH  74  75
ATOM     75  S   UNL A   1      46.651  26.243  38.512  1.00  0.00     0.124 S 
ATOM     76  O   UNL A   1      45.855  25.981  39.707  1.00  0.00    -0.237 OA
ATOM     77  O   UNL A   1      47.015  25.070  37.723  1.00  0.00    -0.237 OA
ATOM     78  O   UNL A   1      47.704  27.241  38.667  1.00  0.00    -0.744 OA
ENDBRANCH  74  75
ENDBRANCH  53  67
BRANCH  54  79
ATOM     79  C   UNL A   1      36.443  33.214  30.802  1.00  0.00     0.058 A 
ATOM     80  C   UNL A   1      36.670  34.069  29.712  1.00  0.00     0.135 A 
ATOM     81  C   UNL A   1      35.120  33.069  31.250  1.00  0.00     0.135 A 
ATOM     82  F   UNL A   1      37.917  34.249  29.250  1.00  0.00    -0.206 F 
ATOM     83  C   UNL A   1      35.637  34.788  29.120  1.00  0.00     0.059 A 
ATOM     84  C   UNL A   1      34.065  33.751  30.653  1.00  0.00     0.059 A 
ATOM     85  F   UNL A   1      34.843  32.253  32.278  1.00  0.00    -0.206 F 
ATOM     86  C   UNL A   1      34.337  34.627  29.603  1.00  0.00     0.060 A 
BRANCH  86  87
ATOM     87  S   UNL A   1      33.002  35.568  28.832  1.00  0.00     0.124 S 
ATOM     88  O   UNL A   1      32.353  34.545  28.020  1.00  0.00    -0.237 OA
ATOM     89  O   UNL A   1      32.248  36.037  29.991  1.00  0.00    -0.237 OA
ATOM     90  O   UNL A   1      33.709  36.608  28.091  1.00  0.00    -0.744 OA
ENDBRANCH  86  87
ENDBRANCH  54  79
BRANCH  66  91
ATOM     91  C   UNL A   1      39.666  34.322  36.895  1.00  0.00     0.058 A 
ATOM     92  C   UNL A   1      38.943  34.105  38.078  1.00  0.00     0.135 A 
ATOM     93  C   UNL A   1      40.339  35.549  36.756  1.00  0.00     0.135 A 
ATOM     94  F   UNL A   1      38.277  32.954  38.260  1.00  0.00    -0.206 F 
ATOM     95  C   UNL A   1      38.878  35.069  39.079  1.00  0.00     0.059 A 
ATOM     96  C   UNL A   1      40.313  36.516  37.757  1.00  0.00     0.059 A 
ATOM     97  F   UNL A   1      41.053  35.806  35.649  1.00  0.00    -0.206 F 
ATOM     98  C   UNL A   1      39.574  36.269  38.913  1.00  0.00     0.060 A 
BRANCH  98  99
ATOM     99  S   UNL A   1      39.530  37.488  40.244  1.00  0.00     0.124 S 
ATOM    100  O   UNL A   1      38.724  38.548  39.649  1.00  0.00    -0.237 OA
ATOM    101  O   UNL A   1      38.897  36.742  41.327  1.00  0.00    -0.237 OA
ATOM    102  O   UNL A   1      40.938  37.813  40.456  1.00  0.00    -0.744 OA
ENDBRANCH  98  99
ENDBRANCH  66  91
ENDBRANCH  40  41
ENDBRANCH  32  35
ENDBRANCH  30  31
ENDBRANCH  29  30
ENDBRANCH   1  29
TORSDOF 19
ENDMDL
MODEL 2
REMARK VINA RESULT:     -11.8      4.589     10.499
REMARK SMILES N#C/C(=C/c1cccc(OCC(=O)NCCCCNC(=O)c2ccc(-c3c4nc(c(-c5c(F)cc(S(=O)(=O)[O-])cc5F)c5ccc([nH]5)c(-c5c(F)cc(S(=O)(=O)[O-])cc5F)c5nc(c(-c6c(F)cc(S(=O)(=O)[O-])cc6F)c6ccc3[nH]6)C=C5)C=C4)cc2)c1)c1nc2ccccc2[nH]1
REMARK SMILES IDX 16 1 15 2 14 3 12 4 13 5 11 7 10 8 9 9 5 10 6 11 88 12 7 13
REMARK SMILES IDX 8 14 4 15 3 16 2 17 1 18 89 19 90 20 97 21 91 22 96 23 92 25
REMARK SMILES IDX 95 26 93 27 94 28 17 29 18 30 19 31 20 32 21 34 22 35 23 36
REMARK SMILES IDX 87 37 24 38 86 39 25 40 26 41 27 42 80 43 28 44 85 45 79 46
REMARK SMILES IDX 81 47 29 48 84 49 78 50 77 51 30 53 64 54 43 55 63 56 44 57
REMARK SMILES IDX 47 58 62 59 82 60 45 61 46 62 61 64 83 65 48 66 31 67 32 68
REMARK SMILES IDX 41 69 33 70 34 71 40 72 42 73 35 74 36 75 37 76 38 77 39 78
REMARK SMILES IDX 65 79 66 80 75 81 67 82 68 83 74 84 76 85 69 86 70 87 71 88
REMARK SMILES IDX 72 89 73 90 49 91 50 92 59 93 51 94 52 95 58 96 60 97 53 98
REMARK SMILES IDX 54 99 55 100 56 101 57 102
REMARK H PARENT 14 6 97 24 19 33 81 52 47 63
REMARK Flexibility Score: inf
ROOT
ATOM      1  C   UNL A   1      33.193  28.693  24.356  1.00  0.00     0.023 C 
ENDROOT
BRANCH   1   2
ATOM      2  C   UNL A   1      32.193  28.071  23.380  1.00  0.00     0.116 C 
BRANCH   2   3
ATOM      3  N   UNL A   1      32.725  27.741  22.071  1.00  0.00    -0.353 N 
ATOM      4  C   UNL A   1      33.058  26.502  21.587  1.00  0.00     0.257 C 
ATOM      5  O   UNL A   1      33.228  26.338  20.375  1.00  0.00    -0.271 OA
ATOM      6  H   UNL A   1      32.864  28.498  21.456  1.00  0.00     0.163 HD
BRANCH   4   7
ATOM      7  C   UNL A   1      33.162  25.309  22.544  1.00  0.00     0.329 C 
BRANCH   7   8
ATOM      8  O   UNL A   1      32.519  24.111  22.143  1.00  0.00    -0.484 OA
BRANCH   8   9
ATOM      9  C   UNL A   1      32.188  23.205  23.114  1.00  0.00     0.120 A 
ATOM     10  C   UNL A   1      32.237  21.064  24.273  1.00  0.00    -0.021 A 
ATOM     11  C   UNL A   1      31.418  21.592  25.276  1.00  0.00     0.008 A 
ATOM     12  C   UNL A   1      32.597  21.870  23.180  1.00  0.00     0.054 A 
ATOM     13  C   UNL A   1      30.981  22.915  25.198  1.00  0.00     0.004 A 
ATOM     14  C   UNL A   1      31.368  23.714  24.122  1.00  0.00     0.046 A 
BRANCH  10  15
ATOM     15  C   UNL A   1      32.711  19.672  24.380  1.00  0.00     0.031 C 
ATOM     16  C   UNL A   1      33.960  19.285  24.713  1.00  0.00     0.095 C 
BRANCH  16  17
ATOM     17  C   UNL A   1      34.301  17.806  24.780  1.00  0.00     0.103 C 
ATOM     18  N   UNL A   1      34.585  16.578  24.836  1.00  0.00    -0.192 NA
ENDBRANCH  16  17
BRANCH  16  19
ATOM     19  C   UNL A   1      34.964  20.220  25.093  1.00  0.00     0.149 A 
ATOM     20  N   UNL A   1      34.859  21.477  25.476  1.00  0.00    -0.228 NA
ATOM     21  N   UNL A   1      36.287  19.833  25.071  1.00  0.00    -0.337 N 
ATOM     22  C   UNL A   1      36.144  21.922  25.659  1.00  0.00     0.089 A 
ATOM     23  C   UNL A   1      37.062  20.920  25.383  1.00  0.00     0.066 A 
ATOM     24  H   UNL A   1      36.619  18.929  24.866  1.00  0.00     0.168 HD
ATOM     25  C   UNL A   1      36.608  23.184  26.049  1.00  0.00     0.030 A 
ATOM     26  C   UNL A   1      38.445  21.114  25.424  1.00  0.00     0.028 A 
ATOM     27  C   UNL A   1      37.989  23.412  26.089  1.00  0.00     0.002 A 
ATOM     28  C   UNL A   1      38.890  22.397  25.767  1.00  0.00     0.002 A 
ENDBRANCH  16  19
ENDBRANCH  10  15
ENDBRANCH   8   9
ENDBRANCH   7   8
ENDBRANCH   4   7
ENDBRANCH   2   3
ENDBRANCH   1   2
BRANCH   1  29
ATOM     29  C   UNL A   1      33.827  27.812  25.441  1.00  0.00     0.023 C 
BRANCH  29  30
ATOM     30  C   UNL A   1      33.639  28.184  26.911  1.00  0.00     0.116 C 
BRANCH  30  31
ATOM     31  N   UNL A   1      33.489  29.611  27.130  1.00  0.00    -0.352 N 
ATOM     32  C   UNL A   1      34.364  30.486  27.742  1.00  0.00     0.251 C 
ATOM     33  H   UNL A   1      32.652  30.007  26.798  1.00  0.00     0.163 HD
ATOM     34  O   UNL A   1      33.998  31.632  27.989  1.00  0.00    -0.269 OA
BRANCH  32  35
ATOM     35  C   UNL A   1      35.735  30.055  28.123  1.00  0.00     0.039 A 
ATOM     36  C   UNL A   1      36.751  30.100  27.162  1.00  0.00     0.014 A 
ATOM     37  C   UNL A   1      36.020  29.567  29.403  1.00  0.00     0.014 A 
ATOM     38  C   UNL A   1      38.056  29.710  27.495  1.00  0.00     0.010 A 
ATOM     39  C   UNL A   1      37.333  29.224  29.747  1.00  0.00     0.010 A 
ATOM     40  C   UNL A   1      38.368  29.289  28.798  1.00  0.00    -0.014 A 
BRANCH  40  41
ATOM     41  C   UNL A   1      39.763  28.914  29.178  1.00  0.00     0.031 A 
ATOM     42  C   UNL A   1      40.657  29.908  29.876  1.00  0.00     0.074 A 
ATOM     43  C   UNL A   1      40.250  27.699  28.850  1.00  0.00     0.049 A 
ATOM     44  N   UNL A   1      41.917  29.792  30.215  1.00  0.00    -0.248 NA
ATOM     45  C   UNL A   1      40.066  31.211  30.225  1.00  0.00     0.031 C 
ATOM     46  C   UNL A   1      39.505  26.649  28.150  1.00  0.00     0.029 A 
ATOM     47  N   UNL A   1      41.494  27.142  29.044  1.00  0.00    -0.354 N 
ATOM     48  C   UNL A   1      42.274  31.007  30.792  1.00  0.00     0.074 A 
ATOM     49  C   UNL A   1      41.105  31.857  30.734  1.00  0.00     0.031 C 
ATOM     50  C   UNL A   1      40.302  25.581  27.976  1.00  0.00     0.029 A 
ATOM     51  C   UNL A   1      41.628  25.879  28.514  1.00  0.00     0.049 A 
ATOM     52  H   UNL A   1      42.221  27.605  29.520  1.00  0.00     0.167 HD
ATOM     53  C   UNL A   1      43.462  31.373  31.329  1.00  0.00     0.037 A 
ATOM     54  C   UNL A   1      42.697  25.059  28.445  1.00  0.00     0.037 A 
ATOM     55  C   UNL A   1      44.612  30.512  31.424  1.00  0.00     0.049 A 
ATOM     56  C   UNL A   1      44.010  25.501  29.044  1.00  0.00     0.074 A 
ATOM     57  C   UNL A   1      45.830  30.774  32.032  1.00  0.00     0.029 A 
ATOM     58  N   UNL A   1      44.698  29.233  30.896  1.00  0.00    -0.354 N 
ATOM     59  N   UNL A   1      44.298  26.621  29.662  1.00  0.00    -0.248 NA
ATOM     60  C   UNL A   1      45.142  24.567  28.942  1.00  0.00     0.031 C 
ATOM     61  C   UNL A   1      46.672  29.679  31.817  1.00  0.00     0.029 A 
ATOM     62  C   UNL A   1      45.959  28.709  31.134  1.00  0.00     0.049 A 
ATOM     63  H   UNL A   1      43.972  28.767  30.423  1.00  0.00     0.167 HD
ATOM     64  C   UNL A   1      45.630  26.508  30.053  1.00  0.00     0.074 A 
ATOM     65  C   UNL A   1      46.089  25.209  29.613  1.00  0.00     0.031 C 
ATOM     66  C   UNL A   1      46.401  27.402  30.719  1.00  0.00     0.037 A 
BRANCH  53  67
ATOM     67  C   UNL A   1      43.607  32.774  31.861  1.00  0.00     0.058 A 
ATOM     68  C   UNL A   1      43.359  33.085  33.206  1.00  0.00     0.135 A 
ATOM     69  C   UNL A   1      44.110  33.794  31.035  1.00  0.00     0.135 A 
ATOM     70  F   UNL A   1      42.864  32.153  34.036  1.00  0.00    -0.206 F 
ATOM     71  C   UNL A   1      43.600  34.358  33.715  1.00  0.00     0.059 A 
ATOM     72  C   UNL A   1      44.385  35.066  31.528  1.00  0.00     0.059 A 
ATOM     73  F   UNL A   1      44.366  33.550  29.740  1.00  0.00    -0.206 F 
ATOM     74  C   UNL A   1      44.123  35.340  32.870  1.00  0.00     0.060 A 
BRANCH  74  75
ATOM     75  S   UNL A   1      44.481  36.969  33.559  1.00  0.00     0.124 S 
ATOM     76  O   UNL A   1      44.742  36.643  34.957  1.00  0.00    -0.237 OA
ATOM     77  O   UNL A   1      45.642  37.388  32.779  1.00  0.00    -0.237 OA
ATOM     78  O   UNL A   1      43.258  37.723  33.309  1.00  0.00    -0.744 OA
ENDBRANCH  74  75
ENDBRANCH  53  67
BRANCH  54  79
ATOM     79  C   UNL A   1      42.595  23.734  27.766  1.00  0.00     0.058 A 
ATOM     80  C   UNL A   1      42.301  22.567  28.488  1.00  0.00     0.135 A 
ATOM     81  C   UNL A   1      42.840  23.604  26.391  1.00  0.00     0.135 A 
ATOM     82  F   UNL A   1      42.067  22.636  29.808  1.00  0.00    -0.206 F 
ATOM     83  C   UNL A   1      42.298  21.315  27.882  1.00  0.00     0.059 A 
ATOM     84  C   UNL A   1      42.809  22.367  25.755  1.00  0.00     0.059 A 
ATOM     85  F   UNL A   1      43.110  24.689  25.648  1.00  0.00    -0.206 F 
ATOM     86  C   UNL A   1      42.560  21.225  26.514  1.00  0.00     0.060 A 
BRANCH  86  87
ATOM     87  S   UNL A   1      42.559  19.595  25.735  1.00  0.00     0.124 S 
ATOM     88  O   UNL A   1      41.147  19.425  25.413  1.00  0.00    -0.237 OA
ATOM     89  O   UNL A   1      43.453  19.797  24.599  1.00  0.00    -0.237 OA
ATOM     90  O   UNL A   1      43.077  18.722  26.784  1.00  0.00    -0.744 OA
ENDBRANCH  86  87
ENDBRANCH  54  79
BRANCH  66  91
ATOM     91  C   UNL A   1      47.807  26.998  31.072  1.00  0.00     0.058 A 
ATOM     92  C   UNL A   1      48.098  26.229  32.210  1.00  0.00     0.135 A 
ATOM     93  C   UNL A   1      48.871  27.319  30.211  1.00  0.00     0.135 A 
ATOM     94  F   UNL A   1      47.121  25.899  33.069  1.00  0.00    -0.206 F 
ATOM     95  C   UNL A   1      49.393  25.805  32.489  1.00  0.00     0.059 A 
ATOM     96  C   UNL A   1      50.169  26.881  30.455  1.00  0.00     0.059 A 
ATOM     97  F   UNL A   1      48.648  28.045  29.104  1.00  0.00    -0.206 F 
ATOM     98  C   UNL A   1      50.421  26.129  31.601  1.00  0.00     0.060 A 
BRANCH  98  99
ATOM     99  S   UNL A   1      52.087  25.523  31.945  1.00  0.00     0.124 S 
ATOM    100  O   UNL A   1      52.780  25.837  30.700  1.00  0.00    -0.237 OA
ATOM    101  O   UNL A   1      52.475  26.320  33.105  1.00  0.00    -0.237 OA
ATOM    102  O   UNL A   1      51.884  24.101  32.209  1.00  0.00    -0.744 OA
ENDBRANCH  98  99
ENDBRANCH  66  91
ENDBRANCH  40  41
ENDBRANCH  32  35
ENDBRANCH  30  31
ENDBRANCH  29  30
ENDBRANCH   1  29
TORSDOF 19
ENDMDL
MODEL 3
REMARK VINA RESULT:     -11.5      4.706      5.758
REMARK SMILES N#C/C(=C/c1cccc(OCC(=O)NCCCCNC(=O)c2ccc(-c3c4nc(c(-c5c(F)cc(S(=O)(=O)[O-])cc5F)c5ccc([nH]5)c(-c5c(F)cc(S(=O)(=O)[O-])cc5F)c5nc(c(-c6c(F)cc(S(=O)(=O)[O-])cc6F)c6ccc3[nH]6)C=C5)C=C4)cc2)c1)c1nc2ccccc2[nH]1
REMARK SMILES IDX 16 1 15 2 14 3 12 4 13 5 11 7 10 8 9 9 5 10 6 11 88 12 7 13
REMARK SMILES IDX 8 14 4 15 3 16 2 17 1 18 89 19 90 20 97 21 91 22 96 23 92 25
REMARK SMILES IDX 95 26 93 27 94 28 17 29 18 30 19 31 20 32 21 34 22 35 23 36
REMARK SMILES IDX 87 37 24 38 86 39 25 40 26 41 27 42 80 43 28 44 85 45 79 46
REMARK SMILES IDX 81 47 29 48 84 49 78 50 77 51 30 53 64 54 43 55 63 56 44 57
REMARK SMILES IDX 47 58 62 59 82 60 45 61 46 62 61 64 83 65 48 66 31 67 32 68
REMARK SMILES IDX 41 69 33 70 34 71 40 72 42 73 35 74 36 75 37 76 38 77 39 78
REMARK SMILES IDX 65 79 66 80 75 81 67 82 68 83 74 84 76 85 69 86 70 87 71 88
REMARK SMILES IDX 72 89 73 90 49 91 50 92 59 93 51 94 52 95 58 96 60 97 53 98
REMARK SMILES IDX 54 99 55 100 56 101 57 102
REMARK H PARENT 14 6 97 24 19 33 81 52 47 63
REMARK Flexibility Score: inf
ROOT
ATOM      1  C   UNL A   1      35.464  21.987  24.588  1.00  0.00     0.023 C 
ENDROOT
BRANCH   1   2
ATOM      2  C   UNL A   1      34.855  21.144  25.709  1.00  0.00     0.116 C 
BRANCH   2   3
ATOM      3  N   UNL A   1      33.954  20.093  25.277  1.00  0.00    -0.353 N 
ATOM      4  C   UNL A   1      32.627  20.203  24.951  1.00  0.00     0.257 C 
ATOM      5  O   UNL A   1      32.065  19.293  24.336  1.00  0.00    -0.271 OA
ATOM      6  H   UNL A   1      34.342  19.190  25.211  1.00  0.00     0.163 HD
BRANCH   4   7
ATOM      7  C   UNL A   1      31.857  21.482  25.299  1.00  0.00     0.329 C 
BRANCH   7   8
ATOM      8  O   UNL A   1      31.734  22.453  24.273  1.00  0.00    -0.484 OA
BRANCH   8   9
ATOM      9  C   UNL A   1      31.164  23.656  24.592  1.00  0.00     0.120 A 
ATOM     10  C   UNL A   1      30.230  25.863  24.161  1.00  0.00    -0.021 A 
ATOM     11  C   UNL A   1      29.908  25.987  25.516  1.00  0.00     0.008 A 
ATOM     12  C   UNL A   1      30.882  24.703  23.711  1.00  0.00     0.054 A 
ATOM     13  C   UNL A   1      30.214  24.957  26.406  1.00  0.00     0.004 A 
ATOM     14  C   UNL A   1      30.838  23.798  25.942  1.00  0.00     0.046 A 
BRANCH  10  15
ATOM     15  C   UNL A   1      29.879  26.949  23.229  1.00  0.00     0.031 C 
ATOM     16  C   UNL A   1      30.367  28.206  23.259  1.00  0.00     0.095 C 
BRANCH  16  17
ATOM     17  C   UNL A   1      29.905  29.222  22.227  1.00  0.00     0.103 C 
ATOM     18  N   UNL A   1      29.523  30.066  21.371  1.00  0.00    -0.192 NA
ENDBRANCH  16  17
BRANCH  16  19
ATOM     19  C   UNL A   1      31.377  28.603  24.180  1.00  0.00     0.149 A 
ATOM     20  N   UNL A   1      32.509  28.015  24.511  1.00  0.00    -0.228 NA
ATOM     21  N   UNL A   1      31.215  29.770  24.895  1.00  0.00    -0.337 N 
ATOM     22  C   UNL A   1      33.066  28.796  25.491  1.00  0.00     0.089 A 
ATOM     23  C   UNL A   1      32.260  29.888  25.775  1.00  0.00     0.066 A 
ATOM     24  H   UNL A   1      30.474  30.411  24.792  1.00  0.00     0.168 HD
ATOM     25  C   UNL A   1      34.258  28.625  26.203  1.00  0.00     0.030 A 
ATOM     26  C   UNL A   1      32.551  30.816  26.778  1.00  0.00     0.028 A 
ATOM     27  C   UNL A   1      34.572  29.533  27.223  1.00  0.00     0.002 A 
ATOM     28  C   UNL A   1      33.722  30.601  27.514  1.00  0.00     0.002 A 
ENDBRANCH  16  19
ENDBRANCH  10  15
ENDBRANCH   8   9
ENDBRANCH   7   8
ENDBRANCH   4   7
ENDBRANCH   2   3
ENDBRANCH   1   2
BRANCH   1  29
ATOM     29  C   UNL A   1      35.751  23.474  24.840  1.00  0.00     0.023 C 
BRANCH  29  30
ATOM     30  C   UNL A   1      36.932  23.869  25.724  1.00  0.00     0.116 C 
BRANCH  30  31
ATOM     31  N   UNL A   1      37.860  22.779  25.967  1.00  0.00    -0.352 N 
ATOM     32  C   UNL A   1      39.163  22.840  26.418  1.00  0.00     0.251 C 
ATOM     33  H   UNL A   1      37.512  21.876  25.786  1.00  0.00     0.163 HD
ATOM     34  O   UNL A   1      39.854  21.825  26.405  1.00  0.00    -0.269 OA
BRANCH  32  35
ATOM     35  C   UNL A   1      39.747  24.120  26.898  1.00  0.00     0.039 A 
ATOM     36  C   UNL A   1      40.254  25.027  25.960  1.00  0.00     0.014 A 
ATOM     37  C   UNL A   1      39.838  24.418  28.262  1.00  0.00     0.014 A 
ATOM     38  C   UNL A   1      40.801  26.247  26.382  1.00  0.00     0.010 A 
ATOM     39  C   UNL A   1      40.340  25.657  28.678  1.00  0.00     0.010 A 
ATOM     40  C   UNL A   1      40.829  26.587  27.745  1.00  0.00    -0.014 A 
BRANCH  40  41
ATOM     41  C   UNL A   1      41.368  27.903  28.204  1.00  0.00     0.031 A 
ATOM     42  C   UNL A   1      42.853  28.165  28.192  1.00  0.00     0.074 A 
ATOM     43  C   UNL A   1      40.530  28.847  28.682  1.00  0.00     0.049 A 
ATOM     44  N   UNL A   1      43.511  29.212  28.622  1.00  0.00    -0.248 NA
ATOM     45  C   UNL A   1      43.715  27.106  27.643  1.00  0.00     0.031 C 
ATOM     46  C   UNL A   1      39.074  28.717  28.777  1.00  0.00     0.029 A 
ATOM     47  N   UNL A   1      40.781  30.098  29.197  1.00  0.00    -0.354 N 
ATOM     48  C   UNL A   1      44.858  28.931  28.418  1.00  0.00     0.074 A 
ATOM     49  C   UNL A   1      44.927  27.603  27.850  1.00  0.00     0.031 C 
ATOM     50  C   UNL A   1      38.564  29.839  29.313  1.00  0.00     0.029 A 
ATOM     51  C   UNL A   1      39.654  30.755  29.639  1.00  0.00     0.049 A 
ATOM     52  H   UNL A   1      41.684  30.489  29.244  1.00  0.00     0.167 HD
ATOM     53  C   UNL A   1      45.935  29.712  28.671  1.00  0.00     0.037 A 
ATOM     54  C   UNL A   1      39.511  31.946  30.256  1.00  0.00     0.037 A 
ATOM     55  C   UNL A   1      45.864  31.051  29.198  1.00  0.00     0.049 A 
ATOM     56  C   UNL A   1      40.732  32.789  30.534  1.00  0.00     0.074 A 
ATOM     57  C   UNL A   1      46.901  31.947  29.403  1.00  0.00     0.029 A 
ATOM     58  N   UNL A   1      44.703  31.686  29.609  1.00  0.00    -0.354 N 
ATOM     59  N   UNL A   1      41.988  32.537  30.252  1.00  0.00    -0.248 NA
ATOM     60  C   UNL A   1      40.518  34.078  31.208  1.00  0.00     0.031 C 
ATOM     61  C   UNL A   1      46.376  33.097  29.997  1.00  0.00     0.029 A 
ATOM     62  C   UNL A   1      45.003  32.946  30.100  1.00  0.00     0.049 A 
ATOM     63  H   UNL A   1      43.799  31.299  29.560  1.00  0.00     0.167 HD
ATOM     64  C   UNL A   1      42.704  33.652  30.679  1.00  0.00     0.074 A 
ATOM     65  C   UNL A   1      41.744  34.583  31.230  1.00  0.00     0.031 C 
ATOM     66  C   UNL A   1      44.039  33.882  30.619  1.00  0.00     0.037 A 
BRANCH  53  67
ATOM     67  C   UNL A   1      47.307  29.156  28.393  1.00  0.00     0.058 A 
ATOM     68  C   UNL A   1      48.019  28.425  29.356  1.00  0.00     0.135 A 
ATOM     69  C   UNL A   1      47.863  29.261  27.107  1.00  0.00     0.135 A 
ATOM     70  F   UNL A   1      47.541  28.305  30.605  1.00  0.00    -0.206 F 
ATOM     71  C   UNL A   1      49.237  27.822  29.056  1.00  0.00     0.059 A 
ATOM     72  C   UNL A   1      49.065  28.643  26.777  1.00  0.00     0.059 A 
ATOM     73  F   UNL A   1      47.222  29.948  26.148  1.00  0.00    -0.206 F 
ATOM     74  C   UNL A   1      49.747  27.929  27.760  1.00  0.00     0.060 A 
BRANCH  74  75
ATOM     75  S   UNL A   1      51.301  27.094  27.374  1.00  0.00     0.124 S 
ATOM     76  O   UNL A   1      51.773  26.726  28.705  1.00  0.00    -0.237 OA
ATOM     77  O   UNL A   1      50.858  25.988  26.531  1.00  0.00    -0.237 OA
ATOM     78  O   UNL A   1      52.082  28.122  26.694  1.00  0.00    -0.744 OA
ENDBRANCH  74  75
ENDBRANCH  53  67
BRANCH  54  79
ATOM     79  C   UNL A   1      38.164  32.422  30.683  1.00  0.00     0.058 A 
ATOM     80  C   UNL A   1      37.361  33.196  29.831  1.00  0.00     0.135 A 
ATOM     81  C   UNL A   1      37.674  32.156  31.972  1.00  0.00     0.135 A 
ATOM     82  F   UNL A   1      37.786  33.486  28.591  1.00  0.00    -0.206 F 
ATOM     83  C   UNL A   1      36.145  33.725  30.252  1.00  0.00     0.059 A 
ATOM     84  C   UNL A   1      36.446  32.645  32.405  1.00  0.00     0.059 A 
ATOM     85  F   UNL A   1      38.392  31.408  32.824  1.00  0.00    -0.206 F 
ATOM     86  C   UNL A   1      35.699  33.448  31.545  1.00  0.00     0.060 A 
BRANCH  86  87
ATOM     87  S   UNL A   1      34.122  34.143  32.087  1.00  0.00     0.124 S 
ATOM     88  O   UNL A   1      33.529  33.011  32.789  1.00  0.00    -0.237 OA
ATOM     89  O   UNL A   1      34.551  35.261  32.923  1.00  0.00    -0.237 OA
ATOM     90  O   UNL A   1      33.474  34.520  30.835  1.00  0.00    -0.744 OA
ENDBRANCH  86  87
ENDBRANCH  54  79
BRANCH  66  91
ATOM     91  C   UNL A   1      44.550  35.212  31.104  1.00  0.00     0.058 A 
ATOM     92  C   UNL A   1      44.573  36.347  30.280  1.00  0.00     0.135 A 
ATOM     93  C   UNL A   1      44.947  35.369  32.444  1.00  0.00     0.135 A 
ATOM     94  F   UNL A   1      44.210  36.252  28.991  1.00  0.00    -0.206 F 
ATOM     95  C   UNL A   1      44.985  37.587  30.760  1.00  0.00     0.059 A 
ATOM     96  C   UNL A   1      45.334  36.605  32.953  1.00  0.00     0.059 A 
ATOM     97  F   UNL A   1      44.935  34.318  33.280  1.00  0.00    -0.206 F 
ATOM     98  C   UNL A   1      45.356  37.707  32.101  1.00  0.00     0.060 A 
BRANCH  98  99
ATOM     99  S   UNL A   1      45.831  39.334  32.725  1.00  0.00     0.124 S 
ATOM    100  O   UNL A   1      44.779  39.595  33.702  1.00  0.00    -0.237 OA
ATOM    101  O   UNL A   1      47.159  39.079  33.275  1.00  0.00    -0.237 OA
ATOM    102  O   UNL A   1      45.805  40.177  31.533  1.00  0.00    -0.744 OA
ENDBRANCH  98  99
ENDBRANCH  66  91
ENDBRANCH  40  41
ENDBRANCH  32  35
ENDBRANCH  30  31
ENDBRANCH  29  30
ENDBRANCH   1  29
TORSDOF 19
ENDMDL
