MODEL 1
REMARK VINA RESULT:     -11.9      0.000      0.000
REMARK SMILES Cc1cc(N2CCC[C@H](C(=O)NCCCCNC(=O)c3ccc(-c4c5nc(c(-c6c(F)cc(S(=O)(=O)[O-])cc6F)c6ccc([nH]6)c(-c6c(F)cc(S(=O)(=O)[O-])cc6F)c6nc(c(-c7c(F)cc(S(=O)(=O)[O-])cc7F)c7ccc4[nH]7)C=C6)C=C5)cc3)C2)nc(C(C)C)n1
REMARK SMILES IDX 15 1 14 2 13 3 12 4 10 5 11 6 9 8 5 9 6 10 86 11 7 12 8 13
REMARK SMILES IDX 4 14 1 15 2 16 3 17 92 18 88 19 87 20 89 21 90 22 91 23
REMARK SMILES IDX 16 24 17 25 18 26 19 28 20 29 21 30 85 31 22 32 84 33 23 34
REMARK SMILES IDX 24 35 25 36 78 37 26 38 83 39 77 40 79 41 27 42 82 43 76 44
REMARK SMILES IDX 75 45 28 47 62 48 41 49 61 50 42 51 45 52 60 53 80 54 43 55
REMARK SMILES IDX 44 56 59 58 81 59 46 60 29 61 30 62 39 63 31 64 32 65 38 66
REMARK SMILES IDX 40 67 33 68 34 69 35 70 36 71 37 72 63 73 64 74 73 75 65 76
REMARK SMILES IDX 66 77 72 78 74 79 67 80 68 81 69 82 70 83 71 84 47 85 48 86
REMARK SMILES IDX 57 87 49 88 50 89 56 90 58 91 51 92 52 93 53 94 54 95 55 96
REMARK H PARENT 12 7 17 27 79 46 45 57
REMARK Flexibility Score: inf
ROOT
ATOM      1  C   UNL A   1      33.611  28.495  25.740  1.00  0.00     0.023 C 
ENDROOT
BRANCH   1   2
ATOM      2  C   UNL A   1      32.587  29.365  25.015  1.00  0.00     0.023 C 
BRANCH   2   3
ATOM      3  C   UNL A   1      31.394  28.597  24.451  1.00  0.00     0.116 C 
BRANCH   3   4
ATOM      4  N   UNL A   1      31.024  27.459  25.261  1.00  0.00    -0.356 N 
ATOM      5  C   UNL A   1      30.830  26.159  24.928  1.00  0.00     0.224 C 
ATOM      6  O   UNL A   1      30.688  25.364  25.866  1.00  0.00    -0.275 OA
ATOM      7  H   UNL A   1      30.890  27.660  26.216  1.00  0.00     0.163 HD
BRANCH   5   8
ATOM      8  C   UNL A   1      30.774  25.627  23.493  1.00  0.00     0.098 C 
ATOM      9  N   UNL A   1      32.580  24.056  22.925  1.00  0.00    -0.356 N 
ATOM     10  C   UNL A   1      32.996  24.733  21.715  1.00  0.00     0.118 C 
ATOM     11  C   UNL A   1      31.202  24.169  23.368  1.00  0.00     0.131 C 
ATOM     12  C   UNL A   1      32.689  26.229  21.829  1.00  0.00     0.022 C 
ATOM     13  C   UNL A   1      31.306  26.558  22.397  1.00  0.00     0.017 C 
BRANCH   9  14
ATOM     14  C   UNL A   1      33.286  22.979  23.415  1.00  0.00     0.132 A 
ATOM     15  C   UNL A   1      32.830  19.660  25.086  1.00  0.00     0.067 C 
ATOM     16  C   UNL A   1      33.434  20.891  24.485  1.00  0.00     0.043 A 
ATOM     17  C   UNL A   1      32.650  21.843  23.864  1.00  0.00     0.070 A 
ATOM     18  N   UNL A   1      34.764  21.040  24.639  1.00  0.00    -0.238 NA
ATOM     19  C   UNL A   1      35.308  22.172  24.159  1.00  0.00     0.133 A 
ATOM     20  N   UNL A   1      34.610  23.147  23.555  1.00  0.00    -0.216 NA
BRANCH  19  21
ATOM     21  C   UNL A   1      36.784  22.420  24.380  1.00  0.00     0.051 C 
ATOM     22  C   UNL A   1      36.998  23.608  25.316  1.00  0.00     0.016 C 
ATOM     23  C   UNL A   1      37.487  21.168  24.902  1.00  0.00     0.016 C 
ENDBRANCH  19  21
ENDBRANCH   9  14
ENDBRANCH   5   8
ENDBRANCH   3   4
ENDBRANCH   2   3
ENDBRANCH   1   2
BRANCH   1  24
ATOM     24  C   UNL A   1      33.623  28.634  27.260  1.00  0.00     0.116 C 
BRANCH  24  25
ATOM     25  N   UNL A   1      33.584  30.008  27.745  1.00  0.00    -0.352 N 
ATOM     26  C   UNL A   1      34.621  30.715  28.316  1.00  0.00     0.251 C 
ATOM     27  H   UNL A   1      32.726  30.482  27.656  1.00  0.00     0.163 HD
ATOM     28  O   UNL A   1      34.460  31.849  28.752  1.00  0.00    -0.269 OA
BRANCH  26  29
ATOM     29  C   UNL A   1      35.933  30.044  28.426  1.00  0.00     0.039 A 
ATOM     30  C   UNL A   1      36.824  30.102  27.352  1.00  0.00     0.014 A 
ATOM     31  C   UNL A   1      36.316  29.482  29.645  1.00  0.00     0.014 A 
ATOM     32  C   UNL A   1      38.141  29.673  27.534  1.00  0.00     0.010 A 
ATOM     33  C   UNL A   1      37.641  29.117  29.842  1.00  0.00     0.010 A 
ATOM     34  C   UNL A   1      38.569  29.223  28.794  1.00  0.00    -0.014 A 
BRANCH  34  35
ATOM     35  C   UNL A   1      39.983  28.860  29.063  1.00  0.00     0.031 A 
ATOM     36  C   UNL A   1      40.923  29.906  29.595  1.00  0.00     0.074 A 
ATOM     37  C   UNL A   1      40.444  27.641  28.720  1.00  0.00     0.049 A 
ATOM     38  N   UNL A   1      42.222  29.859  29.730  1.00  0.00    -0.248 NA
ATOM     39  C   UNL A   1      40.322  31.190  29.989  1.00  0.00     0.031 C 
ATOM     40  C   UNL A   1      39.640  26.558  28.149  1.00  0.00     0.029 A 
ATOM     41  N   UNL A   1      41.711  27.115  28.778  1.00  0.00    -0.354 N 
ATOM     42  C   UNL A   1      42.597  31.113  30.191  1.00  0.00     0.074 A 
ATOM     43  C   UNL A   1      41.393  31.912  30.276  1.00  0.00     0.031 C 
ATOM     44  C   UNL A   1      40.430  25.496  27.919  1.00  0.00     0.029 A 
ATOM     45  C   UNL A   1      41.801  25.832  28.290  1.00  0.00     0.049 A 
ATOM     46  H   UNL A   1      42.483  27.610  29.136  1.00  0.00     0.167 HD
ATOM     47  C   UNL A   1      43.831  31.554  30.529  1.00  0.00     0.037 A 
ATOM     48  C   UNL A   1      42.870  25.025  28.147  1.00  0.00     0.037 A 
ATOM     49  C   UNL A   1      45.015  30.740  30.485  1.00  0.00     0.049 A 
ATOM     50  C   UNL A   1      44.227  25.522  28.571  1.00  0.00     0.074 A 
ATOM     51  C   UNL A   1      46.306  31.075  30.855  1.00  0.00     0.029 A 
ATOM     52  N   UNL A   1      45.051  29.421  30.056  1.00  0.00    -0.354 N 
ATOM     53  N   UNL A   1      44.559  26.699  29.044  1.00  0.00    -0.248 NA
ATOM     54  C   UNL A   1      45.352  24.583  28.449  1.00  0.00     0.031 C 
ATOM     55  C   UNL A   1      47.126  29.964  30.632  1.00  0.00     0.029 A 
ATOM     56  C   UNL A   1      46.339  28.927  30.156  1.00  0.00     0.049 A 
ATOM     57  H   UNL A   1      44.273  28.913  29.729  1.00  0.00     0.167 HD
ATOM     58  C   UNL A   1      45.922  26.631  29.310  1.00  0.00     0.074 A 
ATOM     59  C   UNL A   1      46.355  25.299  28.942  1.00  0.00     0.031 C 
ATOM     60  C   UNL A   1      46.740  27.586  29.817  1.00  0.00     0.037 A 
BRANCH  47  61
ATOM     61  C   UNL A   1      43.955  32.981  30.985  1.00  0.00     0.058 A 
ATOM     62  C   UNL A   1      43.913  33.322  32.345  1.00  0.00     0.135 A 
ATOM     63  C   UNL A   1      44.127  34.016  30.052  1.00  0.00     0.135 A 
ATOM     64  F   UNL A   1      43.732  32.371  33.275  1.00  0.00    -0.206 F 
ATOM     65  C   UNL A   1      44.002  34.644  32.765  1.00  0.00     0.059 A 
ATOM     66  C   UNL A   1      44.245  35.345  30.452  1.00  0.00     0.059 A 
ATOM     67  F   UNL A   1      44.173  33.744  28.738  1.00  0.00    -0.206 F 
ATOM     68  C   UNL A   1      44.162  35.649  31.810  1.00  0.00     0.060 A 
BRANCH  68  69
ATOM     69  S   UNL A   1      44.266  37.363  32.367  1.00  0.00     0.124 S 
ATOM     70  O   UNL A   1      43.210  37.404  33.375  1.00  0.00    -0.237 OA
ATOM     71  O   UNL A   1      45.631  37.447  32.877  1.00  0.00    -0.237 OA
ATOM     72  O   UNL A   1      44.005  38.130  31.153  1.00  0.00    -0.744 OA
ENDBRANCH  68  69
ENDBRANCH  47  61
BRANCH  48  73
ATOM     73  C   UNL A   1      42.699  23.650  27.610  1.00  0.00     0.058 A 
ATOM     74  C   UNL A   1      42.494  22.564  28.473  1.00  0.00     0.135 A 
ATOM     75  C   UNL A   1      42.720  23.394  26.230  1.00  0.00     0.135 A 
ATOM     76  F   UNL A   1      42.472  22.759  29.801  1.00  0.00    -0.206 F 
ATOM     77  C   UNL A   1      42.331  21.270  27.991  1.00  0.00     0.059 A 
ATOM     78  C   UNL A   1      42.539  22.110  25.723  1.00  0.00     0.059 A 
ATOM     79  F   UNL A   1      42.895  24.402  25.362  1.00  0.00    -0.206 F 
ATOM     80  C   UNL A   1      42.354  21.053  26.613  1.00  0.00     0.060 A 
BRANCH  80  81
ATOM     81  S   UNL A   1      42.092  19.376  25.994  1.00  0.00     0.124 S 
ATOM     82  O   UNL A   1      42.897  19.383  24.779  1.00  0.00    -0.237 OA
ATOM     83  O   UNL A   1      42.601  18.559  27.092  1.00  0.00    -0.237 OA
ATOM     84  O   UNL A   1      40.648  19.314  25.797  1.00  0.00    -0.744 OA
ENDBRANCH  80  81
ENDBRANCH  48  73
BRANCH  60  85
ATOM     85  C   UNL A   1      48.174  27.217  30.067  1.00  0.00     0.058 A 
ATOM     86  C   UNL A   1      49.177  27.477  29.123  1.00  0.00     0.135 A 
ATOM     87  C   UNL A   1      48.557  26.692  31.311  1.00  0.00     0.135 A 
ATOM     88  F   UNL A   1      48.857  27.974  27.917  1.00  0.00    -0.206 F 
ATOM     89  C   UNL A   1      50.516  27.230  29.403  1.00  0.00     0.059 A 
ATOM     90  C   UNL A   1      49.893  26.454  31.621  1.00  0.00     0.059 A 
ATOM     91  F   UNL A   1      47.632  26.433  32.250  1.00  0.00    -0.206 F 
ATOM     92  C   UNL A   1      50.864  26.725  30.659  1.00  0.00     0.060 A 
BRANCH  92  93
ATOM     93  S   UNL A   1      52.612  26.481  31.043  1.00  0.00     0.124 S 
ATOM     94  O   UNL A   1      53.195  26.379  29.709  1.00  0.00    -0.237 OA
ATOM     95  O   UNL A   1      52.943  27.692  31.788  1.00  0.00    -0.237 OA
ATOM     96  O   UNL A   1      52.619  25.251  31.828  1.00  0.00    -0.744 OA
ENDBRANCH  92  93
ENDBRANCH  60  85
ENDBRANCH  34  35
ENDBRANCH  26  29
ENDBRANCH  24  25
ENDBRANCH   1  24
TORSDOF 16
ENDMDL
MODEL 2
REMARK VINA RESULT:     -11.9      3.132      9.498
REMARK SMILES Cc1cc(N2CCC[C@H](C(=O)NCCCCNC(=O)c3ccc(-c4c5nc(c(-c6c(F)cc(S(=O)(=O)[O-])cc6F)c6ccc([nH]6)c(-c6c(F)cc(S(=O)(=O)[O-])cc6F)c6nc(c(-c7c(F)cc(S(=O)(=O)[O-])cc7F)c7ccc4[nH]7)C=C6)C=C5)cc3)C2)nc(C(C)C)n1
REMARK SMILES IDX 15 1 14 2 13 3 12 4 10 5 11 6 9 8 5 9 6 10 86 11 7 12 8 13
REMARK SMILES IDX 4 14 1 15 2 16 3 17 92 18 88 19 87 20 89 21 90 22 91 23
REMARK SMILES IDX 16 24 17 25 18 26 19 28 20 29 21 30 85 31 22 32 84 33 23 34
REMARK SMILES IDX 24 35 25 36 78 37 26 38 83 39 77 40 79 41 27 42 82 43 76 44
REMARK SMILES IDX 75 45 28 47 62 48 41 49 61 50 42 51 45 52 60 53 80 54 43 55
REMARK SMILES IDX 44 56 59 58 81 59 46 60 29 61 30 62 39 63 31 64 32 65 38 66
REMARK SMILES IDX 40 67 33 68 34 69 35 70 36 71 37 72 63 73 64 74 73 75 65 76
REMARK SMILES IDX 66 77 72 78 74 79 67 80 68 81 69 82 70 83 71 84 47 85 48 86
REMARK SMILES IDX 57 87 49 88 50 89 56 90 58 91 51 92 52 93 53 94 54 95 55 96
REMARK H PARENT 12 7 17 27 79 46 45 57
REMARK Flexibility Score: inf
ROOT
ATOM      1  C   UNL A   1      35.801  22.584  25.766  1.00  0.00     0.023 C 
ENDROOT
BRANCH   1   2
ATOM      2  C   UNL A   1      35.137  22.852  27.115  1.00  0.00     0.023 C 
BRANCH   2   3
ATOM      3  C   UNL A   1      33.869  22.040  27.367  1.00  0.00     0.116 C 
BRANCH   3   4
ATOM      4  N   UNL A   1      32.696  22.867  27.535  1.00  0.00    -0.356 N 
ATOM      5  C   UNL A   1      31.971  23.571  26.632  1.00  0.00     0.224 C 
ATOM      6  O   UNL A   1      30.903  24.052  27.036  1.00  0.00    -0.275 OA
ATOM      7  H   UNL A   1      32.368  22.930  28.462  1.00  0.00     0.163 HD
BRANCH   5   8
ATOM      8  C   UNL A   1      32.382  23.805  25.176  1.00  0.00     0.098 C 
ATOM      9  N   UNL A   1      31.595  25.935  24.230  1.00  0.00    -0.356 N 
ATOM     10  C   UNL A   1      30.999  25.363  23.041  1.00  0.00     0.118 C 
ATOM     11  C   UNL A   1      32.713  25.259  24.863  1.00  0.00     0.131 C 
ATOM     12  C   UNL A   1      30.544  23.930  23.330  1.00  0.00     0.022 C 
ATOM     13  C   UNL A   1      31.555  23.081  24.107  1.00  0.00     0.017 C 
BRANCH   9  14
ATOM     14  C   UNL A   1      31.454  27.274  24.521  1.00  0.00     0.132 A 
ATOM     15  C   UNL A   1      29.515  30.323  23.543  1.00  0.00     0.067 C 
ATOM     16  C   UNL A   1      30.501  29.397  24.183  1.00  0.00     0.043 A 
ATOM     17  C   UNL A   1      30.456  28.035  23.955  1.00  0.00     0.070 A 
ATOM     18  N   UNL A   1      31.459  29.970  24.936  1.00  0.00    -0.238 NA
ATOM     19  C   UNL A   1      32.388  29.154  25.463  1.00  0.00     0.133 A 
ATOM     20  N   UNL A   1      32.417  27.824  25.277  1.00  0.00    -0.216 NA
BRANCH  19  21
ATOM     21  C   UNL A   1      33.529  29.762  26.249  1.00  0.00     0.051 C 
ATOM     22  C   UNL A   1      33.001  30.756  27.283  1.00  0.00     0.016 C 
ATOM     23  C   UNL A   1      34.391  28.686  26.904  1.00  0.00     0.016 C 
ENDBRANCH  19  21
ENDBRANCH   9  14
ENDBRANCH   5   8
ENDBRANCH   3   4
ENDBRANCH   2   3
ENDBRANCH   1   2
BRANCH   1  24
ATOM     24  C   UNL A   1      37.063  23.396  25.489  1.00  0.00     0.116 C 
BRANCH  24  25
ATOM     25  N   UNL A   1      38.299  22.622  25.506  1.00  0.00    -0.352 N 
ATOM     26  C   UNL A   1      39.504  22.998  26.059  1.00  0.00     0.251 C 
ATOM     27  H   UNL A   1      38.270  21.737  25.076  1.00  0.00     0.163 HD
ATOM     28  O   UNL A   1      40.503  22.296  25.958  1.00  0.00    -0.269 OA
BRANCH  26  29
ATOM     29  C   UNL A   1      39.568  24.305  26.747  1.00  0.00     0.039 A 
ATOM     30  C   UNL A   1      38.987  24.443  28.009  1.00  0.00     0.014 A 
ATOM     31  C   UNL A   1      40.322  25.339  26.188  1.00  0.00     0.014 A 
ATOM     32  C   UNL A   1      39.243  25.596  28.756  1.00  0.00     0.010 A 
ATOM     33  C   UNL A   1      40.627  26.453  26.957  1.00  0.00     0.010 A 
ATOM     34  C   UNL A   1      40.103  26.586  28.253  1.00  0.00    -0.014 A 
BRANCH  34  35
ATOM     35  C   UNL A   1      40.489  27.775  29.054  1.00  0.00     0.031 A 
ATOM     36  C   UNL A   1      41.764  27.744  29.849  1.00  0.00     0.074 A 
ATOM     37  C   UNL A   1      39.647  28.821  29.158  1.00  0.00     0.049 A 
ATOM     38  N   UNL A   1      42.200  28.588  30.746  1.00  0.00    -0.248 NA
ATOM     39  C   UNL A   1      42.646  26.585  29.633  1.00  0.00     0.031 C 
ATOM     40  C   UNL A   1      38.358  28.946  28.473  1.00  0.00     0.029 A 
ATOM     41  N   UNL A   1      39.737  29.971  29.903  1.00  0.00    -0.354 N 
ATOM     42  C   UNL A   1      43.385  28.047  31.226  1.00  0.00     0.074 A 
ATOM     43  C   UNL A   1      43.582  26.784  30.548  1.00  0.00     0.031 C 
ATOM     44  C   UNL A   1      37.784  30.110  28.821  1.00  0.00     0.029 A 
ATOM     45  C   UNL A   1      38.643  30.797  29.782  1.00  0.00     0.049 A 
ATOM     46  H   UNL A   1      40.512  30.185  30.470  1.00  0.00     0.167 HD
ATOM     47  C   UNL A   1      44.242  28.566  32.137  1.00  0.00     0.037 A 
ATOM     48  C   UNL A   1      38.361  31.967  30.386  1.00  0.00     0.037 A 
ATOM     49  C   UNL A   1      44.063  29.842  32.773  1.00  0.00     0.049 A 
ATOM     50  C   UNL A   1      39.350  32.545  31.363  1.00  0.00     0.074 A 
ATOM     51  C   UNL A   1      44.899  30.482  33.671  1.00  0.00     0.029 A 
ATOM     52  N   UNL A   1      42.978  30.682  32.565  1.00  0.00    -0.354 N 
ATOM     53  N   UNL A   1      40.487  32.041  31.776  1.00  0.00    -0.248 NA
ATOM     54  C   UNL A   1      39.022  33.852  31.953  1.00  0.00     0.031 C 
ATOM     55  C   UNL A   1      44.309  31.702  34.022  1.00  0.00     0.029 A 
ATOM     56  C   UNL A   1      43.125  31.836  33.315  1.00  0.00     0.049 A 
ATOM     57  H   UNL A   1      42.218  30.486  31.971  1.00  0.00     0.167 HD
ATOM     58  C   UNL A   1      41.028  32.983  32.644  1.00  0.00     0.074 A 
ATOM     59  C   UNL A   1      40.093  34.086  32.701  1.00  0.00     0.031 C 
ATOM     60  C   UNL A   1      42.197  32.938  33.329  1.00  0.00     0.037 A 
BRANCH  47  61
ATOM     61  C   UNL A   1      45.454  27.749  32.490  1.00  0.00     0.058 A 
ATOM     62  C   UNL A   1      46.655  27.874  31.774  1.00  0.00     0.135 A 
ATOM     63  C   UNL A   1      45.417  26.841  33.559  1.00  0.00     0.135 A 
ATOM     64  F   UNL A   1      46.736  28.716  30.732  1.00  0.00    -0.206 F 
ATOM     65  C   UNL A   1      47.767  27.101  32.084  1.00  0.00     0.059 A 
ATOM     66  C   UNL A   1      46.528  26.075  33.903  1.00  0.00     0.059 A 
ATOM     67  F   UNL A   1      44.292  26.683  34.275  1.00  0.00    -0.206 F 
ATOM     68  C   UNL A   1      47.692  26.199  33.147  1.00  0.00     0.060 A 
BRANCH  68  69
ATOM     69  S   UNL A   1      49.141  25.194  33.532  1.00  0.00     0.124 S 
ATOM     70  O   UNL A   1      48.523  24.011  34.123  1.00  0.00    -0.237 OA
ATOM     71  O   UNL A   1      49.751  25.002  32.220  1.00  0.00    -0.237 OA
ATOM     72  O   UNL A   1      49.899  26.034  34.455  1.00  0.00    -0.744 OA
ENDBRANCH  68  69
ENDBRANCH  47  61
BRANCH  48  73
ATOM     73  C   UNL A   1      37.103  32.689  30.061  1.00  0.00     0.058 A 
ATOM     74  C   UNL A   1      35.922  32.426  30.771  1.00  0.00     0.135 A 
ATOM     75  C   UNL A   1      37.055  33.661  29.050  1.00  0.00     0.135 A 
ATOM     76  F   UNL A   1      35.918  31.501  31.743  1.00  0.00    -0.206 F 
ATOM     77  C   UNL A   1      34.735  33.091  30.483  1.00  0.00     0.059 A 
ATOM     78  C   UNL A   1      35.884  34.353  28.757  1.00  0.00     0.059 A 
ATOM     79  F   UNL A   1      38.162  33.960  28.353  1.00  0.00    -0.206 F 
ATOM     80  C   UNL A   1      34.726  34.054  29.474  1.00  0.00     0.060 A 
BRANCH  80  81
ATOM     81  S   UNL A   1      33.191  34.946  29.140  1.00  0.00     0.124 S 
ATOM     82  O   UNL A   1      32.581  34.107  28.115  1.00  0.00    -0.237 OA
ATOM     83  O   UNL A   1      32.538  34.936  30.445  1.00  0.00    -0.237 OA
ATOM     84  O   UNL A   1      33.656  36.255  28.693  1.00  0.00    -0.744 OA
ENDBRANCH  80  81
ENDBRANCH  48  73
BRANCH  60  85
ATOM     85  C   UNL A   1      42.571  34.136  34.152  1.00  0.00     0.058 A 
ATOM     86  C   UNL A   1      42.271  34.214  35.519  1.00  0.00     0.135 A 
ATOM     87  C   UNL A   1      43.331  35.170  33.582  1.00  0.00     0.135 A 
ATOM     88  F   UNL A   1      41.542  33.251  36.106  1.00  0.00    -0.206 F 
ATOM     89  C   UNL A   1      42.713  35.278  36.298  1.00  0.00     0.059 A 
ATOM     90  C   UNL A   1      43.799  36.235  34.345  1.00  0.00     0.059 A 
ATOM     91  F   UNL A   1      43.649  35.136  32.278  1.00  0.00    -0.206 F 
ATOM     92  C   UNL A   1      43.483  36.280  35.702  1.00  0.00     0.060 A 
BRANCH  92  93
ATOM     93  S   UNL A   1      44.119  37.617  36.737  1.00  0.00     0.124 S 
ATOM     94  O   UNL A   1      43.141  37.642  37.819  1.00  0.00    -0.237 OA
ATOM     95  O   UNL A   1      45.448  37.132  37.096  1.00  0.00    -0.237 OA
ATOM     96  O   UNL A   1      44.102  38.773  35.846  1.00  0.00    -0.744 OA
ENDBRANCH  92  93
ENDBRANCH  60  85
ENDBRANCH  34  35
ENDBRANCH  26  29
ENDBRANCH  24  25
ENDBRANCH   1  24
TORSDOF 16
ENDMDL
MODEL 3
REMARK VINA RESULT:     -11.8      1.055      2.221
REMARK SMILES Cc1cc(N2CCC[C@H](C(=O)NCCCCNC(=O)c3ccc(-c4c5nc(c(-c6c(F)cc(S(=O)(=O)[O-])cc6F)c6ccc([nH]6)c(-c6c(F)cc(S(=O)(=O)[O-])cc6F)c6nc(c(-c7c(F)cc(S(=O)(=O)[O-])cc7F)c7ccc4[nH]7)C=C6)C=C5)cc3)C2)nc(C(C)C)n1
REMARK SMILES IDX 15 1 14 2 13 3 12 4 10 5 11 6 9 8 5 9 6 10 86 11 7 12 8 13
REMARK SMILES IDX 4 14 1 15 2 16 3 17 92 18 88 19 87 20 89 21 90 22 91 23
REMARK SMILES IDX 16 24 17 25 18 26 19 28 20 29 21 30 85 31 22 32 84 33 23 34
REMARK SMILES IDX 24 35 25 36 78 37 26 38 83 39 77 40 79 41 27 42 82 43 76 44
REMARK SMILES IDX 75 45 28 47 62 48 41 49 61 50 42 51 45 52 60 53 80 54 43 55
REMARK SMILES IDX 44 56 59 58 81 59 46 60 29 61 30 62 39 63 31 64 32 65 38 66
REMARK SMILES IDX 40 67 33 68 34 69 35 70 36 71 37 72 63 73 64 74 73 75 65 76
REMARK SMILES IDX 66 77 72 78 74 79 67 80 68 81 69 82 70 83 71 84 47 85 48 86
REMARK SMILES IDX 57 87 49 88 50 89 56 90 58 91 51 92 52 93 53 94 54 95 55 96
REMARK H PARENT 12 7 17 27 79 46 45 57
REMARK Flexibility Score: inf
ROOT
ATOM      1  C   UNL A   1      32.424  28.669  26.414  1.00  0.00     0.023 C 
ENDROOT
BRANCH   1   2
ATOM      2  C   UNL A   1      32.429  28.716  24.888  1.00  0.00     0.023 C 
BRANCH   2   3
ATOM      3  C   UNL A   1      33.613  28.005  24.239  1.00  0.00     0.116 C 
BRANCH   3   4
ATOM      4  N   UNL A   1      33.236  26.780  23.571  1.00  0.00    -0.356 N 
ATOM      5  C   UNL A   1      32.759  25.611  24.065  1.00  0.00     0.224 C 
ATOM      6  O   UNL A   1      32.353  24.786  23.236  1.00  0.00    -0.275 OA
ATOM      7  H   UNL A   1      33.343  26.797  22.592  1.00  0.00     0.163 HD
BRANCH   5   8
ATOM      8  C   UNL A   1      32.696  25.256  25.553  1.00  0.00     0.098 C 
ATOM      9  N   UNL A   1      33.128  22.885  26.048  1.00  0.00    -0.356 N 
ATOM     10  C   UNL A   1      31.946  22.680  26.858  1.00  0.00     0.118 C 
ATOM     11  C   UNL A   1      33.721  24.209  25.973  1.00  0.00     0.131 C 
ATOM     12  C   UNL A   1      30.838  23.635  26.405  1.00  0.00     0.022 C 
ATOM     13  C   UNL A   1      31.296  25.074  26.154  1.00  0.00     0.017 C 
BRANCH   9  14
ATOM     14  C   UNL A   1      33.956  21.834  25.720  1.00  0.00     0.132 A 
ATOM     15  C   UNL A   1      37.505  21.029  24.841  1.00  0.00     0.067 C 
ATOM     16  C   UNL A   1      36.034  20.925  25.100  1.00  0.00     0.043 A 
ATOM     17  C   UNL A   1      35.317  21.999  25.592  1.00  0.00     0.070 A 
ATOM     18  N   UNL A   1      35.450  19.757  24.773  1.00  0.00    -0.238 NA
ATOM     19  C   UNL A   1      34.119  19.675  24.942  1.00  0.00     0.133 A 
ATOM     20  N   UNL A   1      33.353  20.678  25.402  1.00  0.00    -0.216 NA
BRANCH  19  21
ATOM     21  C   UNL A   1      33.408  18.410  24.512  1.00  0.00     0.051 C 
ATOM     22  C   UNL A   1      32.680  17.773  25.695  1.00  0.00     0.016 C 
ATOM     23  C   UNL A   1      32.454  18.674  23.350  1.00  0.00     0.016 C 
ENDBRANCH  19  21
ENDBRANCH   9  14
ENDBRANCH   5   8
ENDBRANCH   3   4
ENDBRANCH   2   3
ENDBRANCH   1   2
BRANCH   1  24
ATOM     24  C   UNL A   1      33.724  29.107  27.083  1.00  0.00     0.116 C 
BRANCH  24  25
ATOM     25  N   UNL A   1      33.638  30.368  27.812  1.00  0.00    -0.352 N 
ATOM     26  C   UNL A   1      34.623  30.950  28.580  1.00  0.00     0.251 C 
ATOM     27  H   UNL A   1      32.785  30.854  27.749  1.00  0.00     0.163 HD
ATOM     28  O   UNL A   1      34.421  31.983  29.206  1.00  0.00    -0.269 OA
BRANCH  26  29
ATOM     29  C   UNL A   1      35.929  30.263  28.660  1.00  0.00     0.039 A 
ATOM     30  C   UNL A   1      36.763  30.245  27.541  1.00  0.00     0.014 A 
ATOM     31  C   UNL A   1      36.366  29.761  29.888  1.00  0.00     0.014 A 
ATOM     32  C   UNL A   1      38.082  29.803  27.679  1.00  0.00     0.010 A 
ATOM     33  C   UNL A   1      37.694  29.385  30.037  1.00  0.00     0.010 A 
ATOM     34  C   UNL A   1      38.568  29.416  28.938  1.00  0.00    -0.014 A 
BRANCH  34  35
ATOM     35  C   UNL A   1      39.989  29.044  29.155  1.00  0.00     0.031 A 
ATOM     36  C   UNL A   1      40.957  30.086  29.639  1.00  0.00     0.074 A 
ATOM     37  C   UNL A   1      40.426  27.818  28.807  1.00  0.00     0.049 A 
ATOM     38  N   UNL A   1      42.260  30.029  29.723  1.00  0.00    -0.248 NA
ATOM     39  C   UNL A   1      40.383  31.380  30.044  1.00  0.00     0.031 C 
ATOM     40  C   UNL A   1      39.591  26.736  28.279  1.00  0.00     0.029 A 
ATOM     41  N   UNL A   1      41.689  27.281  28.820  1.00  0.00    -0.354 N 
ATOM     42  C   UNL A   1      42.664  31.285  30.156  1.00  0.00     0.074 A 
ATOM     43  C   UNL A   1      41.471  32.095  30.281  1.00  0.00     0.031 C 
ATOM     44  C   UNL A   1      40.362  25.664  28.029  1.00  0.00     0.029 A 
ATOM     45  C   UNL A   1      41.750  25.993  28.341  1.00  0.00     0.049 A 
ATOM     46  H   UNL A   1      42.479  27.773  29.142  1.00  0.00     0.167 HD
ATOM     47  C   UNL A   1      43.914  31.719  30.440  1.00  0.00     0.037 A 
ATOM     48  C   UNL A   1      42.805  25.175  28.165  1.00  0.00     0.037 A 
ATOM     49  C   UNL A   1      45.089  30.894  30.358  1.00  0.00     0.049 A 
ATOM     50  C   UNL A   1      44.182  25.665  28.529  1.00  0.00     0.074 A 
ATOM     51  C   UNL A   1      46.396  31.221  30.673  1.00  0.00     0.029 A 
ATOM     52  N   UNL A   1      45.096  29.570  29.941  1.00  0.00    -0.354 N 
ATOM     53  N   UNL A   1      44.542  26.843  28.977  1.00  0.00    -0.248 NA
ATOM     54  C   UNL A   1      45.293  24.715  28.372  1.00  0.00     0.031 C 
ATOM     55  C   UNL A   1      47.197  30.101  30.429  1.00  0.00     0.029 A 
ATOM     56  C   UNL A   1      46.383  29.066  29.994  1.00  0.00     0.049 A 
ATOM     57  H   UNL A   1      44.302  29.066  29.651  1.00  0.00     0.167 HD
ATOM     58  C   UNL A   1      45.914  26.765  29.189  1.00  0.00     0.074 A 
ATOM     59  C   UNL A   1      46.321  25.427  28.818  1.00  0.00     0.031 C 
ATOM     60  C   UNL A   1      46.759  27.718  29.654  1.00  0.00     0.037 A 
BRANCH  47  61
ATOM     61  C   UNL A   1      44.068  33.149  30.876  1.00  0.00     0.058 A 
ATOM     62  C   UNL A   1      44.278  34.179  29.947  1.00  0.00     0.135 A 
ATOM     63  C   UNL A   1      43.994  33.493  32.235  1.00  0.00     0.135 A 
ATOM     64  F   UNL A   1      44.374  33.900  28.638  1.00  0.00    -0.206 F 
ATOM     65  C   UNL A   1      44.446  35.498  30.353  1.00  0.00     0.059 A 
ATOM     66  C   UNL A   1      44.133  34.811  32.661  1.00  0.00     0.059 A 
ATOM     67  F   UNL A   1      43.796  32.545  33.165  1.00  0.00    -0.206 F 
ATOM     68  C   UNL A   1      44.378  35.803  31.713  1.00  0.00     0.060 A 
BRANCH  68  69
ATOM     69  S   UNL A   1      44.606  37.518  32.227  1.00  0.00     0.124 S 
ATOM     70  O   UNL A   1      44.262  38.235  31.002  1.00  0.00    -0.237 OA
ATOM     71  O   UNL A   1      43.654  37.649  33.326  1.00  0.00    -0.237 OA
ATOM     72  O   UNL A   1      46.013  37.572  32.612  1.00  0.00    -0.744 OA
ENDBRANCH  68  69
ENDBRANCH  47  61
BRANCH  48  73
ATOM     73  C   UNL A   1      42.601  23.797  27.648  1.00  0.00     0.058 A 
ATOM     74  C   UNL A   1      42.489  22.711  28.529  1.00  0.00     0.135 A 
ATOM     75  C   UNL A   1      42.499  23.536  26.273  1.00  0.00     0.135 A 
ATOM     76  F   UNL A   1      42.585  22.910  29.853  1.00  0.00    -0.206 F 
ATOM     77  C   UNL A   1      42.297  21.413  28.067  1.00  0.00     0.059 A 
ATOM     78  C   UNL A   1      42.288  22.249  25.787  1.00  0.00     0.059 A 
ATOM     79  F   UNL A   1      42.583  24.543  25.390  1.00  0.00    -0.206 F 
ATOM     80  C   UNL A   1      42.197  21.192  26.693  1.00  0.00     0.060 A 
BRANCH  80  81
ATOM     81  S   UNL A   1      41.899  19.511  26.104  1.00  0.00     0.124 S 
ATOM     82  O   UNL A   1      42.291  18.720  27.265  1.00  0.00    -0.237 OA
ATOM     83  O   UNL A   1      40.471  19.537  25.803  1.00  0.00    -0.237 OA
ATOM     84  O   UNL A   1      42.773  19.404  24.940  1.00  0.00    -0.744 OA
ENDBRANCH  80  81
ENDBRANCH  48  73
BRANCH  60  85
ATOM     85  C   UNL A   1      48.199  27.339  29.851  1.00  0.00     0.058 A 
ATOM     86  C   UNL A   1      49.166  27.583  28.866  1.00  0.00     0.135 A 
ATOM     87  C   UNL A   1      48.626  26.822  31.083  1.00  0.00     0.135 A 
ATOM     88  F   UNL A   1      48.803  28.072  27.669  1.00  0.00    -0.206 F 
ATOM     89  C   UNL A   1      50.513  27.327  29.095  1.00  0.00     0.059 A 
ATOM     90  C   UNL A   1      49.971  26.574  31.342  1.00  0.00     0.059 A 
ATOM     91  F   UNL A   1      47.737  26.579  32.059  1.00  0.00    -0.206 F 
ATOM     92  C   UNL A   1      50.906  26.830  30.341  1.00  0.00     0.060 A 
BRANCH  92  93
ATOM     93  S   UNL A   1      52.666  26.574  30.658  1.00  0.00     0.124 S 
ATOM     94  O   UNL A   1      53.057  27.868  31.208  1.00  0.00    -0.237 OA
ATOM     95  O   UNL A   1      52.657  25.461  31.602  1.00  0.00    -0.237 OA
ATOM     96  O   UNL A   1      53.207  26.262  29.338  1.00  0.00    -0.744 OA
ENDBRANCH  92  93
ENDBRANCH  60  85
ENDBRANCH  34  35
ENDBRANCH  26  29
ENDBRANCH  24  25
ENDBRANCH   1  24
TORSDOF 16
ENDMDL
