MODEL 1
REMARK VINA RESULT:      -8.7      0.000      0.000
REMARK SMILES C[C@@H](C(=O)NCCCCNC(=O)c1ccc(-c2c3nc(c(-c4c(F)cc(S(=O)(=O)[O-])cc4F)c4ccc([nH]4)c(-c4c(F)cc(S(=O)(=O)[O-])cc4F)c4nc(c(-c5c(F)cc(S(=O)(=O)[O-])cc5F)c5ccc2[nH]5)C=C4)C=C3)cc1)c1ccc(C[C@@H]2CCC[C@@H]2O)cc1
REMARK SMILES IDX 7 1 6 2 5 3 3 4 4 5 2 7 1 8 79 9 80 10 91 11 81 12 90 13
REMARK SMILES IDX 82 14 83 15 84 16 85 17 88 18 86 19 87 20 89 21 8 23 9 24
REMARK SMILES IDX 10 25 11 26 12 28 13 29 14 30 78 31 15 32 77 33 16 34 17 35
REMARK SMILES IDX 18 36 71 37 19 38 76 39 70 40 72 41 20 42 75 43 69 44 68 45
REMARK SMILES IDX 21 47 55 48 34 49 54 50 35 51 38 52 53 53 73 54 36 55 37 56
REMARK SMILES IDX 52 58 74 59 39 60 22 61 23 62 32 63 24 64 25 65 31 66 33 67
REMARK SMILES IDX 26 68 27 69 28 70 29 71 30 72 56 73 57 74 66 75 58 76 59 77
REMARK SMILES IDX 65 78 67 79 60 80 61 81 62 82 63 83 64 84 40 85 41 86 50 87
REMARK SMILES IDX 42 88 43 89 49 90 51 91 44 92 45 93 46 94 47 95 48 96
REMARK H PARENT 5 6 89 22 10 27 72 46 38 57
REMARK Flexibility Score: inf
ROOT
ATOM      1  C   UNL A   1      34.781  33.960  31.818  1.00  0.00     0.023 C 
ENDROOT
BRANCH   1   2
ATOM      2  C   UNL A   1      36.111  34.554  32.292  1.00  0.00     0.116 C 
BRANCH   2   3
ATOM      3  N   UNL A   1      36.493  34.017  33.584  1.00  0.00    -0.356 N 
ATOM      4  C   UNL A   1      36.931  32.767  33.926  1.00  0.00     0.227 C 
ATOM      5  O   UNL A   1      36.967  32.506  35.129  1.00  0.00    -0.274 OA
ATOM      6  H   UNL A   1      36.425  34.652  34.333  1.00  0.00     0.163 HD
BRANCH   4   7
ATOM      7  C   UNL A   1      37.373  31.780  32.827  1.00  0.00     0.105 C 
ATOM      8  C   UNL A   1      36.287  30.712  32.651  1.00  0.00     0.023 C 
BRANCH   7   9
ATOM      9  C   UNL A   1      38.770  31.181  33.052  1.00  0.00    -0.036 A 
ATOM     10  C   UNL A   1      38.986  29.799  32.930  1.00  0.00     0.005 A 
ATOM     11  C   UNL A   1      39.859  31.969  33.457  1.00  0.00     0.005 A 
ATOM     12  C   UNL A   1      40.248  29.238  33.157  1.00  0.00     0.004 A 
ATOM     13  C   UNL A   1      41.110  31.405  33.712  1.00  0.00     0.004 A 
ATOM     14  C   UNL A   1      41.319  30.031  33.574  1.00  0.00    -0.048 A 
BRANCH  14  15
ATOM     15  C   UNL A   1      42.669  29.441  33.883  1.00  0.00     0.041 C 
BRANCH  15  16
ATOM     16  C   UNL A   1      42.806  27.903  33.916  1.00  0.00     0.022 C 
ATOM     17  C   UNL A   1      43.634  27.363  35.087  1.00  0.00     0.007 C 
ATOM     18  C   UNL A   1      43.451  27.215  32.708  1.00  0.00     0.117 C 
ATOM     19  C   UNL A   1      45.026  27.047  34.533  1.00  0.00     0.003 C 
ATOM     20  C   UNL A   1      44.942  27.200  33.017  1.00  0.00     0.032 C 
BRANCH  18  21
ATOM     21  O   UNL A   1      43.169  27.825  31.466  1.00  0.00    -0.393 OA
ATOM     22  H   UNL A   1      42.423  28.436  31.568  1.00  0.00     0.210 HD
ENDBRANCH  18  21
ENDBRANCH  15  16
ENDBRANCH  14  15
ENDBRANCH   7   9
ENDBRANCH   4   7
ENDBRANCH   2   3
ENDBRANCH   1   2
BRANCH   1  23
ATOM     23  C   UNL A   1      34.630  33.849  30.300  1.00  0.00     0.023 C 
BRANCH  23  24
ATOM     24  C   UNL A   1      35.322  32.648  29.675  1.00  0.00     0.116 C 
BRANCH  24  25
ATOM     25  N   UNL A   1      34.419  31.827  28.881  1.00  0.00    -0.352 N 
ATOM     26  C   UNL A   1      34.705  30.663  28.208  1.00  0.00     0.251 C 
ATOM     27  H   UNL A   1      33.489  32.144  28.819  1.00  0.00     0.163 HD
ATOM     28  O   UNL A   1      33.869  30.143  27.475  1.00  0.00    -0.269 OA
BRANCH  26  29
ATOM     29  C   UNL A   1      36.048  30.070  28.357  1.00  0.00     0.039 A 
ATOM     30  C   UNL A   1      36.993  30.260  27.346  1.00  0.00     0.014 A 
ATOM     31  C   UNL A   1      36.387  29.395  29.534  1.00  0.00     0.014 A 
ATOM     32  C   UNL A   1      38.309  29.840  27.548  1.00  0.00     0.010 A 
ATOM     33  C   UNL A   1      37.709  29.034  29.757  1.00  0.00     0.010 A 
ATOM     34  C   UNL A   1      38.684  29.261  28.771  1.00  0.00    -0.014 A 
BRANCH  34  35
ATOM     35  C   UNL A   1      40.088  28.885  29.066  1.00  0.00     0.031 A 
ATOM     36  C   UNL A   1      41.042  29.927  29.571  1.00  0.00     0.074 A 
ATOM     37  C   UNL A   1      40.531  27.652  28.754  1.00  0.00     0.049 A 
ATOM     38  N   UNL A   1      42.342  29.866  29.704  1.00  0.00    -0.248 NA
ATOM     39  C   UNL A   1      40.458  31.227  29.937  1.00  0.00     0.031 C 
ATOM     40  C   UNL A   1      39.709  26.570  28.206  1.00  0.00     0.029 A 
ATOM     41  N   UNL A   1      41.791  27.114  28.815  1.00  0.00    -0.354 N 
ATOM     42  C   UNL A   1      42.736  31.129  30.124  1.00  0.00     0.074 A 
ATOM     43  C   UNL A   1      41.541  31.943  30.198  1.00  0.00     0.031 C 
ATOM     44  C   UNL A   1      40.489  25.501  27.976  1.00  0.00     0.029 A 
ATOM     45  C   UNL A   1      41.869  25.834  28.321  1.00  0.00     0.049 A 
ATOM     46  H   UNL A   1      42.567  27.600  29.179  1.00  0.00     0.167 HD
ATOM     47  C   UNL A   1      43.981  31.568  30.427  1.00  0.00     0.037 A 
ATOM     48  C   UNL A   1      42.932  25.027  28.143  1.00  0.00     0.037 A 
ATOM     49  C   UNL A   1      45.156  30.741  30.390  1.00  0.00     0.049 A 
ATOM     50  C   UNL A   1      44.298  25.512  28.538  1.00  0.00     0.074 A 
ATOM     51  C   UNL A   1      46.451  31.065  30.755  1.00  0.00     0.029 A 
ATOM     52  N   UNL A   1      45.179  29.421  29.962  1.00  0.00    -0.354 N 
ATOM     53  N   UNL A   1      44.650  26.692  28.992  1.00  0.00    -0.248 NA
ATOM     54  C   UNL A   1      45.410  24.561  28.403  1.00  0.00     0.031 C 
ATOM     55  C   UNL A   1      47.262  29.949  30.522  1.00  0.00     0.029 A 
ATOM     56  C   UNL A   1      46.467  28.919  30.044  1.00  0.00     0.049 A 
ATOM     57  H   UNL A   1      44.396  28.916  29.646  1.00  0.00     0.167 HD
ATOM     58  C   UNL A   1      46.020  26.619  29.217  1.00  0.00     0.074 A 
ATOM     59  C   UNL A   1      46.432  25.279  28.852  1.00  0.00     0.031 C 
ATOM     60  C   UNL A   1      46.857  27.576  29.687  1.00  0.00     0.037 A 
BRANCH  47  61
ATOM     61  C   UNL A   1      44.120  33.014  30.810  1.00  0.00     0.058 A 
ATOM     62  C   UNL A   1      44.077  33.430  32.150  1.00  0.00     0.135 A 
ATOM     63  C   UNL A   1      44.270  34.000  29.822  1.00  0.00     0.135 A 
ATOM     64  F   UNL A   1      43.919  32.529  33.133  1.00  0.00    -0.206 F 
ATOM     65  C   UNL A   1      44.122  34.777  32.494  1.00  0.00     0.059 A 
ATOM     66  C   UNL A   1      44.344  35.351  30.144  1.00  0.00     0.059 A 
ATOM     67  F   UNL A   1      44.319  33.656  28.526  1.00  0.00    -0.206 F 
ATOM     68  C   UNL A   1      44.242  35.731  31.483  1.00  0.00     0.060 A 
BRANCH  68  69
ATOM     69  S   UNL A   1      44.248  37.479  31.933  1.00  0.00     0.124 S 
ATOM     70  O   UNL A   1      43.354  37.482  33.087  1.00  0.00    -0.237 OA
ATOM     71  O   UNL A   1      45.656  37.729  32.223  1.00  0.00    -0.237 OA
ATOM     72  O   UNL A   1      43.731  38.137  30.736  1.00  0.00    -0.744 OA
ENDBRANCH  68  69
ENDBRANCH  47  61
BRANCH  48  73
ATOM     73  C   UNL A   1      42.725  23.669  27.580  1.00  0.00     0.058 A 
ATOM     74  C   UNL A   1      42.838  23.440  26.202  1.00  0.00     0.135 A 
ATOM     75  C   UNL A   1      42.492  22.564  28.413  1.00  0.00     0.135 A 
ATOM     76  F   UNL A   1      43.054  24.467  25.367  1.00  0.00    -0.206 F 
ATOM     77  C   UNL A   1      42.736  22.160  25.667  1.00  0.00     0.059 A 
ATOM     78  C   UNL A   1      42.405  21.271  27.903  1.00  0.00     0.059 A 
ATOM     79  F   UNL A   1      42.395  22.732  29.741  1.00  0.00    -0.206 F 
ATOM     80  C   UNL A   1      42.529  21.080  26.528  1.00  0.00     0.060 A 
BRANCH  80  81
ATOM     81  S   UNL A   1      42.505  19.412  25.834  1.00  0.00     0.124 S 
ATOM     82  O   UNL A   1      43.491  19.523  24.765  1.00  0.00    -0.237 OA
ATOM     83  O   UNL A   1      42.894  18.596  26.979  1.00  0.00    -0.237 OA
ATOM     84  O   UNL A   1      41.119  19.251  25.402  1.00  0.00    -0.744 OA
ENDBRANCH  80  81
ENDBRANCH  48  73
BRANCH  60  85
ATOM     85  C   UNL A   1      48.301  27.209  29.869  1.00  0.00     0.058 A 
ATOM     86  C   UNL A   1      49.254  27.460  28.869  1.00  0.00     0.135 A 
ATOM     87  C   UNL A   1      48.749  26.681  31.090  1.00  0.00     0.135 A 
ATOM     88  F   UNL A   1      48.874  27.958  27.683  1.00  0.00    -0.206 F 
ATOM     89  C   UNL A   1      50.605  27.198  29.075  1.00  0.00     0.059 A 
ATOM     90  C   UNL A   1      50.097  26.428  31.323  1.00  0.00     0.059 A 
ATOM     91  F   UNL A   1      47.876  26.429  32.078  1.00  0.00    -0.206 F 
ATOM     92  C   UNL A   1      51.017  26.688  30.308  1.00  0.00     0.060 A 
BRANCH  92  93
ATOM     93  S   UNL A   1      52.780  26.414  30.590  1.00  0.00     0.124 S 
ATOM     94  O   UNL A   1      53.260  26.171  29.234  1.00  0.00    -0.237 OA
ATOM     95  O   UNL A   1      53.201  27.673  31.197  1.00  0.00    -0.237 OA
ATOM     96  O   UNL A   1      52.804  25.258  31.482  1.00  0.00    -0.744 OA
ENDBRANCH  92  93
ENDBRANCH  60  85
ENDBRANCH  34  35
ENDBRANCH  26  29
ENDBRANCH  24  25
ENDBRANCH  23  24
ENDBRANCH   1  23
TORSDOF 18
ENDMDL
MODEL 2
REMARK VINA RESULT:      -8.7      0.969      2.098
REMARK SMILES C[C@@H](C(=O)NCCCCNC(=O)c1ccc(-c2c3nc(c(-c4c(F)cc(S(=O)(=O)[O-])cc4F)c4ccc([nH]4)c(-c4c(F)cc(S(=O)(=O)[O-])cc4F)c4nc(c(-c5c(F)cc(S(=O)(=O)[O-])cc5F)c5ccc2[nH]5)C=C4)C=C3)cc1)c1ccc(C[C@@H]2CCC[C@@H]2O)cc1
REMARK SMILES IDX 7 1 6 2 5 3 3 4 4 5 2 7 1 8 79 9 80 10 91 11 81 12 90 13
REMARK SMILES IDX 82 14 83 15 84 16 85 17 88 18 86 19 87 20 89 21 8 23 9 24
REMARK SMILES IDX 10 25 11 26 12 28 13 29 14 30 78 31 15 32 77 33 16 34 17 35
REMARK SMILES IDX 18 36 71 37 19 38 76 39 70 40 72 41 20 42 75 43 69 44 68 45
REMARK SMILES IDX 21 47 55 48 34 49 54 50 35 51 38 52 53 53 73 54 36 55 37 56
REMARK SMILES IDX 52 58 74 59 39 60 22 61 23 62 32 63 24 64 25 65 31 66 33 67
REMARK SMILES IDX 26 68 27 69 28 70 29 71 30 72 56 73 57 74 66 75 58 76 59 77
REMARK SMILES IDX 65 78 67 79 60 80 61 81 62 82 63 83 64 84 40 85 41 86 50 87
REMARK SMILES IDX 42 88 43 89 49 90 51 91 44 92 45 93 46 94 47 95 48 96
REMARK H PARENT 5 6 89 22 10 27 72 46 38 57
REMARK Flexibility Score: inf
ROOT
ATOM      1  C   UNL A   1      34.381  34.382  31.077  1.00  0.00     0.023 C 
ENDROOT
BRANCH   1   2
ATOM      2  C   UNL A   1      35.112  34.890  32.324  1.00  0.00     0.116 C 
BRANCH   2   3
ATOM      3  N   UNL A   1      36.549  34.903  32.118  1.00  0.00    -0.356 N 
ATOM      4  C   UNL A   1      37.543  34.253  32.794  1.00  0.00     0.227 C 
ATOM      5  O   UNL A   1      38.697  34.617  32.562  1.00  0.00    -0.274 OA
ATOM      6  H   UNL A   1      36.855  35.469  31.373  1.00  0.00     0.163 HD
BRANCH   4   7
ATOM      7  C   UNL A   1      37.191  33.110  33.768  1.00  0.00     0.105 C 
ATOM      8  C   UNL A   1      37.076  33.682  35.186  1.00  0.00     0.023 C 
BRANCH   7   9
ATOM      9  C   UNL A   1      38.140  31.905  33.684  1.00  0.00    -0.036 A 
ATOM     10  C   UNL A   1      39.512  32.052  33.945  1.00  0.00     0.005 A 
ATOM     11  C   UNL A   1      37.696  30.637  33.274  1.00  0.00     0.005 A 
ATOM     12  C   UNL A   1      40.392  30.968  33.847  1.00  0.00     0.004 A 
ATOM     13  C   UNL A   1      38.579  29.563  33.148  1.00  0.00     0.004 A 
ATOM     14  C   UNL A   1      39.940  29.716  33.424  1.00  0.00    -0.048 A 
BRANCH  14  15
ATOM     15  C   UNL A   1      40.877  28.551  33.253  1.00  0.00     0.041 C 
BRANCH  15  16
ATOM     16  C   UNL A   1      42.072  28.424  34.222  1.00  0.00     0.022 C 
ATOM     17  C   UNL A   1      43.434  28.750  33.600  1.00  0.00     0.007 C 
ATOM     18  C   UNL A   1      42.323  27.061  34.876  1.00  0.00     0.117 C 
ATOM     19  C   UNL A   1      44.103  27.410  33.280  1.00  0.00     0.003 C 
ATOM     20  C   UNL A   1      43.233  26.324  33.904  1.00  0.00     0.032 C 
BRANCH  18  21
ATOM     21  O   UNL A   1      41.153  26.329  35.173  1.00  0.00    -0.393 OA
ATOM     22  H   UNL A   1      40.876  25.830  34.389  1.00  0.00     0.210 HD
ENDBRANCH  18  21
ENDBRANCH  15  16
ENDBRANCH  14  15
ENDBRANCH   7   9
ENDBRANCH   4   7
ENDBRANCH   2   3
ENDBRANCH   1   2
BRANCH   1  23
ATOM     23  C   UNL A   1      34.746  32.960  30.651  1.00  0.00     0.023 C 
BRANCH  23  24
ATOM     24  C   UNL A   1      35.033  32.792  29.166  1.00  0.00     0.116 C 
BRANCH  24  25
ATOM     25  N   UNL A   1      34.134  31.846  28.521  1.00  0.00    -0.352 N 
ATOM     26  C   UNL A   1      34.422  30.583  28.063  1.00  0.00     0.251 C 
ATOM     27  H   UNL A   1      33.204  32.149  28.399  1.00  0.00     0.163 HD
ATOM     28  O   UNL A   1      33.590  29.944  27.425  1.00  0.00    -0.269 OA
BRANCH  26  29
ATOM     29  C   UNL A   1      35.763  30.024  28.321  1.00  0.00     0.039 A 
ATOM     30  C   UNL A   1      36.728  30.074  27.312  1.00  0.00     0.014 A 
ATOM     31  C   UNL A   1      36.079  29.523  29.588  1.00  0.00     0.014 A 
ATOM     32  C   UNL A   1      38.040  29.693  27.598  1.00  0.00     0.010 A 
ATOM     33  C   UNL A   1      37.397  29.205  29.886  1.00  0.00     0.010 A 
ATOM     34  C   UNL A   1      38.391  29.295  28.898  1.00  0.00    -0.014 A 
BRANCH  34  35
ATOM     35  C   UNL A   1      39.790  28.972  29.272  1.00  0.00     0.031 A 
ATOM     36  C   UNL A   1      40.672  30.047  29.834  1.00  0.00     0.074 A 
ATOM     37  C   UNL A   1      40.297  27.759  28.981  1.00  0.00     0.049 A 
ATOM     38  N   UNL A   1      41.964  30.035  30.041  1.00  0.00    -0.248 NA
ATOM     39  C   UNL A   1      40.019  31.321  30.171  1.00  0.00     0.031 C 
ATOM     40  C   UNL A   1      39.551  26.649  28.384  1.00  0.00     0.029 A 
ATOM     41  N   UNL A   1      41.572  27.269  29.113  1.00  0.00    -0.354 N 
ATOM     42  C   UNL A   1      42.284  31.310  30.488  1.00  0.00     0.074 A 
ATOM     43  C   UNL A   1      41.056  32.077  30.495  1.00  0.00     0.031 C 
ATOM     44  C   UNL A   1      40.383  25.612  28.195  1.00  0.00     0.029 A 
ATOM     45  C   UNL A   1      41.727  25.996  28.620  1.00  0.00     0.049 A 
ATOM     46  H   UNL A   1      42.307  27.783  29.522  1.00  0.00     0.167 HD
ATOM     47  C   UNL A   1      43.491  31.795  30.863  1.00  0.00     0.037 A 
ATOM     48  C   UNL A   1      42.829  25.231  28.500  1.00  0.00     0.037 A 
ATOM     49  C   UNL A   1      44.699  31.014  30.890  1.00  0.00     0.049 A 
ATOM     50  C   UNL A   1      44.151  25.767  28.974  1.00  0.00     0.074 A 
ATOM     51  C   UNL A   1      45.956  31.386  31.329  1.00  0.00     0.029 A 
ATOM     52  N   UNL A   1      44.797  29.698  30.460  1.00  0.00    -0.354 N 
ATOM     53  N   UNL A   1      44.431  26.956  29.452  1.00  0.00    -0.248 NA
ATOM     54  C   UNL A   1      45.304  24.860  28.899  1.00  0.00     0.031 C 
ATOM     55  C   UNL A   1      46.822  30.303  31.140  1.00  0.00     0.029 A 
ATOM     56  C   UNL A   1      46.096  29.246  30.614  1.00  0.00     0.049 A 
ATOM     57  H   UNL A   1      44.053  29.165  30.098  1.00  0.00     0.167 HD
ATOM     58  C   UNL A   1      45.787  26.935  29.755  1.00  0.00     0.074 A 
ATOM     59  C   UNL A   1      46.271  25.614  29.408  1.00  0.00     0.031 C 
ATOM     60  C   UNL A   1      46.558  27.921  30.274  1.00  0.00     0.037 A 
BRANCH  47  61
ATOM     61  C   UNL A   1      43.553  33.243  31.258  1.00  0.00     0.058 A 
ATOM     62  C   UNL A   1      43.779  34.257  30.313  1.00  0.00     0.135 A 
ATOM     63  C   UNL A   1      43.415  33.619  32.604  1.00  0.00     0.135 A 
ATOM     64  F   UNL A   1      43.934  33.949  29.015  1.00  0.00    -0.206 F 
ATOM     65  C   UNL A   1      43.919  35.587  30.695  1.00  0.00     0.059 A 
ATOM     66  C   UNL A   1      43.525  34.947  33.005  1.00  0.00     0.059 A 
ATOM     67  F   UNL A   1      43.196  32.690  33.546  1.00  0.00    -0.206 F 
ATOM     68  C   UNL A   1      43.805  35.921  32.045  1.00  0.00     0.060 A 
BRANCH  68  69
ATOM     69  S   UNL A   1      44.039  37.641  32.538  1.00  0.00     0.124 S 
ATOM     70  O   UNL A   1      43.757  38.340  31.289  1.00  0.00    -0.237 OA
ATOM     71  O   UNL A   1      43.046  37.807  33.595  1.00  0.00    -0.237 OA
ATOM     72  O   UNL A   1      45.431  37.678  32.979  1.00  0.00    -0.744 OA
ENDBRANCH  68  69
ENDBRANCH  47  61
BRANCH  48  73
ATOM     73  C   UNL A   1      42.708  23.869  27.922  1.00  0.00     0.058 A 
ATOM     74  C   UNL A   1      42.572  22.748  28.751  1.00  0.00     0.135 A 
ATOM     75  C   UNL A   1      42.644  23.671  26.534  1.00  0.00     0.135 A 
ATOM     76  F   UNL A   1      42.633  22.888  30.084  1.00  0.00    -0.206 F 
ATOM     77  C   UNL A   1      42.368  21.476  28.227  1.00  0.00     0.059 A 
ATOM     78  C   UNL A   1      42.422  22.411  25.986  1.00  0.00     0.059 A 
ATOM     79  F   UNL A   1      42.751  24.719  25.701  1.00  0.00    -0.206 F 
ATOM     80  C   UNL A   1      42.284  21.320  26.841  1.00  0.00     0.060 A 
BRANCH  80  81
ATOM     81  S   UNL A   1      41.913  19.681  26.176  1.00  0.00     0.124 S 
ATOM     82  O   UNL A   1      42.279  18.819  27.294  1.00  0.00    -0.237 OA
ATOM     83  O   UNL A   1      40.485  19.782  25.888  1.00  0.00    -0.237 OA
ATOM     84  O   UNL A   1      42.776  19.596  25.001  1.00  0.00    -0.744 OA
ENDBRANCH  80  81
ENDBRANCH  48  73
BRANCH  60  85
ATOM     85  C   UNL A   1      48.003  27.609  30.537  1.00  0.00     0.058 A 
ATOM     86  C   UNL A   1      48.423  27.055  31.756  1.00  0.00     0.135 A 
ATOM     87  C   UNL A   1      48.960  27.785  29.526  1.00  0.00     0.135 A 
ATOM     88  F   UNL A   1      47.546  26.874  32.755  1.00  0.00    -0.206 F 
ATOM     89  C   UNL A   1      49.749  26.686  31.964  1.00  0.00     0.059 A 
ATOM     90  C   UNL A   1      50.287  27.406  29.706  1.00  0.00     0.059 A 
ATOM     91  F   UNL A   1      48.604  28.305  28.342  1.00  0.00    -0.206 F 
ATOM     92  C   UNL A   1      50.672  26.860  30.931  1.00  0.00     0.060 A 
BRANCH  92  93
ATOM     93  S   UNL A   1      52.375  26.317  31.186  1.00  0.00     0.124 S 
ATOM     94  O   UNL A   1      52.178  24.994  31.768  1.00  0.00    -0.237 OA
ATOM     95  O   UNL A   1      52.920  26.341  29.832  1.00  0.00    -0.237 OA
ATOM     96  O   UNL A   1      52.920  27.326  32.090  1.00  0.00    -0.744 OA
ENDBRANCH  92  93
ENDBRANCH  60  85
ENDBRANCH  34  35
ENDBRANCH  26  29
ENDBRANCH  24  25
ENDBRANCH  23  24
ENDBRANCH   1  23
TORSDOF 18
ENDMDL
MODEL 3
REMARK VINA RESULT:      -8.6      3.424     10.597
REMARK SMILES C[C@@H](C(=O)NCCCCNC(=O)c1ccc(-c2c3nc(c(-c4c(F)cc(S(=O)(=O)[O-])cc4F)c4ccc([nH]4)c(-c4c(F)cc(S(=O)(=O)[O-])cc4F)c4nc(c(-c5c(F)cc(S(=O)(=O)[O-])cc5F)c5ccc2[nH]5)C=C4)C=C3)cc1)c1ccc(C[C@@H]2CCC[C@@H]2O)cc1
REMARK SMILES IDX 7 1 6 2 5 3 3 4 4 5 2 7 1 8 79 9 80 10 91 11 81 12 90 13
REMARK SMILES IDX 82 14 83 15 84 16 85 17 88 18 86 19 87 20 89 21 8 23 9 24
REMARK SMILES IDX 10 25 11 26 12 28 13 29 14 30 78 31 15 32 77 33 16 34 17 35
REMARK SMILES IDX 18 36 71 37 19 38 76 39 70 40 72 41 20 42 75 43 69 44 68 45
REMARK SMILES IDX 21 47 55 48 34 49 54 50 35 51 38 52 53 53 73 54 36 55 37 56
REMARK SMILES IDX 52 58 74 59 39 60 22 61 23 62 32 63 24 64 25 65 31 66 33 67
REMARK SMILES IDX 26 68 27 69 28 70 29 71 30 72 56 73 57 74 66 75 58 76 59 77
REMARK SMILES IDX 65 78 67 79 60 80 61 81 62 82 63 83 64 84 40 85 41 86 50 87
REMARK SMILES IDX 42 88 43 89 49 90 51 91 44 92 45 93 46 94 47 95 48 96
REMARK H PARENT 5 6 89 22 10 27 72 46 38 57
REMARK Flexibility Score: inf
ROOT
ATOM      1  C   UNL A   1      42.789  22.968  25.838  1.00  0.00     0.023 C 
ENDROOT
BRANCH   1   2
ATOM      2  C   UNL A   1      43.089  23.532  27.230  1.00  0.00     0.116 C 
BRANCH   2   3
ATOM      3  N   UNL A   1      44.505  23.447  27.534  1.00  0.00    -0.356 N 
ATOM      4  C   UNL A   1      45.574  24.057  26.938  1.00  0.00     0.227 C 
ATOM      5  O   UNL A   1      46.690  23.635  27.244  1.00  0.00    -0.274 OA
ATOM      6  H   UNL A   1      44.731  22.858  28.290  1.00  0.00     0.163 HD
BRANCH   4   7
ATOM      7  C   UNL A   1      45.345  25.226  25.959  1.00  0.00     0.105 C 
ATOM      8  C   UNL A   1      46.427  25.186  24.873  1.00  0.00     0.023 C 
BRANCH   7   9
ATOM      9  C   UNL A   1      45.234  26.598  26.642  1.00  0.00    -0.036 A 
ATOM     10  C   UNL A   1      46.085  26.941  27.705  1.00  0.00     0.005 A 
ATOM     11  C   UNL A   1      44.241  27.526  26.288  1.00  0.00     0.005 A 
ATOM     12  C   UNL A   1      45.978  28.177  28.353  1.00  0.00     0.004 A 
ATOM     13  C   UNL A   1      44.116  28.746  26.954  1.00  0.00     0.004 A 
ATOM     14  C   UNL A   1      44.976  29.085  28.001  1.00  0.00    -0.048 A 
BRANCH  14  15
ATOM     15  C   UNL A   1      44.803  30.394  28.723  1.00  0.00     0.041 C 
BRANCH  15  16
ATOM     16  C   UNL A   1      43.810  31.424  28.143  1.00  0.00     0.022 C 
ATOM     17  C   UNL A   1      44.462  32.562  27.352  1.00  0.00     0.007 C 
ATOM     18  C   UNL A   1      42.904  32.177  29.124  1.00  0.00     0.117 C 
ATOM     19  C   UNL A   1      44.511  33.775  28.286  1.00  0.00     0.003 C 
ATOM     20  C   UNL A   1      43.705  33.407  29.527  1.00  0.00     0.032 C 
BRANCH  18  21
ATOM     21  O   UNL A   1      42.491  31.419  30.241  1.00  0.00    -0.393 OA
ATOM     22  H   UNL A   1      42.950  31.734  31.034  1.00  0.00     0.210 HD
ENDBRANCH  18  21
ENDBRANCH  15  16
ENDBRANCH  14  15
ENDBRANCH   7   9
ENDBRANCH   4   7
ENDBRANCH   2   3
ENDBRANCH   1   2
BRANCH   1  23
ATOM     23  C   UNL A   1      41.887  21.733  25.823  1.00  0.00     0.023 C 
BRANCH  23  24
ATOM     24  C   UNL A   1      40.619  21.858  26.655  1.00  0.00     0.116 C 
BRANCH  24  25
ATOM     25  N   UNL A   1      39.481  22.330  25.880  1.00  0.00    -0.352 N 
ATOM     26  C   UNL A   1      38.872  23.561  25.935  1.00  0.00     0.251 C 
ATOM     27  H   UNL A   1      39.101  21.689  25.237  1.00  0.00     0.163 HD
ATOM     28  O   UNL A   1      37.839  23.777  25.308  1.00  0.00    -0.269 OA
BRANCH  26  29
ATOM     29  C   UNL A   1      39.465  24.607  26.791  1.00  0.00     0.039 A 
ATOM     30  C   UNL A   1      40.265  25.592  26.208  1.00  0.00     0.014 A 
ATOM     31  C   UNL A   1      39.162  24.648  28.155  1.00  0.00     0.014 A 
ATOM     32  C   UNL A   1      40.700  26.671  26.981  1.00  0.00     0.010 A 
ATOM     33  C   UNL A   1      39.542  25.753  28.906  1.00  0.00     0.010 A 
ATOM     34  C   UNL A   1      40.306  26.778  28.325  1.00  0.00    -0.014 A 
BRANCH  34  35
ATOM     35  C   UNL A   1      40.664  27.951  29.159  1.00  0.00     0.031 A 
ATOM     36  C   UNL A   1      41.895  27.901  30.016  1.00  0.00     0.074 A 
ATOM     37  C   UNL A   1      39.817  28.994  29.246  1.00  0.00     0.049 A 
ATOM     38  N   UNL A   1      42.283  28.721  30.957  1.00  0.00    -0.248 NA
ATOM     39  C   UNL A   1      42.788  26.749  29.813  1.00  0.00     0.031 C 
ATOM     40  C   UNL A   1      38.563  29.132  28.502  1.00  0.00     0.029 A 
ATOM     41  N   UNL A   1      39.865  30.119  30.029  1.00  0.00    -0.354 N 
ATOM     42  C   UNL A   1      43.438  28.163  31.489  1.00  0.00     0.074 A 
ATOM     43  C   UNL A   1      43.672  26.921  30.783  1.00  0.00     0.031 C 
ATOM     44  C   UNL A   1      37.958  30.272  28.871  1.00  0.00     0.029 A 
ATOM     45  C   UNL A   1      38.759  30.926  29.903  1.00  0.00     0.049 A 
ATOM     46  H   UNL A   1      40.620  30.329  30.626  1.00  0.00     0.167 HD
ATOM     47  C   UNL A   1      44.235  28.647  32.471  1.00  0.00     0.037 A 
ATOM     48  C   UNL A   1      38.416  32.051  30.559  1.00  0.00     0.037 A 
ATOM     49  C   UNL A   1      44.017  29.902  33.139  1.00  0.00     0.049 A 
ATOM     50  C   UNL A   1      39.340  32.602  31.608  1.00  0.00     0.074 A 
ATOM     51  C   UNL A   1      44.807  30.521  34.090  1.00  0.00     0.029 A 
ATOM     52  N   UNL A   1      42.926  30.732  32.922  1.00  0.00    -0.354 N 
ATOM     53  N   UNL A   1      40.463  32.095  32.060  1.00  0.00    -0.248 NA
ATOM     54  C   UNL A   1      38.959  33.876  32.231  1.00  0.00     0.031 C 
ATOM     55  C   UNL A   1      44.181  31.714  34.469  1.00  0.00     0.029 A 
ATOM     56  C   UNL A   1      43.017  31.854  33.728  1.00  0.00     0.049 A 
ATOM     57  H   UNL A   1      42.195  30.550  32.288  1.00  0.00     0.167 HD
ATOM     58  C   UNL A   1      40.933  32.997  33.007  1.00  0.00     0.074 A 
ATOM     59  C   UNL A   1      39.975  34.083  33.060  1.00  0.00     0.031 C 
ATOM     60  C   UNL A   1      42.058  32.932  33.759  1.00  0.00     0.037 A 
BRANCH  47  61
ATOM     61  C   UNL A   1      45.403  27.798  32.883  1.00  0.00     0.058 A 
ATOM     62  C   UNL A   1      45.279  26.793  33.856  1.00  0.00     0.135 A 
ATOM     63  C   UNL A   1      46.671  28.011  32.319  1.00  0.00     0.135 A 
ATOM     64  F   UNL A   1      44.092  26.559  34.438  1.00  0.00    -0.206 F 
ATOM     65  C   UNL A   1      46.381  26.066  34.295  1.00  0.00     0.059 A 
ATOM     66  C   UNL A   1      47.783  27.278  32.723  1.00  0.00     0.059 A 
ATOM     67  F   UNL A   1      46.844  28.957  31.384  1.00  0.00    -0.206 F 
ATOM     68  C   UNL A   1      47.631  26.326  33.732  1.00  0.00     0.060 A 
BRANCH  68  69
ATOM     69  S   UNL A   1      49.065  25.416  34.343  1.00  0.00     0.124 S 
ATOM     70  O   UNL A   1      48.830  24.092  33.774  1.00  0.00    -0.237 OA
ATOM     71  O   UNL A   1      50.182  26.160  33.771  1.00  0.00    -0.237 OA
ATOM     72  O   UNL A   1      48.932  25.509  35.794  1.00  0.00    -0.744 OA
ENDBRANCH  68  69
ENDBRANCH  47  61
BRANCH  48  73
ATOM     73  C   UNL A   1      37.141  32.730  30.216  1.00  0.00     0.058 A 
ATOM     74  C   UNL A   1      35.985  32.510  30.976  1.00  0.00     0.135 A 
ATOM     75  C   UNL A   1      37.075  33.670  29.176  1.00  0.00     0.135 A 
ATOM     76  F   UNL A   1      35.999  31.617  31.977  1.00  0.00    -0.206 F 
ATOM     77  C   UNL A   1      34.806  33.205  30.725  1.00  0.00     0.059 A 
ATOM     78  C   UNL A   1      35.912  34.391  28.916  1.00  0.00     0.059 A 
ATOM     79  F   UNL A   1      38.162  33.926  28.432  1.00  0.00    -0.206 F 
ATOM     80  C   UNL A   1      34.783  34.152  29.698  1.00  0.00     0.060 A 
BRANCH  80  81
ATOM     81  S   UNL A   1      33.280  35.123  29.449  1.00  0.00     0.124 S 
ATOM     82  O   UNL A   1      32.696  35.109  30.785  1.00  0.00    -0.237 OA
ATOM     83  O   UNL A   1      33.813  36.406  29.000  1.00  0.00    -0.237 OA
ATOM     84  O   UNL A   1      32.557  34.364  28.433  1.00  0.00    -0.744 OA
ENDBRANCH  80  81
ENDBRANCH  48  73
BRANCH  60  85
ATOM     85  C   UNL A   1      42.343  34.078  34.686  1.00  0.00     0.058 A 
ATOM     86  C   UNL A   1      41.950  34.049  36.032  1.00  0.00     0.135 A 
ATOM     87  C   UNL A   1      43.094  35.178  34.241  1.00  0.00     0.135 A 
ATOM     88  F   UNL A   1      41.225  33.023  36.502  1.00  0.00    -0.206 F 
ATOM     89  C   UNL A   1      42.292  35.074  36.909  1.00  0.00     0.059 A 
ATOM     90  C   UNL A   1      43.463  36.205  35.104  1.00  0.00     0.059 A 
ATOM     91  F   UNL A   1      43.499  35.247  32.963  1.00  0.00    -0.206 F 
ATOM     92  C   UNL A   1      43.053  36.145  36.436  1.00  0.00     0.060 A 
BRANCH  92  93
ATOM     93  S   UNL A   1      43.549  37.438  37.596  1.00  0.00     0.124 S 
ATOM     94  O   UNL A   1      43.937  38.513  36.690  1.00  0.00    -0.237 OA
ATOM     95  O   UNL A   1      42.325  37.662  38.360  1.00  0.00    -0.237 OA
ATOM     96  O   UNL A   1      44.641  36.821  38.344  1.00  0.00    -0.744 OA
ENDBRANCH  92  93
ENDBRANCH  60  85
ENDBRANCH  34  35
ENDBRANCH  26  29
ENDBRANCH  24  25
ENDBRANCH  23  24
ENDBRANCH   1  23
TORSDOF 18
ENDMDL
