MODEL 1
REMARK VINA RESULT:     -11.3      0.000      0.000
REMARK SMILES CC(C)(C(=O)NCCCCNC(=O)c1ccc(-c2c3nc(c(-c4c(F)cc(S(=O)(=O)[O-])cc4F)c4ccc([nH]4)c(-c4c(F)cc(S(=O)(=O)[O-])cc4F)c4nc(c(-c5c(F)cc(S(=O)(=O)[O-])cc5F)c5ccc2[nH]5)C=C4)C=C3)cc1)N1C(=O)/C(=C/c2ccc(C=O)cc2)SC1=S
REMARK SMILES IDX 8 1 7 2 6 3 4 4 5 5 2 7 1 8 3 9 80 10 81 11 94 12 82 13
REMARK SMILES IDX 83 14 93 15 95 16 84 17 85 18 86 19 92 20 87 21 91 22 88 23
REMARK SMILES IDX 89 24 90 25 9 26 10 27 11 28 12 29 13 31 14 32 15 33 79 34
REMARK SMILES IDX 16 35 78 36 17 37 18 38 19 39 72 40 20 41 77 42 71 43 73 44
REMARK SMILES IDX 21 45 76 46 70 47 69 48 22 50 56 51 35 52 55 53 36 54 39 55
REMARK SMILES IDX 54 56 74 57 37 58 38 59 53 61 75 62 40 63 23 64 24 65 33 66
REMARK SMILES IDX 25 67 26 68 32 69 34 70 27 71 28 72 29 73 30 74 31 75 57 76
REMARK SMILES IDX 58 77 67 78 59 79 60 80 66 81 68 82 61 83 62 84 63 85 64 86
REMARK SMILES IDX 65 87 41 88 42 89 51 90 43 91 44 92 50 93 52 94 45 95 46 96
REMARK SMILES IDX 47 97 48 98 49 99
REMARK H PARENT 6 6 11 30 73 49 39 60
REMARK Flexibility Score: inf
ROOT
ATOM      1  C   UNL A   1      33.906  28.476  24.659  1.00  0.00     0.023 C 
ENDROOT
BRANCH   1   2
ATOM      2  C   UNL A   1      32.870  27.950  23.666  1.00  0.00     0.116 C 
BRANCH   2   3
ATOM      3  N   UNL A   1      31.700  27.442  24.356  1.00  0.00    -0.354 N 
ATOM      4  C   UNL A   1      31.008  26.276  24.237  1.00  0.00     0.245 C 
ATOM      5  O   UNL A   1      29.892  26.259  24.771  1.00  0.00    -0.272 OA
ATOM      6  H   UNL A   1      31.338  28.056  25.036  1.00  0.00     0.163 HD
BRANCH   4   7
ATOM      7  C   UNL A   1      31.533  25.042  23.431  1.00  0.00     0.122 C 
ATOM      8  C   UNL A   1      30.363  24.030  23.373  1.00  0.00     0.046 C 
ATOM      9  C   UNL A   1      31.941  25.340  21.973  1.00  0.00     0.046 C 
BRANCH   7  10
ATOM     10  N   UNL A   1      32.749  24.543  24.204  1.00  0.00    -0.278 N 
ATOM     11  C   UNL A   1      33.993  24.417  23.598  1.00  0.00     0.267 C 
ATOM     12  C   UNL A   1      32.707  24.114  25.531  1.00  0.00     0.149 C 
ATOM     13  O   UNL A   1      34.314  24.733  22.459  1.00  0.00    -0.268 OA
ATOM     14  C   UNL A   1      35.004  23.873  24.539  1.00  0.00     0.081 C 
ATOM     15  S   UNL A   1      34.299  23.569  26.060  1.00  0.00    -0.054 SA
ATOM     16  S   UNL A   1      31.440  24.063  26.623  1.00  0.00    -0.052 S 
ATOM     17  C   UNL A   1      36.285  23.716  24.174  1.00  0.00     0.029 C 
BRANCH  17  18
ATOM     18  C   UNL A   1      37.364  23.215  25.028  1.00  0.00    -0.024 A 
ATOM     19  C   UNL A   1      37.747  21.872  24.932  1.00  0.00     0.009 A 
ATOM     20  C   UNL A   1      38.003  24.052  25.951  1.00  0.00     0.009 A 
ATOM     21  C   UNL A   1      38.780  21.377  25.731  1.00  0.00     0.012 A 
ATOM     22  C   UNL A   1      39.038  23.563  26.751  1.00  0.00     0.012 A 
ATOM     23  C   UNL A   1      39.426  22.226  26.633  1.00  0.00     0.014 A 
BRANCH  23  24
ATOM     24  C   UNL A   1      40.530  21.719  27.471  1.00  0.00     0.260 C 
ATOM     25  O   UNL A   1      40.673  20.527  27.712  1.00  0.00    -0.298 OA
ENDBRANCH  23  24
ENDBRANCH  17  18
ENDBRANCH   7  10
ENDBRANCH   4   7
ENDBRANCH   2   3
ENDBRANCH   1   2
BRANCH   1  26
ATOM     26  C   UNL A   1      34.035  27.652  25.941  1.00  0.00     0.023 C 
BRANCH  26  27
ATOM     27  C   UNL A   1      33.529  28.336  27.208  1.00  0.00     0.116 C 
BRANCH  27  28
ATOM     28  N   UNL A   1      33.522  29.788  27.112  1.00  0.00    -0.352 N 
ATOM     29  C   UNL A   1      34.464  30.683  27.557  1.00  0.00     0.251 C 
ATOM     30  H   UNL A   1      32.736  30.182  26.666  1.00  0.00     0.163 HD
ATOM     31  O   UNL A   1      34.246  31.890  27.491  1.00  0.00    -0.269 OA
BRANCH  29  32
ATOM     32  C   UNL A   1      35.719  30.179  28.151  1.00  0.00     0.039 A 
ATOM     33  C   UNL A   1      36.899  30.268  27.410  1.00  0.00     0.014 A 
ATOM     34  C   UNL A   1      35.733  29.659  29.449  1.00  0.00     0.014 A 
ATOM     35  C   UNL A   1      38.111  29.901  28.000  1.00  0.00     0.010 A 
ATOM     36  C   UNL A   1      36.948  29.358  30.055  1.00  0.00     0.010 A 
ATOM     37  C   UNL A   1      38.149  29.480  29.339  1.00  0.00    -0.014 A 
BRANCH  37  38
ATOM     38  C   UNL A   1      39.435  29.171  30.013  1.00  0.00     0.031 A 
ATOM     39  C   UNL A   1      39.848  29.941  31.237  1.00  0.00     0.074 A 
ATOM     40  C   UNL A   1      40.262  28.252  29.479  1.00  0.00     0.049 A 
ATOM     41  N   UNL A   1      40.964  29.877  31.914  1.00  0.00    -0.248 NA
ATOM     42  C   UNL A   1      38.889  30.934  31.749  1.00  0.00     0.031 C 
ATOM     43  C   UNL A   1      39.998  27.480  28.261  1.00  0.00     0.029 A 
ATOM     44  N   UNL A   1      41.501  27.820  29.881  1.00  0.00    -0.354 N 
ATOM     45  C   UNL A   1      40.850  30.829  32.921  1.00  0.00     0.074 A 
ATOM     46  C   UNL A   1      39.578  31.492  32.733  1.00  0.00     0.031 C 
ATOM     47  C   UNL A   1      41.035  26.660  28.027  1.00  0.00     0.029 A 
ATOM     48  C   UNL A   1      42.051  26.869  29.054  1.00  0.00     0.049 A 
ATOM     49  H   UNL A   1      41.955  28.159  30.686  1.00  0.00     0.167 HD
ATOM     50  C   UNL A   1      41.716  31.108  33.924  1.00  0.00     0.037 A 
ATOM     51  C   UNL A   1      43.241  26.242  29.112  1.00  0.00     0.037 A 
ATOM     52  C   UNL A   1      42.968  30.425  34.120  1.00  0.00     0.049 A 
ATOM     53  C   UNL A   1      44.179  26.553  30.246  1.00  0.00     0.074 A 
ATOM     54  C   UNL A   1      43.891  30.596  35.137  1.00  0.00     0.029 A 
ATOM     55  N   UNL A   1      43.472  29.440  33.284  1.00  0.00    -0.354 N 
ATOM     56  N   UNL A   1      44.031  27.416  31.224  1.00  0.00    -0.248 NA
ATOM     57  C   UNL A   1      45.442  25.805  30.290  1.00  0.00     0.031 C 
ATOM     58  C   UNL A   1      44.969  29.736  34.898  1.00  0.00     0.029 A 
ATOM     59  C   UNL A   1      44.699  29.001  33.755  1.00  0.00     0.049 A 
ATOM     60  H   UNL A   1      43.024  29.103  32.475  1.00  0.00     0.167 HD
ATOM     61  C   UNL A   1      45.169  27.296  32.012  1.00  0.00     0.074 A 
ATOM     62  C   UNL A   1      45.992  26.272  31.403  1.00  0.00     0.031 C 
ATOM     63  C   UNL A   1      45.503  27.975  33.138  1.00  0.00     0.037 A 
BRANCH  50  64
ATOM     64  C   UNL A   1      41.329  32.193  34.889  1.00  0.00     0.058 A 
ATOM     65  C   UNL A   1      40.516  31.928  36.003  1.00  0.00     0.135 A 
ATOM     66  C   UNL A   1      41.788  33.508  34.713  1.00  0.00     0.135 A 
ATOM     67  F   UNL A   1      40.036  30.691  36.212  1.00  0.00    -0.206 F 
ATOM     68  C   UNL A   1      40.141  32.934  36.887  1.00  0.00     0.059 A 
ATOM     69  C   UNL A   1      41.448  34.525  35.600  1.00  0.00     0.059 A 
ATOM     70  F   UNL A   1      42.568  33.816  33.665  1.00  0.00    -0.206 F 
ATOM     71  C   UNL A   1      40.609  34.231  36.674  1.00  0.00     0.060 A 
BRANCH  71  72
ATOM     72  S   UNL A   1      40.107  35.529  37.824  1.00  0.00     0.124 S 
ATOM     73  O   UNL A   1      41.255  35.578  38.725  1.00  0.00    -0.237 OA
ATOM     74  O   UNL A   1      39.944  36.682  36.944  1.00  0.00    -0.237 OA
ATOM     75  O   UNL A   1      38.874  35.008  38.406  1.00  0.00    -0.744 OA
ENDBRANCH  71  72
ENDBRANCH  50  64
BRANCH  51  76
ATOM     76  C   UNL A   1      43.598  25.235  28.078  1.00  0.00     0.058 A 
ATOM     77  C   UNL A   1      44.164  25.628  26.857  1.00  0.00     0.135 A 
ATOM     78  C   UNL A   1      43.405  23.863  28.300  1.00  0.00     0.135 A 
ATOM     79  F   UNL A   1      44.363  26.929  26.597  1.00  0.00    -0.206 F 
ATOM     80  C   UNL A   1      44.516  24.697  25.884  1.00  0.00     0.059 A 
ATOM     81  C   UNL A   1      43.769  22.912  27.352  1.00  0.00     0.059 A 
ATOM     82  F   UNL A   1      42.883  23.436  29.461  1.00  0.00    -0.206 F 
ATOM     83  C   UNL A   1      44.317  23.339  26.144  1.00  0.00     0.060 A 
BRANCH  83  84
ATOM     84  S   UNL A   1      44.832  22.135  24.899  1.00  0.00     0.124 S 
ATOM     85  O   UNL A   1      43.769  21.141  24.996  1.00  0.00    -0.237 OA
ATOM     86  O   UNL A   1      44.846  22.939  23.680  1.00  0.00    -0.237 OA
ATOM     87  O   UNL A   1      46.145  21.707  25.373  1.00  0.00    -0.744 OA
ENDBRANCH  83  84
ENDBRANCH  51  76
BRANCH  63  88
ATOM     88  C   UNL A   1      46.799  27.611  33.803  1.00  0.00     0.058 A 
ATOM     89  C   UNL A   1      48.019  28.173  33.396  1.00  0.00     0.135 A 
ATOM     90  C   UNL A   1      46.814  26.731  34.898  1.00  0.00     0.135 A 
ATOM     91  F   UNL A   1      48.058  29.014  32.350  1.00  0.00    -0.206 F 
ATOM     92  C   UNL A   1      49.213  27.860  34.037  1.00  0.00     0.059 A 
ATOM     93  C   UNL A   1      47.993  26.423  35.569  1.00  0.00     0.059 A 
ATOM     94  F   UNL A   1      45.673  26.175  35.334  1.00  0.00    -0.206 F 
ATOM     95  C   UNL A   1      49.189  26.983  35.125  1.00  0.00     0.060 A 
BRANCH  95  96
ATOM     96  S   UNL A   1      50.739  26.614  35.974  1.00  0.00     0.124 S 
ATOM     97  O   UNL A   1      51.720  27.178  35.052  1.00  0.00    -0.237 OA
ATOM     98  O   UNL A   1      50.579  27.321  37.240  1.00  0.00    -0.237 OA
ATOM     99  O   UNL A   1      50.732  25.157  36.071  1.00  0.00    -0.744 OA
ENDBRANCH  95  96
ENDBRANCH  63  88
ENDBRANCH  37  38
ENDBRANCH  29  32
ENDBRANCH  27  28
ENDBRANCH  26  27
ENDBRANCH   1  26
TORSDOF 17
ENDMDL
MODEL 2
REMARK VINA RESULT:     -11.1      4.761      6.198
REMARK SMILES CC(C)(C(=O)NCCCCNC(=O)c1ccc(-c2c3nc(c(-c4c(F)cc(S(=O)(=O)[O-])cc4F)c4ccc([nH]4)c(-c4c(F)cc(S(=O)(=O)[O-])cc4F)c4nc(c(-c5c(F)cc(S(=O)(=O)[O-])cc5F)c5ccc2[nH]5)C=C4)C=C3)cc1)N1C(=O)/C(=C/c2ccc(C=O)cc2)SC1=S
REMARK SMILES IDX 8 1 7 2 6 3 4 4 5 5 2 7 1 8 3 9 80 10 81 11 94 12 82 13
REMARK SMILES IDX 83 14 93 15 95 16 84 17 85 18 86 19 92 20 87 21 91 22 88 23
REMARK SMILES IDX 89 24 90 25 9 26 10 27 11 28 12 29 13 31 14 32 15 33 79 34
REMARK SMILES IDX 16 35 78 36 17 37 18 38 19 39 72 40 20 41 77 42 71 43 73 44
REMARK SMILES IDX 21 45 76 46 70 47 69 48 22 50 56 51 35 52 55 53 36 54 39 55
REMARK SMILES IDX 54 56 74 57 37 58 38 59 53 61 75 62 40 63 23 64 24 65 33 66
REMARK SMILES IDX 25 67 26 68 32 69 34 70 27 71 28 72 29 73 30 74 31 75 57 76
REMARK SMILES IDX 58 77 67 78 59 79 60 80 66 81 68 82 61 83 62 84 63 85 64 86
REMARK SMILES IDX 65 87 41 88 42 89 51 90 43 91 44 92 50 93 52 94 45 95 46 96
REMARK SMILES IDX 47 97 48 98 49 99
REMARK H PARENT 6 6 11 30 73 49 39 60
REMARK Flexibility Score: inf
ROOT
ATOM      1  C   UNL A   1      34.380  28.606  26.506  1.00  0.00     0.023 C 
ENDROOT
BRANCH   1   2
ATOM      2  C   UNL A   1      33.135  27.753  26.263  1.00  0.00     0.116 C 
BRANCH   2   3
ATOM      3  N   UNL A   1      32.002  28.581  25.896  1.00  0.00    -0.354 N 
ATOM      4  C   UNL A   1      31.526  28.987  24.687  1.00  0.00     0.245 C 
ATOM      5  O   UNL A   1      30.708  29.915  24.718  1.00  0.00    -0.272 OA
ATOM      6  H   UNL A   1      31.481  28.910  26.664  1.00  0.00     0.163 HD
BRANCH   4   7
ATOM      7  C   UNL A   1      32.010  28.388  23.325  1.00  0.00     0.122 C 
ATOM      8  C   UNL A   1      31.110  29.010  22.230  1.00  0.00     0.046 C 
ATOM      9  C   UNL A   1      33.470  28.718  22.948  1.00  0.00     0.046 C 
BRANCH   7  10
ATOM     10  N   UNL A   1      31.857  26.877  23.473  1.00  0.00    -0.278 N 
ATOM     11  C   UNL A   1      32.948  26.023  23.376  1.00  0.00     0.267 C 
ATOM     12  C   UNL A   1      30.631  26.232  23.643  1.00  0.00     0.149 C 
ATOM     13  O   UNL A   1      34.129  26.319  23.246  1.00  0.00    -0.268 OA
ATOM     14  C   UNL A   1      32.540  24.602  23.510  1.00  0.00     0.081 C 
ATOM     15  S   UNL A   1      30.854  24.484  23.729  1.00  0.00    -0.054 SA
ATOM     16  S   UNL A   1      29.082  26.848  23.782  1.00  0.00    -0.052 S 
ATOM     17  C   UNL A   1      33.444  23.612  23.495  1.00  0.00     0.029 C 
BRANCH  17  18
ATOM     18  C   UNL A   1      33.154  22.184  23.645  1.00  0.00    -0.024 A 
ATOM     19  C   UNL A   1      32.314  21.554  22.719  1.00  0.00     0.009 A 
ATOM     20  C   UNL A   1      33.686  21.446  24.710  1.00  0.00     0.009 A 
ATOM     21  C   UNL A   1      32.033  20.192  22.840  1.00  0.00     0.012 A 
ATOM     22  C   UNL A   1      33.409  20.083  24.834  1.00  0.00     0.012 A 
ATOM     23  C   UNL A   1      32.586  19.460  23.893  1.00  0.00     0.014 A 
BRANCH  23  24
ATOM     24  C   UNL A   1      32.309  18.016  24.022  1.00  0.00     0.260 C 
ATOM     25  O   UNL A   1      32.129  17.480  25.108  1.00  0.00    -0.298 OA
ENDBRANCH  23  24
ENDBRANCH  17  18
ENDBRANCH   7  10
ENDBRANCH   4   7
ENDBRANCH   2   3
ENDBRANCH   1   2
BRANCH   1  26
ATOM     26  C   UNL A   1      34.117  29.922  27.242  1.00  0.00     0.023 C 
BRANCH  26  27
ATOM     27  C   UNL A   1      35.360  30.629  27.775  1.00  0.00     0.116 C 
BRANCH  27  28
ATOM     28  N   UNL A   1      35.276  30.943  29.193  1.00  0.00    -0.352 N 
ATOM     29  C   UNL A   1      36.198  30.698  30.183  1.00  0.00     0.251 C 
ATOM     30  H   UNL A   1      34.449  31.391  29.483  1.00  0.00     0.163 HD
ATOM     31  O   UNL A   1      35.919  30.931  31.355  1.00  0.00    -0.269 OA
BRANCH  29  32
ATOM     32  C   UNL A   1      37.508  30.117  29.825  1.00  0.00     0.039 A 
ATOM     33  C   UNL A   1      37.914  30.141  28.489  1.00  0.00     0.014 A 
ATOM     34  C   UNL A   1      38.345  29.588  30.811  1.00  0.00     0.014 A 
ATOM     35  C   UNL A   1      39.195  29.699  28.151  1.00  0.00     0.010 A 
ATOM     36  C   UNL A   1      39.644  29.212  30.482  1.00  0.00     0.010 A 
ATOM     37  C   UNL A   1      40.082  29.267  29.150  1.00  0.00    -0.014 A 
BRANCH  37  38
ATOM     38  C   UNL A   1      41.478  28.879  28.826  1.00  0.00     0.031 A 
ATOM     39  C   UNL A   1      42.570  29.912  28.839  1.00  0.00     0.074 A 
ATOM     40  C   UNL A   1      41.745  27.614  28.445  1.00  0.00     0.049 A 
ATOM     41  N   UNL A   1      43.828  29.787  28.505  1.00  0.00    -0.248 NA
ATOM     42  C   UNL A   1      42.190  31.272  29.256  1.00  0.00     0.031 C 
ATOM     43  C   UNL A   1      40.759  26.535  28.338  1.00  0.00     0.029 A 
ATOM     44  N   UNL A   1      42.923  27.023  28.064  1.00  0.00    -0.354 N 
ATOM     45  C   UNL A   1      44.386  31.052  28.656  1.00  0.00     0.074 A 
ATOM     46  C   UNL A   1      43.317  31.939  29.061  1.00  0.00     0.031 C 
ATOM     47  C   UNL A   1      41.377  25.413  27.935  1.00  0.00     0.029 A 
ATOM     48  C   UNL A   1      42.793  25.698  27.722  1.00  0.00     0.049 A 
ATOM     49  H   UNL A   1      43.783  27.503  28.037  1.00  0.00     0.167 HD
ATOM     50  C   UNL A   1      45.675  31.433  28.494  1.00  0.00     0.037 A 
ATOM     51  C   UNL A   1      43.708  24.814  27.282  1.00  0.00     0.037 A 
ATOM     52  C   UNL A   1      46.738  30.538  28.117  1.00  0.00     0.049 A 
ATOM     53  C   UNL A   1      45.137  25.254  27.129  1.00  0.00     0.074 A 
ATOM     54  C   UNL A   1      48.088  30.814  27.981  1.00  0.00     0.029 A 
ATOM     55  N   UNL A   1      46.573  29.194  27.819  1.00  0.00    -0.354 N 
ATOM     56  N   UNL A   1      45.660  26.440  27.332  1.00  0.00    -0.248 NA
ATOM     57  C   UNL A   1      46.104  24.237  26.693  1.00  0.00     0.031 C 
ATOM     58  C   UNL A   1      48.734  29.644  27.568  1.00  0.00     0.029 A 
ATOM     59  C   UNL A   1      47.793  28.629  27.487  1.00  0.00     0.049 A 
ATOM     60  H   UNL A   1      45.715  28.713  27.839  1.00  0.00     0.167 HD
ATOM     61  C   UNL A   1      47.019  26.307  27.073  1.00  0.00     0.074 A 
ATOM     62  C   UNL A   1      47.240  24.923  26.707  1.00  0.00     0.031 C 
ATOM     63  C   UNL A   1      47.995  27.246  27.131  1.00  0.00     0.037 A 
BRANCH  50  64
ATOM     64  C   UNL A   1      46.004  32.880  28.737  1.00  0.00     0.058 A 
ATOM     65  C   UNL A   1      45.932  33.831  27.706  1.00  0.00     0.135 A 
ATOM     66  C   UNL A   1      46.380  33.326  30.013  1.00  0.00     0.135 A 
ATOM     67  F   UNL A   1      45.593  33.456  26.461  1.00  0.00    -0.206 F 
ATOM     68  C   UNL A   1      46.254  35.166  27.923  1.00  0.00     0.059 A 
ATOM     69  C   UNL A   1      46.681  34.663  30.260  1.00  0.00     0.059 A 
ATOM     70  F   UNL A   1      46.465  32.459  31.034  1.00  0.00    -0.206 F 
ATOM     71  C   UNL A   1      46.632  35.572  29.204  1.00  0.00     0.060 A 
BRANCH  71  72
ATOM     72  S   UNL A   1      47.057  37.306  29.469  1.00  0.00     0.124 S 
ATOM     73  O   UNL A   1      47.903  37.218  30.656  1.00  0.00    -0.237 OA
ATOM     74  O   UNL A   1      47.741  37.655  28.229  1.00  0.00    -0.237 OA
ATOM     75  O   UNL A   1      45.760  37.946  29.669  1.00  0.00    -0.744 OA
ENDBRANCH  71  72
ENDBRANCH  50  64
BRANCH  51  76
ATOM     76  C   UNL A   1      43.301  23.415  26.982  1.00  0.00     0.058 A 
ATOM     77  C   UNL A   1      43.202  22.963  25.659  1.00  0.00     0.135 A 
ATOM     78  C   UNL A   1      43.028  22.500  28.010  1.00  0.00     0.135 A 
ATOM     79  F   UNL A   1      43.447  23.803  24.642  1.00  0.00    -0.206 F 
ATOM     80  C   UNL A   1      42.835  21.654  25.361  1.00  0.00     0.059 A 
ATOM     81  C   UNL A   1      42.682  21.180  27.739  1.00  0.00     0.059 A 
ATOM     82  F   UNL A   1      43.127  22.880  29.293  1.00  0.00    -0.206 F 
ATOM     83  C   UNL A   1      42.580  20.768  26.411  1.00  0.00     0.060 A 
BRANCH  83  84
ATOM     84  S   UNL A   1      42.163  19.055  26.017  1.00  0.00     0.124 S 
ATOM     85  O   UNL A   1      42.487  18.379  27.268  1.00  0.00    -0.237 OA
ATOM     86  O   UNL A   1      40.743  19.151  25.691  1.00  0.00    -0.237 OA
ATOM     87  O   UNL A   1      43.038  18.751  24.888  1.00  0.00    -0.744 OA
ENDBRANCH  83  84
ENDBRANCH  51  76
BRANCH  63  88
ATOM     88  C   UNL A   1      49.397  26.803  26.822  1.00  0.00     0.058 A 
ATOM     89  C   UNL A   1      50.277  26.387  27.833  1.00  0.00     0.135 A 
ATOM     90  C   UNL A   1      49.847  26.743  25.493  1.00  0.00     0.135 A 
ATOM     91  F   UNL A   1      49.896  26.432  29.120  1.00  0.00    -0.206 F 
ATOM     92  C   UNL A   1      51.562  25.944  27.539  1.00  0.00     0.059 A 
ATOM     93  C   UNL A   1      51.120  26.281  25.174  1.00  0.00     0.059 A 
ATOM     94  F   UNL A   1      49.040  27.120  24.488  1.00  0.00    -0.206 F 
ATOM     95  C   UNL A   1      51.974  25.894  26.205  1.00  0.00     0.060 A 
BRANCH  95  96
ATOM     96  S   UNL A   1      53.632  25.283  25.833  1.00  0.00     0.124 S 
ATOM     97  O   UNL A   1      53.375  23.865  25.600  1.00  0.00    -0.237 OA
ATOM     98  O   UNL A   1      53.997  26.063  24.654  1.00  0.00    -0.237 OA
ATOM     99  O   UNL A   1      54.388  25.595  27.042  1.00  0.00    -0.744 OA
ENDBRANCH  95  96
ENDBRANCH  63  88
ENDBRANCH  37  38
ENDBRANCH  29  32
ENDBRANCH  27  28
ENDBRANCH  26  27
ENDBRANCH   1  26
TORSDOF 17
ENDMDL
MODEL 3
REMARK VINA RESULT:     -10.8      5.041      9.394
REMARK SMILES CC(C)(C(=O)NCCCCNC(=O)c1ccc(-c2c3nc(c(-c4c(F)cc(S(=O)(=O)[O-])cc4F)c4ccc([nH]4)c(-c4c(F)cc(S(=O)(=O)[O-])cc4F)c4nc(c(-c5c(F)cc(S(=O)(=O)[O-])cc5F)c5ccc2[nH]5)C=C4)C=C3)cc1)N1C(=O)/C(=C/c2ccc(C=O)cc2)SC1=S
REMARK SMILES IDX 8 1 7 2 6 3 4 4 5 5 2 7 1 8 3 9 80 10 81 11 94 12 82 13
REMARK SMILES IDX 83 14 93 15 95 16 84 17 85 18 86 19 92 20 87 21 91 22 88 23
REMARK SMILES IDX 89 24 90 25 9 26 10 27 11 28 12 29 13 31 14 32 15 33 79 34
REMARK SMILES IDX 16 35 78 36 17 37 18 38 19 39 72 40 20 41 77 42 71 43 73 44
REMARK SMILES IDX 21 45 76 46 70 47 69 48 22 50 56 51 35 52 55 53 36 54 39 55
REMARK SMILES IDX 54 56 74 57 37 58 38 59 53 61 75 62 40 63 23 64 24 65 33 66
REMARK SMILES IDX 25 67 26 68 32 69 34 70 27 71 28 72 29 73 30 74 31 75 57 76
REMARK SMILES IDX 58 77 67 78 59 79 60 80 66 81 68 82 61 83 62 84 63 85 64 86
REMARK SMILES IDX 65 87 41 88 42 89 51 90 43 91 44 92 50 93 52 94 45 95 46 96
REMARK SMILES IDX 47 97 48 98 49 99
REMARK H PARENT 6 6 11 30 73 49 39 60
REMARK Flexibility Score: inf
ROOT
ATOM      1  C   UNL A   1      33.276  30.503  27.001  1.00  0.00     0.023 C 
ENDROOT
BRANCH   1   2
ATOM      2  C   UNL A   1      32.503  30.097  25.746  1.00  0.00     0.116 C 
BRANCH   2   3
ATOM      3  N   UNL A   1      33.291  29.206  24.916  1.00  0.00    -0.354 N 
ATOM      4  C   UNL A   1      33.112  27.906  24.553  1.00  0.00     0.245 C 
ATOM      5  O   UNL A   1      34.102  27.346  24.065  1.00  0.00    -0.272 OA
ATOM      6  H   UNL A   1      34.106  29.618  24.548  1.00  0.00     0.163 HD
BRANCH   4   7
ATOM      7  C   UNL A   1      31.778  27.123  24.783  1.00  0.00     0.122 C 
ATOM      8  C   UNL A   1      31.390  27.348  26.265  1.00  0.00     0.046 C 
ATOM      9  C   UNL A   1      30.585  27.601  23.929  1.00  0.00     0.046 C 
BRANCH   7  10
ATOM     10  N   UNL A   1      32.097  25.673  24.437  1.00  0.00    -0.278 N 
ATOM     11  C   UNL A   1      32.402  24.740  25.421  1.00  0.00     0.267 C 
ATOM     12  C   UNL A   1      32.181  25.183  23.132  1.00  0.00     0.149 C 
ATOM     13  O   UNL A   1      32.387  24.893  26.636  1.00  0.00    -0.268 OA
ATOM     14  C   UNL A   1      32.718  23.414  24.835  1.00  0.00     0.081 C 
ATOM     15  S   UNL A   1      32.615  23.474  23.135  1.00  0.00    -0.054 SA
ATOM     16  S   UNL A   1      31.927  25.942  21.663  1.00  0.00    -0.052 S 
ATOM     17  C   UNL A   1      32.992  22.355  25.610  1.00  0.00     0.029 C 
BRANCH  17  18
ATOM     18  C   UNL A   1      33.290  21.001  25.138  1.00  0.00    -0.024 A 
ATOM     19  C   UNL A   1      34.621  20.570  25.090  1.00  0.00     0.009 A 
ATOM     20  C   UNL A   1      32.268  20.141  24.716  1.00  0.00     0.009 A 
ATOM     21  C   UNL A   1      34.925  19.279  24.652  1.00  0.00     0.012 A 
ATOM     22  C   UNL A   1      32.568  18.849  24.280  1.00  0.00     0.012 A 
ATOM     23  C   UNL A   1      33.897  18.422  24.254  1.00  0.00     0.014 A 
BRANCH  23  24
ATOM     24  C   UNL A   1      34.205  17.050  23.805  1.00  0.00     0.260 C 
ATOM     25  O   UNL A   1      34.139  16.718  22.627  1.00  0.00    -0.298 OA
ENDBRANCH  23  24
ENDBRANCH  17  18
ENDBRANCH   7  10
ENDBRANCH   4   7
ENDBRANCH   2   3
ENDBRANCH   1   2
BRANCH   1  26
ATOM     26  C   UNL A   1      34.629  29.808  27.167  1.00  0.00     0.023 C 
BRANCH  26  27
ATOM     27  C   UNL A   1      35.640  30.551  28.037  1.00  0.00     0.116 C 
BRANCH  27  28
ATOM     28  N   UNL A   1      35.520  30.233  29.452  1.00  0.00    -0.352 N 
ATOM     29  C   UNL A   1      36.496  29.812  30.323  1.00  0.00     0.251 C 
ATOM     30  H   UNL A   1      34.620  30.335  29.838  1.00  0.00     0.163 HD
ATOM     31  O   UNL A   1      36.199  29.481  31.467  1.00  0.00    -0.269 OA
BRANCH  29  32
ATOM     32  C   UNL A   1      37.895  29.724  29.856  1.00  0.00     0.039 A 
ATOM     33  C   UNL A   1      38.920  29.682  30.803  1.00  0.00     0.014 A 
ATOM     34  C   UNL A   1      38.185  29.642  28.491  1.00  0.00     0.014 A 
ATOM     35  C   UNL A   1      40.237  29.484  30.382  1.00  0.00     0.010 A 
ATOM     36  C   UNL A   1      39.488  29.377  28.080  1.00  0.00     0.010 A 
ATOM     37  C   UNL A   1      40.525  29.292  29.021  1.00  0.00    -0.014 A 
BRANCH  37  38
ATOM     38  C   UNL A   1      41.905  28.991  28.561  1.00  0.00     0.031 A 
ATOM     39  C   UNL A   1      42.267  27.597  28.132  1.00  0.00     0.074 A 
ATOM     40  C   UNL A   1      42.845  29.955  28.604  1.00  0.00     0.049 A 
ATOM     41  N   UNL A   1      43.432  27.119  27.779  1.00  0.00    -0.248 NA
ATOM     42  C   UNL A   1      41.182  26.603  28.124  1.00  0.00     0.031 C 
ATOM     43  C   UNL A   1      42.629  31.332  29.057  1.00  0.00     0.029 A 
ATOM     44  N   UNL A   1      44.177  29.921  28.276  1.00  0.00    -0.354 N 
ATOM     45  C   UNL A   1      43.225  25.769  27.524  1.00  0.00     0.074 A 
ATOM     46  C   UNL A   1      41.834  25.493  27.812  1.00  0.00     0.031 C 
ATOM     47  C   UNL A   1      43.782  32.012  28.962  1.00  0.00     0.029 A 
ATOM     48  C   UNL A   1      44.827  31.116  28.476  1.00  0.00     0.049 A 
ATOM     49  H   UNL A   1      44.627  29.116  27.930  1.00  0.00     0.167 HD
ATOM     50  C   UNL A   1      44.107  24.848  27.068  1.00  0.00     0.037 A 
ATOM     51  C   UNL A   1      46.118  31.451  28.294  1.00  0.00     0.037 A 
ATOM     52  C   UNL A   1      45.483  25.136  26.757  1.00  0.00     0.049 A 
ATOM     53  C   UNL A   1      47.076  30.418  27.769  1.00  0.00     0.074 A 
ATOM     54  C   UNL A   1      46.444  24.286  26.238  1.00  0.00     0.029 A 
ATOM     55  N   UNL A   1      46.093  26.368  26.935  1.00  0.00    -0.354 N 
ATOM     56  N   UNL A   1      46.850  29.159  27.477  1.00  0.00    -0.248 NA
ATOM     57  C   UNL A   1      48.462  30.850  27.542  1.00  0.00     0.031 C 
ATOM     58  C   UNL A   1      47.645  24.996  26.132  1.00  0.00     0.029 A 
ATOM     59  C   UNL A   1      47.421  26.300  26.547  1.00  0.00     0.049 A 
ATOM     60  H   UNL A   1      45.649  27.173  27.286  1.00  0.00     0.167 HD
ATOM     61  C   UNL A   1      48.058  28.654  27.009  1.00  0.00     0.074 A 
ATOM     62  C   UNL A   1      49.009  29.746  27.047  1.00  0.00     0.031 C 
ATOM     63  C   UNL A   1      48.353  27.400  26.587  1.00  0.00     0.037 A 
BRANCH  50  64
ATOM     64  C   UNL A   1      43.603  23.445  26.870  1.00  0.00     0.058 A 
ATOM     65  C   UNL A   1      43.360  22.928  25.587  1.00  0.00     0.135 A 
ATOM     66  C   UNL A   1      43.376  22.603  27.969  1.00  0.00     0.135 A 
ATOM     67  F   UNL A   1      43.545  23.696  24.501  1.00  0.00    -0.206 F 
ATOM     68  C   UNL A   1      42.875  21.638  25.403  1.00  0.00     0.059 A 
ATOM     69  C   UNL A   1      42.917  21.298  27.807  1.00  0.00     0.059 A 
ATOM     70  F   UNL A   1      43.592  23.047  29.217  1.00  0.00    -0.206 F 
ATOM     71  C   UNL A   1      42.653  20.831  26.520  1.00  0.00     0.060 A 
BRANCH  71  72
ATOM     72  S   UNL A   1      42.015  19.162  26.266  1.00  0.00     0.124 S 
ATOM     73  O   UNL A   1      42.156  18.592  27.602  1.00  0.00    -0.237 OA
ATOM     74  O   UNL A   1      40.646  19.413  25.826  1.00  0.00    -0.237 OA
ATOM     75  O   UNL A   1      42.905  18.609  25.250  1.00  0.00    -0.744 OA
ENDBRANCH  71  72
ENDBRANCH  50  64
BRANCH  51  76
ATOM     76  C   UNL A   1      46.571  32.837  28.586  1.00  0.00     0.058 A 
ATOM     77  C   UNL A   1      47.093  33.173  29.843  1.00  0.00     0.135 A 
ATOM     78  C   UNL A   1      46.515  33.843  27.609  1.00  0.00     0.135 A 
ATOM     79  F   UNL A   1      47.162  32.247  30.811  1.00  0.00    -0.206 F 
ATOM     80  C   UNL A   1      47.534  34.462  30.129  1.00  0.00     0.059 A 
ATOM     81  C   UNL A   1      46.970  35.133  27.863  1.00  0.00     0.059 A 
ATOM     82  F   UNL A   1      46.041  33.565  26.385  1.00  0.00    -0.206 F 
ATOM     83  C   UNL A   1      47.470  35.435  29.129  1.00  0.00     0.060 A 
BRANCH  83  84
ATOM     84  S   UNL A   1      48.100  37.090  29.489  1.00  0.00     0.124 S 
ATOM     85  O   UNL A   1      48.353  37.605  28.149  1.00  0.00    -0.237 OA
ATOM     86  O   UNL A   1      46.981  37.695  30.206  1.00  0.00    -0.237 OA
ATOM     87  O   UNL A   1      49.284  36.826  30.301  1.00  0.00    -0.744 OA
ENDBRANCH  83  84
ENDBRANCH  51  76
BRANCH  63  88
ATOM     88  C   UNL A   1      49.752  27.146  26.103  1.00  0.00     0.058 A 
ATOM     89  C   UNL A   1      50.087  27.228  24.743  1.00  0.00     0.135 A 
ATOM     90  C   UNL A   1      50.782  26.873  27.019  1.00  0.00     0.135 A 
ATOM     91  F   UNL A   1      49.137  27.481  23.828  1.00  0.00    -0.206 F 
ATOM     92  C   UNL A   1      51.391  27.027  24.303  1.00  0.00     0.059 A 
ATOM     93  C   UNL A   1      52.097  26.692  26.603  1.00  0.00     0.059 A 
ATOM     94  F   UNL A   1      50.516  26.795  28.332  1.00  0.00    -0.206 F 
ATOM     95  C   UNL A   1      52.390  26.760  25.242  1.00  0.00     0.060 A 
BRANCH  95  96
ATOM     96  S   UNL A   1      54.086  26.538  24.664  1.00  0.00     0.124 S 
ATOM     97  O   UNL A   1      54.849  27.132  25.758  1.00  0.00    -0.237 OA
ATOM     98  O   UNL A   1      54.187  25.088  24.535  1.00  0.00    -0.237 OA
ATOM     99  O   UNL A   1      54.114  27.276  23.405  1.00  0.00    -0.744 OA
ENDBRANCH  95  96
ENDBRANCH  63  88
ENDBRANCH  37  38
ENDBRANCH  29  32
ENDBRANCH  27  28
ENDBRANCH  26  27
ENDBRANCH   1  26
TORSDOF 17
ENDMDL
