MODEL 1
REMARK VINA RESULT:     -12.4      0.000      0.000
REMARK SMILES CCCN1CCC[C@@]2(CCN(c3ccc(C(=O)NCCCCNC(=O)c4ccc(-c5c6nc(c(-c7c(F)cc(S(=O)(=O)[O-])cc7F)c7ccc([nH]7)c(-c7c(F)cc(S(=O)(=O)[O-])cc7F)c7nc(c(-c8c(F)cc(S(=O)(=O)[O-])cc8F)c8ccc5[nH]8)C=C7)C=C6)cc4)cn3)C2)C1=O
REMARK SMILES IDX 20 1 19 2 18 3 16 4 17 5 15 7 12 8 13 9 93 10 14 11 92 12
REMARK SMILES IDX 11 13 4 14 5 15 95 16 6 17 8 18 96 19 7 20 9 21 94 22 10 23
REMARK SMILES IDX 3 24 2 25 1 26 21 27 22 28 23 29 24 30 25 32 26 33 27 34
REMARK SMILES IDX 91 35 28 36 90 37 29 38 30 39 31 40 84 41 32 42 89 43 83 44
REMARK SMILES IDX 85 45 33 46 88 47 82 48 81 49 34 51 68 52 47 53 67 54 48 55
REMARK SMILES IDX 51 56 66 57 86 58 49 59 50 60 65 62 87 63 52 64 35 65 36 66
REMARK SMILES IDX 45 67 37 68 38 69 44 70 46 71 39 72 40 73 41 74 42 75 43 76
REMARK SMILES IDX 69 77 70 78 79 79 71 80 72 81 78 82 80 83 73 84 74 85 75 86
REMARK SMILES IDX 76 87 77 88 53 89 54 90 63 91 55 92 56 93 62 94 64 95 57 96
REMARK SMILES IDX 58 97 59 98 60 99 61 100
REMARK H PARENT 18 6 23 31 85 50 51 61
REMARK Flexibility Score: inf
ROOT
ATOM      1  C   UNL A   1      39.532  21.519  26.165  1.00  0.00     0.023 C 
ENDROOT
BRANCH   1   2
ATOM      2  C   UNL A   1      38.257  21.920  25.418  1.00  0.00     0.116 C 
BRANCH   2   3
ATOM      3  N   UNL A   1      37.410  20.770  25.161  1.00  0.00    -0.352 N 
ATOM      4  C   UNL A   1      36.046  20.608  25.145  1.00  0.00     0.252 C 
ATOM      5  O   UNL A   1      35.607  19.508  24.807  1.00  0.00    -0.269 OA
ATOM      6  H   UNL A   1      37.910  19.946  24.959  1.00  0.00     0.163 HD
BRANCH   4   7
ATOM      7  C   UNL A   1      35.078  21.685  25.482  1.00  0.00     0.058 A 
ATOM      8  C   UNL A   1      33.243  23.750  25.840  1.00  0.00     0.128 A 
ATOM      9  C   UNL A   1      33.890  23.188  26.934  1.00  0.00     0.048 A 
ATOM     10  N   UNL A   1      33.450  23.284  24.597  1.00  0.00    -0.239 NA
ATOM     11  C   UNL A   1      34.777  22.131  26.759  1.00  0.00     0.019 A 
ATOM     12  C   UNL A   1      34.369  22.284  24.442  1.00  0.00     0.127 A 
BRANCH   8  13
ATOM     13  N   UNL A   1      32.380  24.786  26.066  1.00  0.00    -0.356 N 
ATOM     14  N   UNL A   1      32.644  28.671  24.731  1.00  0.00    -0.342 N 
ATOM     15  C   UNL A   1      32.872  29.644  25.795  1.00  0.00     0.119 C 
ATOM     16  C   UNL A   1      31.601  27.770  24.925  1.00  0.00     0.230 C 
ATOM     17  C   UNL A   1      32.853  29.038  27.195  1.00  0.00     0.023 C 
ATOM     18  C   UNL A   1      31.649  27.037  26.264  1.00  0.00     0.069 C 
ATOM     19  O   UNL A   1      30.711  27.592  24.099  1.00  0.00    -0.274 OA
ATOM     20  C   UNL A   1      31.662  28.091  27.375  1.00  0.00     0.021 C 
ATOM     21  C   UNL A   1      30.482  26.034  26.365  1.00  0.00     0.040 C 
ATOM     22  C   UNL A   1      32.896  26.121  26.328  1.00  0.00     0.135 C 
ATOM     23  C   UNL A   1      31.013  24.813  25.600  1.00  0.00     0.119 C 
BRANCH  14  24
ATOM     24  C   UNL A   1      32.980  29.072  23.364  1.00  0.00     0.119 C 
BRANCH  24  25
ATOM     25  C   UNL A   1      33.999  28.145  22.677  1.00  0.00     0.018 C 
ATOM     26  C   UNL A   1      33.373  27.058  21.811  1.00  0.00     0.006 C 
ENDBRANCH  24  25
ENDBRANCH  14  24
ENDBRANCH   8  13
ENDBRANCH   4   7
ENDBRANCH   2   3
ENDBRANCH   1   2
BRANCH   1  27
ATOM     27  C   UNL A   1      39.918  22.456  27.312  1.00  0.00     0.023 C 
BRANCH  27  28
ATOM     28  C   UNL A   1      41.333  23.021  27.236  1.00  0.00     0.116 C 
BRANCH  28  29
ATOM     29  N   UNL A   1      41.556  23.874  26.079  1.00  0.00    -0.352 N 
ATOM     30  C   UNL A   1      41.628  25.248  26.036  1.00  0.00     0.251 C 
ATOM     31  H   UNL A   1      41.669  23.411  25.217  1.00  0.00     0.163 HD
ATOM     32  O   UNL A   1      41.731  25.829  24.964  1.00  0.00    -0.269 OA
BRANCH  30  33
ATOM     33  C   UNL A   1      41.530  26.010  27.299  1.00  0.00     0.039 A 
ATOM     34  C   UNL A   1      42.619  26.788  27.700  1.00  0.00     0.014 A 
ATOM     35  C   UNL A   1      40.351  25.999  28.048  1.00  0.00     0.014 A 
ATOM     36  C   UNL A   1      42.494  27.623  28.811  1.00  0.00     0.010 A 
ATOM     37  C   UNL A   1      40.210  26.873  29.122  1.00  0.00     0.010 A 
ATOM     38  C   UNL A   1      41.274  27.705  29.503  1.00  0.00    -0.014 A 
BRANCH  38  39
ATOM     39  C   UNL A   1      41.078  28.677  30.608  1.00  0.00     0.031 A 
ATOM     40  C   UNL A   1      41.921  28.586  31.849  1.00  0.00     0.074 A 
ATOM     41  C   UNL A   1      40.092  29.591  30.519  1.00  0.00     0.049 A 
ATOM     42  N   UNL A   1      41.826  29.269  32.960  1.00  0.00    -0.248 NA
ATOM     43  C   UNL A   1      42.997  27.583  31.849  1.00  0.00     0.031 C 
ATOM     44  C   UNL A   1      39.181  29.750  29.382  1.00  0.00     0.029 A 
ATOM     45  N   UNL A   1      39.676  30.551  31.409  1.00  0.00    -0.354 N 
ATOM     46  C   UNL A   1      42.823  28.776  33.793  1.00  0.00     0.074 A 
ATOM     47  C   UNL A   1      43.482  27.705  33.077  1.00  0.00     0.031 C 
ATOM     48  C   UNL A   1      38.325  30.752  29.638  1.00  0.00     0.029 A 
ATOM     49  C   UNL A   1      38.598  31.284  30.969  1.00  0.00     0.049 A 
ATOM     50  H   UNL A   1      40.110  30.700  32.280  1.00  0.00     0.167 HD
ATOM     51  C   UNL A   1      43.172  29.196  35.032  1.00  0.00     0.037 A 
ATOM     52  C   UNL A   1      37.901  32.262  31.578  1.00  0.00     0.037 A 
ATOM     53  C   UNL A   1      42.529  30.277  35.732  1.00  0.00     0.049 A 
ATOM     54  C   UNL A   1      38.301  32.697  32.961  1.00  0.00     0.074 A 
ATOM     55  C   UNL A   1      42.834  30.797  36.977  1.00  0.00     0.029 A 
ATOM     56  N   UNL A   1      41.457  31.009  35.244  1.00  0.00    -0.354 N 
ATOM     57  N   UNL A   1      39.273  32.245  33.717  1.00  0.00    -0.248 NA
ATOM     58  C   UNL A   1      37.510  33.772  33.577  1.00  0.00     0.031 C 
ATOM     59  C   UNL A   1      41.929  31.827  37.255  1.00  0.00     0.029 A 
ATOM     60  C   UNL A   1      41.082  31.971  36.167  1.00  0.00     0.049 A 
ATOM     61  H   UNL A   1      41.026  30.866  34.370  1.00  0.00     0.167 HD
ATOM     62  C   UNL A   1      39.226  32.998  34.886  1.00  0.00     0.074 A 
ATOM     63  C   UNL A   1      38.138  33.941  34.733  1.00  0.00     0.031 C 
ATOM     64  C   UNL A   1      40.009  32.912  35.988  1.00  0.00     0.037 A 
BRANCH  51  65
ATOM     65  C   UNL A   1      44.322  28.503  35.705  1.00  0.00     0.058 A 
ATOM     66  C   UNL A   1      44.112  27.396  36.543  1.00  0.00     0.135 A 
ATOM     67  C   UNL A   1      45.646  28.903  35.465  1.00  0.00     0.135 A 
ATOM     68  F   UNL A   1      42.864  26.985  36.819  1.00  0.00    -0.206 F 
ATOM     69  C   UNL A   1      45.174  26.717  37.130  1.00  0.00     0.059 A 
ATOM     70  C   UNL A   1      46.726  28.225  36.024  1.00  0.00     0.059 A 
ATOM     71  F   UNL A   1      45.900  29.957  34.675  1.00  0.00    -0.206 F 
ATOM     72  C   UNL A   1      46.478  27.138  36.862  1.00  0.00     0.060 A 
BRANCH  72  73
ATOM     73  S   UNL A   1      47.846  26.227  37.610  1.00  0.00     0.124 S 
ATOM     74  O   UNL A   1      48.974  26.686  36.807  1.00  0.00    -0.237 OA
ATOM     75  O   UNL A   1      47.818  26.698  38.991  1.00  0.00    -0.237 OA
ATOM     76  O   UNL A   1      47.467  24.830  37.419  1.00  0.00    -0.744 OA
ENDBRANCH  72  73
ENDBRANCH  51  65
BRANCH  52  77
ATOM     77  C   UNL A   1      36.750  32.907  30.890  1.00  0.00     0.058 A 
ATOM     78  C   UNL A   1      36.955  33.814  29.840  1.00  0.00     0.135 A 
ATOM     79  C   UNL A   1      35.429  32.656  31.289  1.00  0.00     0.135 A 
ATOM     80  F   UNL A   1      38.202  34.089  29.427  1.00  0.00    -0.206 F 
ATOM     81  C   UNL A   1      35.894  34.475  29.231  1.00  0.00     0.059 A 
ATOM     82  C   UNL A   1      34.349  33.287  30.680  1.00  0.00     0.059 A 
ATOM     83  F   UNL A   1      35.178  31.782  32.278  1.00  0.00    -0.206 F 
ATOM     84  C   UNL A   1      34.594  34.210  29.664  1.00  0.00     0.060 A 
BRANCH  84  85
ATOM     85  S   UNL A   1      33.219  35.067  28.865  1.00  0.00     0.124 S 
ATOM     86  O   UNL A   1      32.302  35.251  29.984  1.00  0.00    -0.237 OA
ATOM     87  O   UNL A   1      33.861  36.276  28.358  1.00  0.00    -0.237 OA
ATOM     88  O   UNL A   1      32.788  34.120  27.841  1.00  0.00    -0.744 OA
ENDBRANCH  84  85
ENDBRANCH  52  77
BRANCH  64  89
ATOM     89  C   UNL A   1      39.741  33.885  37.101  1.00  0.00     0.058 A 
ATOM     90  C   UNL A   1      38.825  33.594  38.123  1.00  0.00     0.135 A 
ATOM     91  C   UNL A   1      40.453  35.092  37.177  1.00  0.00     0.135 A 
ATOM     92  F   UNL A   1      38.115  32.455  38.091  1.00  0.00    -0.206 F 
ATOM     93  C   UNL A   1      38.612  34.476  39.178  1.00  0.00     0.059 A 
ATOM     94  C   UNL A   1      40.272  35.978  38.233  1.00  0.00     0.059 A 
ATOM     95  F   UNL A   1      41.347  35.411  36.227  1.00  0.00    -0.206 F 
ATOM     96  C   UNL A   1      39.343  35.665  39.225  1.00  0.00     0.060 A 
BRANCH  96  97
ATOM     97  S   UNL A   1      39.094  36.780  40.623  1.00  0.00     0.124 S 
ATOM     98  O   UNL A   1      38.406  35.913  41.573  1.00  0.00    -0.237 OA
ATOM     99  O   UNL A   1      40.461  37.150  40.977  1.00  0.00    -0.237 OA
ATOM    100  O   UNL A   1      38.288  37.858  40.057  1.00  0.00    -0.744 OA
ENDBRANCH  96  97
ENDBRANCH  64  89
ENDBRANCH  38  39
ENDBRANCH  30  33
ENDBRANCH  28  29
ENDBRANCH  27  28
ENDBRANCH   1  27
TORSDOF 17
ENDMDL
MODEL 2
REMARK VINA RESULT:     -12.2      0.382      8.096
REMARK SMILES CCCN1CCC[C@@]2(CCN(c3ccc(C(=O)NCCCCNC(=O)c4ccc(-c5c6nc(c(-c7c(F)cc(S(=O)(=O)[O-])cc7F)c7ccc([nH]7)c(-c7c(F)cc(S(=O)(=O)[O-])cc7F)c7nc(c(-c8c(F)cc(S(=O)(=O)[O-])cc8F)c8ccc5[nH]8)C=C7)C=C6)cc4)cn3)C2)C1=O
REMARK SMILES IDX 20 1 19 2 18 3 16 4 17 5 15 7 12 8 13 9 93 10 14 11 92 12
REMARK SMILES IDX 11 13 4 14 5 15 95 16 6 17 8 18 96 19 7 20 9 21 94 22 10 23
REMARK SMILES IDX 3 24 2 25 1 26 21 27 22 28 23 29 24 30 25 32 26 33 27 34
REMARK SMILES IDX 91 35 28 36 90 37 29 38 30 39 31 40 84 41 32 42 89 43 83 44
REMARK SMILES IDX 85 45 33 46 88 47 82 48 81 49 34 51 68 52 47 53 67 54 48 55
REMARK SMILES IDX 51 56 66 57 86 58 49 59 50 60 65 62 87 63 52 64 35 65 36 66
REMARK SMILES IDX 45 67 37 68 38 69 44 70 46 71 39 72 40 73 41 74 42 75 43 76
REMARK SMILES IDX 69 77 70 78 79 79 71 80 72 81 78 82 80 83 73 84 74 85 75 86
REMARK SMILES IDX 76 87 77 88 53 89 54 90 63 91 55 92 56 93 62 94 64 95 57 96
REMARK SMILES IDX 58 97 59 98 60 99 61 100
REMARK H PARENT 18 6 23 31 85 50 51 61
REMARK Flexibility Score: inf
ROOT
ATOM      1  C   UNL A   1      39.462  21.695  26.180  1.00  0.00     0.023 C 
ENDROOT
BRANCH   1   2
ATOM      2  C   UNL A   1      38.243  22.040  25.321  1.00  0.00     0.116 C 
BRANCH   2   3
ATOM      3  N   UNL A   1      37.416  20.872  25.081  1.00  0.00    -0.352 N 
ATOM      4  C   UNL A   1      36.055  20.683  25.073  1.00  0.00     0.252 C 
ATOM      5  O   UNL A   1      35.636  19.572  24.750  1.00  0.00    -0.269 OA
ATOM      6  H   UNL A   1      37.931  20.055  24.886  1.00  0.00     0.163 HD
BRANCH   4   7
ATOM      7  C   UNL A   1      35.070  21.746  25.402  1.00  0.00     0.058 A 
ATOM      8  C   UNL A   1      33.166  23.752  25.746  1.00  0.00     0.128 A 
ATOM      9  C   UNL A   1      33.963  23.349  26.811  1.00  0.00     0.048 A 
ATOM     10  N   UNL A   1      33.262  23.157  24.545  1.00  0.00    -0.239 NA
ATOM     11  C   UNL A   1      34.886  22.321  26.650  1.00  0.00     0.019 A 
ATOM     12  C   UNL A   1      34.215  22.190  24.393  1.00  0.00     0.127 A 
BRANCH   8  13
ATOM     13  N   UNL A   1      32.274  24.765  25.958  1.00  0.00    -0.356 N 
ATOM     14  N   UNL A   1      32.507  28.679  24.704  1.00  0.00    -0.342 N 
ATOM     15  C   UNL A   1      32.675  29.637  25.792  1.00  0.00     0.119 C 
ATOM     16  C   UNL A   1      31.477  27.754  24.841  1.00  0.00     0.230 C 
ATOM     17  C   UNL A   1      32.616  29.005  27.180  1.00  0.00     0.023 C 
ATOM     18  C   UNL A   1      31.490  26.998  26.168  1.00  0.00     0.069 C 
ATOM     19  O   UNL A   1      30.622  27.573  23.980  1.00  0.00    -0.274 OA
ATOM     20  C   UNL A   1      31.439  28.031  27.298  1.00  0.00     0.021 C 
ATOM     21  C   UNL A   1      30.341  25.970  26.208  1.00  0.00     0.040 C 
ATOM     22  C   UNL A   1      32.752  26.106  26.263  1.00  0.00     0.135 C 
ATOM     23  C   UNL A   1      30.926  24.774  25.441  1.00  0.00     0.119 C 
BRANCH  14  24
ATOM     24  C   UNL A   1      32.885  29.112  23.357  1.00  0.00     0.119 C 
BRANCH  24  25
ATOM     25  C   UNL A   1      34.025  28.286  22.735  1.00  0.00     0.018 C 
ATOM     26  C   UNL A   1      33.555  27.086  21.919  1.00  0.00     0.006 C 
ENDBRANCH  24  25
ENDBRANCH  14  24
ENDBRANCH   8  13
ENDBRANCH   4   7
ENDBRANCH   2   3
ENDBRANCH   1   2
BRANCH   1  27
ATOM     27  C   UNL A   1      39.822  22.752  27.227  1.00  0.00     0.023 C 
BRANCH  27  28
ATOM     28  C   UNL A   1      41.233  23.323  27.111  1.00  0.00     0.116 C 
BRANCH  28  29
ATOM     29  N   UNL A   1      41.382  24.282  26.028  1.00  0.00    -0.352 N 
ATOM     30  C   UNL A   1      41.407  25.657  26.106  1.00  0.00     0.251 C 
ATOM     31  H   UNL A   1      41.479  23.901  25.125  1.00  0.00     0.163 HD
ATOM     32  O   UNL A   1      41.450  26.333  25.087  1.00  0.00    -0.269 OA
BRANCH  30  33
ATOM     33  C   UNL A   1      41.331  26.300  27.434  1.00  0.00     0.039 A 
ATOM     34  C   UNL A   1      42.405  27.081  27.865  1.00  0.00     0.014 A 
ATOM     35  C   UNL A   1      40.182  26.176  28.221  1.00  0.00     0.014 A 
ATOM     36  C   UNL A   1      42.293  27.810  29.050  1.00  0.00     0.010 A 
ATOM     37  C   UNL A   1      40.052  26.946  29.373  1.00  0.00     0.010 A 
ATOM     38  C   UNL A   1      41.099  27.782  29.789  1.00  0.00    -0.014 A 
BRANCH  38  39
ATOM     39  C   UNL A   1      40.910  28.644  30.983  1.00  0.00     0.031 A 
ATOM     40  C   UNL A   1      39.869  29.729  30.972  1.00  0.00     0.074 A 
ATOM     41  C   UNL A   1      41.728  28.495  32.044  1.00  0.00     0.049 A 
ATOM     42  N   UNL A   1      39.630  30.649  31.869  1.00  0.00    -0.248 NA
ATOM     43  C   UNL A   1      38.996  29.800  29.789  1.00  0.00     0.031 C 
ATOM     44  C   UNL A   1      42.803  27.505  32.154  1.00  0.00     0.029 A 
ATOM     45  N   UNL A   1      41.795  29.187  33.227  1.00  0.00    -0.354 N 
ATOM     46  C   UNL A   1      38.586  31.412  31.360  1.00  0.00     0.074 A 
ATOM     47  C   UNL A   1      38.269  30.876  30.054  1.00  0.00     0.031 C 
ATOM     48  C   UNL A   1      43.413  27.646  33.342  1.00  0.00     0.029 A 
ATOM     49  C   UNL A   1      42.801  28.757  34.063  1.00  0.00     0.049 A 
ATOM     50  H   UNL A   1      41.182  29.922  33.457  1.00  0.00     0.167 HD
ATOM     51  C   UNL A   1      37.938  32.449  31.940  1.00  0.00     0.037 A 
ATOM     52  C   UNL A   1      43.192  29.217  35.267  1.00  0.00     0.037 A 
ATOM     53  C   UNL A   1      38.242  32.965  33.249  1.00  0.00     0.049 A 
ATOM     54  C   UNL A   1      42.463  30.383  35.879  1.00  0.00     0.074 A 
ATOM     55  C   UNL A   1      37.618  33.992  33.936  1.00  0.00     0.029 A 
ATOM     56  N   UNL A   1      39.251  32.488  34.073  1.00  0.00    -0.354 N 
ATOM     57  N   UNL A   1      41.452  31.066  35.399  1.00  0.00    -0.248 NA
ATOM     58  C   UNL A   1      42.928  30.841  37.196  1.00  0.00     0.031 C 
ATOM     59  C   UNL A   1      38.266  34.154  35.164  1.00  0.00     0.029 A 
ATOM     60  C   UNL A   1      39.272  33.205  35.257  1.00  0.00     0.049 A 
ATOM     61  H   UNL A   1      39.862  31.749  33.848  1.00  0.00     0.167 HD
ATOM     62  C   UNL A   1      41.144  32.017  36.365  1.00  0.00     0.074 A 
ATOM     63  C   UNL A   1      42.067  31.815  37.462  1.00  0.00     0.031 C 
ATOM     64  C   UNL A   1      40.187  32.977  36.344  1.00  0.00     0.037 A 
BRANCH  51  65
ATOM     65  C   UNL A   1      36.811  33.083  31.175  1.00  0.00     0.058 A 
ATOM     66  C   UNL A   1      37.061  33.903  30.063  1.00  0.00     0.135 A 
ATOM     67  C   UNL A   1      35.474  32.821  31.511  1.00  0.00     0.135 A 
ATOM     68  F   UNL A   1      38.322  34.199  29.711  1.00  0.00    -0.206 F 
ATOM     69  C   UNL A   1      36.022  34.453  29.319  1.00  0.00     0.059 A 
ATOM     70  C   UNL A   1      34.419  33.343  30.767  1.00  0.00     0.059 A 
ATOM     71  F   UNL A   1      35.182  32.046  32.568  1.00  0.00    -0.206 F 
ATOM     72  C   UNL A   1      34.705  34.164  29.677  1.00  0.00     0.060 A 
BRANCH  72  73
ATOM     73  S   UNL A   1      33.370  34.863  28.682  1.00  0.00     0.124 S 
ATOM     74  O   UNL A   1      32.344  35.095  29.693  1.00  0.00    -0.237 OA
ATOM     75  O   UNL A   1      33.991  36.062  28.124  1.00  0.00    -0.237 OA
ATOM     76  O   UNL A   1      33.076  33.807  27.719  1.00  0.00    -0.744 OA
ENDBRANCH  72  73
ENDBRANCH  51  65
BRANCH  52  77
ATOM     77  C   UNL A   1      44.330  28.582  35.983  1.00  0.00     0.058 A 
ATOM     78  C   UNL A   1      45.649  29.001  35.753  1.00  0.00     0.135 A 
ATOM     79  C   UNL A   1      44.127  27.525  36.883  1.00  0.00     0.135 A 
ATOM     80  F   UNL A   1      45.892  30.005  34.897  1.00  0.00    -0.206 F 
ATOM     81  C   UNL A   1      46.730  28.374  36.363  1.00  0.00     0.059 A 
ATOM     82  C   UNL A   1      45.190  26.897  37.524  1.00  0.00     0.059 A 
ATOM     83  F   UNL A   1      42.883  27.099  37.151  1.00  0.00    -0.206 F 
ATOM     84  C   UNL A   1      46.490  27.318  37.243  1.00  0.00     0.060 A 
BRANCH  84  85
ATOM     85  S   UNL A   1      47.897  26.511  38.038  1.00  0.00     0.124 S 
ATOM     86  O   UNL A   1      47.538  25.104  37.906  1.00  0.00    -0.237 OA
ATOM     87  O   UNL A   1      49.017  26.965  37.220  1.00  0.00    -0.237 OA
ATOM     88  O   UNL A   1      47.864  27.048  39.395  1.00  0.00    -0.744 OA
ENDBRANCH  84  85
ENDBRANCH  52  77
BRANCH  64  89
ATOM     89  C   UNL A   1      40.066  33.857  37.555  1.00  0.00     0.058 A 
ATOM     90  C   UNL A   1      40.808  35.042  37.676  1.00  0.00     0.135 A 
ATOM     91  C   UNL A   1      39.156  33.542  38.575  1.00  0.00     0.135 A 
ATOM     92  F   UNL A   1      41.697  35.382  36.729  1.00  0.00    -0.206 F 
ATOM     93  C   UNL A   1      40.661  35.879  38.776  1.00  0.00     0.059 A 
ATOM     94  C   UNL A   1      38.976  34.375  39.674  1.00  0.00     0.059 A 
ATOM     95  F   UNL A   1      38.417  32.423  38.500  1.00  0.00    -0.206 F 
ATOM     96  C   UNL A   1      39.740  35.538  39.769  1.00  0.00     0.060 A 
BRANCH  96  97
ATOM     97  S   UNL A   1      39.522  36.656  41.170  1.00  0.00     0.124 S 
ATOM     98  O   UNL A   1      38.834  37.781  40.546  1.00  0.00    -0.237 OA
ATOM     99  O   UNL A   1      38.721  35.854  42.090  1.00  0.00    -0.237 OA
ATOM    100  O   UNL A   1      40.889  36.920  41.609  1.00  0.00    -0.744 OA
ENDBRANCH  96  97
ENDBRANCH  64  89
ENDBRANCH  38  39
ENDBRANCH  30  33
ENDBRANCH  28  29
ENDBRANCH  27  28
ENDBRANCH   1  27
TORSDOF 17
ENDMDL
MODEL 3
REMARK VINA RESULT:     -12.1      2.803      3.816
REMARK SMILES CCCN1CCC[C@@]2(CCN(c3ccc(C(=O)NCCCCNC(=O)c4ccc(-c5c6nc(c(-c7c(F)cc(S(=O)(=O)[O-])cc7F)c7ccc([nH]7)c(-c7c(F)cc(S(=O)(=O)[O-])cc7F)c7nc(c(-c8c(F)cc(S(=O)(=O)[O-])cc8F)c8ccc5[nH]8)C=C7)C=C6)cc4)cn3)C2)C1=O
REMARK SMILES IDX 20 1 19 2 18 3 16 4 17 5 15 7 12 8 13 9 93 10 14 11 92 12
REMARK SMILES IDX 11 13 4 14 5 15 95 16 6 17 8 18 96 19 7 20 9 21 94 22 10 23
REMARK SMILES IDX 3 24 2 25 1 26 21 27 22 28 23 29 24 30 25 32 26 33 27 34
REMARK SMILES IDX 91 35 28 36 90 37 29 38 30 39 31 40 84 41 32 42 89 43 83 44
REMARK SMILES IDX 85 45 33 46 88 47 82 48 81 49 34 51 68 52 47 53 67 54 48 55
REMARK SMILES IDX 51 56 66 57 86 58 49 59 50 60 65 62 87 63 52 64 35 65 36 66
REMARK SMILES IDX 45 67 37 68 38 69 44 70 46 71 39 72 40 73 41 74 42 75 43 76
REMARK SMILES IDX 69 77 70 78 79 79 71 80 72 81 78 82 80 83 73 84 74 85 75 86
REMARK SMILES IDX 76 87 77 88 53 89 54 90 63 91 55 92 56 93 62 94 64 95 57 96
REMARK SMILES IDX 58 97 59 98 60 99 61 100
REMARK H PARENT 18 6 23 31 85 50 51 61
REMARK Flexibility Score: inf
ROOT
ATOM      1  C   UNL A   1      35.587  21.641  26.203  1.00  0.00     0.023 C 
ENDROOT
BRANCH   1   2
ATOM      2  C   UNL A   1      34.474  21.200  27.159  1.00  0.00     0.116 C 
BRANCH   2   3
ATOM      3  N   UNL A   1      33.473  20.403  26.474  1.00  0.00    -0.352 N 
ATOM      4  C   UNL A   1      32.665  20.658  25.392  1.00  0.00     0.252 C 
ATOM      5  O   UNL A   1      31.958  19.737  24.981  1.00  0.00    -0.269 OA
ATOM      6  H   UNL A   1      33.349  19.506  26.859  1.00  0.00     0.163 HD
BRANCH   4   7
ATOM      7  C   UNL A   1      32.620  21.961  24.680  1.00  0.00     0.058 A 
ATOM      8  C   UNL A   1      32.370  24.496  23.550  1.00  0.00     0.128 A 
ATOM      9  C   UNL A   1      32.994  23.472  22.848  1.00  0.00     0.048 A 
ATOM     10  N   UNL A   1      31.916  24.303  24.801  1.00  0.00    -0.239 NA
ATOM     11  C   UNL A   1      33.153  22.218  23.427  1.00  0.00     0.019 A 
ATOM     12  C   UNL A   1      32.031  23.047  25.327  1.00  0.00     0.127 A 
BRANCH   8  13
ATOM     13  N   UNL A   1      32.239  25.711  22.937  1.00  0.00    -0.356 N 
ATOM     14  N   UNL A   1      31.958  29.433  24.672  1.00  0.00    -0.342 N 
ATOM     15  C   UNL A   1      30.657  30.068  24.494  1.00  0.00     0.119 C 
ATOM     16  C   UNL A   1      32.568  28.929  23.527  1.00  0.00     0.230 C 
ATOM     17  C   UNL A   1      29.703  29.275  23.605  1.00  0.00     0.023 C 
ATOM     18  C   UNL A   1      31.675  28.006  22.700  1.00  0.00     0.069 C 
ATOM     19  O   UNL A   1      33.715  29.214  23.200  1.00  0.00    -0.274 OA
ATOM     20  C   UNL A   1      30.405  28.782  22.337  1.00  0.00     0.021 C 
ATOM     21  C   UNL A   1      32.450  27.467  21.481  1.00  0.00     0.040 C 
ATOM     22  C   UNL A   1      31.352  26.719  23.498  1.00  0.00     0.135 C 
ATOM     23  C   UNL A   1      33.239  26.289  22.071  1.00  0.00     0.119 C 
BRANCH  14  24
ATOM     24  C   UNL A   1      32.807  29.922  25.760  1.00  0.00     0.119 C 
BRANCH  24  25
ATOM     25  C   UNL A   1      33.091  28.872  26.849  1.00  0.00     0.018 C 
ATOM     26  C   UNL A   1      31.847  28.164  27.375  1.00  0.00     0.006 C 
ENDBRANCH  24  25
ENDBRANCH  14  24
ENDBRANCH   8  13
ENDBRANCH   4   7
ENDBRANCH   2   3
ENDBRANCH   1   2
BRANCH   1  27
ATOM     27  C   UNL A   1      35.692  23.155  26.007  1.00  0.00     0.023 C 
BRANCH  27  28
ATOM     28  C   UNL A   1      36.962  23.629  25.306  1.00  0.00     0.116 C 
BRANCH  28  29
ATOM     29  N   UNL A   1      38.091  22.727  25.479  1.00  0.00    -0.352 N 
ATOM     30  C   UNL A   1      39.279  22.966  26.133  1.00  0.00     0.251 C 
ATOM     31  H   UNL A   1      37.993  21.833  25.079  1.00  0.00     0.163 HD
ATOM     32  O   UNL A   1      40.173  22.131  26.115  1.00  0.00    -0.269 OA
BRANCH  30  33
ATOM     33  C   UNL A   1      39.473  24.264  26.812  1.00  0.00     0.039 A 
ATOM     34  C   UNL A   1      38.936  24.441  28.089  1.00  0.00     0.014 A 
ATOM     35  C   UNL A   1      40.230  25.276  26.214  1.00  0.00     0.014 A 
ATOM     36  C   UNL A   1      39.229  25.604  28.803  1.00  0.00     0.010 A 
ATOM     37  C   UNL A   1      40.566  26.408  26.948  1.00  0.00     0.010 A 
ATOM     38  C   UNL A   1      40.082  26.575  28.255  1.00  0.00    -0.014 A 
BRANCH  38  39
ATOM     39  C   UNL A   1      40.509  27.759  29.043  1.00  0.00     0.031 A 
ATOM     40  C   UNL A   1      41.838  27.757  29.746  1.00  0.00     0.074 A 
ATOM     41  C   UNL A   1      39.666  28.801  29.182  1.00  0.00     0.049 A 
ATOM     42  N   UNL A   1      42.337  28.644  30.567  1.00  0.00    -0.248 NA
ATOM     43  C   UNL A   1      42.711  26.595  29.513  1.00  0.00     0.031 C 
ATOM     44  C   UNL A   1      38.333  28.902  28.581  1.00  0.00     0.029 A 
ATOM     45  N   UNL A   1      39.797  29.972  29.888  1.00  0.00    -0.354 N 
ATOM     46  C   UNL A   1      43.576  28.149  30.952  1.00  0.00     0.074 A 
ATOM     47  C   UNL A   1      43.734  26.860  30.313  1.00  0.00     0.031 C 
ATOM     48  C   UNL A   1      37.776  30.072  28.934  1.00  0.00     0.029 A 
ATOM     49  C   UNL A   1      38.692  30.789  29.814  1.00  0.00     0.049 A 
ATOM     50  H   UNL A   1      40.606  30.204  30.399  1.00  0.00     0.167 HD
ATOM     51  C   UNL A   1      44.507  28.728  31.747  1.00  0.00     0.037 A 
ATOM     52  C   UNL A   1      38.443  31.975  30.402  1.00  0.00     0.037 A 
ATOM     53  C   UNL A   1      44.355  30.019  32.363  1.00  0.00     0.049 A 
ATOM     54  C   UNL A   1      39.489  32.586  31.295  1.00  0.00     0.074 A 
ATOM     55  C   UNL A   1      45.256  30.704  33.159  1.00  0.00     0.029 A 
ATOM     56  N   UNL A   1      43.232  30.825  32.246  1.00  0.00    -0.354 N 
ATOM     57  N   UNL A   1      40.672  32.119  31.616  1.00  0.00    -0.248 NA
ATOM     58  C   UNL A   1      39.167  33.883  31.907  1.00  0.00     0.031 C 
ATOM     59  C   UNL A   1      44.670  31.914  33.545  1.00  0.00     0.029 A 
ATOM     60  C   UNL A   1      43.415  31.997  32.961  1.00  0.00     0.049 A 
ATOM     61  H   UNL A   1      42.425  30.598  31.730  1.00  0.00     0.167 HD
ATOM     62  C   UNL A   1      41.245  33.077  32.446  1.00  0.00     0.074 A 
ATOM     63  C   UNL A   1      40.285  34.154  32.568  1.00  0.00     0.031 C 
ATOM     64  C   UNL A   1      42.454  33.064  33.056  1.00  0.00     0.037 A 
BRANCH  51  65
ATOM     65  C   UNL A   1      45.789  27.980  31.978  1.00  0.00     0.058 A 
ATOM     66  C   UNL A   1      45.940  27.121  33.078  1.00  0.00     0.135 A 
ATOM     67  C   UNL A   1      46.851  28.071  31.065  1.00  0.00     0.135 A 
ATOM     68  F   UNL A   1      44.961  27.012  33.990  1.00  0.00    -0.206 F 
ATOM     69  C   UNL A   1      47.105  26.387  33.272  1.00  0.00     0.059 A 
ATOM     70  C   UNL A   1      48.018  27.329  31.227  1.00  0.00     0.059 A 
ATOM     71  F   UNL A   1      46.758  28.881  29.999  1.00  0.00    -0.206 F 
ATOM     72  C   UNL A   1      48.137  26.496  32.339  1.00  0.00     0.060 A 
BRANCH  72  73
ATOM     73  S   UNL A   1      49.631  25.513  32.591  1.00  0.00     0.124 S 
ATOM     74  O   UNL A   1      50.609  26.548  32.909  1.00  0.00    -0.237 OA
ATOM     75  O   UNL A   1      49.249  24.642  33.698  1.00  0.00    -0.237 OA
ATOM     76  O   UNL A   1      49.818  24.845  31.307  1.00  0.00    -0.744 OA
ENDBRANCH  72  73
ENDBRANCH  51  65
BRANCH  52  77
ATOM     77  C   UNL A   1      37.150  32.672  30.172  1.00  0.00     0.058 A 
ATOM     78  C   UNL A   1      37.011  33.608  29.137  1.00  0.00     0.135 A 
ATOM     79  C   UNL A   1      36.040  32.443  31.001  1.00  0.00     0.135 A 
ATOM     80  F   UNL A   1      38.046  33.863  28.322  1.00  0.00    -0.206 F 
ATOM     81  C   UNL A   1      35.830  34.317  28.949  1.00  0.00     0.059 A 
ATOM     82  C   UNL A   1      34.841  33.123  30.819  1.00  0.00     0.059 A 
ATOM     83  F   UNL A   1      36.116  31.544  31.995  1.00  0.00    -0.206 F 
ATOM     84  C   UNL A   1      34.752  34.073  29.801  1.00  0.00     0.060 A 
BRANCH  84  85
ATOM     85  S   UNL A   1      33.218  34.993  29.549  1.00  0.00     0.124 S 
ATOM     86  O   UNL A   1      33.724  36.293  29.127  1.00  0.00    -0.237 OA
ATOM     87  O   UNL A   1      32.548  34.202  28.521  1.00  0.00    -0.237 OA
ATOM     88  O   UNL A   1      32.589  34.955  30.866  1.00  0.00    -0.744 OA
ENDBRANCH  84  85
ENDBRANCH  52  77
BRANCH  64  89
ATOM     89  C   UNL A   1      42.823  34.263  33.883  1.00  0.00     0.058 A 
ATOM     90  C   UNL A   1      42.708  34.252  35.281  1.00  0.00     0.135 A 
ATOM     91  C   UNL A   1      43.351  35.412  33.274  1.00  0.00     0.135 A 
ATOM     92  F   UNL A   1      42.201  33.178  35.909  1.00  0.00    -0.206 F 
ATOM     93  C   UNL A   1      43.093  35.346  36.049  1.00  0.00     0.059 A 
ATOM     94  C   UNL A   1      43.763  36.509  34.023  1.00  0.00     0.059 A 
ATOM     95  F   UNL A   1      43.489  35.467  31.939  1.00  0.00    -0.206 F 
ATOM     96  C   UNL A   1      43.622  36.469  35.410  1.00  0.00     0.060 A 
BRANCH  96  97
ATOM     97  S   UNL A   1      44.162  37.866  36.419  1.00  0.00     0.124 S 
ATOM     98  O   UNL A   1      45.522  37.469  36.766  1.00  0.00    -0.237 OA
ATOM     99  O   UNL A   1      44.046  38.986  35.491  1.00  0.00    -0.237 OA
ATOM    100  O   UNL A   1      43.208  37.875  37.523  1.00  0.00    -0.744 OA
ENDBRANCH  96  97
ENDBRANCH  64  89
ENDBRANCH  38  39
ENDBRANCH  30  33
ENDBRANCH  28  29
ENDBRANCH  27  28
ENDBRANCH   1  27
TORSDOF 17
ENDMDL
