MODEL 1
REMARK VINA RESULT:     -12.1      0.000      0.000
REMARK SMILES COc1ccc(-c2ccc(C#N)c(S[C@@H](C)C(=O)NCCCCNC(=O)c3ccc(-c4c5nc(c(-c6c(F)cc(S(=O)(=O)[O-])cc6F)c6ccc([nH]6)c(-c6c(F)cc(S(=O)(=O)[O-])cc6F)c6nc(c(-c7c(F)cc(S(=O)(=O)[O-])cc7F)c7ccc4[nH]7)C=C6)C=C5)cc3)n2)cc1
REMARK SMILES IDX 21 1 20 2 19 3 17 4 18 5 15 7 16 8 14 9 13 10 7 11 8 12
REMARK SMILES IDX 93 13 9 14 10 15 6 16 3 17 4 18 95 19 5 20 94 21 2 22 1 23
REMARK SMILES IDX 11 24 12 25 22 26 23 27 24 28 25 29 26 31 27 32 28 33 92 34
REMARK SMILES IDX 29 35 91 36 30 37 31 38 32 39 85 40 33 41 90 42 84 43 86 44
REMARK SMILES IDX 34 45 89 46 83 47 82 48 35 50 69 51 48 52 68 53 49 54 52 55
REMARK SMILES IDX 67 56 87 57 50 58 51 59 66 61 88 62 53 63 36 64 37 65 46 66
REMARK SMILES IDX 38 67 39 68 45 69 47 70 40 71 41 72 42 73 43 74 44 75 70 76
REMARK SMILES IDX 71 77 80 78 72 79 73 80 79 81 81 82 74 83 75 84 76 85 77 86
REMARK SMILES IDX 78 87 54 88 55 89 64 90 56 91 57 92 63 93 65 94 58 95 59 96
REMARK SMILES IDX 60 97 61 98 62 99
REMARK H PARENT 19 6 24 30 86 49 52 60
REMARK Flexibility Score: inf
ROOT
ATOM      1  C   UNL A   1      33.974  31.477  27.694  1.00  0.00     0.023 C 
ENDROOT
BRANCH   1   2
ATOM      2  C   UNL A   1      33.831  30.067  27.125  1.00  0.00     0.116 C 
BRANCH   2   3
ATOM      3  N   UNL A   1      32.661  29.377  27.598  1.00  0.00    -0.355 N 
ATOM      4  C   UNL A   1      32.043  28.242  27.207  1.00  0.00     0.233 C 
ATOM      5  O   UNL A   1      31.305  27.739  28.069  1.00  0.00    -0.274 OA
ATOM      6  H   UNL A   1      32.223  29.822  28.360  1.00  0.00     0.163 HD
BRANCH   4   7
ATOM      7  C   UNL A   1      32.199  27.514  25.872  1.00  0.00     0.139 C 
ATOM      8  C   UNL A   1      30.932  27.363  25.042  1.00  0.00     0.030 C 
BRANCH   7   9
ATOM      9  S   UNL A   1      33.558  26.325  25.604  1.00  0.00    -0.092 SA
BRANCH   9  10
ATOM     10  C   UNL A   1      33.458  25.416  24.084  1.00  0.00     0.115 A 
ATOM     11  C   UNL A   1      33.247  23.157  23.399  1.00  0.00     0.072 A 
ATOM     12  C   UNL A   1      33.143  23.536  22.071  1.00  0.00     0.030 A 
ATOM     13  N   UNL A   1      33.359  24.082  24.383  1.00  0.00    -0.240 NA
ATOM     14  C   UNL A   1      33.290  24.874  21.748  1.00  0.00     0.024 A 
ATOM     15  C   UNL A   1      33.500  25.830  22.753  1.00  0.00     0.084 A 
BRANCH  11  16
ATOM     16  C   UNL A   1      33.352  21.737  23.777  1.00  0.00     0.000 A 
ATOM     17  C   UNL A   1      33.642  19.042  24.598  1.00  0.00     0.118 A 
ATOM     18  C   UNL A   1      32.571  19.426  23.788  1.00  0.00     0.047 A 
ATOM     19  C   UNL A   1      34.589  19.990  24.971  1.00  0.00     0.047 A 
ATOM     20  C   UNL A   1      32.417  20.766  23.394  1.00  0.00     0.014 A 
ATOM     21  C   UNL A   1      34.436  21.317  24.573  1.00  0.00     0.014 A 
BRANCH  17  22
ATOM     22  O   UNL A   1      33.703  17.722  24.952  1.00  0.00    -0.497 OA
ATOM     23  C   UNL A   1      32.529  17.233  25.598  1.00  0.00     0.278 C 
ENDBRANCH  17  22
ENDBRANCH  11  16
BRANCH  15  24
ATOM     24  C   UNL A   1      33.685  27.160  22.289  1.00  0.00     0.102 C 
ATOM     25  N   UNL A   1      33.930  28.208  21.839  1.00  0.00    -0.192 NA
ENDBRANCH  15  24
ENDBRANCH   9  10
ENDBRANCH   7   9
ENDBRANCH   4   7
ENDBRANCH   2   3
ENDBRANCH   1   2
BRANCH   1  26
ATOM     26  C   UNL A   1      35.422  31.913  27.914  1.00  0.00     0.023 C 
BRANCH  26  27
ATOM     27  C   UNL A   1      35.798  32.298  29.340  1.00  0.00     0.116 C 
BRANCH  27  28
ATOM     28  N   UNL A   1      35.597  31.247  30.326  1.00  0.00    -0.352 N 
ATOM     29  C   UNL A   1      36.528  30.360  30.830  1.00  0.00     0.251 C 
ATOM     30  H   UNL A   1      34.682  31.156  30.676  1.00  0.00     0.163 HD
ATOM     31  O   UNL A   1      36.199  29.523  31.664  1.00  0.00    -0.269 OA
BRANCH  29  32
ATOM     32  C   UNL A   1      37.904  30.400  30.285  1.00  0.00     0.039 A 
ATOM     33  C   UNL A   1      38.970  30.595  31.165  1.00  0.00     0.014 A 
ATOM     34  C   UNL A   1      38.140  30.068  28.949  1.00  0.00     0.014 A 
ATOM     35  C   UNL A   1      40.273  30.333  30.734  1.00  0.00     0.010 A 
ATOM     36  C   UNL A   1      39.424  29.707  28.556  1.00  0.00     0.010 A 
ATOM     37  C   UNL A   1      40.504  29.816  29.447  1.00  0.00    -0.014 A 
BRANCH  37  38
ATOM     38  C   UNL A   1      41.854  29.354  29.022  1.00  0.00     0.031 A 
ATOM     39  C   UNL A   1      42.990  30.337  28.935  1.00  0.00     0.074 A 
ATOM     40  C   UNL A   1      42.036  28.075  28.632  1.00  0.00     0.049 A 
ATOM     41  N   UNL A   1      44.211  30.154  28.503  1.00  0.00    -0.248 NA
ATOM     42  C   UNL A   1      42.704  31.719  29.356  1.00  0.00     0.031 C 
ATOM     43  C   UNL A   1      40.999  27.038  28.609  1.00  0.00     0.029 A 
ATOM     44  N   UNL A   1      43.154  27.425  28.169  1.00  0.00    -0.354 N 
ATOM     45  C   UNL A   1      44.831  31.396  28.586  1.00  0.00     0.074 A 
ATOM     46  C   UNL A   1      43.834  32.337  29.045  1.00  0.00     0.031 C 
ATOM     47  C   UNL A   1      41.536  25.882  28.186  1.00  0.00     0.029 A 
ATOM     48  C   UNL A   1      42.943  26.099  27.863  1.00  0.00     0.049 A 
ATOM     49  H   UNL A   1      44.028  27.868  28.064  1.00  0.00     0.167 HD
ATOM     50  C   UNL A   1      46.121  31.717  28.332  1.00  0.00     0.037 A 
ATOM     51  C   UNL A   1      43.782  25.166  27.371  1.00  0.00     0.037 A 
ATOM     52  C   UNL A   1      47.113  30.768  27.902  1.00  0.00     0.049 A 
ATOM     53  C   UNL A   1      45.213  25.548  27.093  1.00  0.00     0.074 A 
ATOM     54  C   UNL A   1      48.462  30.977  27.676  1.00  0.00     0.029 A 
ATOM     55  N   UNL A   1      46.865  29.431  27.628  1.00  0.00    -0.354 N 
ATOM     56  N   UNL A   1      45.800  26.711  27.249  1.00  0.00    -0.248 NA
ATOM     57  C   UNL A   1      46.097  24.492  26.579  1.00  0.00     0.031 C 
ATOM     58  C   UNL A   1      49.019  29.780  27.217  1.00  0.00     0.029 A 
ATOM     59  C   UNL A   1      48.030  28.808  27.213  1.00  0.00     0.049 A 
ATOM     60  H   UNL A   1      45.989  28.989  27.717  1.00  0.00     0.167 HD
ATOM     61  C   UNL A   1      47.127  26.520  26.878  1.00  0.00     0.074 A 
ATOM     62  C   UNL A   1      47.259  25.127  26.503  1.00  0.00     0.031 C 
ATOM     63  C   UNL A   1      48.145  27.416  26.852  1.00  0.00     0.037 A 
BRANCH  50  64
ATOM     64  C   UNL A   1      46.533  33.151  28.523  1.00  0.00     0.058 A 
ATOM     65  C   UNL A   1      46.477  34.083  27.473  1.00  0.00     0.135 A 
ATOM     66  C   UNL A   1      46.967  33.610  29.778  1.00  0.00     0.135 A 
ATOM     67  F   UNL A   1      46.087  33.697  26.247  1.00  0.00    -0.206 F 
ATOM     68  C   UNL A   1      46.866  35.406  27.650  1.00  0.00     0.059 A 
ATOM     69  C   UNL A   1      47.330  34.937  29.986  1.00  0.00     0.059 A 
ATOM     70  F   UNL A   1      47.044  32.764  30.817  1.00  0.00    -0.206 F 
ATOM     71  C   UNL A   1      47.291  35.824  28.912  1.00  0.00     0.060 A 
BRANCH  71  72
ATOM     72  S   UNL A   1      47.786  37.547  29.123  1.00  0.00     0.124 S 
ATOM     73  O   UNL A   1      46.490  38.213  29.208  1.00  0.00    -0.237 OA
ATOM     74  O   UNL A   1      48.556  37.499  30.362  1.00  0.00    -0.237 OA
ATOM     75  O   UNL A   1      48.559  37.829  27.917  1.00  0.00    -0.744 OA
ENDBRANCH  71  72
ENDBRANCH  50  64
BRANCH  51  76
ATOM     76  C   UNL A   1      43.302  23.776  27.129  1.00  0.00     0.058 A 
ATOM     77  C   UNL A   1      42.959  23.344  25.839  1.00  0.00     0.135 A 
ATOM     78  C   UNL A   1      43.181  22.851  28.178  1.00  0.00     0.135 A 
ATOM     79  F   UNL A   1      43.048  24.190  24.802  1.00  0.00    -0.206 F 
ATOM     80  C   UNL A   1      42.498  22.052  25.598  1.00  0.00     0.059 A 
ATOM     81  C   UNL A   1      42.749  21.546  27.959  1.00  0.00     0.059 A 
ATOM     82  F   UNL A   1      43.509  23.207  29.430  1.00  0.00    -0.206 F 
ATOM     83  C   UNL A   1      42.400  21.159  26.666  1.00  0.00     0.060 A 
BRANCH  83  84
ATOM     84  S   UNL A   1      41.847  19.471  26.335  1.00  0.00     0.124 S 
ATOM     85  O   UNL A   1      42.316  18.770  27.524  1.00  0.00    -0.237 OA
ATOM     86  O   UNL A   1      40.401  19.641  26.223  1.00  0.00    -0.237 OA
ATOM     87  O   UNL A   1      42.529  19.132  25.091  1.00  0.00    -0.744 OA
ENDBRANCH  83  84
ENDBRANCH  51  76
BRANCH  63  88
ATOM     88  C   UNL A   1      49.502  26.917  26.439  1.00  0.00     0.058 A 
ATOM     89  C   UNL A   1      50.361  26.276  27.345  1.00  0.00     0.135 A 
ATOM     90  C   UNL A   1      49.917  27.020  25.101  1.00  0.00     0.135 A 
ATOM     91  F   UNL A   1      50.016  26.158  28.637  1.00  0.00    -0.206 F 
ATOM     92  C   UNL A   1      51.594  25.771  26.943  1.00  0.00     0.059 A 
ATOM     93  C   UNL A   1      51.130  26.495  24.671  1.00  0.00     0.059 A 
ATOM     94  F   UNL A   1      49.128  27.613  24.192  1.00  0.00    -0.206 F 
ATOM     95  C   UNL A   1      51.966  25.880  25.601  1.00  0.00     0.060 A 
BRANCH  95  96
ATOM     96  S   UNL A   1      53.546  25.177  25.085  1.00  0.00     0.124 S 
ATOM     97  O   UNL A   1      54.454  25.723  26.088  1.00  0.00    -0.237 OA
ATOM     98  O   UNL A   1      53.292  23.742  25.172  1.00  0.00    -0.237 OA
ATOM     99  O   UNL A   1      53.723  25.694  23.731  1.00  0.00    -0.744 OA
ENDBRANCH  95  96
ENDBRANCH  63  88
ENDBRANCH  37  38
ENDBRANCH  29  32
ENDBRANCH  27  28
ENDBRANCH  26  27
ENDBRANCH   1  26
TORSDOF 19
ENDMDL
MODEL 2
REMARK VINA RESULT:     -11.5      6.142      8.282
REMARK SMILES COc1ccc(-c2ccc(C#N)c(S[C@@H](C)C(=O)NCCCCNC(=O)c3ccc(-c4c5nc(c(-c6c(F)cc(S(=O)(=O)[O-])cc6F)c6ccc([nH]6)c(-c6c(F)cc(S(=O)(=O)[O-])cc6F)c6nc(c(-c7c(F)cc(S(=O)(=O)[O-])cc7F)c7ccc4[nH]7)C=C6)C=C5)cc3)n2)cc1
REMARK SMILES IDX 21 1 20 2 19 3 17 4 18 5 15 7 16 8 14 9 13 10 7 11 8 12
REMARK SMILES IDX 93 13 9 14 10 15 6 16 3 17 4 18 95 19 5 20 94 21 2 22 1 23
REMARK SMILES IDX 11 24 12 25 22 26 23 27 24 28 25 29 26 31 27 32 28 33 92 34
REMARK SMILES IDX 29 35 91 36 30 37 31 38 32 39 85 40 33 41 90 42 84 43 86 44
REMARK SMILES IDX 34 45 89 46 83 47 82 48 35 50 69 51 48 52 68 53 49 54 52 55
REMARK SMILES IDX 67 56 87 57 50 58 51 59 66 61 88 62 53 63 36 64 37 65 46 66
REMARK SMILES IDX 38 67 39 68 45 69 47 70 40 71 41 72 42 73 43 74 44 75 70 76
REMARK SMILES IDX 71 77 80 78 72 79 73 80 79 81 81 82 74 83 75 84 76 85 77 86
REMARK SMILES IDX 78 87 54 88 55 89 64 90 56 91 57 92 63 93 65 94 58 95 59 96
REMARK SMILES IDX 60 97 61 98 62 99
REMARK H PARENT 19 6 24 30 86 49 52 60
REMARK Flexibility Score: inf
ROOT
ATOM      1  C   UNL A   1      35.011  30.870  28.016  1.00  0.00     0.023 C 
ENDROOT
BRANCH   1   2
ATOM      2  C   UNL A   1      34.802  29.560  27.258  1.00  0.00     0.116 C 
BRANCH   2   3
ATOM      3  N   UNL A   1      34.051  29.721  26.042  1.00  0.00    -0.355 N 
ATOM      4  C   UNL A   1      33.053  29.006  25.477  1.00  0.00     0.233 C 
ATOM      5  O   UNL A   1      32.383  29.636  24.643  1.00  0.00    -0.274 OA
ATOM      6  H   UNL A   1      34.318  30.508  25.515  1.00  0.00     0.163 HD
BRANCH   4   7
ATOM      7  C   UNL A   1      32.650  27.566  25.793  1.00  0.00     0.139 C 
ATOM      8  C   UNL A   1      31.533  27.394  26.813  1.00  0.00     0.030 C 
BRANCH   7   9
ATOM      9  S   UNL A   1      33.821  26.189  25.550  1.00  0.00    -0.092 SA
BRANCH   9  10
ATOM     10  C   UNL A   1      33.560  25.246  24.070  1.00  0.00     0.115 A 
ATOM     11  C   UNL A   1      33.270  22.973  23.463  1.00  0.00     0.072 A 
ATOM     12  C   UNL A   1      33.029  23.323  22.145  1.00  0.00     0.030 A 
ATOM     13  N   UNL A   1      33.487  23.919  24.408  1.00  0.00    -0.240 NA
ATOM     14  C   UNL A   1      33.148  24.652  21.777  1.00  0.00     0.024 A 
ATOM     15  C   UNL A   1      33.465  25.629  22.733  1.00  0.00     0.084 A 
BRANCH  11  16
ATOM     16  C   UNL A   1      33.409  21.562  23.862  1.00  0.00     0.000 A 
ATOM     17  C   UNL A   1      33.589  18.817  24.536  1.00  0.00     0.118 A 
ATOM     18  C   UNL A   1      34.557  19.722  24.979  1.00  0.00     0.047 A 
ATOM     19  C   UNL A   1      32.513  19.282  23.789  1.00  0.00     0.047 A 
ATOM     20  C   UNL A   1      34.478  21.081  24.631  1.00  0.00     0.014 A 
ATOM     21  C   UNL A   1      32.434  20.632  23.451  1.00  0.00     0.014 A 
BRANCH  17  22
ATOM     22  O   UNL A   1      33.755  17.509  24.903  1.00  0.00    -0.497 OA
ATOM     23  C   UNL A   1      32.649  16.955  25.613  1.00  0.00     0.278 C 
ENDBRANCH  17  22
ENDBRANCH  11  16
BRANCH  15  24
ATOM     24  C   UNL A   1      33.605  26.948  22.221  1.00  0.00     0.102 C 
ATOM     25  N   UNL A   1      33.789  28.054  21.902  1.00  0.00    -0.192 NA
ENDBRANCH  15  24
ENDBRANCH   9  10
ENDBRANCH   7   9
ENDBRANCH   4   7
ENDBRANCH   2   3
ENDBRANCH   1   2
BRANCH   1  26
ATOM     26  C   UNL A   1      33.800  31.801  27.990  1.00  0.00     0.023 C 
BRANCH  26  27
ATOM     27  C   UNL A   1      34.047  33.210  27.466  1.00  0.00     0.116 C 
BRANCH  27  28
ATOM     28  N   UNL A   1      33.130  34.217  27.978  1.00  0.00    -0.352 N 
ATOM     29  C   UNL A   1      33.211  34.923  29.162  1.00  0.00     0.251 C 
ATOM     30  H   UNL A   1      32.354  34.420  27.408  1.00  0.00     0.163 HD
ATOM     31  O   UNL A   1      32.350  35.745  29.454  1.00  0.00    -0.269 OA
BRANCH  29  32
ATOM     32  C   UNL A   1      34.318  34.607  30.095  1.00  0.00     0.039 A 
ATOM     33  C   UNL A   1      34.034  33.881  31.252  1.00  0.00     0.014 A 
ATOM     34  C   UNL A   1      35.640  34.873  29.731  1.00  0.00     0.014 A 
ATOM     35  C   UNL A   1      35.083  33.311  31.980  1.00  0.00     0.010 A 
ATOM     36  C   UNL A   1      36.671  34.219  30.395  1.00  0.00     0.010 A 
ATOM     37  C   UNL A   1      36.406  33.415  31.516  1.00  0.00    -0.014 A 
BRANCH  37  38
ATOM     38  C   UNL A   1      37.520  32.669  32.163  1.00  0.00     0.031 A 
ATOM     39  C   UNL A   1      38.069  33.137  33.483  1.00  0.00     0.074 A 
ATOM     40  C   UNL A   1      38.094  31.627  31.524  1.00  0.00     0.049 A 
ATOM     41  N   UNL A   1      39.090  32.683  34.163  1.00  0.00    -0.248 NA
ATOM     42  C   UNL A   1      37.403  34.294  34.105  1.00  0.00     0.031 C 
ATOM     43  C   UNL A   1      37.696  31.114  30.209  1.00  0.00     0.029 A 
ATOM     44  N   UNL A   1      39.142  30.816  31.884  1.00  0.00    -0.354 N 
ATOM     45  C   UNL A   1      39.197  33.504  35.280  1.00  0.00     0.074 A 
ATOM     46  C   UNL A   1      38.180  34.526  35.152  1.00  0.00     0.031 C 
ATOM     47  C   UNL A   1      38.468  30.062  29.891  1.00  0.00     0.029 A 
ATOM     48  C   UNL A   1      39.446  29.849  30.953  1.00  0.00     0.049 A 
ATOM     49  H   UNL A   1      39.632  30.918  32.733  1.00  0.00     0.167 HD
ATOM     50  C   UNL A   1      40.043  33.400  36.330  1.00  0.00     0.037 A 
ATOM     51  C   UNL A   1      40.407  28.903  30.949  1.00  0.00     0.037 A 
ATOM     52  C   UNL A   1      41.033  32.365  36.462  1.00  0.00     0.049 A 
ATOM     53  C   UNL A   1      41.340  28.809  32.128  1.00  0.00     0.074 A 
ATOM     54  C   UNL A   1      41.900  32.132  37.515  1.00  0.00     0.029 A 
ATOM     55  N   UNL A   1      41.292  31.389  35.509  1.00  0.00    -0.354 N 
ATOM     56  N   UNL A   1      41.377  29.550  33.210  1.00  0.00    -0.248 NA
ATOM     57  C   UNL A   1      42.357  27.749  32.090  1.00  0.00     0.031 C 
ATOM     58  C   UNL A   1      42.718  31.049  37.177  1.00  0.00     0.029 A 
ATOM     59  C   UNL A   1      42.321  30.569  35.938  1.00  0.00     0.049 A 
ATOM     60  H   UNL A   1      40.814  31.295  34.653  1.00  0.00     0.167 HD
ATOM     61  C   UNL A   1      42.402  29.029  33.993  1.00  0.00     0.074 A 
ATOM     62  C   UNL A   1      42.950  27.902  33.266  1.00  0.00     0.031 C 
ATOM     63  C   UNL A   1      42.848  29.444  35.205  1.00  0.00     0.037 A 
BRANCH  50  64
ATOM     64  C   UNL A   1      39.929  34.428  37.423  1.00  0.00     0.058 A 
ATOM     65  C   UNL A   1      40.685  35.612  37.407  1.00  0.00     0.135 A 
ATOM     66  C   UNL A   1      39.032  34.241  38.489  1.00  0.00     0.135 A 
ATOM     67  F   UNL A   1      41.571  35.835  36.423  1.00  0.00    -0.206 F 
ATOM     68  C   UNL A   1      40.583  36.556  38.423  1.00  0.00     0.059 A 
ATOM     69  C   UNL A   1      38.890  35.188  39.499  1.00  0.00     0.059 A 
ATOM     70  F   UNL A   1      38.286  33.128  38.557  1.00  0.00    -0.206 F 
ATOM     71  C   UNL A   1      39.681  36.335  39.465  1.00  0.00     0.060 A 
BRANCH  71  72
ATOM     72  S   UNL A   1      39.559  37.575  40.771  1.00  0.00     0.124 S 
ATOM     73  O   UNL A   1      38.463  38.405  40.281  1.00  0.00    -0.237 OA
ATOM     74  O   UNL A   1      39.261  36.762  41.945  1.00  0.00    -0.237 OA
ATOM     75  O   UNL A   1      40.875  38.207  40.765  1.00  0.00    -0.744 OA
ENDBRANCH  71  72
ENDBRANCH  50  64
BRANCH  51  76
ATOM     76  C   UNL A   1      40.524  27.957  29.804  1.00  0.00     0.058 A 
ATOM     77  C   UNL A   1      41.524  28.117  28.833  1.00  0.00     0.135 A 
ATOM     78  C   UNL A   1      39.646  26.871  29.659  1.00  0.00     0.135 A 
ATOM     79  F   UNL A   1      42.384  29.143  28.919  1.00  0.00    -0.206 F 
ATOM     80  C   UNL A   1      41.640  27.248  27.752  1.00  0.00     0.059 A 
ATOM     81  C   UNL A   1      39.759  25.972  28.602  1.00  0.00     0.059 A 
ATOM     82  F   UNL A   1      38.680  26.663  30.567  1.00  0.00    -0.206 F 
ATOM     83  C   UNL A   1      40.753  26.175  27.647  1.00  0.00     0.060 A 
BRANCH  83  84
ATOM     84  S   UNL A   1      40.943  25.026  26.266  1.00  0.00     0.124 S 
ATOM     85  O   UNL A   1      39.588  24.504  26.130  1.00  0.00    -0.237 OA
ATOM     86  O   UNL A   1      41.398  25.908  25.196  1.00  0.00    -0.237 OA
ATOM     87  O   UNL A   1      41.939  24.078  26.754  1.00  0.00    -0.744 OA
ENDBRANCH  83  84
ENDBRANCH  51  76
BRANCH  63  88
ATOM     88  C   UNL A   1      43.960  28.659  35.845  1.00  0.00     0.058 A 
ATOM     89  C   UNL A   1      45.308  29.004  35.663  1.00  0.00     0.135 A 
ATOM     90  C   UNL A   1      43.667  27.590  36.708  1.00  0.00     0.135 A 
ATOM     91  F   UNL A   1      45.643  30.014  34.842  1.00  0.00    -0.206 F 
ATOM     92  C   UNL A   1      46.329  28.306  36.300  1.00  0.00     0.059 A 
ATOM     93  C   UNL A   1      44.669  26.898  37.378  1.00  0.00     0.059 A 
ATOM     94  F   UNL A   1      42.394  27.226  36.925  1.00  0.00    -0.206 F 
ATOM     95  C   UNL A   1      45.998  27.257  37.161  1.00  0.00     0.060 A 
BRANCH  95  96
ATOM     96  S   UNL A   1      47.330  26.391  38.017  1.00  0.00     0.124 S 
ATOM     97  O   UNL A   1      46.747  26.189  39.339  1.00  0.00    -0.237 OA
ATOM     98  O   UNL A   1      47.494  25.190  37.205  1.00  0.00    -0.237 OA
ATOM     99  O   UNL A   1      48.442  27.336  37.960  1.00  0.00    -0.744 OA
ENDBRANCH  95  96
ENDBRANCH  63  88
ENDBRANCH  37  38
ENDBRANCH  29  32
ENDBRANCH  27  28
ENDBRANCH  26  27
ENDBRANCH   1  26
TORSDOF 19
ENDMDL
MODEL 3
REMARK VINA RESULT:     -11.2      4.900      6.252
REMARK SMILES COc1ccc(-c2ccc(C#N)c(S[C@@H](C)C(=O)NCCCCNC(=O)c3ccc(-c4c5nc(c(-c6c(F)cc(S(=O)(=O)[O-])cc6F)c6ccc([nH]6)c(-c6c(F)cc(S(=O)(=O)[O-])cc6F)c6nc(c(-c7c(F)cc(S(=O)(=O)[O-])cc7F)c7ccc4[nH]7)C=C6)C=C5)cc3)n2)cc1
REMARK SMILES IDX 21 1 20 2 19 3 17 4 18 5 15 7 16 8 14 9 13 10 7 11 8 12
REMARK SMILES IDX 93 13 9 14 10 15 6 16 3 17 4 18 95 19 5 20 94 21 2 22 1 23
REMARK SMILES IDX 11 24 12 25 22 26 23 27 24 28 25 29 26 31 27 32 28 33 92 34
REMARK SMILES IDX 29 35 91 36 30 37 31 38 32 39 85 40 33 41 90 42 84 43 86 44
REMARK SMILES IDX 34 45 89 46 83 47 82 48 35 50 69 51 48 52 68 53 49 54 52 55
REMARK SMILES IDX 67 56 87 57 50 58 51 59 66 61 88 62 53 63 36 64 37 65 46 66
REMARK SMILES IDX 38 67 39 68 45 69 47 70 40 71 41 72 42 73 43 74 44 75 70 76
REMARK SMILES IDX 71 77 80 78 72 79 73 80 79 81 81 82 74 83 75 84 76 85 77 86
REMARK SMILES IDX 78 87 54 88 55 89 64 90 56 91 57 92 63 93 65 94 58 95 59 96
REMARK SMILES IDX 60 97 61 98 62 99
REMARK H PARENT 19 6 24 30 86 49 52 60
REMARK Flexibility Score: inf
ROOT
ATOM      1  C   UNL A   1      31.567  29.959  25.179  1.00  0.00     0.023 C 
ENDROOT
BRANCH   1   2
ATOM      2  C   UNL A   1      30.450  29.467  24.259  1.00  0.00     0.116 C 
BRANCH   2   3
ATOM      3  N   UNL A   1      30.914  28.592  23.218  1.00  0.00    -0.355 N 
ATOM      4  C   UNL A   1      30.585  27.330  22.864  1.00  0.00     0.233 C 
ATOM      5  O   UNL A   1      30.891  27.031  21.698  1.00  0.00    -0.274 OA
ATOM      6  H   UNL A   1      31.612  28.991  22.649  1.00  0.00     0.163 HD
BRANCH   4   7
ATOM      7  C   UNL A   1      29.853  26.290  23.711  1.00  0.00     0.139 C 
ATOM      8  C   UNL A   1      28.376  26.559  23.967  1.00  0.00     0.030 C 
BRANCH   7   9
ATOM      9  S   UNL A   1      30.758  25.233  24.890  1.00  0.00    -0.092 SA
BRANCH   9  10
ATOM     10  C   UNL A   1      32.187  24.427  24.217  1.00  0.00     0.115 A 
ATOM     11  C   UNL A   1      32.960  22.211  23.880  1.00  0.00     0.072 A 
ATOM     12  C   UNL A   1      34.076  22.670  23.202  1.00  0.00     0.030 A 
ATOM     13  N   UNL A   1      32.019  23.072  24.338  1.00  0.00    -0.240 NA
ATOM     14  C   UNL A   1      34.287  24.035  23.114  1.00  0.00     0.024 A 
ATOM     15  C   UNL A   1      33.364  24.935  23.667  1.00  0.00     0.084 A 
BRANCH  11  16
ATOM     16  C   UNL A   1      32.813  20.787  24.226  1.00  0.00     0.000 A 
ATOM     17  C   UNL A   1      32.536  18.020  24.764  1.00  0.00     0.118 A 
ATOM     18  C   UNL A   1      32.858  18.914  25.788  1.00  0.00     0.047 A 
ATOM     19  C   UNL A   1      32.315  18.506  23.480  1.00  0.00     0.047 A 
ATOM     20  C   UNL A   1      33.013  20.284  25.520  1.00  0.00     0.014 A 
ATOM     21  C   UNL A   1      32.463  19.867  23.218  1.00  0.00     0.014 A 
BRANCH  17  22
ATOM     22  O   UNL A   1      32.426  16.701  25.110  1.00  0.00    -0.497 OA
ATOM     23  C   UNL A   1      33.675  16.047  25.328  1.00  0.00     0.278 C 
ENDBRANCH  17  22
ENDBRANCH  11  16
BRANCH  15  24
ATOM     24  C   UNL A   1      33.719  26.306  23.553  1.00  0.00     0.102 C 
ATOM     25  N   UNL A   1      34.106  27.394  23.389  1.00  0.00    -0.192 NA
ENDBRANCH  15  24
ENDBRANCH   9  10
ENDBRANCH   7   9
ENDBRANCH   4   7
ENDBRANCH   2   3
ENDBRANCH   1   2
BRANCH   1  26
ATOM     26  C   UNL A   1      32.387  28.835  25.811  1.00  0.00     0.023 C 
BRANCH  26  27
ATOM     27  C   UNL A   1      33.168  29.200  27.068  1.00  0.00     0.116 C 
BRANCH  27  28
ATOM     28  N   UNL A   1      33.364  30.628  27.267  1.00  0.00    -0.352 N 
ATOM     29  C   UNL A   1      34.487  31.277  27.741  1.00  0.00     0.251 C 
ATOM     30  H   UNL A   1      32.600  31.202  27.036  1.00  0.00     0.163 HD
ATOM     31  O   UNL A   1      34.496  32.498  27.854  1.00  0.00    -0.269 OA
BRANCH  29  32
ATOM     32  C   UNL A   1      35.643  30.459  28.175  1.00  0.00     0.039 A 
ATOM     33  C   UNL A   1      36.835  30.545  27.455  1.00  0.00     0.014 A 
ATOM     34  C   UNL A   1      35.592  29.759  29.383  1.00  0.00     0.014 A 
ATOM     35  C   UNL A   1      38.011  30.034  28.011  1.00  0.00     0.010 A 
ATOM     36  C   UNL A   1      36.780  29.347  29.978  1.00  0.00     0.010 A 
ATOM     37  C   UNL A   1      38.006  29.496  29.310  1.00  0.00    -0.014 A 
BRANCH  37  38
ATOM     38  C   UNL A   1      39.268  29.112  30.000  1.00  0.00     0.031 A 
ATOM     39  C   UNL A   1      39.715  29.870  31.221  1.00  0.00     0.074 A 
ATOM     40  C   UNL A   1      40.052  28.144  29.480  1.00  0.00     0.049 A 
ATOM     41  N   UNL A   1      40.821  29.751  31.909  1.00  0.00    -0.248 NA
ATOM     42  C   UNL A   1      38.815  30.926  31.712  1.00  0.00     0.031 C 
ATOM     43  C   UNL A   1      39.763  27.377  28.265  1.00  0.00     0.029 A 
ATOM     44  N   UNL A   1      41.261  27.643  29.899  1.00  0.00    -0.354 N 
ATOM     45  C   UNL A   1      40.755  30.724  32.901  1.00  0.00     0.074 A 
ATOM     46  C   UNL A   1      39.534  31.467  32.684  1.00  0.00     0.031 C 
ATOM     47  C   UNL A   1      40.747  26.488  28.055  1.00  0.00     0.029 A 
ATOM     48  C   UNL A   1      41.762  26.647  29.092  1.00  0.00     0.049 A 
ATOM     49  H   UNL A   1      41.727  27.968  30.704  1.00  0.00     0.167 HD
ATOM     50  C   UNL A   1      41.618  30.957  33.917  1.00  0.00     0.037 A 
ATOM     51  C   UNL A   1      42.911  25.946  29.171  1.00  0.00     0.037 A 
ATOM     52  C   UNL A   1      42.817  30.194  34.141  1.00  0.00     0.049 A 
ATOM     53  C   UNL A   1      43.857  26.226  30.309  1.00  0.00     0.074 A 
ATOM     54  C   UNL A   1      43.728  30.308  35.177  1.00  0.00     0.029 A 
ATOM     55  N   UNL A   1      43.276  29.177  33.316  1.00  0.00    -0.354 N 
ATOM     56  N   UNL A   1      43.742  27.100  31.280  1.00  0.00    -0.248 NA
ATOM     57  C   UNL A   1      45.086  25.422  30.367  1.00  0.00     0.031 C 
ATOM     58  C   UNL A   1      44.763  29.397  34.949  1.00  0.00     0.029 A 
ATOM     59  C   UNL A   1      44.468  28.672  33.805  1.00  0.00     0.049 A 
ATOM     60  H   UNL A   1      42.819  28.861  32.502  1.00  0.00     0.167 HD
ATOM     61  C   UNL A   1      44.868  26.933  32.080  1.00  0.00     0.074 A 
ATOM     62  C   UNL A   1      45.645  25.865  31.486  1.00  0.00     0.031 C 
ATOM     63  C   UNL A   1      45.225  27.601  33.205  1.00  0.00     0.037 A 
BRANCH  50  64
ATOM     64  C   UNL A   1      41.290  32.076  34.868  1.00  0.00     0.058 A 
ATOM     65  C   UNL A   1      41.803  33.372  34.690  1.00  0.00     0.135 A 
ATOM     66  C   UNL A   1      40.430  31.859  35.958  1.00  0.00     0.135 A 
ATOM     67  F   UNL A   1      42.644  33.632  33.676  1.00  0.00    -0.206 F 
ATOM     68  C   UNL A   1      41.504  34.402  35.574  1.00  0.00     0.059 A 
ATOM     69  C   UNL A   1      40.092  32.884  36.837  1.00  0.00     0.059 A 
ATOM     70  F   UNL A   1      39.912  30.641  36.178  1.00  0.00    -0.206 F 
ATOM     71  C   UNL A   1      40.646  34.148  36.645  1.00  0.00     0.060 A 
BRANCH  71  72
ATOM     72  S   UNL A   1      40.266  35.500  37.780  1.00  0.00     0.124 S 
ATOM     73  O   UNL A   1      41.510  35.602  38.536  1.00  0.00    -0.237 OA
ATOM     74  O   UNL A   1      39.988  36.603  36.866  1.00  0.00    -0.237 OA
ATOM     75  O   UNL A   1      39.116  35.003  38.528  1.00  0.00    -0.744 OA
ENDBRANCH  71  72
ENDBRANCH  50  64
BRANCH  51  76
ATOM     76  C   UNL A   1      43.223  24.899  28.158  1.00  0.00     0.058 A 
ATOM     77  C   UNL A   1      42.887  23.555  28.380  1.00  0.00     0.135 A 
ATOM     78  C   UNL A   1      43.856  25.218  26.946  1.00  0.00     0.135 A 
ATOM     79  F   UNL A   1      42.288  23.194  29.524  1.00  0.00    -0.206 F 
ATOM     80  C   UNL A   1      43.181  22.563  27.448  1.00  0.00     0.059 A 
ATOM     81  C   UNL A   1      44.137  24.249  25.987  1.00  0.00     0.059 A 
ATOM     82  F   UNL A   1      44.187  26.490  26.676  1.00  0.00    -0.206 F 
ATOM     83  C   UNL A   1      43.804  22.922  26.252  1.00  0.00     0.060 A 
BRANCH  83  84
ATOM     84  S   UNL A   1      44.138  21.634  25.029  1.00  0.00     0.124 S 
ATOM     85  O   UNL A   1      43.081  20.673  25.319  1.00  0.00    -0.237 OA
ATOM     86  O   UNL A   1      44.007  22.366  23.772  1.00  0.00    -0.237 OA
ATOM     87  O   UNL A   1      45.492  21.203  25.357  1.00  0.00    -0.744 OA
ENDBRANCH  83  84
ENDBRANCH  51  76
BRANCH  63  88
ATOM     88  C   UNL A   1      46.494  27.178  33.893  1.00  0.00     0.058 A 
ATOM     89  C   UNL A   1      47.738  27.729  33.552  1.00  0.00     0.135 A 
ATOM     90  C   UNL A   1      46.451  26.261  34.956  1.00  0.00     0.135 A 
ATOM     91  F   UNL A   1      47.835  28.605  32.539  1.00  0.00    -0.206 F 
ATOM     92  C   UNL A   1      48.900  27.372  34.229  1.00  0.00     0.059 A 
ATOM     93  C   UNL A   1      47.594  25.912  35.666  1.00  0.00     0.059 A 
ATOM     94  F   UNL A   1      45.284  25.713  35.330  1.00  0.00    -0.206 F 
ATOM     95  C   UNL A   1      48.816  26.467  35.289  1.00  0.00     0.060 A 
BRANCH  95  96
ATOM     96  S   UNL A   1      50.324  26.049  36.189  1.00  0.00     0.124 S 
ATOM     97  O   UNL A   1      49.785  25.468  37.413  1.00  0.00    -0.237 OA
ATOM     98  O   UNL A   1      50.982  25.117  35.279  1.00  0.00    -0.237 OA
ATOM     99  O   UNL A   1      50.993  27.337  36.348  1.00  0.00    -0.744 OA
ENDBRANCH  95  96
ENDBRANCH  63  88
ENDBRANCH  37  38
ENDBRANCH  29  32
ENDBRANCH  27  28
ENDBRANCH  26  27
ENDBRANCH   1  26
TORSDOF 19
ENDMDL
