MODEL 1
REMARK VINA RESULT:     -13.4      0.000      0.000
REMARK SMILES Nc1ccc(C(=O)N2Cc3nc[nH]c3C[C@H]2C(=O)NCCCCNC(=O)c2ccc(-c3c4nc(c(-c5c(F)cc(S(=O)(=O)[O-])cc5F)c5ccc([nH]5)c(-c5c(F)cc(S(=O)(=O)[O-])cc5F)c5nc(c(-c6c(F)cc(S(=O)(=O)[O-])cc6F)c6ccc3[nH]6)C=C5)C=C4)cc2)cc1
REMARK SMILES IDX 21 1 20 2 19 3 17 4 18 5 16 7 8 8 9 9 10 10 15 11 11 12
REMARK SMILES IDX 14 13 12 14 13 15 6 17 7 18 5 19 2 20 3 21 94 22 4 23 93 24
REMARK SMILES IDX 1 25 22 28 23 29 24 30 25 31 26 33 27 34 28 35 92 36 29 37
REMARK SMILES IDX 91 38 30 39 31 40 32 41 85 42 33 43 90 44 84 45 86 46 34 47
REMARK SMILES IDX 89 48 83 49 82 50 35 52 69 53 48 54 68 55 49 56 52 57 67 58
REMARK SMILES IDX 87 59 50 60 51 61 66 63 88 64 53 65 36 66 37 67 46 68 38 69
REMARK SMILES IDX 39 70 45 71 47 72 40 73 41 74 42 75 43 76 44 77 70 78 71 79
REMARK SMILES IDX 80 80 72 81 73 82 79 83 81 84 74 85 75 86 76 87 77 88 78 89
REMARK SMILES IDX 54 90 55 91 64 92 56 93 57 94 63 95 65 96 58 97 59 98 60 99
REMARK SMILES IDX 61 100 62 101
REMARK H PARENT 19 6 13 16 1 26 1 27 24 32 86 51 52 62
REMARK Flexibility Score: inf
ROOT
ATOM      1  C   UNL A   1      35.890  23.906  25.899  1.00  0.00     0.023 C 
ENDROOT
BRANCH   1   2
ATOM      2  C   UNL A   1      34.933  24.654  24.972  1.00  0.00     0.116 C 
BRANCH   2   3
ATOM      3  N   UNL A   1      34.755  24.059  23.664  1.00  0.00    -0.354 N 
ATOM      4  C   UNL A   1      33.697  23.408  23.107  1.00  0.00     0.243 C 
ATOM      5  O   UNL A   1      33.654  23.442  21.869  1.00  0.00    -0.273 OA
ATOM      6  H   UNL A   1      35.538  24.139  23.073  1.00  0.00     0.163 HD
BRANCH   4   7
ATOM      7  C   UNL A   1      32.551  22.684  23.873  1.00  0.00     0.181 C 
ATOM      8  N   UNL A   1      32.718  22.425  25.349  1.00  0.00    -0.320 N 
ATOM      9  C   UNL A   1      32.115  23.332  26.351  1.00  0.00     0.178 C 
ATOM     10  C   UNL A   1      31.135  24.273  25.756  1.00  0.00     0.081 A 
ATOM     11  C   UNL A   1      31.154  23.239  23.456  1.00  0.00     0.091 C 
ATOM     12  N   UNL A   1      30.718  25.433  26.356  1.00  0.00    -0.240 NA
ATOM     13  C   UNL A   1      30.698  24.226  24.455  1.00  0.00     0.042 A 
ATOM     14  C   UNL A   1      30.026  26.069  25.434  1.00  0.00     0.197 A 
ATOM     15  N   UNL A   1      29.950  25.353  24.266  1.00  0.00    -0.348 N 
ATOM     16  H   UNL A   1      29.457  25.602  23.452  1.00  0.00     0.167 HD
BRANCH   8  17
ATOM     17  C   UNL A   1      33.305  21.273  25.896  1.00  0.00     0.254 C 
ATOM     18  O   UNL A   1      33.718  21.246  27.059  1.00  0.00    -0.269 OA
BRANCH  17  19
ATOM     19  C   UNL A   1      33.526  20.035  25.102  1.00  0.00     0.040 A 
ATOM     20  C   UNL A   1      33.870  17.512  23.875  1.00  0.00     0.031 A 
ATOM     21  C   UNL A   1      32.591  18.012  24.122  1.00  0.00     0.026 A 
ATOM     22  C   UNL A   1      34.968  18.255  24.307  1.00  0.00     0.026 A 
ATOM     23  C   UNL A   1      32.416  19.272  24.713  1.00  0.00     0.016 A 
ATOM     24  C   UNL A   1      34.797  19.492  24.937  1.00  0.00     0.016 A 
BRANCH  20  25
ATOM     25  N   UNL A   1      34.049  16.228  23.380  1.00  0.00    -0.399 N 
ATOM     26  H   UNL A   1      33.621  15.963  22.533  1.00  0.00     0.156 HD
ATOM     27  H   UNL A   1      34.604  15.583  23.875  1.00  0.00     0.156 HD
ENDBRANCH  20  25
ENDBRANCH  17  19
ENDBRANCH   8  17
ENDBRANCH   4   7
ENDBRANCH   2   3
ENDBRANCH   1   2
BRANCH   1  28
ATOM     28  C   UNL A   1      36.660  22.740  25.264  1.00  0.00     0.023 C 
BRANCH  28  29
ATOM     29  C   UNL A   1      38.183  22.824  25.338  1.00  0.00     0.116 C 
BRANCH  29  30
ATOM     30  N   UNL A   1      38.788  21.996  26.383  1.00  0.00    -0.352 N 
ATOM     31  C   UNL A   1      39.873  22.338  27.184  1.00  0.00     0.251 C 
ATOM     32  H   UNL A   1      38.386  21.111  26.535  1.00  0.00     0.163 HD
ATOM     33  O   UNL A   1      40.584  21.498  27.700  1.00  0.00    -0.269 OA
BRANCH  31  34
ATOM     34  C   UNL A   1      40.110  23.776  27.409  1.00  0.00     0.039 A 
ATOM     35  C   UNL A   1      39.100  24.730  27.274  1.00  0.00     0.014 A 
ATOM     36  C   UNL A   1      41.374  24.122  27.879  1.00  0.00     0.014 A 
ATOM     37  C   UNL A   1      39.348  26.026  27.723  1.00  0.00     0.010 A 
ATOM     38  C   UNL A   1      41.555  25.347  28.467  1.00  0.00     0.010 A 
ATOM     39  C   UNL A   1      40.570  26.323  28.353  1.00  0.00    -0.014 A 
BRANCH  39  40
ATOM     40  C   UNL A   1      40.785  27.613  29.004  1.00  0.00     0.031 A 
ATOM     41  C   UNL A   1      41.851  28.459  28.394  1.00  0.00     0.074 A 
ATOM     42  C   UNL A   1      39.964  28.112  29.956  1.00  0.00     0.049 A 
ATOM     43  N   UNL A   1      43.010  28.737  28.892  1.00  0.00    -0.248 NA
ATOM     44  C   UNL A   1      41.677  28.932  27.011  1.00  0.00     0.031 C 
ATOM     45  C   UNL A   1      38.701  27.567  30.467  1.00  0.00     0.029 A 
ATOM     46  N   UNL A   1      40.054  29.297  30.616  1.00  0.00    -0.354 N 
ATOM     47  C   UNL A   1      43.619  29.614  27.998  1.00  0.00     0.074 A 
ATOM     48  C   UNL A   1      42.844  29.540  26.785  1.00  0.00     0.031 C 
ATOM     49  C   UNL A   1      38.035  28.521  31.154  1.00  0.00     0.029 A 
ATOM     50  C   UNL A   1      38.900  29.675  31.295  1.00  0.00     0.049 A 
ATOM     51  H   UNL A   1      40.871  29.846  30.614  1.00  0.00     0.167 HD
ATOM     52  C   UNL A   1      44.569  30.499  28.414  1.00  0.00     0.037 A 
ATOM     53  C   UNL A   1      38.671  30.857  31.921  1.00  0.00     0.037 A 
ATOM     54  C   UNL A   1      45.069  30.145  29.720  1.00  0.00     0.049 A 
ATOM     55  C   UNL A   1      40.004  31.444  32.219  1.00  0.00     0.074 A 
ATOM     56  C   UNL A   1      45.663  29.015  30.252  1.00  0.00     0.029 A 
ATOM     57  N   UNL A   1      44.613  30.862  30.802  1.00  0.00    -0.354 N 
ATOM     58  N   UNL A   1      40.859  30.908  33.050  1.00  0.00    -0.248 NA
ATOM     59  C   UNL A   1      40.582  32.338  31.225  1.00  0.00     0.031 C 
ATOM     60  C   UNL A   1      45.066  28.861  31.539  1.00  0.00     0.029 A 
ATOM     61  C   UNL A   1      44.219  29.951  31.751  1.00  0.00     0.049 A 
ATOM     62  H   UNL A   1      44.576  31.843  30.880  1.00  0.00     0.167 HD
ATOM     63  C   UNL A   1      42.092  31.040  32.429  1.00  0.00     0.074 A 
ATOM     64  C   UNL A   1      41.867  31.994  31.341  1.00  0.00     0.031 C 
ATOM     65  C   UNL A   1      43.111  30.158  32.659  1.00  0.00     0.037 A 
BRANCH  52  66
ATOM     66  C   UNL A   1      44.790  31.874  27.821  1.00  0.00     0.058 A 
ATOM     67  C   UNL A   1      46.007  32.156  27.165  1.00  0.00     0.135 A 
ATOM     68  C   UNL A   1      43.986  32.997  28.113  1.00  0.00     0.135 A 
ATOM     69  F   UNL A   1      46.854  31.166  26.839  1.00  0.00    -0.206 F 
ATOM     70  C   UNL A   1      46.431  33.458  26.898  1.00  0.00     0.059 A 
ATOM     71  C   UNL A   1      44.364  34.300  27.807  1.00  0.00     0.059 A 
ATOM     72  F   UNL A   1      42.840  32.900  28.798  1.00  0.00    -0.206 F 
ATOM     73  C   UNL A   1      45.607  34.525  27.240  1.00  0.00     0.060 A 
BRANCH  73  74
ATOM     74  S   UNL A   1      46.193  36.210  26.997  1.00  0.00     0.124 S 
ATOM     75  O   UNL A   1      44.938  36.951  26.956  1.00  0.00    -0.237 OA
ATOM     76  O   UNL A   1      47.020  36.416  28.181  1.00  0.00    -0.237 OA
ATOM     77  O   UNL A   1      46.923  36.132  25.734  1.00  0.00    -0.744 OA
ENDBRANCH  73  74
ENDBRANCH  52  66
BRANCH  53  78
ATOM     78  C   UNL A   1      37.406  31.645  31.932  1.00  0.00     0.058 A 
ATOM     79  C   UNL A   1      36.759  31.974  33.136  1.00  0.00     0.135 A 
ATOM     80  C   UNL A   1      36.957  32.331  30.783  1.00  0.00     0.135 A 
ATOM     81  F   UNL A   1      37.130  31.383  34.282  1.00  0.00    -0.206 F 
ATOM     82  C   UNL A   1      35.767  32.961  33.209  1.00  0.00     0.059 A 
ATOM     83  C   UNL A   1      35.967  33.311  30.829  1.00  0.00     0.059 A 
ATOM     84  F   UNL A   1      37.533  32.134  29.588  1.00  0.00    -0.206 F 
ATOM     85  C   UNL A   1      35.392  33.641  32.051  1.00  0.00     0.060 A 
BRANCH  85  86
ATOM     86  S   UNL A   1      34.245  35.037  32.162  1.00  0.00     0.124 S 
ATOM     87  O   UNL A   1      33.087  34.424  32.802  1.00  0.00    -0.237 OA
ATOM     88  O   UNL A   1      34.996  35.988  32.975  1.00  0.00    -0.237 OA
ATOM     89  O   UNL A   1      34.054  35.429  30.768  1.00  0.00    -0.744 OA
ENDBRANCH  85  86
ENDBRANCH  53  78
BRANCH  65  90
ATOM     90  C   UNL A   1      42.990  29.181  33.804  1.00  0.00     0.058 A 
ATOM     91  C   UNL A   1      43.222  29.495  35.157  1.00  0.00     0.135 A 
ATOM     92  C   UNL A   1      42.443  27.917  33.532  1.00  0.00     0.135 A 
ATOM     93  F   UNL A   1      43.644  30.713  35.522  1.00  0.00    -0.206 F 
ATOM     94  C   UNL A   1      42.958  28.582  36.182  1.00  0.00     0.059 A 
ATOM     95  C   UNL A   1      42.141  27.005  34.540  1.00  0.00     0.059 A 
ATOM     96  F   UNL A   1      42.140  27.574  32.269  1.00  0.00    -0.206 F 
ATOM     97  C   UNL A   1      42.413  27.338  35.863  1.00  0.00     0.060 A 
BRANCH  97  98
ATOM     98  S   UNL A   1      42.006  26.186  37.193  1.00  0.00     0.124 S 
ATOM     99  O   UNL A   1      40.675  26.633  37.589  1.00  0.00    -0.237 OA
ATOM    100  O   UNL A   1      42.065  24.891  36.520  1.00  0.00    -0.237 OA
ATOM    101  O   UNL A   1      43.060  26.414  38.178  1.00  0.00    -0.744 OA
ENDBRANCH  97  98
ENDBRANCH  65  90
ENDBRANCH  39  40
ENDBRANCH  31  34
ENDBRANCH  29  30
ENDBRANCH  28  29
ENDBRANCH   1  28
TORSDOF 17
ENDMDL
MODEL 2
REMARK VINA RESULT:     -13.1      2.949      9.092
REMARK SMILES Nc1ccc(C(=O)N2Cc3nc[nH]c3C[C@H]2C(=O)NCCCCNC(=O)c2ccc(-c3c4nc(c(-c5c(F)cc(S(=O)(=O)[O-])cc5F)c5ccc([nH]5)c(-c5c(F)cc(S(=O)(=O)[O-])cc5F)c5nc(c(-c6c(F)cc(S(=O)(=O)[O-])cc6F)c6ccc3[nH]6)C=C5)C=C4)cc2)cc1
REMARK SMILES IDX 21 1 20 2 19 3 17 4 18 5 16 7 8 8 9 9 10 10 15 11 11 12
REMARK SMILES IDX 14 13 12 14 13 15 6 17 7 18 5 19 2 20 3 21 94 22 4 23 93 24
REMARK SMILES IDX 1 25 22 28 23 29 24 30 25 31 26 33 27 34 28 35 92 36 29 37
REMARK SMILES IDX 91 38 30 39 31 40 32 41 85 42 33 43 90 44 84 45 86 46 34 47
REMARK SMILES IDX 89 48 83 49 82 50 35 52 69 53 48 54 68 55 49 56 52 57 67 58
REMARK SMILES IDX 87 59 50 60 51 61 66 63 88 64 53 65 36 66 37 67 46 68 38 69
REMARK SMILES IDX 39 70 45 71 47 72 40 73 41 74 42 75 43 76 44 77 70 78 71 79
REMARK SMILES IDX 80 80 72 81 73 82 79 83 81 84 74 85 75 86 76 87 77 88 78 89
REMARK SMILES IDX 54 90 55 91 64 92 56 93 57 94 63 95 65 96 58 97 59 98 60 99
REMARK SMILES IDX 61 100 62 101
REMARK H PARENT 19 6 13 16 1 26 1 27 24 32 86 51 52 62
REMARK Flexibility Score: inf
ROOT
ATOM      1  C   UNL A   1      33.759  28.237  25.422  1.00  0.00     0.023 C 
ENDROOT
BRANCH   1   2
ATOM      2  C   UNL A   1      33.421  26.801  25.025  1.00  0.00     0.116 C 
BRANCH   2   3
ATOM      3  N   UNL A   1      33.970  26.369  23.758  1.00  0.00    -0.354 N 
ATOM      4  C   UNL A   1      33.565  25.410  22.880  1.00  0.00     0.243 C 
ATOM      5  O   UNL A   1      33.923  25.588  21.708  1.00  0.00    -0.273 OA
ATOM      6  H   UNL A   1      34.781  26.853  23.482  1.00  0.00     0.163 HD
BRANCH   4   7
ATOM      7  C   UNL A   1      32.682  24.171  23.210  1.00  0.00     0.181 C 
ATOM      8  N   UNL A   1      33.037  23.327  24.408  1.00  0.00    -0.320 N 
ATOM      9  C   UNL A   1      32.343  23.517  25.702  1.00  0.00     0.178 C 
ATOM     10  C   UNL A   1      31.130  24.362  25.582  1.00  0.00     0.081 A 
ATOM     11  C   UNL A   1      31.165  24.503  23.064  1.00  0.00     0.091 C 
ATOM     12  N   UNL A   1      30.523  24.994  26.637  1.00  0.00    -0.240 NA
ATOM     13  C   UNL A   1      30.596  24.798  24.395  1.00  0.00     0.042 A 
ATOM     14  C   UNL A   1      29.626  25.790  26.093  1.00  0.00     0.197 A 
ATOM     15  N   UNL A   1      29.604  25.677  24.725  1.00  0.00    -0.348 N 
ATOM     16  H   UNL A   1      28.996  26.138  24.105  1.00  0.00     0.167 HD
BRANCH   8  17
ATOM     17  C   UNL A   1      33.911  22.229  24.382  1.00  0.00     0.254 C 
ATOM     18  O   UNL A   1      33.555  21.128  23.954  1.00  0.00    -0.269 OA
BRANCH  17  19
ATOM     19  C   UNL A   1      35.295  22.297  24.922  1.00  0.00     0.040 A 
ATOM     20  C   UNL A   1      38.015  22.552  25.648  1.00  0.00     0.031 A 
ATOM     21  C   UNL A   1      37.186  23.674  25.598  1.00  0.00     0.026 A 
ATOM     22  C   UNL A   1      37.487  21.319  25.269  1.00  0.00     0.026 A 
ATOM     23  C   UNL A   1      35.831  23.548  25.258  1.00  0.00     0.016 A 
ATOM     24  C   UNL A   1      36.148  21.197  24.885  1.00  0.00     0.016 A 
BRANCH  20  25
ATOM     25  N   UNL A   1      39.376  22.683  25.891  1.00  0.00    -0.399 N 
ATOM     26  H   UNL A   1      39.865  21.961  26.347  1.00  0.00     0.156 HD
ATOM     27  H   UNL A   1      39.850  23.496  25.606  1.00  0.00     0.156 HD
ENDBRANCH  20  25
ENDBRANCH  17  19
ENDBRANCH   8  17
ENDBRANCH   4   7
ENDBRANCH   2   3
ENDBRANCH   1   2
BRANCH   1  28
ATOM     28  C   UNL A   1      32.900  28.842  26.541  1.00  0.00     0.023 C 
BRANCH  28  29
ATOM     29  C   UNL A   1      33.652  29.643  27.602  1.00  0.00     0.116 C 
BRANCH  29  30
ATOM     30  N   UNL A   1      34.087  30.971  27.166  1.00  0.00    -0.352 N 
ATOM     31  C   UNL A   1      35.185  31.680  27.642  1.00  0.00     0.251 C 
ATOM     32  H   UNL A   1      33.550  31.405  26.465  1.00  0.00     0.163 HD
ATOM     33  O   UNL A   1      35.248  32.891  27.579  1.00  0.00    -0.269 OA
BRANCH  31  34
ATOM     34  C   UNL A   1      36.296  30.889  28.206  1.00  0.00     0.039 A 
ATOM     35  C   UNL A   1      36.435  29.521  27.968  1.00  0.00     0.014 A 
ATOM     36  C   UNL A   1      37.270  31.607  28.896  1.00  0.00     0.014 A 
ATOM     37  C   UNL A   1      37.625  28.901  28.344  1.00  0.00     0.010 A 
ATOM     38  C   UNL A   1      38.495  31.032  29.111  1.00  0.00     0.010 A 
ATOM     39  C   UNL A   1      38.670  29.670  28.886  1.00  0.00    -0.014 A 
BRANCH  39  40
ATOM     40  C   UNL A   1      39.993  29.089  29.109  1.00  0.00     0.031 A 
ATOM     41  C   UNL A   1      40.366  28.900  30.540  1.00  0.00     0.074 A 
ATOM     42  C   UNL A   1      40.753  28.569  28.119  1.00  0.00     0.049 A 
ATOM     43  N   UNL A   1      41.249  29.561  31.212  1.00  0.00    -0.248 NA
ATOM     44  C   UNL A   1      39.572  27.973  31.364  1.00  0.00     0.031 C 
ATOM     45  C   UNL A   1      40.427  28.388  26.699  1.00  0.00     0.029 A 
ATOM     46  N   UNL A   1      41.981  27.992  28.208  1.00  0.00    -0.354 N 
ATOM     47  C   UNL A   1      41.294  28.978  32.476  1.00  0.00     0.074 A 
ATOM     48  C   UNL A   1      40.118  28.150  32.570  1.00  0.00     0.031 C 
ATOM     49  C   UNL A   1      41.311  27.539  26.131  1.00  0.00     0.029 A 
ATOM     50  C   UNL A   1      42.367  27.266  27.086  1.00  0.00     0.049 A 
ATOM     51  H   UNL A   1      42.553  28.080  29.004  1.00  0.00     0.167 HD
ATOM     52  C   UNL A   1      42.418  29.047  33.246  1.00  0.00     0.037 A 
ATOM     53  C   UNL A   1      43.473  26.490  26.955  1.00  0.00     0.037 A 
ATOM     54  C   UNL A   1      43.323  30.055  32.748  1.00  0.00     0.049 A 
ATOM     55  C   UNL A   1      44.444  26.962  27.977  1.00  0.00     0.074 A 
ATOM     56  C   UNL A   1      43.217  31.411  32.504  1.00  0.00     0.029 A 
ATOM     57  N   UNL A   1      44.420  29.638  32.030  1.00  0.00    -0.354 N 
ATOM     58  N   UNL A   1      44.995  28.148  27.956  1.00  0.00    -0.248 NA
ATOM     59  C   UNL A   1      44.416  26.314  29.281  1.00  0.00     0.031 C 
ATOM     60  C   UNL A   1      43.901  31.613  31.268  1.00  0.00     0.029 A 
ATOM     61  C   UNL A   1      44.460  30.393  30.883  1.00  0.00     0.049 A 
ATOM     62  H   UNL A   1      45.056  28.933  32.289  1.00  0.00     0.167 HD
ATOM     63  C   UNL A   1      44.981  28.572  29.277  1.00  0.00     0.074 A 
ATOM     64  C   UNL A   1      44.680  27.370  30.056  1.00  0.00     0.031 C 
ATOM     65  C   UNL A   1      44.927  29.898  29.606  1.00  0.00     0.037 A 
BRANCH  52  66
ATOM     66  C   UNL A   1      42.869  27.977  34.216  1.00  0.00     0.058 A 
ATOM     67  C   UNL A   1      43.012  28.299  35.582  1.00  0.00     0.135 A 
ATOM     68  C   UNL A   1      43.433  26.744  33.823  1.00  0.00     0.135 A 
ATOM     69  F   UNL A   1      42.516  29.449  36.070  1.00  0.00    -0.206 F 
ATOM     70  C   UNL A   1      43.733  27.500  36.470  1.00  0.00     0.059 A 
ATOM     71  C   UNL A   1      44.109  25.905  34.702  1.00  0.00     0.059 A 
ATOM     72  F   UNL A   1      43.446  26.334  32.548  1.00  0.00    -0.206 F 
ATOM     73  C   UNL A   1      44.293  26.311  36.013  1.00  0.00     0.060 A 
BRANCH  73  74
ATOM     74  S   UNL A   1      45.314  25.329  37.125  1.00  0.00     0.124 S 
ATOM     75  O   UNL A   1      44.464  25.253  38.308  1.00  0.00    -0.237 OA
ATOM     76  O   UNL A   1      45.476  24.091  36.372  1.00  0.00    -0.237 OA
ATOM     77  O   UNL A   1      46.524  26.134  37.268  1.00  0.00    -0.744 OA
ENDBRANCH  73  74
ENDBRANCH  52  66
BRANCH  53  78
ATOM     78  C   UNL A   1      43.576  25.170  26.273  1.00  0.00     0.058 A 
ATOM     79  C   UNL A   1      44.537  24.936  25.272  1.00  0.00     0.135 A 
ATOM     80  C   UNL A   1      42.925  24.026  26.781  1.00  0.00     0.135 A 
ATOM     81  F   UNL A   1      45.217  25.963  24.741  1.00  0.00    -0.206 F 
ATOM     82  C   UNL A   1      44.872  23.645  24.841  1.00  0.00     0.059 A 
ATOM     83  C   UNL A   1      43.235  22.733  26.363  1.00  0.00     0.059 A 
ATOM     84  F   UNL A   1      42.025  24.123  27.771  1.00  0.00    -0.206 F 
ATOM     85  C   UNL A   1      44.229  22.546  25.410  1.00  0.00     0.060 A 
BRANCH  85  86
ATOM     86  S   UNL A   1      44.778  20.873  24.993  1.00  0.00     0.124 S 
ATOM     87  O   UNL A   1      44.650  20.868  23.540  1.00  0.00    -0.237 OA
ATOM     88  O   UNL A   1      46.141  20.857  25.514  1.00  0.00    -0.237 OA
ATOM     89  O   UNL A   1      43.831  20.019  25.706  1.00  0.00    -0.744 OA
ENDBRANCH  85  86
ENDBRANCH  53  78
BRANCH  65  90
ATOM     90  C   UNL A   1      45.154  30.930  28.528  1.00  0.00     0.058 A 
ATOM     91  C   UNL A   1      44.171  31.379  27.625  1.00  0.00     0.135 A 
ATOM     92  C   UNL A   1      46.376  31.622  28.529  1.00  0.00     0.135 A 
ATOM     93  F   UNL A   1      42.940  30.849  27.623  1.00  0.00    -0.206 F 
ATOM     94  C   UNL A   1      44.407  32.436  26.742  1.00  0.00     0.059 A 
ATOM     95  C   UNL A   1      46.621  32.699  27.681  1.00  0.00     0.059 A 
ATOM     96  F   UNL A   1      47.336  31.287  29.406  1.00  0.00    -0.206 F 
ATOM     97  C   UNL A   1      45.636  33.094  26.780  1.00  0.00     0.060 A 
BRANCH  97  98
ATOM     98  S   UNL A   1      45.916  34.505  25.689  1.00  0.00     0.124 S 
ATOM     99  O   UNL A   1      45.021  34.214  24.574  1.00  0.00    -0.237 OA
ATOM    100  O   UNL A   1      45.535  35.637  26.529  1.00  0.00    -0.237 OA
ATOM    101  O   UNL A   1      47.342  34.422  25.382  1.00  0.00    -0.744 OA
ENDBRANCH  97  98
ENDBRANCH  65  90
ENDBRANCH  39  40
ENDBRANCH  31  34
ENDBRANCH  29  30
ENDBRANCH  28  29
ENDBRANCH   1  28
TORSDOF 17
ENDMDL
MODEL 3
REMARK VINA RESULT:     -13.1      1.713      2.784
REMARK SMILES Nc1ccc(C(=O)N2Cc3nc[nH]c3C[C@H]2C(=O)NCCCCNC(=O)c2ccc(-c3c4nc(c(-c5c(F)cc(S(=O)(=O)[O-])cc5F)c5ccc([nH]5)c(-c5c(F)cc(S(=O)(=O)[O-])cc5F)c5nc(c(-c6c(F)cc(S(=O)(=O)[O-])cc6F)c6ccc3[nH]6)C=C5)C=C4)cc2)cc1
REMARK SMILES IDX 21 1 20 2 19 3 17 4 18 5 16 7 8 8 9 9 10 10 15 11 11 12
REMARK SMILES IDX 14 13 12 14 13 15 6 17 7 18 5 19 2 20 3 21 94 22 4 23 93 24
REMARK SMILES IDX 1 25 22 28 23 29 24 30 25 31 26 33 27 34 28 35 92 36 29 37
REMARK SMILES IDX 91 38 30 39 31 40 32 41 85 42 33 43 90 44 84 45 86 46 34 47
REMARK SMILES IDX 89 48 83 49 82 50 35 52 69 53 48 54 68 55 49 56 52 57 67 58
REMARK SMILES IDX 87 59 50 60 51 61 66 63 88 64 53 65 36 66 37 67 46 68 38 69
REMARK SMILES IDX 39 70 45 71 47 72 40 73 41 74 42 75 43 76 44 77 70 78 71 79
REMARK SMILES IDX 80 80 72 81 73 82 79 83 81 84 74 85 75 86 76 87 77 88 78 89
REMARK SMILES IDX 54 90 55 91 64 92 56 93 57 94 63 95 65 96 58 97 59 98 60 99
REMARK SMILES IDX 61 100 62 101
REMARK H PARENT 19 6 13 16 1 26 1 27 24 32 86 51 52 62
REMARK Flexibility Score: inf
ROOT
ATOM      1  C   UNL A   1      35.372  24.234  25.538  1.00  0.00     0.023 C 
ENDROOT
BRANCH   1   2
ATOM      2  C   UNL A   1      33.863  23.995  25.571  1.00  0.00     0.116 C 
BRANCH   2   3
ATOM      3  N   UNL A   1      33.116  24.908  26.409  1.00  0.00    -0.354 N 
ATOM      4  C   UNL A   1      32.517  26.099  26.133  1.00  0.00     0.243 C 
ATOM      5  O   UNL A   1      31.579  26.400  26.885  1.00  0.00    -0.273 OA
ATOM      6  H   UNL A   1      33.025  24.617  27.345  1.00  0.00     0.163 HD
BRANCH   4   7
ATOM      7  C   UNL A   1      32.873  27.063  24.964  1.00  0.00     0.181 C 
ATOM      8  N   UNL A   1      31.777  27.498  24.026  1.00  0.00    -0.320 N 
ATOM      9  C   UNL A   1      31.098  28.802  24.206  1.00  0.00     0.178 C 
ATOM     10  C   UNL A   1      31.804  29.688  25.163  1.00  0.00     0.081 A 
ATOM     11  C   UNL A   1      33.824  28.204  25.441  1.00  0.00     0.091 C 
ATOM     12  N   UNL A   1      31.227  30.763  25.788  1.00  0.00    -0.240 NA
ATOM     13  C   UNL A   1      33.034  29.422  25.712  1.00  0.00     0.042 A 
ATOM     14  C   UNL A   1      32.104  31.149  26.692  1.00  0.00     0.197 A 
ATOM     15  N   UNL A   1      33.243  30.384  26.658  1.00  0.00    -0.348 N 
ATOM     16  H   UNL A   1      34.051  30.505  27.207  1.00  0.00     0.167 HD
BRANCH   8  17
ATOM     17  C   UNL A   1      31.408  26.817  22.855  1.00  0.00     0.254 C 
ATOM     18  O   UNL A   1      30.864  27.396  21.912  1.00  0.00    -0.269 OA
BRANCH  17  19
ATOM     19  C   UNL A   1      31.587  25.349  22.697  1.00  0.00     0.040 A 
ATOM     20  C   UNL A   1      32.049  22.560  22.712  1.00  0.00     0.031 A 
ATOM     21  C   UNL A   1      30.954  23.101  23.388  1.00  0.00     0.026 A 
ATOM     22  C   UNL A   1      32.942  23.431  22.088  1.00  0.00     0.026 A 
ATOM     23  C   UNL A   1      30.711  24.483  23.365  1.00  0.00     0.016 A 
ATOM     24  C   UNL A   1      32.727  24.813  22.103  1.00  0.00     0.016 A 
BRANCH  20  25
ATOM     25  N   UNL A   1      32.348  21.208  22.809  1.00  0.00    -0.399 N 
ATOM     26  H   UNL A   1      33.013  20.807  22.204  1.00  0.00     0.156 HD
ATOM     27  H   UNL A   1      31.896  20.651  23.483  1.00  0.00     0.156 HD
ENDBRANCH  20  25
ENDBRANCH  17  19
ENDBRANCH   8  17
ENDBRANCH   4   7
ENDBRANCH   2   3
ENDBRANCH   1   2
BRANCH   1  28
ATOM     28  C   UNL A   1      36.240  23.112  26.125  1.00  0.00     0.023 C 
BRANCH  28  29
ATOM     29  C   UNL A   1      37.707  23.109  25.699  1.00  0.00     0.116 C 
BRANCH  29  30
ATOM     30  N   UNL A   1      38.559  22.195  26.463  1.00  0.00    -0.352 N 
ATOM     31  C   UNL A   1      39.831  22.468  26.956  1.00  0.00     0.251 C 
ATOM     32  H   UNL A   1      38.195  21.299  26.645  1.00  0.00     0.163 HD
ATOM     33  O   UNL A   1      40.638  21.588  27.183  1.00  0.00    -0.269 OA
BRANCH  31  34
ATOM     34  C   UNL A   1      40.153  23.882  27.225  1.00  0.00     0.039 A 
ATOM     35  C   UNL A   1      39.281  24.922  26.897  1.00  0.00     0.014 A 
ATOM     36  C   UNL A   1      41.328  24.118  27.934  1.00  0.00     0.014 A 
ATOM     37  C   UNL A   1      39.558  26.197  27.388  1.00  0.00     0.010 A 
ATOM     38  C   UNL A   1      41.505  25.331  28.547  1.00  0.00     0.010 A 
ATOM     39  C   UNL A   1      40.656  26.391  28.244  1.00  0.00    -0.014 A 
BRANCH  39  40
ATOM     40  C   UNL A   1      40.859  27.667  28.927  1.00  0.00     0.031 A 
ATOM     41  C   UNL A   1      41.926  28.531  28.346  1.00  0.00     0.074 A 
ATOM     42  C   UNL A   1      40.028  28.140  29.884  1.00  0.00     0.049 A 
ATOM     43  N   UNL A   1      43.079  28.804  28.860  1.00  0.00    -0.248 NA
ATOM     44  C   UNL A   1      41.761  29.036  26.972  1.00  0.00     0.031 C 
ATOM     45  C   UNL A   1      38.763  27.577  30.371  1.00  0.00     0.029 A 
ATOM     46  N   UNL A   1      40.107  29.310  30.571  1.00  0.00    -0.354 N 
ATOM     47  C   UNL A   1      43.691  29.704  27.991  1.00  0.00     0.074 A 
ATOM     48  C   UNL A   1      42.927  29.654  26.771  1.00  0.00     0.031 C 
ATOM     49  C   UNL A   1      38.087  28.512  31.074  1.00  0.00     0.029 A 
ATOM     50  C   UNL A   1      38.946  29.667  31.249  1.00  0.00     0.049 A 
ATOM     51  H   UNL A   1      40.921  29.862  30.589  1.00  0.00     0.167 HD
ATOM     52  C   UNL A   1      44.634  30.583  28.435  1.00  0.00     0.037 A 
ATOM     53  C   UNL A   1      38.705  30.833  31.901  1.00  0.00     0.037 A 
ATOM     54  C   UNL A   1      45.124  30.201  29.738  1.00  0.00     0.049 A 
ATOM     55  C   UNL A   1      40.033  31.419  32.223  1.00  0.00     0.074 A 
ATOM     56  C   UNL A   1      45.720  29.062  30.248  1.00  0.00     0.029 A 
ATOM     57  N   UNL A   1      44.657  30.891  30.832  1.00  0.00    -0.354 N 
ATOM     58  N   UNL A   1      40.884  30.867  33.049  1.00  0.00    -0.248 NA
ATOM     59  C   UNL A   1      40.615  32.338  31.255  1.00  0.00     0.031 C 
ATOM     60  C   UNL A   1      45.113  28.876  31.526  1.00  0.00     0.029 A 
ATOM     61  C   UNL A   1      44.259  29.956  31.756  1.00  0.00     0.049 A 
ATOM     62  H   UNL A   1      44.614  31.870  30.933  1.00  0.00     0.167 HD
ATOM     63  C   UNL A   1      42.121  31.019  32.441  1.00  0.00     0.074 A 
ATOM     64  C   UNL A   1      41.901  31.997  31.374  1.00  0.00     0.031 C 
ATOM     65  C   UNL A   1      43.143  30.137  32.660  1.00  0.00     0.037 A 
BRANCH  52  66
ATOM     66  C   UNL A   1      44.853  31.972  27.876  1.00  0.00     0.058 A 
ATOM     67  C   UNL A   1      46.083  32.282  27.259  1.00  0.00     0.135 A 
ATOM     68  C   UNL A   1      44.027  33.079  28.169  1.00  0.00     0.135 A 
ATOM     69  F   UNL A   1      46.951  31.309  26.936  1.00  0.00    -0.206 F 
ATOM     70  C   UNL A   1      46.498  33.595  27.030  1.00  0.00     0.059 A 
ATOM     71  C   UNL A   1      44.397  34.393  27.900  1.00  0.00     0.059 A 
ATOM     72  F   UNL A   1      42.865  32.955  28.822  1.00  0.00    -0.206 F 
ATOM     73  C   UNL A   1      45.652  34.644  27.371  1.00  0.00     0.060 A 
BRANCH  73  74
ATOM     74  S   UNL A   1      46.224  36.341  27.177  1.00  0.00     0.124 S 
ATOM     75  O   UNL A   1      44.983  37.087  27.356  1.00  0.00    -0.237 OA
ATOM     76  O   UNL A   1      47.200  36.456  28.255  1.00  0.00    -0.237 OA
ATOM     77  O   UNL A   1      46.782  36.355  25.828  1.00  0.00    -0.744 OA
ENDBRANCH  73  74
ENDBRANCH  52  66
BRANCH  53  78
ATOM     78  C   UNL A   1      37.437  31.614  31.919  1.00  0.00     0.058 A 
ATOM     79  C   UNL A   1      36.783  31.919  33.126  1.00  0.00     0.135 A 
ATOM     80  C   UNL A   1      36.990  32.319  30.781  1.00  0.00     0.135 A 
ATOM     81  F   UNL A   1      37.151  31.310  34.263  1.00  0.00    -0.206 F 
ATOM     82  C   UNL A   1      35.785  32.900  33.211  1.00  0.00     0.059 A 
ATOM     83  C   UNL A   1      35.994  33.293  30.839  1.00  0.00     0.059 A 
ATOM     84  F   UNL A   1      37.573  32.144  29.585  1.00  0.00    -0.206 F 
ATOM     85  C   UNL A   1      35.413  33.599  32.063  1.00  0.00     0.060 A 
BRANCH  85  86
ATOM     86  S   UNL A   1      34.259  34.987  32.193  1.00  0.00     0.124 S 
ATOM     87  O   UNL A   1      33.145  34.385  32.916  1.00  0.00    -0.237 OA
ATOM     88  O   UNL A   1      35.043  35.971  32.932  1.00  0.00    -0.237 OA
ATOM     89  O   UNL A   1      33.986  35.331  30.800  1.00  0.00    -0.744 OA
ENDBRANCH  85  86
ENDBRANCH  53  78
BRANCH  65  90
ATOM     90  C   UNL A   1      43.017  29.133  33.781  1.00  0.00     0.058 A 
ATOM     91  C   UNL A   1      43.278  29.406  35.137  1.00  0.00     0.135 A 
ATOM     92  C   UNL A   1      42.435  27.890  33.485  1.00  0.00     0.135 A 
ATOM     93  F   UNL A   1      43.736  30.603  35.527  1.00  0.00    -0.206 F 
ATOM     94  C   UNL A   1      43.009  28.473  36.142  1.00  0.00     0.059 A 
ATOM     95  C   UNL A   1      42.128  26.959  34.473  1.00  0.00     0.059 A 
ATOM     96  F   UNL A   1      42.103  27.588  32.219  1.00  0.00    -0.206 F 
ATOM     97  C   UNL A   1      42.430  27.251  35.801  1.00  0.00     0.060 A 
BRANCH  97  98
ATOM     98  S   UNL A   1      42.017  26.074  37.107  1.00  0.00     0.124 S 
ATOM     99  O   UNL A   1      42.229  24.792  36.442  1.00  0.00    -0.237 OA
ATOM    100  O   UNL A   1      42.977  26.411  38.154  1.00  0.00    -0.237 OA
ATOM    101  O   UNL A   1      40.626  26.390  37.424  1.00  0.00    -0.744 OA
ENDBRANCH  97  98
ENDBRANCH  65  90
ENDBRANCH  39  40
ENDBRANCH  31  34
ENDBRANCH  29  30
ENDBRANCH  28  29
ENDBRANCH   1  28
TORSDOF 17
ENDMDL
