MODEL 1
REMARK VINA RESULT:     -11.8      0.000      0.000
REMARK SMILES CCCc1cc2c(cc1Cl)C=C(C(=O)NCCCCNC(=O)c1ccc(-c3c4nc(c(-c5c(F)cc(S(=O)(=O)[O-])cc5F)c5ccc([nH]5)c(-c5c(F)cc(S(=O)(=O)[O-])cc5F)c5nc(c(-c6c(F)cc(S(=O)(=O)[O-])cc6F)c6ccc3[nH]6)C=C5)C=C4)cc1)[C@H](C(F)(F)F)O2
REMARK SMILES IDX 18 1 17 2 16 3 15 4 13 5 14 6 12 8 4 9 5 10 9 11 6 12 8 13
REMARK SMILES IDX 10 14 7 15 94 16 11 17 89 18 3 19 2 20 1 21 90 22 91 23
REMARK SMILES IDX 92 24 93 25 19 26 20 27 21 28 22 30 23 31 24 32 88 33 25 34
REMARK SMILES IDX 87 35 26 36 27 37 28 38 81 39 29 40 86 41 80 42 82 43 30 44
REMARK SMILES IDX 85 45 79 46 78 47 31 49 65 50 44 51 64 52 45 53 48 54 63 55
REMARK SMILES IDX 83 56 46 57 47 58 62 60 84 61 49 62 32 63 33 64 42 65 34 66
REMARK SMILES IDX 35 67 41 68 43 69 36 70 37 71 38 72 39 73 40 74 66 75 67 76
REMARK SMILES IDX 76 77 68 78 69 79 75 80 77 81 70 82 71 83 72 84 73 85 74 86
REMARK SMILES IDX 50 87 51 88 60 89 52 90 53 91 59 92 61 93 54 94 55 95 56 96
REMARK SMILES IDX 57 97 58 98
REMARK H PARENT 15 7 20 29 82 48 48 59
REMARK Flexibility Score: inf
ROOT
ATOM      1  C   UNL A   1      32.074  28.406  26.969  1.00  0.00     0.023 C 
ENDROOT
BRANCH   1   2
ATOM      2  C   UNL A   1      31.664  28.994  25.616  1.00  0.00     0.023 C 
BRANCH   2   3
ATOM      3  C   UNL A   1      32.559  28.587  24.445  1.00  0.00     0.116 C 
BRANCH   3   4
ATOM      4  N   UNL A   1      31.786  28.292  23.252  1.00  0.00    -0.352 N 
ATOM      5  C   UNL A   1      31.327  27.171  22.650  1.00  0.00     0.251 C 
ATOM      6  O   UNL A   1      30.569  27.350  21.691  1.00  0.00    -0.270 OA
ATOM      7  H   UNL A   1      31.533  29.109  22.762  1.00  0.00     0.163 HD
BRANCH   5   8
ATOM      8  C   UNL A   1      31.671  25.777  23.055  1.00  0.00     0.067 C 
ATOM      9  C   UNL A   1      34.140  21.554  24.260  1.00  0.00    -0.026 A 
ATOM     10  C   UNL A   1      32.787  21.876  24.053  1.00  0.00     0.052 A 
ATOM     11  C   UNL A   1      35.109  22.537  23.990  1.00  0.00     0.045 A 
ATOM     12  C   UNL A   1      32.421  23.152  23.637  1.00  0.00     0.128 A 
ATOM     13  C   UNL A   1      34.736  23.799  23.508  1.00  0.00     0.032 A 
ATOM     14  Cl  UNL A   1      36.795  22.252  24.244  1.00  0.00    -0.084 Cl
ATOM     15  C   UNL A   1      33.388  24.111  23.336  1.00  0.00     0.019 A 
ATOM     16  O   UNL A   1      31.081  23.426  23.551  1.00  0.00    -0.475 OA
ATOM     17  C   UNL A   1      32.954  25.417  22.855  1.00  0.00     0.025 C 
ATOM     18  C   UNL A   1      30.749  24.831  23.778  1.00  0.00     0.314 C 
BRANCH   9  19
ATOM     19  C   UNL A   1      34.478  20.185  24.806  1.00  0.00     0.037 C 
BRANCH  19  20
ATOM     20  C   UNL A   1      33.467  19.099  24.416  1.00  0.00     0.001 C 
ATOM     21  C   UNL A   1      32.763  18.465  25.609  1.00  0.00     0.004 C 
ENDBRANCH  19  20
ENDBRANCH   9  19
BRANCH  18  22
ATOM     22  C   UNL A   1      30.628  25.126  25.286  1.00  0.00     0.429 C 
ATOM     23  F   UNL A   1      31.825  25.538  25.776  1.00  0.00    -0.167 F 
ATOM     24  F   UNL A   1      29.728  26.094  25.569  1.00  0.00    -0.167 F 
ATOM     25  F   UNL A   1      30.268  24.033  25.997  1.00  0.00    -0.167 F 
ENDBRANCH  18  22
ENDBRANCH   5   8
ENDBRANCH   3   4
ENDBRANCH   2   3
ENDBRANCH   1   2
BRANCH   1  26
ATOM     26  C   UNL A   1      33.463  28.809  27.451  1.00  0.00     0.116 C 
BRANCH  26  27
ATOM     27  N   UNL A   1      33.530  30.160  27.996  1.00  0.00    -0.352 N 
ATOM     28  C   UNL A   1      34.637  30.802  28.503  1.00  0.00     0.251 C 
ATOM     29  H   UNL A   1      32.688  30.670  28.002  1.00  0.00     0.163 HD
ATOM     30  O   UNL A   1      34.552  31.924  28.986  1.00  0.00    -0.269 OA
BRANCH  28  31
ATOM     31  C   UNL A   1      35.918  30.069  28.508  1.00  0.00     0.039 A 
ATOM     32  C   UNL A   1      36.386  29.494  29.692  1.00  0.00     0.014 A 
ATOM     33  C   UNL A   1      36.714  30.102  27.361  1.00  0.00     0.014 A 
ATOM     34  C   UNL A   1      37.718  29.108  29.777  1.00  0.00     0.010 A 
ATOM     35  C   UNL A   1      38.034  29.657  27.434  1.00  0.00     0.010 A 
ATOM     36  C   UNL A   1      38.562  29.220  28.661  1.00  0.00    -0.014 A 
BRANCH  36  37
ATOM     37  C   UNL A   1      40.016  28.967  28.814  1.00  0.00     0.031 A 
ATOM     38  C   UNL A   1      40.901  30.011  29.445  1.00  0.00     0.074 A 
ATOM     39  C   UNL A   1      40.527  27.774  28.460  1.00  0.00     0.049 A 
ATOM     40  N   UNL A   1      42.195  29.991  29.632  1.00  0.00    -0.248 NA
ATOM     41  C   UNL A   1      40.246  31.239  29.928  1.00  0.00     0.031 C 
ATOM     42  C   UNL A   1      39.763  26.667  27.881  1.00  0.00     0.029 A 
ATOM     43  N   UNL A   1      41.801  27.284  28.562  1.00  0.00    -0.354 N 
ATOM     44  C   UNL A   1      42.514  31.209  30.221  1.00  0.00     0.074 A 
ATOM     45  C   UNL A   1      41.279  31.949  30.359  1.00  0.00     0.031 C 
ATOM     46  C   UNL A   1      40.576  25.611  27.723  1.00  0.00     0.029 A 
ATOM     47  C   UNL A   1      41.925  25.983  28.141  1.00  0.00     0.049 A 
ATOM     48  H   UNL A   1      42.557  27.813  28.906  1.00  0.00     0.167 HD
ATOM     49  C   UNL A   1      43.727  31.667  30.615  1.00  0.00     0.037 A 
ATOM     50  C   UNL A   1      43.006  25.184  28.084  1.00  0.00     0.037 A 
ATOM     51  C   UNL A   1      44.950  30.915  30.513  1.00  0.00     0.049 A 
ATOM     52  C   UNL A   1      44.341  25.719  28.508  1.00  0.00     0.074 A 
ATOM     53  C   UNL A   1      46.229  31.295  30.880  1.00  0.00     0.029 A 
ATOM     54  N   UNL A   1      45.041  29.622  30.022  1.00  0.00    -0.354 N 
ATOM     55  N   UNL A   1      44.635  26.899  29.000  1.00  0.00    -0.248 NA
ATOM     56  C   UNL A   1      45.496  24.825  28.346  1.00  0.00     0.031 C 
ATOM     57  C   UNL A   1      47.098  30.235  30.596  1.00  0.00     0.029 A 
ATOM     58  C   UNL A   1      46.356  29.190  30.071  1.00  0.00     0.049 A 
ATOM     59  H   UNL A   1      44.284  29.089  29.688  1.00  0.00     0.167 HD
ATOM     60  C   UNL A   1      46.011  26.896  29.190  1.00  0.00     0.074 A 
ATOM     61  C   UNL A   1      46.487  25.587  28.789  1.00  0.00     0.031 C 
ATOM     62  C   UNL A   1      46.809  27.892  29.644  1.00  0.00     0.037 A 
BRANCH  49  63
ATOM     63  C   UNL A   1      43.793  33.056  31.178  1.00  0.00     0.058 A 
ATOM     64  C   UNL A   1      43.705  33.295  32.557  1.00  0.00     0.135 A 
ATOM     65  C   UNL A   1      43.977  34.158  30.328  1.00  0.00     0.135 A 
ATOM     66  F   UNL A   1      43.507  32.275  33.408  1.00  0.00    -0.206 F 
ATOM     67  C   UNL A   1      43.785  34.584  33.076  1.00  0.00     0.059 A 
ATOM     68  C   UNL A   1      44.074  35.454  30.826  1.00  0.00     0.059 A 
ATOM     69  F   UNL A   1      44.059  33.982  29.000  1.00  0.00    -0.206 F 
ATOM     70  C   UNL A   1      43.966  35.658  32.202  1.00  0.00     0.060 A 
BRANCH  70  71
ATOM     71  S   UNL A   1      44.071  37.326  32.885  1.00  0.00     0.124 S 
ATOM     72  O   UNL A   1      42.927  37.339  33.792  1.00  0.00    -0.237 OA
ATOM     73  O   UNL A   1      45.384  37.326  33.522  1.00  0.00    -0.237 OA
ATOM     74  O   UNL A   1      43.950  38.182  31.709  1.00  0.00    -0.744 OA
ENDBRANCH  70  71
ENDBRANCH  49  63
BRANCH  50  75
ATOM     75  C   UNL A   1      42.860  23.796  27.585  1.00  0.00     0.058 A 
ATOM     76  C   UNL A   1      42.599  22.741  28.471  1.00  0.00     0.135 A 
ATOM     77  C   UNL A   1      42.926  23.508  26.214  1.00  0.00     0.135 A 
ATOM     78  F   UNL A   1      42.534  22.973  29.790  1.00  0.00    -0.206 F 
ATOM     79  C   UNL A   1      42.399  21.444  28.011  1.00  0.00     0.059 A 
ATOM     80  C   UNL A   1      42.713  22.223  25.731  1.00  0.00     0.059 A 
ATOM     81  F   UNL A   1      43.160  24.492  25.332  1.00  0.00    -0.206 F 
ATOM     82  C   UNL A   1      42.453  21.195  26.639  1.00  0.00     0.060 A 
BRANCH  82  83
ATOM     83  S   UNL A   1      42.102  19.529  26.036  1.00  0.00     0.124 S 
ATOM     84  O   UNL A   1      40.657  19.583  25.853  1.00  0.00    -0.237 OA
ATOM     85  O   UNL A   1      42.898  19.465  24.813  1.00  0.00    -0.237 OA
ATOM     86  O   UNL A   1      42.575  18.679  27.124  1.00  0.00    -0.744 OA
ENDBRANCH  82  83
ENDBRANCH  50  75
BRANCH  62  87
ATOM     87  C   UNL A   1      48.279  27.607  29.702  1.00  0.00     0.058 A 
ATOM     88  C   UNL A   1      48.850  26.993  30.826  1.00  0.00     0.135 A 
ATOM     89  C   UNL A   1      49.118  27.922  28.623  1.00  0.00     0.135 A 
ATOM     90  F   UNL A   1      48.085  26.679  31.885  1.00  0.00    -0.206 F 
ATOM     91  C   UNL A   1      50.211  26.715  30.888  1.00  0.00     0.059 A 
ATOM     92  C   UNL A   1      50.480  27.643  28.657  1.00  0.00     0.059 A 
ATOM     93  F   UNL A   1      48.614  28.507  27.524  1.00  0.00    -0.206 F 
ATOM     94  C   UNL A   1      51.019  27.050  29.799  1.00  0.00     0.060 A 
BRANCH  94  95
ATOM     95  S   UNL A   1      52.783  26.673  29.878  1.00  0.00     0.124 S 
ATOM     96  O   UNL A   1      53.025  26.132  28.545  1.00  0.00    -0.237 OA
ATOM     97  O   UNL A   1      53.376  27.978  30.150  1.00  0.00    -0.237 OA
ATOM     98  O   UNL A   1      52.872  25.712  30.974  1.00  0.00    -0.744 OA
ENDBRANCH  94  95
ENDBRANCH  62  87
ENDBRANCH  36  37
ENDBRANCH  28  31
ENDBRANCH  26  27
ENDBRANCH   1  26
TORSDOF 17
ENDMDL
MODEL 2
REMARK VINA RESULT:     -11.8      0.878      8.168
REMARK SMILES CCCc1cc2c(cc1Cl)C=C(C(=O)NCCCCNC(=O)c1ccc(-c3c4nc(c(-c5c(F)cc(S(=O)(=O)[O-])cc5F)c5ccc([nH]5)c(-c5c(F)cc(S(=O)(=O)[O-])cc5F)c5nc(c(-c6c(F)cc(S(=O)(=O)[O-])cc6F)c6ccc3[nH]6)C=C5)C=C4)cc1)[C@H](C(F)(F)F)O2
REMARK SMILES IDX 18 1 17 2 16 3 15 4 13 5 14 6 12 8 4 9 5 10 9 11 6 12 8 13
REMARK SMILES IDX 10 14 7 15 94 16 11 17 89 18 3 19 2 20 1 21 90 22 91 23
REMARK SMILES IDX 92 24 93 25 19 26 20 27 21 28 22 30 23 31 24 32 88 33 25 34
REMARK SMILES IDX 87 35 26 36 27 37 28 38 81 39 29 40 86 41 80 42 82 43 30 44
REMARK SMILES IDX 85 45 79 46 78 47 31 49 65 50 44 51 64 52 45 53 48 54 63 55
REMARK SMILES IDX 83 56 46 57 47 58 62 60 84 61 49 62 32 63 33 64 42 65 34 66
REMARK SMILES IDX 35 67 41 68 43 69 36 70 37 71 38 72 39 73 40 74 66 75 67 76
REMARK SMILES IDX 76 77 68 78 69 79 75 80 77 81 70 82 71 83 72 84 73 85 74 86
REMARK SMILES IDX 50 87 51 88 60 89 52 90 53 91 59 92 61 93 54 94 55 95 56 96
REMARK SMILES IDX 57 97 58 98
REMARK H PARENT 15 7 20 29 82 48 48 59
REMARK Flexibility Score: inf
ROOT
ATOM      1  C   UNL A   1      33.824  28.679  25.880  1.00  0.00     0.023 C 
ENDROOT
BRANCH   1   2
ATOM      2  C   UNL A   1      32.876  29.628  25.139  1.00  0.00     0.023 C 
BRANCH   2   3
ATOM      3  C   UNL A   1      31.423  29.158  25.075  1.00  0.00     0.116 C 
BRANCH   3   4
ATOM      4  N   UNL A   1      31.047  28.749  23.733  1.00  0.00    -0.352 N 
ATOM      5  C   UNL A   1      31.005  27.580  23.055  1.00  0.00     0.251 C 
ATOM      6  O   UNL A   1      30.483  27.628  21.936  1.00  0.00    -0.270 OA
ATOM      7  H   UNL A   1      30.749  29.510  23.184  1.00  0.00     0.163 HD
BRANCH   5   8
ATOM      8  C   UNL A   1      31.537  26.279  23.554  1.00  0.00     0.067 C 
ATOM      9  C   UNL A   1      34.518  22.627  25.334  1.00  0.00    -0.026 A 
ATOM     10  C   UNL A   1      33.199  22.670  24.850  1.00  0.00     0.052 A 
ATOM     11  C   UNL A   1      35.301  23.793  25.242  1.00  0.00     0.045 A 
ATOM     12  C   UNL A   1      32.672  23.852  24.338  1.00  0.00     0.128 A 
ATOM     13  C   UNL A   1      34.784  24.961  24.664  1.00  0.00     0.032 A 
ATOM     14  Cl  UNL A   1      36.922  23.854  25.839  1.00  0.00    -0.084 Cl
ATOM     15  C   UNL A   1      33.464  24.994  24.216  1.00  0.00     0.019 A 
ATOM     16  O   UNL A   1      31.351  23.847  23.976  1.00  0.00    -0.475 OA
ATOM     17  C   UNL A   1      32.880  26.192  23.626  1.00  0.00     0.025 C 
ATOM     18  C   UNL A   1      30.700  25.151  24.097  1.00  0.00     0.314 C 
BRANCH   9  19
ATOM     19  C   UNL A   1      35.010  21.347  25.969  1.00  0.00     0.037 C 
BRANCH  19  20
ATOM     20  C   UNL A   1      35.611  20.353  24.966  1.00  0.00     0.001 C 
ATOM     21  C   UNL A   1      37.134  20.354  24.944  1.00  0.00     0.004 C 
ENDBRANCH  19  20
ENDBRANCH   9  19
BRANCH  18  22
ATOM     22  C   UNL A   1      30.218  25.386  25.542  1.00  0.00     0.429 C 
ATOM     23  F   UNL A   1      30.220  24.214  26.229  1.00  0.00    -0.167 F 
ATOM     24  F   UNL A   1      30.997  26.251  26.230  1.00  0.00    -0.167 F 
ATOM     25  F   UNL A   1      28.955  25.867  25.592  1.00  0.00    -0.167 F 
ENDBRANCH  18  22
ENDBRANCH   5   8
ENDBRANCH   3   4
ENDBRANCH   2   3
ENDBRANCH   1   2
BRANCH   1  26
ATOM     26  C   UNL A   1      33.728  28.734  27.401  1.00  0.00     0.116 C 
BRANCH  26  27
ATOM     27  N   UNL A   1      33.769  30.086  27.946  1.00  0.00    -0.352 N 
ATOM     28  C   UNL A   1      34.854  30.734  28.491  1.00  0.00     0.251 C 
ATOM     29  H   UNL A   1      32.925  30.593  27.921  1.00  0.00     0.163 HD
ATOM     30  O   UNL A   1      34.747  31.856  28.970  1.00  0.00    -0.269 OA
BRANCH  28  31
ATOM     31  C   UNL A   1      36.137  30.006  28.543  1.00  0.00     0.039 A 
ATOM     32  C   UNL A   1      36.555  29.416  29.738  1.00  0.00     0.014 A 
ATOM     33  C   UNL A   1      36.984  30.060  27.433  1.00  0.00     0.014 A 
ATOM     34  C   UNL A   1      37.884  29.035  29.877  1.00  0.00     0.010 A 
ATOM     35  C   UNL A   1      38.301  29.620  27.559  1.00  0.00     0.010 A 
ATOM     36  C   UNL A   1      38.777  29.167  28.802  1.00  0.00    -0.014 A 
BRANCH  36  37
ATOM     37  C   UNL A   1      40.223  28.918  29.016  1.00  0.00     0.031 A 
ATOM     38  C   UNL A   1      40.827  27.596  28.619  1.00  0.00     0.074 A 
ATOM     39  C   UNL A   1      41.007  29.901  29.495  1.00  0.00     0.049 A 
ATOM     40  N   UNL A   1      42.058  27.175  28.760  1.00  0.00    -0.248 NA
ATOM     41  C   UNL A   1      39.931  26.616  27.979  1.00  0.00     0.031 C 
ATOM     42  C   UNL A   1      40.546  31.237  29.875  1.00  0.00     0.029 A 
ATOM     43  N   UNL A   1      42.357  29.936  29.718  1.00  0.00    -0.354 N 
ATOM     44  C   UNL A   1      42.078  25.878  28.260  1.00  0.00     0.074 A 
ATOM     45  C   UNL A   1      40.736  25.576  27.814  1.00  0.00     0.031 C 
ATOM     46  C   UNL A   1      41.605  31.978  30.238  1.00  0.00     0.029 A 
ATOM     47  C   UNL A   1      42.808  31.153  30.166  1.00  0.00     0.049 A 
ATOM     48  H   UNL A   1      42.949  29.163  29.570  1.00  0.00     0.167 HD
ATOM     49  C   UNL A   1      43.123  25.019  28.178  1.00  0.00     0.037 A 
ATOM     50  C   UNL A   1      44.049  31.555  30.496  1.00  0.00     0.037 A 
ATOM     51  C   UNL A   1      44.466  25.334  28.587  1.00  0.00     0.049 A 
ATOM     52  C   UNL A   1      45.186  30.581  30.414  1.00  0.00     0.074 A 
ATOM     53  C   UNL A   1      45.591  24.529  28.547  1.00  0.00     0.029 A 
ATOM     54  N   UNL A   1      44.868  26.559  29.094  1.00  0.00    -0.354 N 
ATOM     55  N   UNL A   1      45.173  29.336  30.002  1.00  0.00    -0.248 NA
ATOM     56  C   UNL A   1      46.501  31.057  30.865  1.00  0.00     0.031 C 
ATOM     57  C   UNL A   1      46.672  25.264  29.047  1.00  0.00     0.029 A 
ATOM     58  C   UNL A   1      46.224  26.531  29.377  1.00  0.00     0.049 A 
ATOM     59  H   UNL A   1      44.279  27.335  29.233  1.00  0.00     0.167 HD
ATOM     60  C   UNL A   1      46.473  28.873  30.161  1.00  0.00     0.074 A 
ATOM     61  C   UNL A   1      47.253  29.980  30.678  1.00  0.00     0.031 C 
ATOM     62  C   UNL A   1      46.972  27.638  29.914  1.00  0.00     0.037 A 
BRANCH  49  63
ATOM     63  C   UNL A   1      42.848  23.646  27.639  1.00  0.00     0.058 A 
ATOM     64  C   UNL A   1      42.907  23.370  26.265  1.00  0.00     0.135 A 
ATOM     65  C   UNL A   1      42.553  22.587  28.512  1.00  0.00     0.135 A 
ATOM     66  F   UNL A   1      43.164  24.355  25.389  1.00  0.00    -0.206 F 
ATOM     67  C   UNL A   1      42.670  22.091  25.772  1.00  0.00     0.059 A 
ATOM     68  C   UNL A   1      42.326  21.297  28.042  1.00  0.00     0.059 A 
ATOM     69  F   UNL A   1      42.477  22.802  29.835  1.00  0.00    -0.206 F 
ATOM     70  C   UNL A   1      42.376  21.061  26.668  1.00  0.00     0.060 A 
BRANCH  70  71
ATOM     71  S   UNL A   1      42.072  19.404  26.018  1.00  0.00     0.124 S 
ATOM     72  O   UNL A   1      40.624  19.428  25.833  1.00  0.00    -0.237 OA
ATOM     73  O   UNL A   1      42.866  19.393  24.794  1.00  0.00    -0.237 OA
ATOM     74  O   UNL A   1      42.555  18.530  27.082  1.00  0.00    -0.744 OA
ENDBRANCH  70  71
ENDBRANCH  49  63
BRANCH  50  75
ATOM     75  C   UNL A   1      44.265  32.949  30.953  1.00  0.00     0.058 A 
ATOM     76  C   UNL A   1      44.219  33.271  32.316  1.00  0.00     0.135 A 
ATOM     77  C   UNL A   1      44.574  33.969  30.042  1.00  0.00     0.135 A 
ATOM     78  F   UNL A   1      43.922  32.325  33.220  1.00  0.00    -0.206 F 
ATOM     79  C   UNL A   1      44.480  34.561  32.764  1.00  0.00     0.059 A 
ATOM     80  C   UNL A   1      44.854  35.262  30.467  1.00  0.00     0.059 A 
ATOM     81  F   UNL A   1      44.642  33.700  28.729  1.00  0.00    -0.206 F 
ATOM     82  C   UNL A   1      44.802  35.550  31.832  1.00  0.00     0.060 A 
BRANCH  82  83
ATOM     83  S   UNL A   1      45.231  37.203  32.420  1.00  0.00     0.124 S 
ATOM     84  O   UNL A   1      46.306  36.908  33.360  1.00  0.00    -0.237 OA
ATOM     85  O   UNL A   1      45.628  37.880  31.188  1.00  0.00    -0.237 OA
ATOM     86  O   UNL A   1      43.983  37.677  33.010  1.00  0.00    -0.744 OA
ENDBRANCH  82  83
ENDBRANCH  50  75
BRANCH  62  87
ATOM     87  C   UNL A   1      48.421  27.420  30.226  1.00  0.00     0.058 A 
ATOM     88  C   UNL A   1      48.827  26.980  31.494  1.00  0.00     0.135 A 
ATOM     89  C   UNL A   1      49.408  27.624  29.249  1.00  0.00     0.135 A 
ATOM     90  F   UNL A   1      47.917  26.776  32.461  1.00  0.00    -0.206 F 
ATOM     91  C   UNL A   1      50.168  26.765  31.792  1.00  0.00     0.059 A 
ATOM     92  C   UNL A   1      50.754  27.405  29.521  1.00  0.00     0.059 A 
ATOM     93  F   UNL A   1      49.065  28.041  28.020  1.00  0.00    -0.206 F 
ATOM     94  C   UNL A   1      51.125  26.987  30.800  1.00  0.00     0.060 A 
BRANCH  94  95
ATOM     95  S   UNL A   1      52.864  26.692  31.187  1.00  0.00     0.124 S 
ATOM     96  O   UNL A   1      53.492  26.905  29.889  1.00  0.00    -0.237 OA
ATOM     97  O   UNL A   1      53.141  27.705  32.200  1.00  0.00    -0.237 OA
ATOM     98  O   UNL A   1      52.870  25.314  31.672  1.00  0.00    -0.744 OA
ENDBRANCH  94  95
ENDBRANCH  62  87
ENDBRANCH  36  37
ENDBRANCH  28  31
ENDBRANCH  26  27
ENDBRANCH   1  26
TORSDOF 17
ENDMDL
MODEL 3
REMARK VINA RESULT:     -11.7      2.134      2.707
REMARK SMILES CCCc1cc2c(cc1Cl)C=C(C(=O)NCCCCNC(=O)c1ccc(-c3c4nc(c(-c5c(F)cc(S(=O)(=O)[O-])cc5F)c5ccc([nH]5)c(-c5c(F)cc(S(=O)(=O)[O-])cc5F)c5nc(c(-c6c(F)cc(S(=O)(=O)[O-])cc6F)c6ccc3[nH]6)C=C5)C=C4)cc1)[C@H](C(F)(F)F)O2
REMARK SMILES IDX 18 1 17 2 16 3 15 4 13 5 14 6 12 8 4 9 5 10 9 11 6 12 8 13
REMARK SMILES IDX 10 14 7 15 94 16 11 17 89 18 3 19 2 20 1 21 90 22 91 23
REMARK SMILES IDX 92 24 93 25 19 26 20 27 21 28 22 30 23 31 24 32 88 33 25 34
REMARK SMILES IDX 87 35 26 36 27 37 28 38 81 39 29 40 86 41 80 42 82 43 30 44
REMARK SMILES IDX 85 45 79 46 78 47 31 49 65 50 44 51 64 52 45 53 48 54 63 55
REMARK SMILES IDX 83 56 46 57 47 58 62 60 84 61 49 62 32 63 33 64 42 65 34 66
REMARK SMILES IDX 35 67 41 68 43 69 36 70 37 71 38 72 39 73 40 74 66 75 67 76
REMARK SMILES IDX 76 77 68 78 69 79 75 80 77 81 70 82 71 83 72 84 73 85 74 86
REMARK SMILES IDX 50 87 51 88 60 89 52 90 53 91 59 92 61 93 54 94 55 95 56 96
REMARK SMILES IDX 57 97 58 98
REMARK H PARENT 15 7 20 29 82 48 48 59
REMARK Flexibility Score: inf
ROOT
ATOM      1  C   UNL A   1      33.395  29.025  27.487  1.00  0.00     0.023 C 
ENDROOT
BRANCH   1   2
ATOM      2  C   UNL A   1      32.175  29.672  26.823  1.00  0.00     0.023 C 
BRANCH   2   3
ATOM      3  C   UNL A   1      31.770  29.048  25.487  1.00  0.00     0.116 C 
BRANCH   3   4
ATOM      4  N   UNL A   1      32.717  29.365  24.434  1.00  0.00    -0.352 N 
ATOM      5  C   UNL A   1      33.452  28.654  23.548  1.00  0.00     0.251 C 
ATOM      6  O   UNL A   1      34.055  29.317  22.699  1.00  0.00    -0.270 OA
ATOM      7  H   UNL A   1      32.859  30.335  24.342  1.00  0.00     0.163 HD
BRANCH   5   8
ATOM      8  C   UNL A   1      33.579  27.168  23.536  1.00  0.00     0.067 C 
ATOM      9  C   UNL A   1      34.084  22.339  24.882  1.00  0.00    -0.026 A 
ATOM     10  C   UNL A   1      34.072  23.020  23.652  1.00  0.00     0.052 A 
ATOM     11  C   UNL A   1      34.065  23.098  26.066  1.00  0.00     0.045 A 
ATOM     12  C   UNL A   1      33.994  24.408  23.615  1.00  0.00     0.128 A 
ATOM     13  C   UNL A   1      34.054  24.499  26.019  1.00  0.00     0.032 A 
ATOM     14  Cl  UNL A   1      34.044  22.357  27.626  1.00  0.00    -0.084 Cl
ATOM     15  C   UNL A   1      34.012  25.158  24.791  1.00  0.00     0.019 A 
ATOM     16  O   UNL A   1      33.887  25.000  22.383  1.00  0.00    -0.475 OA
ATOM     17  C   UNL A   1      33.980  26.612  24.696  1.00  0.00     0.025 C 
ATOM     18  C   UNL A   1      33.166  26.271  22.399  1.00  0.00     0.314 C 
BRANCH   9  19
ATOM     19  C   UNL A   1      34.071  20.827  24.867  1.00  0.00     0.037 C 
BRANCH  19  20
ATOM     20  C   UNL A   1      32.988  20.229  23.960  1.00  0.00     0.001 C 
ATOM     21  C   UNL A   1      32.532  18.840  24.388  1.00  0.00     0.004 C 
ENDBRANCH  19  20
ENDBRANCH   9  19
BRANCH  18  22
ATOM     22  C   UNL A   1      31.644  26.035  22.326  1.00  0.00     0.429 C 
ATOM     23  F   UNL A   1      31.389  24.719  22.108  1.00  0.00    -0.167 F 
ATOM     24  F   UNL A   1      30.997  26.382  23.461  1.00  0.00    -0.167 F 
ATOM     25  F   UNL A   1      31.064  26.720  21.315  1.00  0.00    -0.167 F 
ENDBRANCH  18  22
ENDBRANCH   5   8
ENDBRANCH   3   4
ENDBRANCH   2   3
ENDBRANCH   1   2
BRANCH   1  26
ATOM     26  C   UNL A   1      34.650  29.890  27.508  1.00  0.00     0.116 C 
BRANCH  26  27
ATOM     27  N   UNL A   1      34.803  30.679  28.725  1.00  0.00    -0.352 N 
ATOM     28  C   UNL A   1      35.908  30.748  29.542  1.00  0.00     0.251 C 
ATOM     29  H   UNL A   1      34.028  31.226  28.991  1.00  0.00     0.163 HD
ATOM     30  O   UNL A   1      35.894  31.408  30.573  1.00  0.00    -0.269 OA
BRANCH  28  31
ATOM     31  C   UNL A   1      37.090  29.944  29.173  1.00  0.00     0.039 A 
ATOM     32  C   UNL A   1      37.797  29.253  30.159  1.00  0.00     0.014 A 
ATOM     33  C   UNL A   1      37.571  30.021  27.864  1.00  0.00     0.014 A 
ATOM     34  C   UNL A   1      39.074  28.785  29.875  1.00  0.00     0.010 A 
ATOM     35  C   UNL A   1      38.829  29.497  27.568  1.00  0.00     0.010 A 
ATOM     36  C   UNL A   1      39.616  28.936  28.588  1.00  0.00    -0.014 A 
BRANCH  36  37
ATOM     37  C   UNL A   1      41.037  28.588  28.347  1.00  0.00     0.031 A 
ATOM     38  C   UNL A   1      42.114  29.617  28.575  1.00  0.00     0.074 A 
ATOM     39  C   UNL A   1      41.368  27.332  27.999  1.00  0.00     0.049 A 
ATOM     40  N   UNL A   1      43.404  29.518  28.385  1.00  0.00    -0.248 NA
ATOM     41  C   UNL A   1      41.686  30.933  29.083  1.00  0.00     0.031 C 
ATOM     42  C   UNL A   1      40.419  26.236  27.792  1.00  0.00     0.029 A 
ATOM     43  N   UNL A   1      42.593  26.758  27.787  1.00  0.00    -0.354 N 
ATOM     44  C   UNL A   1      43.937  30.758  28.715  1.00  0.00     0.074 A 
ATOM     45  C   UNL A   1      42.830  31.600  29.116  1.00  0.00     0.031 C 
ATOM     46  C   UNL A   1      41.102  25.111  27.529  1.00  0.00     0.029 A 
ATOM     47  C   UNL A   1      42.529  25.417  27.498  1.00  0.00     0.049 A 
ATOM     48  H   UNL A   1      43.440  27.259  27.837  1.00  0.00     0.167 HD
ATOM     49  C   UNL A   1      45.231  31.158  28.690  1.00  0.00     0.037 A 
ATOM     50  C   UNL A   1      43.509  24.537  27.225  1.00  0.00     0.037 A 
ATOM     51  C   UNL A   1      46.335  30.309  28.329  1.00  0.00     0.049 A 
ATOM     52  C   UNL A   1      44.932  25.007  27.186  1.00  0.00     0.074 A 
ATOM     53  C   UNL A   1      47.682  30.623  28.269  1.00  0.00     0.029 A 
ATOM     54  N   UNL A   1      46.221  28.972  27.983  1.00  0.00    -0.354 N 
ATOM     55  N   UNL A   1      45.411  26.202  27.436  1.00  0.00    -0.248 NA
ATOM     56  C   UNL A   1      45.947  24.016  26.802  1.00  0.00     0.031 C 
ATOM     57  C   UNL A   1      48.381  29.478  27.870  1.00  0.00     0.029 A 
ATOM     58  C   UNL A   1      47.471  28.448  27.702  1.00  0.00     0.049 A 
ATOM     59  H   UNL A   1      45.376  28.469  27.942  1.00  0.00     0.167 HD
ATOM     60  C   UNL A   1      46.780  26.113  27.223  1.00  0.00     0.074 A 
ATOM     61  C   UNL A   1      47.059  24.739  26.853  1.00  0.00     0.031 C 
ATOM     62  C   UNL A   1      47.720  27.084  27.313  1.00  0.00     0.037 A 
BRANCH  49  63
ATOM     63  C   UNL A   1      45.521  32.586  29.050  1.00  0.00     0.058 A 
ATOM     64  C   UNL A   1      45.844  32.963  30.361  1.00  0.00     0.135 A 
ATOM     65  C   UNL A   1      45.506  33.583  28.062  1.00  0.00     0.135 A 
ATOM     66  F   UNL A   1      45.850  32.048  31.344  1.00  0.00    -0.206 F 
ATOM     67  C   UNL A   1      46.130  34.285  30.686  1.00  0.00     0.059 A 
ATOM     68  C   UNL A   1      45.804  34.909  28.360  1.00  0.00     0.059 A 
ATOM     69  F   UNL A   1      45.196  33.273  26.793  1.00  0.00    -0.206 F 
ATOM     70  C   UNL A   1      46.104  35.252  29.679  1.00  0.00     0.060 A 
BRANCH  70  71
ATOM     71  S   UNL A   1      46.479  36.965  30.109  1.00  0.00     0.124 S 
ATOM     72  O   UNL A   1      45.200  37.616  29.845  1.00  0.00    -0.237 OA
ATOM     73  O   UNL A   1      46.858  36.863  31.515  1.00  0.00    -0.237 OA
ATOM     74  O   UNL A   1      47.563  37.314  29.196  1.00  0.00    -0.744 OA
ENDBRANCH  70  71
ENDBRANCH  49  63
BRANCH  50  75
ATOM     75  C   UNL A   1      43.161  23.123  26.950  1.00  0.00     0.058 A 
ATOM     76  C   UNL A   1      43.192  22.618  25.643  1.00  0.00     0.135 A 
ATOM     77  C   UNL A   1      42.844  22.239  27.992  1.00  0.00     0.135 A 
ATOM     78  F   UNL A   1      43.485  23.431  24.617  1.00  0.00    -0.206 F 
ATOM     79  C   UNL A   1      42.927  21.279  25.377  1.00  0.00     0.059 A 
ATOM     80  C   UNL A   1      42.592  20.894  27.753  1.00  0.00     0.059 A 
ATOM     81  F   UNL A   1      42.817  22.678  29.260  1.00  0.00    -0.206 F 
ATOM     82  C   UNL A   1      42.634  20.423  26.440  1.00  0.00     0.060 A 
BRANCH  82  83
ATOM     83  S   UNL A   1      42.381  18.666  26.105  1.00  0.00     0.124 S 
ATOM     84  O   UNL A   1      42.730  18.071  27.390  1.00  0.00    -0.237 OA
ATOM     85  O   UNL A   1      40.967  18.617  25.741  1.00  0.00    -0.237 OA
ATOM     86  O   UNL A   1      43.309  18.402  25.009  1.00  0.00    -0.744 OA
ENDBRANCH  82  83
ENDBRANCH  50  75
BRANCH  62  87
ATOM     87  C   UNL A   1      49.128  26.695  26.979  1.00  0.00     0.058 A 
ATOM     88  C   UNL A   1      49.980  26.167  27.960  1.00  0.00     0.135 A 
ATOM     89  C   UNL A   1      49.622  26.824  25.672  1.00  0.00     0.135 A 
ATOM     90  F   UNL A   1      49.552  26.030  29.225  1.00  0.00    -0.206 F 
ATOM     91  C   UNL A   1      51.286  25.793  27.660  1.00  0.00     0.059 A 
ATOM     92  C   UNL A   1      50.920  26.446  25.347  1.00  0.00     0.059 A 
ATOM     93  F   UNL A   1      48.840  27.321  24.701  1.00  0.00    -0.206 F 
ATOM     94  C   UNL A   1      51.749  25.942  26.351  1.00  0.00     0.060 A 
BRANCH  94  95
ATOM     95  S   UNL A   1      53.439  25.442  25.964  1.00  0.00     0.124 S 
ATOM     96  O   UNL A   1      53.812  26.428  24.956  1.00  0.00    -0.237 OA
ATOM     97  O   UNL A   1      54.112  25.567  27.253  1.00  0.00    -0.237 OA
ATOM     98  O   UNL A   1      53.281  24.074  25.478  1.00  0.00    -0.744 OA
ENDBRANCH  94  95
ENDBRANCH  62  87
ENDBRANCH  36  37
ENDBRANCH  28  31
ENDBRANCH  26  27
ENDBRANCH   1  26
TORSDOF 17
ENDMDL
