MODEL 1
REMARK VINA RESULT:     -10.2      0.000      0.000
REMARK SMILES CCc1n[nH]c2cc(CCC(=O)NCCCCNC(=O)c3ccc(-c4c5nc(c(-c6c(F)cc(S(=O)(=O)[O-])cc6F)c6ccc([nH]6)c(-c6c(F)cc(S(=O)(=O)[O-])cc6F)c6nc(c(-c7c(F)cc(S(=O)(=O)[O-])cc7F)c7ccc4[nH]7)C=C6)C=C5)cc3)ccc12
REMARK SMILES IDX 15 1 14 2 13 3 11 4 12 5 10 7 9 8 8 9 3 10 4 11 89 12 5 13
REMARK SMILES IDX 6 14 88 15 7 17 87 18 2 19 1 20 16 21 17 22 18 23 19 24
REMARK SMILES IDX 20 26 21 27 22 28 86 29 23 30 85 31 24 32 25 33 26 34 79 35
REMARK SMILES IDX 27 36 84 37 78 38 80 39 28 40 83 41 77 42 76 43 29 45 63 46
REMARK SMILES IDX 42 47 62 48 43 49 46 50 61 51 81 52 44 53 45 54 60 56 82 57
REMARK SMILES IDX 47 58 30 59 31 60 40 61 32 62 33 63 39 64 41 65 34 66 35 67
REMARK SMILES IDX 36 68 37 69 38 70 64 71 65 72 74 73 66 74 67 75 73 76 75 77
REMARK SMILES IDX 68 78 69 79 70 80 71 81 72 82 48 83 49 84 58 85 50 86 51 87
REMARK SMILES IDX 57 88 59 89 52 90 53 91 54 92 55 93 56 94
REMARK H PARENT 13 6 5 16 18 25 80 44 46 55
REMARK Flexibility Score: inf
ROOT
ATOM      1  C   UNL A   1      42.005  19.777  26.080  1.00  0.00     0.023 C 
ENDROOT
BRANCH   1   2
ATOM      2  C   UNL A   1      42.933  20.967  25.882  1.00  0.00     0.116 C 
BRANCH   2   3
ATOM      3  N   UNL A   1      44.314  20.519  25.881  1.00  0.00    -0.356 N 
ATOM      4  C   UNL A   1      45.420  21.164  25.411  1.00  0.00     0.220 C 
ATOM      5  O   UNL A   1      46.462  20.521  25.272  1.00  0.00    -0.275 OA
ATOM      6  H   UNL A   1      44.473  19.629  26.273  1.00  0.00     0.163 HD
BRANCH   4   7
ATOM      7  C   UNL A   1      45.383  22.652  25.108  1.00  0.00     0.105 C 
BRANCH   7   8
ATOM      8  C   UNL A   1      46.353  23.483  25.963  1.00  0.00     0.045 C 
BRANCH   8   9
ATOM      9  C   UNL A   1      45.943  24.935  26.116  1.00  0.00    -0.045 A 
ATOM     10  C   UNL A   1      44.022  28.619  26.665  1.00  0.00     0.070 A 
ATOM     11  N   UNL A   1      43.230  28.643  25.584  1.00  0.00    -0.180 NA
ATOM     12  C   UNL A   1      44.885  27.485  26.655  1.00  0.00     0.023 A 
ATOM     13  N   UNL A   1      43.551  27.525  24.916  1.00  0.00    -0.278 N 
ATOM     14  C   UNL A   1      44.533  26.779  25.510  1.00  0.00     0.066 A 
ATOM     15  C   UNL A   1      45.869  26.948  27.501  1.00  0.00     0.012 A 
ATOM     16  H   UNL A   1      43.117  27.264  24.071  1.00  0.00     0.190 HD
ATOM     17  C   UNL A   1      45.069  25.524  25.185  1.00  0.00     0.032 A 
ATOM     18  C   UNL A   1      46.387  25.677  27.221  1.00  0.00     0.004 A 
BRANCH  10  19
ATOM     19  C   UNL A   1      43.848  29.655  27.729  1.00  0.00     0.055 C 
ATOM     20  C   UNL A   1      43.783  31.077  27.199  1.00  0.00     0.011 C 
ENDBRANCH  10  19
ENDBRANCH   8   9
ENDBRANCH   7   8
ENDBRANCH   4   7
ENDBRANCH   2   3
ENDBRANCH   1   2
BRANCH   1  21
ATOM     21  C   UNL A   1      40.521  20.084  26.152  1.00  0.00     0.023 C 
BRANCH  21  22
ATOM     22  C   UNL A   1      40.193  21.521  26.521  1.00  0.00     0.116 C 
BRANCH  22  23
ATOM     23  N   UNL A   1      39.046  22.080  25.814  1.00  0.00    -0.352 N 
ATOM     24  C   UNL A   1      38.547  23.367  25.813  1.00  0.00     0.251 C 
ATOM     25  H   UNL A   1      38.552  21.442  25.250  1.00  0.00     0.163 HD
ATOM     26  O   UNL A   1      37.570  23.653  25.138  1.00  0.00    -0.269 OA
BRANCH  24  27
ATOM     27  C   UNL A   1      39.183  24.389  26.669  1.00  0.00     0.039 A 
ATOM     28  C   UNL A   1      40.053  25.316  26.089  1.00  0.00     0.014 A 
ATOM     29  C   UNL A   1      38.865  24.471  28.023  1.00  0.00     0.014 A 
ATOM     30  C   UNL A   1      40.529  26.384  26.854  1.00  0.00     0.010 A 
ATOM     31  C   UNL A   1      39.234  25.597  28.742  1.00  0.00     0.010 A 
ATOM     32  C   UNL A   1      40.076  26.563  28.171  1.00  0.00    -0.014 A 
BRANCH  32  33
ATOM     33  C   UNL A   1      40.476  27.728  29.002  1.00  0.00     0.031 A 
ATOM     34  C   UNL A   1      41.768  27.666  29.774  1.00  0.00     0.074 A 
ATOM     35  C   UNL A   1      39.635  28.770  29.161  1.00  0.00     0.049 A 
ATOM     36  N   UNL A   1      42.207  28.451  30.722  1.00  0.00    -0.248 NA
ATOM     37  C   UNL A   1      42.658  26.529  29.479  1.00  0.00     0.031 C 
ATOM     38  C   UNL A   1      38.328  28.918  28.514  1.00  0.00     0.029 A 
ATOM     39  N   UNL A   1      39.747  29.897  29.936  1.00  0.00    -0.354 N 
ATOM     40  C   UNL A   1      43.390  27.874  31.170  1.00  0.00     0.074 A 
ATOM     41  C   UNL A   1      43.570  26.644  30.431  1.00  0.00     0.031 C 
ATOM     42  C   UNL A   1      37.773  30.079  28.899  1.00  0.00     0.029 A 
ATOM     43  C   UNL A   1      38.659  30.736  29.854  1.00  0.00     0.049 A 
ATOM     44  H   UNL A   1      40.532  30.088  30.498  1.00  0.00     0.167 HD
ATOM     45  C   UNL A   1      44.262  28.342  32.094  1.00  0.00     0.037 A 
ATOM     46  C   UNL A   1      38.403  31.895  30.488  1.00  0.00     0.037 A 
ATOM     47  C   UNL A   1      44.110  29.605  32.763  1.00  0.00     0.049 A 
ATOM     48  C   UNL A   1      39.419  32.432  31.459  1.00  0.00     0.074 A 
ATOM     49  C   UNL A   1      44.971  30.218  33.655  1.00  0.00     0.029 A 
ATOM     50  N   UNL A   1      43.030  30.461  32.594  1.00  0.00    -0.354 N 
ATOM     51  N   UNL A   1      40.552  31.893  31.845  1.00  0.00    -0.248 NA
ATOM     52  C   UNL A   1      39.128  33.731  32.079  1.00  0.00     0.031 C 
ATOM     53  C   UNL A   1      44.401  31.436  34.042  1.00  0.00     0.029 A 
ATOM     54  C   UNL A   1      43.203  31.597  33.364  1.00  0.00     0.049 A 
ATOM     55  H   UNL A   1      42.256  30.285  32.011  1.00  0.00     0.167 HD
ATOM     56  C   UNL A   1      41.121  32.799  32.732  1.00  0.00     0.074 A 
ATOM     57  C   UNL A   1      40.212  33.925  32.818  1.00  0.00     0.031 C 
ATOM     58  C   UNL A   1      42.288  32.709  33.417  1.00  0.00     0.037 A 
BRANCH  45  59
ATOM     59  C   UNL A   1      45.460  27.490  32.413  1.00  0.00     0.058 A 
ATOM     60  C   UNL A   1      45.455  26.577  33.482  1.00  0.00     0.135 A 
ATOM     61  C   UNL A   1      46.627  27.579  31.637  1.00  0.00     0.135 A 
ATOM     62  F   UNL A   1      44.372  26.464  34.268  1.00  0.00    -0.206 F 
ATOM     63  C   UNL A   1      46.575  25.815  33.795  1.00  0.00     0.059 A 
ATOM     64  C   UNL A   1      47.750  26.802  31.912  1.00  0.00     0.059 A 
ATOM     65  F   UNL A   1      46.690  28.433  30.604  1.00  0.00    -0.206 F 
ATOM     66  C   UNL A   1      47.720  25.937  33.006  1.00  0.00     0.060 A 
BRANCH  66  67
ATOM     67  S   UNL A   1      49.167  24.943  33.427  1.00  0.00     0.124 S 
ATOM     68  O   UNL A   1      48.545  23.764  34.022  1.00  0.00    -0.237 OA
ATOM     69  O   UNL A   1      49.795  24.738  32.125  1.00  0.00    -0.237 OA
ATOM     70  O   UNL A   1      49.908  25.796  34.349  1.00  0.00    -0.744 OA
ENDBRANCH  66  67
ENDBRANCH  45  59
BRANCH  46  71
ATOM     71  C   UNL A   1      37.151  32.644  30.197  1.00  0.00     0.058 A 
ATOM     72  C   UNL A   1      37.085  33.539  29.119  1.00  0.00     0.135 A 
ATOM     73  C   UNL A   1      35.992  32.468  30.970  1.00  0.00     0.135 A 
ATOM     74  F   UNL A   1      38.169  33.746  28.354  1.00  0.00    -0.206 F 
ATOM     75  C   UNL A   1      35.924  34.245  28.823  1.00  0.00     0.059 A 
ATOM     76  C   UNL A   1      34.811  33.146  30.680  1.00  0.00     0.059 A 
ATOM     77  F   UNL A   1      35.995  31.609  32.000  1.00  0.00    -0.206 F 
ATOM     78  C   UNL A   1      34.790  34.039  29.609  1.00  0.00     0.060 A 
BRANCH  78  79
ATOM     79  S   UNL A   1      33.270  34.920  29.185  1.00  0.00     0.124 S 
ATOM     80  O   UNL A   1      32.721  34.070  28.134  1.00  0.00    -0.237 OA
ATOM     81  O   UNL A   1      32.546  34.914  30.454  1.00  0.00    -0.237 OA
ATOM     82  O   UNL A   1      33.751  36.229  28.754  1.00  0.00    -0.744 OA
ENDBRANCH  78  79
ENDBRANCH  46  71
BRANCH  58  83
ATOM     83  C   UNL A   1      42.667  33.874  34.285  1.00  0.00     0.058 A 
ATOM     84  C   UNL A   1      42.399  33.883  35.662  1.00  0.00     0.135 A 
ATOM     85  C   UNL A   1      43.363  34.965  33.741  1.00  0.00     0.135 A 
ATOM     86  F   UNL A   1      41.731  32.864  36.227  1.00  0.00    -0.206 F 
ATOM     87  C   UNL A   1      42.792  34.944  36.469  1.00  0.00     0.059 A 
ATOM     88  C   UNL A   1      43.786  36.027  34.533  1.00  0.00     0.059 A 
ATOM     89  F   UNL A   1      43.652  34.998  32.431  1.00  0.00    -0.206 F 
ATOM     90  C   UNL A   1      43.487  36.011  35.895  1.00  0.00     0.060 A 
BRANCH  90  91
ATOM     91  S   UNL A   1      44.028  37.364  36.960  1.00  0.00     0.124 S 
ATOM     92  O   UNL A   1      42.866  37.539  37.825  1.00  0.00    -0.237 OA
ATOM     93  O   UNL A   1      45.215  36.807  37.598  1.00  0.00    -0.237 OA
ATOM     94  O   UNL A   1      44.282  38.454  36.022  1.00  0.00    -0.744 OA
ENDBRANCH  90  91
ENDBRANCH  58  83
ENDBRANCH  32  33
ENDBRANCH  24  27
ENDBRANCH  22  23
ENDBRANCH  21  22
ENDBRANCH   1  21
TORSDOF 17
ENDMDL
MODEL 2
REMARK VINA RESULT:     -10.2      4.702     11.334
REMARK SMILES CCc1n[nH]c2cc(CCC(=O)NCCCCNC(=O)c3ccc(-c4c5nc(c(-c6c(F)cc(S(=O)(=O)[O-])cc6F)c6ccc([nH]6)c(-c6c(F)cc(S(=O)(=O)[O-])cc6F)c6nc(c(-c7c(F)cc(S(=O)(=O)[O-])cc7F)c7ccc4[nH]7)C=C6)C=C5)cc3)ccc12
REMARK SMILES IDX 15 1 14 2 13 3 11 4 12 5 10 7 9 8 8 9 3 10 4 11 89 12 5 13
REMARK SMILES IDX 6 14 88 15 7 17 87 18 2 19 1 20 16 21 17 22 18 23 19 24
REMARK SMILES IDX 20 26 21 27 22 28 86 29 23 30 85 31 24 32 25 33 26 34 79 35
REMARK SMILES IDX 27 36 84 37 78 38 80 39 28 40 83 41 77 42 76 43 29 45 63 46
REMARK SMILES IDX 42 47 62 48 43 49 46 50 61 51 81 52 44 53 45 54 60 56 82 57
REMARK SMILES IDX 47 58 30 59 31 60 40 61 32 62 33 63 39 64 41 65 34 66 35 67
REMARK SMILES IDX 36 68 37 69 38 70 64 71 65 72 74 73 66 74 67 75 73 76 75 77
REMARK SMILES IDX 68 78 69 79 70 80 71 81 72 82 48 83 49 84 58 85 50 86 51 87
REMARK SMILES IDX 57 88 59 89 52 90 53 91 54 92 55 93 56 94
REMARK H PARENT 13 6 5 16 18 25 80 44 46 55
REMARK Flexibility Score: inf
ROOT
ATOM      1  C   UNL A   1      33.343  29.117  24.642  1.00  0.00     0.023 C 
ENDROOT
BRANCH   1   2
ATOM      2  C   UNL A   1      32.908  28.345  23.405  1.00  0.00     0.116 C 
BRANCH   2   3
ATOM      3  N   UNL A   1      32.051  29.178  22.582  1.00  0.00    -0.356 N 
ATOM      4  C   UNL A   1      30.689  29.247  22.565  1.00  0.00     0.220 C 
ATOM      5  O   UNL A   1      30.140  29.828  21.626  1.00  0.00    -0.275 OA
ATOM      6  H   UNL A   1      32.516  29.775  21.950  1.00  0.00     0.163 HD
BRANCH   4   7
ATOM      7  C   UNL A   1      29.865  28.661  23.699  1.00  0.00     0.105 C 
BRANCH   7   8
ATOM      8  C   UNL A   1      29.273  27.278  23.384  1.00  0.00     0.045 C 
BRANCH   8   9
ATOM      9  C   UNL A   1      30.097  26.123  23.921  1.00  0.00    -0.045 A 
ATOM     10  C   UNL A   1      31.647  22.726  25.822  1.00  0.00     0.070 A 
ATOM     11  N   UNL A   1      31.606  23.124  27.102  1.00  0.00    -0.180 NA
ATOM     12  C   UNL A   1      31.264  23.775  24.937  1.00  0.00     0.023 A 
ATOM     13  N   UNL A   1      31.166  24.389  27.039  1.00  0.00    -0.278 N 
ATOM     14  C   UNL A   1      30.932  24.840  25.767  1.00  0.00     0.066 A 
ATOM     15  C   UNL A   1      31.104  23.927  23.549  1.00  0.00     0.012 A 
ATOM     16  H   UNL A   1      31.022  24.946  27.838  1.00  0.00     0.190 HD
ATOM     17  C   UNL A   1      30.387  26.042  25.294  1.00  0.00     0.032 A 
ATOM     18  C   UNL A   1      30.521  25.102  23.058  1.00  0.00     0.004 A 
BRANCH  10  19
ATOM     19  C   UNL A   1      31.969  21.301  25.504  1.00  0.00     0.055 C 
ATOM     20  C   UNL A   1      33.081  21.134  24.482  1.00  0.00     0.011 C 
ENDBRANCH  10  19
ENDBRANCH   8   9
ENDBRANCH   7   8
ENDBRANCH   4   7
ENDBRANCH   2   3
ENDBRANCH   1   2
BRANCH   1  21
ATOM     21  C   UNL A   1      34.001  28.308  25.745  1.00  0.00     0.023 C 
BRANCH  21  22
ATOM     22  C   UNL A   1      33.459  28.585  27.137  1.00  0.00     0.116 C 
BRANCH  22  23
ATOM     23  N   UNL A   1      33.484  29.990  27.527  1.00  0.00    -0.352 N 
ATOM     24  C   UNL A   1      34.523  30.756  28.013  1.00  0.00     0.251 C 
ATOM     25  H   UNL A   1      32.627  30.465  27.429  1.00  0.00     0.163 HD
ATOM     26  O   UNL A   1      34.354  31.937  28.275  1.00  0.00    -0.269 OA
BRANCH  24  27
ATOM     27  C   UNL A   1      35.837  30.124  28.249  1.00  0.00     0.039 A 
ATOM     28  C   UNL A   1      36.793  30.140  27.230  1.00  0.00     0.014 A 
ATOM     29  C   UNL A   1      36.144  29.580  29.495  1.00  0.00     0.014 A 
ATOM     30  C   UNL A   1      38.091  29.696  27.497  1.00  0.00     0.010 A 
ATOM     31  C   UNL A   1      37.459  29.261  29.793  1.00  0.00     0.010 A 
ATOM     32  C   UNL A   1      38.447  29.305  28.798  1.00  0.00    -0.014 A 
BRANCH  32  33
ATOM     33  C   UNL A   1      39.832  28.909  29.162  1.00  0.00     0.031 A 
ATOM     34  C   UNL A   1      40.736  29.923  29.812  1.00  0.00     0.074 A 
ATOM     35  C   UNL A   1      40.309  27.700  28.802  1.00  0.00     0.049 A 
ATOM     36  N   UNL A   1      42.026  29.877  30.012  1.00  0.00    -0.248 NA
ATOM     37  C   UNL A   1      40.108  31.186  30.240  1.00  0.00     0.031 C 
ATOM     38  C   UNL A   1      39.549  26.653  28.114  1.00  0.00     0.029 A 
ATOM     39  N   UNL A   1      41.560  27.155  28.949  1.00  0.00    -0.354 N 
ATOM     40  C   UNL A   1      42.370  31.119  30.534  1.00  0.00     0.074 A 
ATOM     41  C   UNL A   1      41.163  31.916  30.567  1.00  0.00     0.031 C 
ATOM     42  C   UNL A   1      40.342  25.585  27.921  1.00  0.00     0.029 A 
ATOM     43  C   UNL A   1      41.676  25.887  28.428  1.00  0.00     0.049 A 
ATOM     44  H   UNL A   1      42.305  27.627  29.385  1.00  0.00     0.167 HD
ATOM     45  C   UNL A   1      43.576  31.547  30.975  1.00  0.00     0.037 A 
ATOM     46  C   UNL A   1      42.742  25.067  28.358  1.00  0.00     0.037 A 
ATOM     47  C   UNL A   1      44.750  30.717  31.010  1.00  0.00     0.049 A 
ATOM     48  C   UNL A   1      44.057  25.537  28.916  1.00  0.00     0.074 A 
ATOM     49  C   UNL A   1      46.004  31.017  31.510  1.00  0.00     0.029 A 
ATOM     50  N   UNL A   1      44.805  29.412  30.543  1.00  0.00    -0.354 N 
ATOM     51  N   UNL A   1      44.358  26.702  29.442  1.00  0.00    -0.248 NA
ATOM     52  C   UNL A   1      45.177  24.587  28.877  1.00  0.00     0.031 C 
ATOM     53  C   UNL A   1      46.824  29.899  31.326  1.00  0.00     0.029 A 
ATOM     54  C   UNL A   1      46.071  28.891  30.744  1.00  0.00     0.049 A 
ATOM     55  H   UNL A   1      44.053  28.926  30.131  1.00  0.00     0.167 HD
ATOM     56  C   UNL A   1      45.693  26.615  29.820  1.00  0.00     0.074 A 
ATOM     57  C   UNL A   1      46.139  25.280  29.471  1.00  0.00     0.031 C 
ATOM     58  C   UNL A   1      46.481  27.553  30.400  1.00  0.00     0.037 A 
BRANCH  45  59
ATOM     59  C   UNL A   1      43.674  32.965  31.468  1.00  0.00     0.058 A 
ATOM     60  C   UNL A   1      43.554  33.283  32.831  1.00  0.00     0.135 A 
ATOM     61  C   UNL A   1      43.901  34.020  30.569  1.00  0.00     0.135 A 
ATOM     62  F   UNL A   1      43.320  32.316  33.733  1.00  0.00    -0.206 F 
ATOM     63  C   UNL A   1      43.613  34.598  33.280  1.00  0.00     0.059 A 
ATOM     64  C   UNL A   1      43.995  35.341  31.000  1.00  0.00     0.059 A 
ATOM     65  F   UNL A   1      44.024  33.776  29.255  1.00  0.00    -0.206 F 
ATOM     66  C   UNL A   1      43.830  35.621  32.357  1.00  0.00     0.060 A 
BRANCH  66  67
ATOM     67  S   UNL A   1      43.901  37.323  32.955  1.00  0.00     0.124 S 
ATOM     68  O   UNL A   1      42.749  37.363  33.850  1.00  0.00    -0.237 OA
ATOM     69  O   UNL A   1      45.208  37.373  33.603  1.00  0.00    -0.237 OA
ATOM     70  O   UNL A   1      43.778  38.116  31.737  1.00  0.00    -0.744 OA
ENDBRANCH  66  67
ENDBRANCH  45  59
BRANCH  46  71
ATOM     71  C   UNL A   1      42.600  23.708  27.770  1.00  0.00     0.058 A 
ATOM     72  C   UNL A   1      42.457  22.582  28.595  1.00  0.00     0.135 A 
ATOM     73  C   UNL A   1      42.583  23.505  26.381  1.00  0.00     0.135 A 
ATOM     74  F   UNL A   1      42.473  22.724  29.929  1.00  0.00    -0.206 F 
ATOM     75  C   UNL A   1      42.317  21.302  28.068  1.00  0.00     0.059 A 
ATOM     76  C   UNL A   1      42.421  22.237  25.830  1.00  0.00     0.059 A 
ATOM     77  F   UNL A   1      42.697  24.551  25.548  1.00  0.00    -0.206 F 
ATOM     78  C   UNL A   1      42.297  21.140  26.682  1.00  0.00     0.060 A 
BRANCH  78  79
ATOM     79  S   UNL A   1      42.061  19.481  26.007  1.00  0.00     0.124 S 
ATOM     80  O   UNL A   1      42.893  19.530  24.809  1.00  0.00    -0.237 OA
ATOM     81  O   UNL A   1      42.551  18.635  27.091  1.00  0.00    -0.237 OA
ATOM     82  O   UNL A   1      40.621  19.416  25.774  1.00  0.00    -0.744 OA
ENDBRANCH  78  79
ENDBRANCH  46  71
BRANCH  58  83
ATOM     83  C   UNL A   1      47.891  27.157  30.731  1.00  0.00     0.058 A 
ATOM     84  C   UNL A   1      48.230  26.616  31.979  1.00  0.00     0.135 A 
ATOM     85  C   UNL A   1      48.902  27.266  29.762  1.00  0.00     0.135 A 
ATOM     86  F   UNL A   1      47.298  26.497  32.939  1.00  0.00    -0.206 F 
ATOM     87  C   UNL A   1      49.528  26.210  32.264  1.00  0.00     0.059 A 
ATOM     88  C   UNL A   1      50.203  26.844  30.017  1.00  0.00     0.059 A 
ATOM     89  F   UNL A   1      48.625  27.768  28.548  1.00  0.00    -0.206 F 
ATOM     90  C   UNL A   1      50.508  26.326  31.275  1.00  0.00     0.060 A 
BRANCH  90  91
ATOM     91  S   UNL A   1      52.181  25.759  31.643  1.00  0.00     0.124 S 
ATOM     92  O   UNL A   1      52.873  26.055  30.393  1.00  0.00    -0.237 OA
ATOM     93  O   UNL A   1      52.550  26.588  32.785  1.00  0.00    -0.237 OA
ATOM     94  O   UNL A   1      52.000  24.340  31.940  1.00  0.00    -0.744 OA
ENDBRANCH  90  91
ENDBRANCH  58  83
ENDBRANCH  32  33
ENDBRANCH  24  27
ENDBRANCH  22  23
ENDBRANCH  21  22
ENDBRANCH   1  21
TORSDOF 17
ENDMDL
MODEL 3
REMARK VINA RESULT:     -10.1      3.976     10.753
REMARK SMILES CCc1n[nH]c2cc(CCC(=O)NCCCCNC(=O)c3ccc(-c4c5nc(c(-c6c(F)cc(S(=O)(=O)[O-])cc6F)c6ccc([nH]6)c(-c6c(F)cc(S(=O)(=O)[O-])cc6F)c6nc(c(-c7c(F)cc(S(=O)(=O)[O-])cc7F)c7ccc4[nH]7)C=C6)C=C5)cc3)ccc12
REMARK SMILES IDX 15 1 14 2 13 3 11 4 12 5 10 7 9 8 8 9 3 10 4 11 89 12 5 13
REMARK SMILES IDX 6 14 88 15 7 17 87 18 2 19 1 20 16 21 17 22 18 23 19 24
REMARK SMILES IDX 20 26 21 27 22 28 86 29 23 30 85 31 24 32 25 33 26 34 79 35
REMARK SMILES IDX 27 36 84 37 78 38 80 39 28 40 83 41 77 42 76 43 29 45 63 46
REMARK SMILES IDX 42 47 62 48 43 49 46 50 61 51 81 52 44 53 45 54 60 56 82 57
REMARK SMILES IDX 47 58 30 59 31 60 40 61 32 62 33 63 39 64 41 65 34 66 35 67
REMARK SMILES IDX 36 68 37 69 38 70 64 71 65 72 74 73 66 74 67 75 73 76 75 77
REMARK SMILES IDX 68 78 69 79 70 80 71 81 72 82 48 83 49 84 58 85 50 86 51 87
REMARK SMILES IDX 57 88 59 89 52 90 53 91 54 92 55 93 56 94
REMARK H PARENT 13 6 5 16 18 25 80 44 46 55
REMARK Flexibility Score: inf
ROOT
ATOM      1  C   UNL A   1      33.682  27.334  25.030  1.00  0.00     0.023 C 
ENDROOT
BRANCH   1   2
ATOM      2  C   UNL A   1      32.764  26.781  23.949  1.00  0.00     0.116 C 
BRANCH   2   3
ATOM      3  N   UNL A   1      31.387  26.822  24.405  1.00  0.00    -0.356 N 
ATOM      4  C   UNL A   1      30.750  25.986  25.274  1.00  0.00     0.220 C 
ATOM      5  O   UNL A   1      29.520  26.034  25.342  1.00  0.00    -0.275 OA
ATOM      6  H   UNL A   1      30.839  27.554  24.037  1.00  0.00     0.163 HD
BRANCH   4   7
ATOM      7  C   UNL A   1      31.538  25.047  26.171  1.00  0.00     0.105 C 
BRANCH   7   8
ATOM      8  C   UNL A   1      31.671  23.622  25.611  1.00  0.00     0.045 C 
BRANCH   8   9
ATOM      9  C   UNL A   1      33.057  23.028  25.774  1.00  0.00    -0.045 A 
ATOM     10  C   UNL A   1      36.826  21.241  25.375  1.00  0.00     0.070 A 
ATOM     11  N   UNL A   1      36.469  19.991  25.047  1.00  0.00    -0.180 NA
ATOM     12  C   UNL A   1      35.690  22.045  25.681  1.00  0.00     0.023 A 
ATOM     13  N   UNL A   1      35.129  20.007  25.102  1.00  0.00    -0.278 N 
ATOM     14  C   UNL A   1      34.597  21.214  25.469  1.00  0.00     0.066 A 
ATOM     15  C   UNL A   1      35.460  23.381  26.051  1.00  0.00     0.012 A 
ATOM     16  H   UNL A   1      34.577  19.218  24.896  1.00  0.00     0.190 HD
ATOM     17  C   UNL A   1      33.268  21.657  25.547  1.00  0.00     0.032 A 
ATOM     18  C   UNL A   1      34.143  23.856  26.093  1.00  0.00     0.004 A 
BRANCH  10  19
ATOM     19  C   UNL A   1      38.264  21.643  25.288  1.00  0.00     0.055 C 
ATOM     20  C   UNL A   1      38.671  22.699  26.302  1.00  0.00     0.011 C 
ENDBRANCH  10  19
ENDBRANCH   8   9
ENDBRANCH   7   8
ENDBRANCH   4   7
ENDBRANCH   2   3
ENDBRANCH   1   2
BRANCH   1  21
ATOM     21  C   UNL A   1      33.271  28.655  25.653  1.00  0.00     0.023 C 
BRANCH  21  22
ATOM     22  C   UNL A   1      33.432  28.716  27.162  1.00  0.00     0.116 C 
BRANCH  22  23
ATOM     23  N   UNL A   1      33.423  30.065  27.717  1.00  0.00    -0.352 N 
ATOM     24  C   UNL A   1      34.446  30.798  28.282  1.00  0.00     0.251 C 
ATOM     25  H   UNL A   1      32.553  30.524  27.683  1.00  0.00     0.163 HD
ATOM     26  O   UNL A   1      34.248  31.934  28.685  1.00  0.00    -0.269 OA
BRANCH  24  27
ATOM     27  C   UNL A   1      35.780  30.181  28.430  1.00  0.00     0.039 A 
ATOM     28  C   UNL A   1      36.673  30.224  27.356  1.00  0.00     0.014 A 
ATOM     29  C   UNL A   1      36.168  29.624  29.648  1.00  0.00     0.014 A 
ATOM     30  C   UNL A   1      37.990  29.793  27.539  1.00  0.00     0.010 A 
ATOM     31  C   UNL A   1      37.502  29.318  29.862  1.00  0.00     0.010 A 
ATOM     32  C   UNL A   1      38.428  29.390  28.810  1.00  0.00    -0.014 A 
BRANCH  32  33
ATOM     33  C   UNL A   1      39.837  29.007  29.086  1.00  0.00     0.031 A 
ATOM     34  C   UNL A   1      40.785  30.046  29.624  1.00  0.00     0.074 A 
ATOM     35  C   UNL A   1      40.289  27.784  28.740  1.00  0.00     0.049 A 
ATOM     36  N   UNL A   1      42.087  30.007  29.728  1.00  0.00    -0.248 NA
ATOM     37  C   UNL A   1      40.189  31.326  30.046  1.00  0.00     0.031 C 
ATOM     38  C   UNL A   1      39.481  26.710  28.154  1.00  0.00     0.029 A 
ATOM     39  N   UNL A   1      41.548  27.244  28.815  1.00  0.00    -0.354 N 
ATOM     40  C   UNL A   1      42.466  31.269  30.172  1.00  0.00     0.074 A 
ATOM     41  C   UNL A   1      41.264  32.067  30.263  1.00  0.00     0.031 C 
ATOM     42  C   UNL A   1      40.259  25.635  27.947  1.00  0.00     0.029 A 
ATOM     43  C   UNL A   1      41.627  25.955  28.339  1.00  0.00     0.049 A 
ATOM     44  H   UNL A   1      42.323  27.733  29.174  1.00  0.00     0.167 HD
ATOM     45  C   UNL A   1      43.702  31.713  30.502  1.00  0.00     0.037 A 
ATOM     46  C   UNL A   1      42.686  25.132  28.222  1.00  0.00     0.037 A 
ATOM     47  C   UNL A   1      44.876  30.884  30.483  1.00  0.00     0.049 A 
ATOM     48  C   UNL A   1      44.039  25.624  28.661  1.00  0.00     0.074 A 
ATOM     49  C   UNL A   1      46.164  31.203  30.875  1.00  0.00     0.029 A 
ATOM     50  N   UNL A   1      44.899  29.560  30.068  1.00  0.00    -0.354 N 
ATOM     51  N   UNL A   1      44.376  26.808  29.115  1.00  0.00    -0.248 NA
ATOM     52  C   UNL A   1      45.154  24.671  28.576  1.00  0.00     0.031 C 
ATOM     53  C   UNL A   1      46.970  30.077  30.676  1.00  0.00     0.029 A 
ATOM     54  C   UNL A   1      46.177  29.048  30.193  1.00  0.00     0.049 A 
ATOM     55  H   UNL A   1      44.119  29.060  29.733  1.00  0.00     0.167 HD
ATOM     56  C   UNL A   1      45.736  26.736  29.395  1.00  0.00     0.074 A 
ATOM     57  C   UNL A   1      46.157  25.387  29.068  1.00  0.00     0.031 C 
ATOM     58  C   UNL A   1      46.564  27.696  29.875  1.00  0.00     0.037 A 
BRANCH  45  59
ATOM     59  C   UNL A   1      43.834  33.150  30.928  1.00  0.00     0.058 A 
ATOM     60  C   UNL A   1      44.100  34.174  30.003  1.00  0.00     0.135 A 
ATOM     61  C   UNL A   1      43.682  33.512  32.277  1.00  0.00     0.135 A 
ATOM     62  F   UNL A   1      44.271  33.882  28.704  1.00  0.00    -0.206 F 
ATOM     63  C   UNL A   1      44.254  35.496  30.404  1.00  0.00     0.059 A 
ATOM     64  C   UNL A   1      43.800  34.835  32.697  1.00  0.00     0.059 A 
ATOM     65  F   UNL A   1      43.427  32.577  33.205  1.00  0.00    -0.206 F 
ATOM     66  C   UNL A   1      44.106  35.817  31.754  1.00  0.00     0.060 A 
BRANCH  66  67
ATOM     67  S   UNL A   1      44.311  37.538  32.260  1.00  0.00     0.124 S 
ATOM     68  O   UNL A   1      45.714  37.557  32.657  1.00  0.00    -0.237 OA
ATOM     69  O   UNL A   1      43.989  38.265  31.035  1.00  0.00    -0.237 OA
ATOM     70  O   UNL A   1      43.348  37.690  33.345  1.00  0.00    -0.744 OA
ENDBRANCH  66  67
ENDBRANCH  45  59
BRANCH  46  71
ATOM     71  C   UNL A   1      42.504  23.750  27.703  1.00  0.00     0.058 A 
ATOM     72  C   UNL A   1      42.483  23.500  26.323  1.00  0.00     0.135 A 
ATOM     73  C   UNL A   1      42.370  22.652  28.566  1.00  0.00     0.135 A 
ATOM     74  F   UNL A   1      42.601  24.519  25.456  1.00  0.00    -0.206 F 
ATOM     75  C   UNL A   1      42.320  22.216  25.814  1.00  0.00     0.059 A 
ATOM     76  C   UNL A   1      42.229  21.354  28.082  1.00  0.00     0.059 A 
ATOM     77  F   UNL A   1      42.404  22.834  29.895  1.00  0.00    -0.206 F 
ATOM     78  C   UNL A   1      42.197  21.148  26.703  1.00  0.00     0.060 A 
BRANCH  78  79
ATOM     79  S   UNL A   1      42.040  19.477  26.034  1.00  0.00     0.124 S 
ATOM     80  O   UNL A   1      42.556  18.670  27.134  1.00  0.00    -0.237 OA
ATOM     81  O   UNL A   1      40.604  19.377  25.787  1.00  0.00    -0.237 OA
ATOM     82  O   UNL A   1      42.872  19.517  24.834  1.00  0.00    -0.744 OA
ENDBRANCH  78  79
ENDBRANCH  46  71
BRANCH  58  83
ATOM     83  C   UNL A   1      47.995  27.313  30.115  1.00  0.00     0.058 A 
ATOM     84  C   UNL A   1      48.988  27.541  29.152  1.00  0.00     0.135 A 
ATOM     85  C   UNL A   1      48.384  26.768  31.349  1.00  0.00     0.135 A 
ATOM     86  F   UNL A   1      48.664  28.056  27.955  1.00  0.00    -0.206 F 
ATOM     87  C   UNL A   1      50.320  27.225  29.396  1.00  0.00     0.059 A 
ATOM     88  C   UNL A   1      49.714  26.465  31.625  1.00  0.00     0.059 A 
ATOM     89  F   UNL A   1      47.472  26.540  32.307  1.00  0.00    -0.206 F 
ATOM     90  C   UNL A   1      50.673  26.689  30.637  1.00  0.00     0.060 A 
BRANCH  90  91
ATOM     91  S   UNL A   1      52.411  26.320  30.958  1.00  0.00     0.124 S 
ATOM     92  O   UNL A   1      52.314  25.058  31.683  1.00  0.00    -0.237 OA
ATOM     93  O   UNL A   1      52.967  26.237  29.612  1.00  0.00    -0.237 OA
ATOM     94  O   UNL A   1      52.860  27.465  31.745  1.00  0.00    -0.744 OA
ENDBRANCH  90  91
ENDBRANCH  58  83
ENDBRANCH  32  33
ENDBRANCH  24  27
ENDBRANCH  22  23
ENDBRANCH  21  22
ENDBRANCH   1  21
TORSDOF 17
ENDMDL
