MODEL 1
REMARK VINA RESULT:     -12.4      0.000      0.000
REMARK SMILES Cc1cc([C@H](C)NC(=O)N2CC[C@H](C(=O)NCCCCNC(=O)c3ccc(-c4c5nc(c(-c6c(F)cc(S(=O)(=O)[O-])cc6F)c6ccc([nH]6)c(-c6c(F)cc(S(=O)(=O)[O-])cc6F)c6nc(c(-c7c(F)cc(S(=O)(=O)[O-])cc7F)c7ccc4[nH]7)C=C6)C=C5)cc3)[C@@H]2C)c(C)s1
REMARK SMILES IDX 18 1 17 2 16 3 14 4 15 5 13 7 10 8 11 9 90 10 12 11 91 12
REMARK SMILES IDX 8 13 7 14 9 16 5 17 6 18 4 19 1 20 2 21 3 22 94 23 92 24
REMARK SMILES IDX 93 25 19 26 20 27 21 28 22 29 23 31 24 32 25 33 89 34 26 35
REMARK SMILES IDX 88 36 27 37 28 38 29 39 82 40 30 41 87 42 81 43 83 44 31 45
REMARK SMILES IDX 86 46 80 47 79 48 32 50 66 51 45 52 65 53 46 54 49 55 64 56
REMARK SMILES IDX 84 57 47 58 48 59 63 61 85 62 50 63 33 64 34 65 43 66 35 67
REMARK SMILES IDX 36 68 42 69 44 70 37 71 38 72 39 73 40 74 41 75 67 76 68 77
REMARK SMILES IDX 77 78 69 79 70 80 76 81 78 82 71 83 72 84 73 85 74 86 75 87
REMARK SMILES IDX 51 88 52 89 61 90 53 91 54 92 60 93 62 94 55 95 56 96 57 97
REMARK SMILES IDX 58 98 59 99
REMARK H PARENT 16 6 7 15 21 30 83 49 49 60
REMARK Flexibility Score: inf
ROOT
ATOM      1  C   UNL A   1      33.696  28.998  26.586  1.00  0.00     0.023 C 
ENDROOT
BRANCH   1   2
ATOM      2  C   UNL A   1      33.099  28.885  25.184  1.00  0.00     0.116 C 
BRANCH   2   3
ATOM      3  N   UNL A   1      33.563  27.736  24.426  1.00  0.00    -0.356 N 
ATOM      4  C   UNL A   1      32.853  26.701  23.888  1.00  0.00     0.225 C 
ATOM      5  O   UNL A   1      33.338  26.111  22.922  1.00  0.00    -0.275 OA
ATOM      6  H   UNL A   1      34.535  27.698  24.276  1.00  0.00     0.163 HD
BRANCH   4   7
ATOM      7  C   UNL A   1      31.546  26.256  24.519  1.00  0.00     0.102 C 
ATOM      8  N   UNL A   1      30.960  24.150  25.502  1.00  0.00    -0.321 N 
ATOM      9  C   UNL A   1      30.831  23.984  24.070  1.00  0.00     0.122 C 
ATOM     10  C   UNL A   1      31.729  25.366  25.774  1.00  0.00     0.096 C 
ATOM     11  C   UNL A   1      30.701  25.407  23.556  1.00  0.00     0.037 C 
ATOM     12  C   UNL A   1      33.173  25.018  26.151  1.00  0.00     0.032 C 
BRANCH   8  13
ATOM     13  C   UNL A   1      30.751  23.093  26.345  1.00  0.00     0.318 C 
ATOM     14  N   UNL A   1      31.221  21.861  26.013  1.00  0.00    -0.331 N 
ATOM     15  H   UNL A   1      30.589  21.110  26.085  1.00  0.00     0.165 HD
ATOM     16  O   UNL A   1      30.139  23.209  27.407  1.00  0.00    -0.249 OA
BRANCH  14  17
ATOM     17  C   UNL A   1      32.569  21.545  25.559  1.00  0.00     0.112 C 
ATOM     18  C   UNL A   1      33.539  21.584  26.748  1.00  0.00     0.036 C 
BRANCH  17  19
ATOM     19  C   UNL A   1      32.540  20.206  24.829  1.00  0.00    -0.012 A 
ATOM     20  C   UNL A   1      33.021  16.422  24.815  1.00  0.00     0.056 C 
ATOM     21  C   UNL A   1      32.758  17.865  24.566  1.00  0.00     0.002 A 
ATOM     22  C   UNL A   1      32.760  18.920  25.454  1.00  0.00     0.021 A 
ATOM     23  S   UNL A   1      32.404  18.382  22.989  1.00  0.00    -0.146 S 
ATOM     24  C   UNL A   1      32.335  20.026  23.463  1.00  0.00     0.007 A 
ATOM     25  C   UNL A   1      32.072  21.015  22.378  1.00  0.00     0.057 C 
ENDBRANCH  17  19
ENDBRANCH  14  17
ENDBRANCH   8  13
ENDBRANCH   4   7
ENDBRANCH   2   3
ENDBRANCH   1   2
BRANCH   1  26
ATOM     26  C   UNL A   1      34.095  30.404  27.044  1.00  0.00     0.023 C 
BRANCH  26  27
ATOM     27  C   UNL A   1      35.435  30.531  27.766  1.00  0.00     0.116 C 
BRANCH  27  28
ATOM     28  N   UNL A   1      35.318  30.514  29.215  1.00  0.00    -0.352 N 
ATOM     29  C   UNL A   1      36.277  30.266  30.171  1.00  0.00     0.251 C 
ATOM     30  H   UNL A   1      34.418  30.706  29.565  1.00  0.00     0.163 HD
ATOM     31  O   UNL A   1      35.942  30.191  31.351  1.00  0.00    -0.269 OA
BRANCH  29  32
ATOM     32  C   UNL A   1      37.696  30.052  29.792  1.00  0.00     0.039 A 
ATOM     33  C   UNL A   1      38.643  29.871  30.805  1.00  0.00     0.014 A 
ATOM     34  C   UNL A   1      38.104  30.034  28.455  1.00  0.00     0.014 A 
ATOM     35  C   UNL A   1      39.973  29.590  30.478  1.00  0.00     0.010 A 
ATOM     36  C   UNL A   1      39.415  29.682  28.129  1.00  0.00     0.010 A 
ATOM     37  C   UNL A   1      40.364  29.447  29.136  1.00  0.00    -0.014 A 
BRANCH  37  38
ATOM     38  C   UNL A   1      41.745  29.028  28.770  1.00  0.00     0.031 A 
ATOM     39  C   UNL A   1      42.864  30.035  28.720  1.00  0.00     0.074 A 
ATOM     40  C   UNL A   1      41.982  27.748  28.413  1.00  0.00     0.049 A 
ATOM     41  N   UNL A   1      44.108  29.872  28.348  1.00  0.00    -0.248 NA
ATOM     42  C   UNL A   1      42.535  31.413  29.120  1.00  0.00     0.031 C 
ATOM     43  C   UNL A   1      40.979  26.682  28.377  1.00  0.00     0.029 A 
ATOM     44  N   UNL A   1      43.136  27.128  27.999  1.00  0.00    -0.354 N 
ATOM     45  C   UNL A   1      44.706  31.122  28.454  1.00  0.00     0.074 A 
ATOM     46  C   UNL A   1      43.675  32.044  28.880  1.00  0.00     0.031 C 
ATOM     47  C   UNL A   1      41.563  25.539  27.981  1.00  0.00     0.029 A 
ATOM     48  C   UNL A   1      42.970  25.797  27.692  1.00  0.00     0.049 A 
ATOM     49  H   UNL A   1      44.000  27.593  27.927  1.00  0.00     0.167 HD
ATOM     50  C   UNL A   1      45.999  31.467  28.238  1.00  0.00     0.037 A 
ATOM     51  C   UNL A   1      43.846  24.888  27.218  1.00  0.00     0.037 A 
ATOM     52  C   UNL A   1      47.027  30.542  27.832  1.00  0.00     0.049 A 
ATOM     53  C   UNL A   1      45.272  25.298  26.968  1.00  0.00     0.074 A 
ATOM     54  C   UNL A   1      48.376  30.785  27.642  1.00  0.00     0.029 A 
ATOM     55  N   UNL A   1      46.821  29.200  27.545  1.00  0.00    -0.354 N 
ATOM     56  N   UNL A   1      45.834  26.472  27.138  1.00  0.00    -0.248 NA
ATOM     57  C   UNL A   1      46.186  24.261  26.468  1.00  0.00     0.031 C 
ATOM     58  C   UNL A   1      48.977  29.605  27.192  1.00  0.00     0.029 A 
ATOM     59  C   UNL A   1      48.013  28.610  27.156  1.00  0.00     0.049 A 
ATOM     60  H   UNL A   1      45.955  28.735  27.608  1.00  0.00     0.167 HD
ATOM     61  C   UNL A   1      47.171  26.307  26.792  1.00  0.00     0.074 A 
ATOM     62  C   UNL A   1      47.337  24.919  26.416  1.00  0.00     0.031 C 
ATOM     63  C   UNL A   1      48.171  27.224  26.789  1.00  0.00     0.037 A 
BRANCH  50  64
ATOM     64  C   UNL A   1      46.382  32.909  28.437  1.00  0.00     0.058 A 
ATOM     65  C   UNL A   1      46.823  33.391  29.680  1.00  0.00     0.135 A 
ATOM     66  C   UNL A   1      46.350  33.813  27.362  1.00  0.00     0.135 A 
ATOM     67  F   UNL A   1      46.861  32.575  30.746  1.00  0.00    -0.206 F 
ATOM     68  C   UNL A   1      47.187  34.722  29.858  1.00  0.00     0.059 A 
ATOM     69  C   UNL A   1      46.739  35.141  27.509  1.00  0.00     0.059 A 
ATOM     70  F   UNL A   1      45.941  33.406  26.150  1.00  0.00    -0.206 F 
ATOM     71  C   UNL A   1      47.142  35.590  28.767  1.00  0.00     0.060 A 
BRANCH  71  72
ATOM     72  S   UNL A   1      47.622  37.312  29.015  1.00  0.00     0.124 S 
ATOM     73  O   UNL A   1      46.573  37.778  29.918  1.00  0.00    -0.237 OA
ATOM     74  O   UNL A   1      48.952  37.183  29.602  1.00  0.00    -0.237 OA
ATOM     75  O   UNL A   1      47.586  37.875  27.670  1.00  0.00    -0.744 OA
ENDBRANCH  71  72
ENDBRANCH  50  64
BRANCH  51  76
ATOM     76  C   UNL A   1      43.399  23.491  26.960  1.00  0.00     0.058 A 
ATOM     77  C   UNL A   1      43.143  23.044  25.655  1.00  0.00     0.135 A 
ATOM     78  C   UNL A   1      43.227  22.574  28.009  1.00  0.00     0.135 A 
ATOM     79  F   UNL A   1      43.284  23.885  24.618  1.00  0.00    -0.206 F 
ATOM     80  C   UNL A   1      42.719  21.745  25.399  1.00  0.00     0.059 A 
ATOM     81  C   UNL A   1      42.831  21.262  27.776  1.00  0.00     0.059 A 
ATOM     82  F   UNL A   1      43.473  22.946  29.275  1.00  0.00    -0.206 F 
ATOM     83  C   UNL A   1      42.569  20.858  26.467  1.00  0.00     0.060 A 
BRANCH  83  84
ATOM     84  S   UNL A   1      42.068  19.159  26.118  1.00  0.00     0.124 S 
ATOM     85  O   UNL A   1      40.650  19.326  25.820  1.00  0.00    -0.237 OA
ATOM     86  O   UNL A   1      42.923  18.814  24.987  1.00  0.00    -0.237 OA
ATOM     87  O   UNL A   1      42.373  18.457  27.362  1.00  0.00    -0.744 OA
ENDBRANCH  83  84
ENDBRANCH  51  76
BRANCH  63  88
ATOM     88  C   UNL A   1      49.547  26.753  26.402  1.00  0.00     0.058 A 
ATOM     89  C   UNL A   1      50.353  26.015  27.283  1.00  0.00     0.135 A 
ATOM     90  C   UNL A   1      50.042  26.995  25.109  1.00  0.00     0.135 A 
ATOM     91  F   UNL A   1      49.932  25.762  28.532  1.00  0.00    -0.206 F 
ATOM     92  C   UNL A   1      51.608  25.552  26.904  1.00  0.00     0.059 A 
ATOM     93  C   UNL A   1      51.282  26.517  24.699  1.00  0.00     0.059 A 
ATOM     94  F   UNL A   1      49.308  27.688  24.223  1.00  0.00    -0.206 F 
ATOM     95  C   UNL A   1      52.064  25.805  25.608  1.00  0.00     0.060 A 
BRANCH  95  96
ATOM     96  S   UNL A   1      53.678  25.163  25.117  1.00  0.00     0.124 S 
ATOM     97  O   UNL A   1      53.518  23.736  25.369  1.00  0.00    -0.237 OA
ATOM     98  O   UNL A   1      53.756  25.555  23.713  1.00  0.00    -0.237 OA
ATOM     99  O   UNL A   1      54.605  25.858  26.008  1.00  0.00    -0.744 OA
ENDBRANCH  95  96
ENDBRANCH  63  88
ENDBRANCH  37  38
ENDBRANCH  29  32
ENDBRANCH  27  28
ENDBRANCH  26  27
ENDBRANCH   1  26
TORSDOF 17
ENDMDL
MODEL 2
REMARK VINA RESULT:     -12.4      2.521      3.263
REMARK SMILES Cc1cc([C@H](C)NC(=O)N2CC[C@H](C(=O)NCCCCNC(=O)c3ccc(-c4c5nc(c(-c6c(F)cc(S(=O)(=O)[O-])cc6F)c6ccc([nH]6)c(-c6c(F)cc(S(=O)(=O)[O-])cc6F)c6nc(c(-c7c(F)cc(S(=O)(=O)[O-])cc7F)c7ccc4[nH]7)C=C6)C=C5)cc3)[C@@H]2C)c(C)s1
REMARK SMILES IDX 18 1 17 2 16 3 14 4 15 5 13 7 10 8 11 9 90 10 12 11 91 12
REMARK SMILES IDX 8 13 7 14 9 16 5 17 6 18 4 19 1 20 2 21 3 22 94 23 92 24
REMARK SMILES IDX 93 25 19 26 20 27 21 28 22 29 23 31 24 32 25 33 89 34 26 35
REMARK SMILES IDX 88 36 27 37 28 38 29 39 82 40 30 41 87 42 81 43 83 44 31 45
REMARK SMILES IDX 86 46 80 47 79 48 32 50 66 51 45 52 65 53 46 54 49 55 64 56
REMARK SMILES IDX 84 57 47 58 48 59 63 61 85 62 50 63 33 64 34 65 43 66 35 67
REMARK SMILES IDX 36 68 42 69 44 70 37 71 38 72 39 73 40 74 41 75 67 76 68 77
REMARK SMILES IDX 77 78 69 79 70 80 76 81 78 82 71 83 72 84 73 85 74 86 75 87
REMARK SMILES IDX 51 88 52 89 61 90 53 91 54 92 60 93 62 94 55 95 56 96 57 97
REMARK SMILES IDX 58 98 59 99
REMARK H PARENT 16 6 7 15 21 30 83 49 49 60
REMARK Flexibility Score: inf
ROOT
ATOM      1  C   UNL A   1      33.038  29.286  24.654  1.00  0.00     0.023 C 
ENDROOT
BRANCH   1   2
ATOM      2  C   UNL A   1      32.713  28.563  23.348  1.00  0.00     0.116 C 
BRANCH   2   3
ATOM      3  N   UNL A   1      33.448  27.325  23.150  1.00  0.00    -0.356 N 
ATOM      4  C   UNL A   1      32.989  26.043  23.054  1.00  0.00     0.225 C 
ATOM      5  O   UNL A   1      33.677  25.229  22.437  1.00  0.00    -0.275 OA
ATOM      6  H   UNL A   1      34.424  27.427  23.071  1.00  0.00     0.163 HD
BRANCH   4   7
ATOM      7  C   UNL A   1      31.706  25.632  23.755  1.00  0.00     0.102 C 
ATOM      8  N   UNL A   1      31.307  23.828  25.282  1.00  0.00    -0.321 N 
ATOM      9  C   UNL A   1      31.281  23.254  23.953  1.00  0.00     0.122 C 
ATOM     10  C   UNL A   1      31.916  25.158  25.215  1.00  0.00     0.096 C 
ATOM     11  C   UNL A   1      31.020  24.449  23.052  1.00  0.00     0.037 C 
ATOM     12  C   UNL A   1      33.365  25.112  25.708  1.00  0.00     0.032 C 
BRANCH   8  13
ATOM     13  C   UNL A   1      31.171  23.030  26.384  1.00  0.00     0.318 C 
ATOM     14  N   UNL A   1      31.890  21.881  26.480  1.00  0.00    -0.331 N 
ATOM     15  H   UNL A   1      31.395  21.066  26.725  1.00  0.00     0.165 HD
ATOM     16  O   UNL A   1      30.406  23.310  27.308  1.00  0.00    -0.249 OA
BRANCH  14  17
ATOM     17  C   UNL A   1      33.322  21.738  26.255  1.00  0.00     0.112 C 
ATOM     18  C   UNL A   1      34.080  21.971  27.570  1.00  0.00     0.036 C 
BRANCH  17  19
ATOM     19  C   UNL A   1      33.586  20.375  25.622  1.00  0.00    -0.012 A 
ATOM     20  C   UNL A   1      32.477  16.813  24.829  1.00  0.00     0.056 C 
ATOM     21  C   UNL A   1      33.129  18.140  24.999  1.00  0.00     0.002 A 
ATOM     22  C   UNL A   1      32.624  19.298  25.552  1.00  0.00     0.021 A 
ATOM     23  S   UNL A   1      34.729  18.349  24.473  1.00  0.00    -0.146 S 
ATOM     24  C   UNL A   1      34.789  19.958  25.056  1.00  0.00     0.007 A 
ATOM     25  C   UNL A   1      36.085  20.675  24.883  1.00  0.00     0.057 C 
ENDBRANCH  17  19
ENDBRANCH  14  17
ENDBRANCH   8  13
ENDBRANCH   4   7
ENDBRANCH   2   3
ENDBRANCH   1   2
BRANCH   1  26
ATOM     26  C   UNL A   1      33.942  28.538  25.639  1.00  0.00     0.023 C 
BRANCH  26  27
ATOM     27  C   UNL A   1      33.548  28.604  27.112  1.00  0.00     0.116 C 
BRANCH  27  28
ATOM     28  N   UNL A   1      33.452  29.959  27.628  1.00  0.00    -0.352 N 
ATOM     29  C   UNL A   1      34.392  30.715  28.292  1.00  0.00     0.251 C 
ATOM     30  H   UNL A   1      32.585  30.402  27.483  1.00  0.00     0.163 HD
ATOM     31  O   UNL A   1      34.068  31.811  28.745  1.00  0.00    -0.269 OA
BRANCH  29  32
ATOM     32  C   UNL A   1      35.771  30.209  28.499  1.00  0.00     0.039 A 
ATOM     33  C   UNL A   1      36.666  30.238  27.425  1.00  0.00     0.014 A 
ATOM     34  C   UNL A   1      36.190  29.702  29.732  1.00  0.00     0.014 A 
ATOM     35  C   UNL A   1      37.995  29.842  27.609  1.00  0.00     0.010 A 
ATOM     36  C   UNL A   1      37.533  29.376  29.934  1.00  0.00     0.010 A 
ATOM     37  C   UNL A   1      38.454  29.449  28.878  1.00  0.00    -0.014 A 
BRANCH  37  38
ATOM     38  C   UNL A   1      39.890  29.141  29.122  1.00  0.00     0.031 A 
ATOM     39  C   UNL A   1      40.820  30.198  29.657  1.00  0.00     0.074 A 
ATOM     40  C   UNL A   1      40.377  27.926  28.796  1.00  0.00     0.049 A 
ATOM     41  N   UNL A   1      42.112  30.138  29.858  1.00  0.00    -0.248 NA
ATOM     42  C   UNL A   1      40.222  31.501  29.989  1.00  0.00     0.031 C 
ATOM     43  C   UNL A   1      39.594  26.826  28.230  1.00  0.00     0.029 A 
ATOM     44  N   UNL A   1      41.649  27.414  28.880  1.00  0.00    -0.354 N 
ATOM     45  C   UNL A   1      42.485  31.393  30.325  1.00  0.00     0.074 A 
ATOM     46  C   UNL A   1      41.289  32.210  30.332  1.00  0.00     0.031 C 
ATOM     47  C   UNL A   1      40.396  25.767  28.033  1.00  0.00     0.029 A 
ATOM     48  C   UNL A   1      41.759  26.123  28.418  1.00  0.00     0.049 A 
ATOM     49  H   UNL A   1      42.412  27.924  29.236  1.00  0.00     0.167 HD
ATOM     50  C   UNL A   1      43.705  31.821  30.731  1.00  0.00     0.037 A 
ATOM     51  C   UNL A   1      42.835  25.319  28.300  1.00  0.00     0.037 A 
ATOM     52  C   UNL A   1      44.889  31.000  30.740  1.00  0.00     0.049 A 
ATOM     53  C   UNL A   1      44.183  25.821  28.740  1.00  0.00     0.074 A 
ATOM     54  C   UNL A   1      46.159  31.327  31.185  1.00  0.00     0.029 A 
ATOM     55  N   UNL A   1      44.955  29.694  30.276  1.00  0.00    -0.354 N 
ATOM     56  N   UNL A   1      44.503  26.991  29.241  1.00  0.00    -0.248 NA
ATOM     57  C   UNL A   1      45.316  24.895  28.605  1.00  0.00     0.031 C 
ATOM     58  C   UNL A   1      47.002  30.238  30.945  1.00  0.00     0.029 A 
ATOM     59  C   UNL A   1      46.247  29.211  30.402  1.00  0.00     0.049 A 
ATOM     60  H   UNL A   1      44.195  29.185  29.911  1.00  0.00     0.167 HD
ATOM     61  C   UNL A   1      45.866  26.931  29.506  1.00  0.00     0.074 A 
ATOM     62  C   UNL A   1      46.309  25.607  29.123  1.00  0.00     0.031 C 
ATOM     63  C   UNL A   1      46.678  27.887  30.023  1.00  0.00     0.037 A 
BRANCH  50  64
ATOM     64  C   UNL A   1      43.827  33.246  31.203  1.00  0.00     0.058 A 
ATOM     65  C   UNL A   1      43.647  33.595  32.551  1.00  0.00     0.135 A 
ATOM     66  C   UNL A   1      44.170  34.270  30.304  1.00  0.00     0.135 A 
ATOM     67  F   UNL A   1      43.305  32.659  33.452  1.00  0.00    -0.206 F 
ATOM     68  C   UNL A   1      43.772  34.910  32.986  1.00  0.00     0.059 A 
ATOM     69  C   UNL A   1      44.330  35.588  30.723  1.00  0.00     0.059 A 
ATOM     70  F   UNL A   1      44.357  33.994  29.004  1.00  0.00    -0.206 F 
ATOM     71  C   UNL A   1      44.113  35.900  32.064  1.00  0.00     0.060 A 
BRANCH  71  72
ATOM     72  S   UNL A   1      44.274  37.602  32.647  1.00  0.00     0.124 S 
ATOM     73  O   UNL A   1      43.275  37.639  33.712  1.00  0.00    -0.237 OA
ATOM     74  O   UNL A   1      45.666  37.651  33.083  1.00  0.00    -0.237 OA
ATOM     75  O   UNL A   1      43.961  38.399  31.466  1.00  0.00    -0.744 OA
ENDBRANCH  71  72
ENDBRANCH  50  64
BRANCH  51  76
ATOM     76  C   UNL A   1      42.677  23.943  27.751  1.00  0.00     0.058 A 
ATOM     77  C   UNL A   1      42.521  22.839  28.603  1.00  0.00     0.135 A 
ATOM     78  C   UNL A   1      42.671  23.705  26.368  1.00  0.00     0.135 A 
ATOM     79  F   UNL A   1      42.530  23.013  29.934  1.00  0.00    -0.206 F 
ATOM     80  C   UNL A   1      42.380  21.548  28.106  1.00  0.00     0.059 A 
ATOM     81  C   UNL A   1      42.503  22.427  25.846  1.00  0.00     0.059 A 
ATOM     82  F   UNL A   1      42.801  24.728  25.509  1.00  0.00    -0.206 F 
ATOM     83  C   UNL A   1      42.368  21.352  26.724  1.00  0.00     0.060 A 
BRANCH  83  84
ATOM     84  S   UNL A   1      42.133  19.678  26.089  1.00  0.00     0.124 S 
ATOM     85  O   UNL A   1      42.504  18.869  27.245  1.00  0.00    -0.237 OA
ATOM     86  O   UNL A   1      40.715  19.681  25.740  1.00  0.00    -0.237 OA
ATOM     87  O   UNL A   1      43.050  19.618  24.954  1.00  0.00    -0.744 OA
ENDBRANCH  83  84
ENDBRANCH  51  76
BRANCH  63  88
ATOM     88  C   UNL A   1      48.124  27.530  30.242  1.00  0.00     0.058 A 
ATOM     89  C   UNL A   1      48.533  26.713  31.307  1.00  0.00     0.135 A 
ATOM     90  C   UNL A   1      49.107  27.966  29.337  1.00  0.00     0.135 A 
ATOM     91  F   UNL A   1      47.636  26.276  32.205  1.00  0.00    -0.206 F 
ATOM     92  C   UNL A   1      49.866  26.359  31.481  1.00  0.00     0.059 A 
ATOM     93  C   UNL A   1      50.442  27.600  29.474  1.00  0.00     0.059 A 
ATOM     94  F   UNL A   1      48.770  28.742  28.294  1.00  0.00    -0.206 F 
ATOM     95  C   UNL A   1      50.814  26.803  30.557  1.00  0.00     0.060 A 
BRANCH  95  96
ATOM     96  S   UNL A   1      52.535  26.302  30.772  1.00  0.00     0.124 S 
ATOM     97  O   UNL A   1      53.130  27.516  31.318  1.00  0.00    -0.237 OA
ATOM     98  O   UNL A   1      52.420  25.179  31.698  1.00  0.00    -0.237 OA
ATOM     99  O   UNL A   1      52.958  25.949  29.419  1.00  0.00    -0.744 OA
ENDBRANCH  95  96
ENDBRANCH  63  88
ENDBRANCH  37  38
ENDBRANCH  29  32
ENDBRANCH  27  28
ENDBRANCH  26  27
ENDBRANCH   1  26
TORSDOF 17
ENDMDL
MODEL 3
REMARK VINA RESULT:     -12.2      6.099      8.167
REMARK SMILES Cc1cc([C@H](C)NC(=O)N2CC[C@H](C(=O)NCCCCNC(=O)c3ccc(-c4c5nc(c(-c6c(F)cc(S(=O)(=O)[O-])cc6F)c6ccc([nH]6)c(-c6c(F)cc(S(=O)(=O)[O-])cc6F)c6nc(c(-c7c(F)cc(S(=O)(=O)[O-])cc7F)c7ccc4[nH]7)C=C6)C=C5)cc3)[C@@H]2C)c(C)s1
REMARK SMILES IDX 18 1 17 2 16 3 14 4 15 5 13 7 10 8 11 9 90 10 12 11 91 12
REMARK SMILES IDX 8 13 7 14 9 16 5 17 6 18 4 19 1 20 2 21 3 22 94 23 92 24
REMARK SMILES IDX 93 25 19 26 20 27 21 28 22 29 23 31 24 32 25 33 89 34 26 35
REMARK SMILES IDX 88 36 27 37 28 38 29 39 82 40 30 41 87 42 81 43 83 44 31 45
REMARK SMILES IDX 86 46 80 47 79 48 32 50 66 51 45 52 65 53 46 54 49 55 64 56
REMARK SMILES IDX 84 57 47 58 48 59 63 61 85 62 50 63 33 64 34 65 43 66 35 67
REMARK SMILES IDX 36 68 42 69 44 70 37 71 38 72 39 73 40 74 41 75 67 76 68 77
REMARK SMILES IDX 77 78 69 79 70 80 76 81 78 82 71 83 72 84 73 85 74 86 75 87
REMARK SMILES IDX 51 88 52 89 61 90 53 91 54 92 60 93 62 94 55 95 56 96 57 97
REMARK SMILES IDX 58 98 59 99
REMARK H PARENT 16 6 7 15 21 30 83 49 49 60
REMARK Flexibility Score: inf
ROOT
ATOM      1  C   UNL A   1      31.867  30.253  26.566  1.00  0.00     0.023 C 
ENDROOT
BRANCH   1   2
ATOM      2  C   UNL A   1      31.475  29.648  25.218  1.00  0.00     0.116 C 
BRANCH   2   3
ATOM      3  N   UNL A   1      32.369  28.603  24.748  1.00  0.00    -0.356 N 
ATOM      4  C   UNL A   1      32.079  27.360  24.264  1.00  0.00     0.225 C 
ATOM      5  O   UNL A   1      32.894  26.832  23.507  1.00  0.00    -0.275 OA
ATOM      6  H   UNL A   1      33.327  28.825  24.783  1.00  0.00     0.163 HD
BRANCH   4   7
ATOM      7  C   UNL A   1      30.824  26.633  24.714  1.00  0.00     0.102 C 
ATOM      8  N   UNL A   1      30.571  24.421  25.602  1.00  0.00    -0.321 N 
ATOM      9  C   UNL A   1      30.666  24.278  24.165  1.00  0.00     0.122 C 
ATOM     10  C   UNL A   1      31.026  25.761  25.979  1.00  0.00     0.096 C 
ATOM     11  C   UNL A   1      30.308  25.658  23.643  1.00  0.00     0.037 C 
ATOM     12  C   UNL A   1      32.449  25.708  26.543  1.00  0.00     0.032 C 
BRANCH   8  13
ATOM     13  C   UNL A   1      30.482  23.318  26.405  1.00  0.00     0.318 C 
ATOM     14  N   UNL A   1      31.027  22.140  25.998  1.00  0.00    -0.331 N 
ATOM     15  H   UNL A   1      30.457  21.340  26.065  1.00  0.00     0.165 HD
ATOM     16  O   UNL A   1      29.913  23.343  27.497  1.00  0.00    -0.249 OA
BRANCH  14  17
ATOM     17  C   UNL A   1      32.372  21.948  25.474  1.00  0.00     0.112 C 
ATOM     18  C   UNL A   1      33.403  22.192  26.585  1.00  0.00     0.036 C 
BRANCH  17  19
ATOM     19  C   UNL A   1      32.459  20.561  24.843  1.00  0.00    -0.012 A 
ATOM     20  C   UNL A   1      33.204  16.830  25.121  1.00  0.00     0.056 C 
ATOM     21  C   UNL A   1      32.848  18.230  24.760  1.00  0.00     0.002 A 
ATOM     22  C   UNL A   1      32.749  19.343  25.567  1.00  0.00     0.021 A 
ATOM     23  S   UNL A   1      32.508  18.606  23.140  1.00  0.00    -0.146 S 
ATOM     24  C   UNL A   1      32.310  20.270  23.489  1.00  0.00     0.007 A 
ATOM     25  C   UNL A   1      32.013  21.157  22.328  1.00  0.00     0.057 C 
ENDBRANCH  17  19
ENDBRANCH  14  17
ENDBRANCH   8  13
ENDBRANCH   4   7
ENDBRANCH   2   3
ENDBRANCH   1   2
BRANCH   1  26
ATOM     26  C   UNL A   1      31.713  31.771  26.700  1.00  0.00     0.023 C 
BRANCH  26  27
ATOM     27  C   UNL A   1      32.906  32.529  27.278  1.00  0.00     0.116 C 
BRANCH  27  28
ATOM     28  N   UNL A   1      32.602  33.903  27.638  1.00  0.00    -0.352 N 
ATOM     29  C   UNL A   1      33.157  34.700  28.615  1.00  0.00     0.251 C 
ATOM     30  H   UNL A   1      31.891  34.329  27.105  1.00  0.00     0.163 HD
ATOM     31  O   UNL A   1      32.674  35.810  28.829  1.00  0.00    -0.269 OA
BRANCH  29  32
ATOM     32  C   UNL A   1      34.299  34.221  29.431  1.00  0.00     0.039 A 
ATOM     33  C   UNL A   1      34.036  33.595  30.654  1.00  0.00     0.014 A 
ATOM     34  C   UNL A   1      35.622  34.387  29.011  1.00  0.00     0.014 A 
ATOM     35  C   UNL A   1      35.087  33.063  31.409  1.00  0.00     0.010 A 
ATOM     36  C   UNL A   1      36.663  33.793  29.729  1.00  0.00     0.010 A 
ATOM     37  C   UNL A   1      36.408  33.117  30.932  1.00  0.00    -0.014 A 
BRANCH  37  38
ATOM     38  C   UNL A   1      37.524  32.451  31.659  1.00  0.00     0.031 A 
ATOM     39  C   UNL A   1      38.013  32.995  32.975  1.00  0.00     0.074 A 
ATOM     40  C   UNL A   1      38.146  31.392  31.101  1.00  0.00     0.049 A 
ATOM     41  N   UNL A   1      39.020  32.598  33.711  1.00  0.00    -0.248 NA
ATOM     42  C   UNL A   1      37.290  34.153  33.525  1.00  0.00     0.031 C 
ATOM     43  C   UNL A   1      37.799  30.791  29.812  1.00  0.00     0.029 A 
ATOM     44  N   UNL A   1      39.210  30.640  31.538  1.00  0.00    -0.354 N 
ATOM     45  C   UNL A   1      39.061  33.461  34.801  1.00  0.00     0.074 A 
ATOM     46  C   UNL A   1      38.007  34.434  34.604  1.00  0.00     0.031 C 
ATOM     47  C   UNL A   1      38.621  29.756  29.571  1.00  0.00     0.029 A 
ATOM     48  C   UNL A   1      39.581  29.644  30.664  1.00  0.00     0.049 A 
ATOM     49  H   UNL A   1      39.665  30.800  32.396  1.00  0.00     0.167 HD
ATOM     50  C   UNL A   1      39.886  33.434  35.875  1.00  0.00     0.037 A 
ATOM     51  C   UNL A   1      40.589  28.751  30.725  1.00  0.00     0.037 A 
ATOM     52  C   UNL A   1      40.922  32.453  36.077  1.00  0.00     0.049 A 
ATOM     53  C   UNL A   1      41.504  28.751  31.920  1.00  0.00     0.074 A 
ATOM     54  C   UNL A   1      41.772  32.310  37.160  1.00  0.00     0.029 A 
ATOM     55  N   UNL A   1      41.257  31.454  35.175  1.00  0.00    -0.354 N 
ATOM     56  N   UNL A   1      41.485  29.535  32.972  1.00  0.00    -0.248 NA
ATOM     57  C   UNL A   1      42.574  27.743  31.941  1.00  0.00     0.031 C 
ATOM     58  C   UNL A   1      42.653  31.258  36.892  1.00  0.00     0.029 A 
ATOM     59  C   UNL A   1      42.316  30.707  35.665  1.00  0.00     0.049 A 
ATOM     60  H   UNL A   1      40.809  31.298  34.312  1.00  0.00     0.167 HD
ATOM     61  C   UNL A   1      42.520  29.098  33.791  1.00  0.00     0.074 A 
ATOM     62  C   UNL A   1      43.137  27.973  33.120  1.00  0.00     0.031 C 
ATOM     63  C   UNL A   1      42.920  29.583  34.993  1.00  0.00     0.037 A 
BRANCH  50  64
ATOM     64  C   UNL A   1      39.704  34.498  36.925  1.00  0.00     0.058 A 
ATOM     65  C   UNL A   1      38.908  34.285  38.062  1.00  0.00     0.135 A 
ATOM     66  C   UNL A   1      40.367  35.732  36.816  1.00  0.00     0.135 A 
ATOM     67  F   UNL A   1      38.240  33.130  38.212  1.00  0.00    -0.206 F 
ATOM     68  C   UNL A   1      38.751  35.266  39.036  1.00  0.00     0.059 A 
ATOM     69  C   UNL A   1      40.250  36.716  37.793  1.00  0.00     0.059 A 
ATOM     70  F   UNL A   1      41.145  35.989  35.752  1.00  0.00    -0.206 F 
ATOM     71  C   UNL A   1      39.426  36.479  38.893  1.00  0.00     0.060 A 
BRANCH  71  72
ATOM     72  S   UNL A   1      39.213  37.739  40.168  1.00  0.00     0.124 S 
ATOM     73  O   UNL A   1      38.865  36.921  41.327  1.00  0.00    -0.237 OA
ATOM     74  O   UNL A   1      40.530  38.366  40.209  1.00  0.00    -0.237 OA
ATOM     75  O   UNL A   1      38.139  38.576  39.646  1.00  0.00    -0.744 OA
ENDBRANCH  71  72
ENDBRANCH  50  64
BRANCH  51  76
ATOM     76  C   UNL A   1      40.778  27.768  29.622  1.00  0.00     0.058 A 
ATOM     77  C   UNL A   1      39.908  26.679  29.468  1.00  0.00     0.135 A 
ATOM     78  C   UNL A   1      41.826  27.902  28.697  1.00  0.00     0.135 A 
ATOM     79  F   UNL A   1      38.896  26.502  30.332  1.00  0.00    -0.206 F 
ATOM     80  C   UNL A   1      40.075  25.750  28.447  1.00  0.00     0.059 A 
ATOM     81  C   UNL A   1      41.998  27.001  27.652  1.00  0.00     0.059 A 
ATOM     82  F   UNL A   1      42.678  28.935  28.791  1.00  0.00    -0.206 F 
ATOM     83  C   UNL A   1      41.123  25.921  27.540  1.00  0.00     0.060 A 
BRANCH  83  84
ATOM     84  S   UNL A   1      41.300  24.738  26.188  1.00  0.00     0.124 S 
ATOM     85  O   UNL A   1      42.401  23.908  26.665  1.00  0.00    -0.237 OA
ATOM     86  O   UNL A   1      39.986  24.103  26.163  1.00  0.00    -0.237 OA
ATOM     87  O   UNL A   1      41.600  25.585  25.038  1.00  0.00    -0.744 OA
ENDBRANCH  83  84
ENDBRANCH  51  76
BRANCH  63  88
ATOM     88  C   UNL A   1      44.059  28.882  35.683  1.00  0.00     0.058 A 
ATOM     89  C   UNL A   1      43.845  27.809  36.562  1.00  0.00     0.135 A 
ATOM     90  C   UNL A   1      45.388  29.252  35.415  1.00  0.00     0.135 A 
ATOM     91  F   UNL A   1      42.596  27.419  36.859  1.00  0.00    -0.206 F 
ATOM     92  C   UNL A   1      44.905  27.143  37.168  1.00  0.00     0.059 A 
ATOM     93  C   UNL A   1      46.464  28.581  35.986  1.00  0.00     0.059 A 
ATOM     94  F   UNL A   1      45.651  30.266  34.574  1.00  0.00    -0.206 F 
ATOM     95  C   UNL A   1      46.212  27.533  36.871  1.00  0.00     0.060 A 
BRANCH  95  96
ATOM     96  S   UNL A   1      47.579  26.633  37.633  1.00  0.00     0.124 S 
ATOM     97  O   UNL A   1      48.709  27.070  36.821  1.00  0.00    -0.237 OA
ATOM     98  O   UNL A   1      47.554  27.130  39.005  1.00  0.00    -0.237 OA
ATOM     99  O   UNL A   1      47.195  25.233  37.472  1.00  0.00    -0.744 OA
ENDBRANCH  95  96
ENDBRANCH  63  88
ENDBRANCH  37  38
ENDBRANCH  29  32
ENDBRANCH  27  28
ENDBRANCH  26  27
ENDBRANCH   1  26
TORSDOF 17
ENDMDL
