MODEL 1
REMARK VINA RESULT:     -11.9      0.000      0.000
REMARK SMILES COc1ccc(C(=O)C2=C(NCCCCNC(=O)c3ccc(-c4c5nc(c(-c6c(F)cc(S(=O)(=O)[O-])cc6F)c6ccc([nH]6)c(-c6c(F)cc(S(=O)(=O)[O-])cc6F)c6nc(c(-c7c(F)cc(S(=O)(=O)[O-])cc7F)c7ccc4[nH]7)C=C6)C=C5)cc3)C(=O)N(CC(=O)[O-])[C@H]2c2ccccc2)cc1
REMARK SMILES IDX 13 1 12 2 11 3 10 5 9 6 92 7 85 8 87 9 86 10 7 11 8 12 6 13
REMARK SMILES IDX 3 14 4 15 100 16 5 17 99 18 2 19 1 20 93 21 94 22 98 23
REMARK SMILES IDX 95 24 97 25 96 26 88 27 89 28 90 29 91 30 14 31 15 32 16 33
REMARK SMILES IDX 17 34 18 36 19 37 20 38 84 39 21 40 83 41 22 42 23 43 24 44
REMARK SMILES IDX 77 45 25 46 82 47 76 48 78 49 26 50 81 51 75 52 74 53 27 55
REMARK SMILES IDX 61 56 40 57 60 58 41 59 44 60 59 61 79 62 42 63 43 64 58 66
REMARK SMILES IDX 80 67 45 68 28 69 29 70 38 71 30 72 31 73 37 74 39 75 32 76
REMARK SMILES IDX 33 77 34 78 35 79 36 80 62 81 63 82 72 83 64 84 65 85 71 86
REMARK SMILES IDX 73 87 66 88 67 89 68 90 69 91 70 92 46 93 47 94 56 95 48 96
REMARK SMILES IDX 49 97 55 98 57 99 50 100 51 101 52 102 53 103 54 104
REMARK H PARENT 11 4 16 35 78 54 44 65
REMARK Flexibility Score: inf
ROOT
ATOM      1  C   UNL A   1      32.619  29.261  27.211  1.00  0.00     0.023 C 
ENDROOT
BRANCH   1   2
ATOM      2  C   UNL A   1      32.003  27.924  27.619  1.00  0.00     0.113 C 
BRANCH   2   3
ATOM      3  N   UNL A   1      31.450  27.253  26.467  1.00  0.00    -0.380 N 
ATOM      4  H   UNL A   1      30.485  27.389  26.329  1.00  0.00     0.160 HD
BRANCH   3   5
ATOM      5  C   UNL A   1      32.062  26.457  25.536  1.00  0.00     0.110 C 
ATOM      6  C   UNL A   1      32.360  25.156  25.411  1.00  0.00     0.056 C 
ATOM      7  C   UNL A   1      32.994  24.782  24.105  1.00  0.00     0.153 C 
ATOM      8  C   UNL A   1      32.518  27.066  24.239  1.00  0.00     0.271 C 
ATOM      9  N   UNL A   1      33.015  26.064  23.445  1.00  0.00    -0.320 N 
ATOM     10  O   UNL A   1      32.439  28.253  23.968  1.00  0.00    -0.267 OA
BRANCH   6  11
ATOM     11  C   UNL A   1      31.932  24.114  26.356  1.00  0.00     0.193 C 
ATOM     12  O   UNL A   1      31.210  24.418  27.302  1.00  0.00    -0.289 OA
BRANCH  11  13
ATOM     13  C   UNL A   1      32.330  22.691  26.139  1.00  0.00     0.023 A 
ATOM     14  C   UNL A   1      33.190  20.087  25.475  1.00  0.00     0.118 A 
ATOM     15  C   UNL A   1      32.148  20.691  24.769  1.00  0.00     0.047 A 
ATOM     16  C   UNL A   1      33.764  20.769  26.546  1.00  0.00     0.047 A 
ATOM     17  C   UNL A   1      31.724  21.985  25.091  1.00  0.00     0.016 A 
ATOM     18  C   UNL A   1      33.313  22.049  26.893  1.00  0.00     0.016 A 
BRANCH  14  19
ATOM     19  O   UNL A   1      33.555  18.850  25.023  1.00  0.00    -0.497 OA
ATOM     20  C   UNL A   1      32.622  18.172  24.191  1.00  0.00     0.278 C 
ENDBRANCH  14  19
ENDBRANCH  11  13
ENDBRANCH   6  11
BRANCH   7  21
ATOM     21  C   UNL A   1      34.395  24.206  24.253  1.00  0.00    -0.021 A 
ATOM     22  C   UNL A   1      35.238  24.582  25.318  1.00  0.00     0.006 A 
ATOM     23  C   UNL A   1      34.861  23.248  23.340  1.00  0.00     0.006 A 
ATOM     24  C   UNL A   1      36.498  24.006  25.476  1.00  0.00     0.000 A 
ATOM     25  C   UNL A   1      36.129  22.682  23.494  1.00  0.00     0.000 A 
ATOM     26  C   UNL A   1      36.943  23.055  24.563  1.00  0.00     0.000 A 
ENDBRANCH   7  21
BRANCH   9  27
ATOM     27  C   UNL A   1      33.511  26.280  22.093  1.00  0.00     0.173 C 
BRANCH  27  28
ATOM     28  C   UNL A   1      32.539  25.922  20.981  1.00  0.00     0.061 C 
ATOM     29  O   UNL A   1      31.330  26.107  21.019  1.00  0.00    -0.548 OA
ATOM     30  O   UNL A   1      33.107  25.425  19.864  1.00  0.00    -0.548 OA
ENDBRANCH  27  28
ENDBRANCH   9  27
ENDBRANCH   3   5
ENDBRANCH   2   3
ENDBRANCH   1   2
BRANCH   1  31
ATOM     31  C   UNL A   1      34.086  29.441  27.607  1.00  0.00     0.023 C 
BRANCH  31  32
ATOM     32  C   UNL A   1      34.583  30.883  27.626  1.00  0.00     0.116 C 
BRANCH  32  33
ATOM     33  N   UNL A   1      34.137  31.625  28.798  1.00  0.00    -0.352 N 
ATOM     34  C   UNL A   1      34.849  31.961  29.926  1.00  0.00     0.251 C 
ATOM     35  H   UNL A   1      33.199  31.927  28.780  1.00  0.00     0.163 HD
ATOM     36  O   UNL A   1      34.288  32.483  30.884  1.00  0.00    -0.269 OA
BRANCH  34  37
ATOM     37  C   UNL A   1      36.293  31.654  29.982  1.00  0.00     0.039 A 
ATOM     38  C   UNL A   1      36.753  30.700  30.895  1.00  0.00     0.014 A 
ATOM     39  C   UNL A   1      37.178  32.268  29.094  1.00  0.00     0.014 A 
ATOM     40  C   UNL A   1      38.090  30.296  30.856  1.00  0.00     0.010 A 
ATOM     41  C   UNL A   1      38.491  31.816  29.011  1.00  0.00     0.010 A 
ATOM     42  C   UNL A   1      38.958  30.819  29.883  1.00  0.00    -0.014 A 
BRANCH  42  43
ATOM     43  C   UNL A   1      40.358  30.340  29.737  1.00  0.00     0.031 A 
ATOM     44  C   UNL A   1      41.492  31.324  29.829  1.00  0.00     0.074 A 
ATOM     45  C   UNL A   1      40.598  29.055  29.401  1.00  0.00     0.049 A 
ATOM     46  N   UNL A   1      42.756  31.155  29.544  1.00  0.00    -0.248 NA
ATOM     47  C   UNL A   1      41.151  32.689  30.267  1.00  0.00     0.031 C 
ATOM     48  C   UNL A   1      39.579  28.015  29.236  1.00  0.00     0.029 A 
ATOM     49  N   UNL A   1      41.774  28.412  29.102  1.00  0.00    -0.354 N 
ATOM     50  C   UNL A   1      43.353  32.397  29.727  1.00  0.00     0.074 A 
ATOM     51  C   UNL A   1      42.310  33.316  30.125  1.00  0.00     0.031 C 
ATOM     52  C   UNL A   1      40.172  26.871  28.859  1.00  0.00     0.029 A 
ATOM     53  C   UNL A   1      41.605  27.102  28.712  1.00  0.00     0.049 A 
ATOM     54  H   UNL A   1      42.656  28.846  29.161  1.00  0.00     0.167 HD
ATOM     55  C   UNL A   1      44.657  32.734  29.585  1.00  0.00     0.037 A 
ATOM     56  C   UNL A   1      42.499  26.199  28.257  1.00  0.00     0.037 A 
ATOM     57  C   UNL A   1      45.697  31.800  29.246  1.00  0.00     0.049 A 
ATOM     58  C   UNL A   1      43.948  26.597  28.137  1.00  0.00     0.074 A 
ATOM     59  C   UNL A   1      47.061  32.026  29.173  1.00  0.00     0.029 A 
ATOM     60  N   UNL A   1      45.493  30.467  28.926  1.00  0.00    -0.354 N 
ATOM     61  N   UNL A   1      44.506  27.755  28.389  1.00  0.00    -0.248 NA
ATOM     62  C   UNL A   1      44.888  25.566  27.675  1.00  0.00     0.031 C 
ATOM     63  C   UNL A   1      47.678  30.841  28.768  1.00  0.00     0.029 A 
ATOM     64  C   UNL A   1      46.705  29.864  28.636  1.00  0.00     0.049 A 
ATOM     65  H   UNL A   1      44.619  30.016  28.908  1.00  0.00     0.167 HD
ATOM     66  C   UNL A   1      45.866  27.583  28.150  1.00  0.00     0.074 A 
ATOM     67  C   UNL A   1      46.047  26.208  27.737  1.00  0.00     0.031 C 
ATOM     68  C   UNL A   1      46.873  28.482  28.262  1.00  0.00     0.037 A 
BRANCH  55  69
ATOM     69  C   UNL A   1      45.049  34.167  29.803  1.00  0.00     0.058 A 
ATOM     70  C   UNL A   1      45.473  34.635  31.055  1.00  0.00     0.135 A 
ATOM     71  C   UNL A   1      45.085  35.063  28.720  1.00  0.00     0.135 A 
ATOM     72  F   UNL A   1      45.442  33.825  32.125  1.00  0.00    -0.206 F 
ATOM     73  C   UNL A   1      45.918  35.941  31.229  1.00  0.00     0.059 A 
ATOM     74  C   UNL A   1      45.549  36.366  28.866  1.00  0.00     0.059 A 
ATOM     75  F   UNL A   1      44.684  34.666  27.501  1.00  0.00    -0.206 F 
ATOM     76  C   UNL A   1      45.960  36.797  30.126  1.00  0.00     0.060 A 
BRANCH  76  77
ATOM     77  S   UNL A   1      46.590  38.472  30.360  1.00  0.00     0.124 S 
ATOM     78  O   UNL A   1      47.044  38.423  31.746  1.00  0.00    -0.237 OA
ATOM     79  O   UNL A   1      47.644  38.552  29.352  1.00  0.00    -0.237 OA
ATOM     80  O   UNL A   1      45.424  39.313  30.110  1.00  0.00    -0.744 OA
ENDBRANCH  76  77
ENDBRANCH  55  69
BRANCH  56  81
ATOM     81  C   UNL A   1      42.057  24.833  27.865  1.00  0.00     0.058 A 
ATOM     82  C   UNL A   1      42.327  23.723  28.679  1.00  0.00     0.135 A 
ATOM     83  C   UNL A   1      41.387  24.605  26.652  1.00  0.00     0.135 A 
ATOM     84  F   UNL A   1      42.971  23.888  29.845  1.00  0.00    -0.206 F 
ATOM     85  C   UNL A   1      41.983  22.432  28.291  1.00  0.00     0.059 A 
ATOM     86  C   UNL A   1      41.007  23.326  26.256  1.00  0.00     0.059 A 
ATOM     87  F   UNL A   1      41.086  25.634  25.845  1.00  0.00    -0.206 F 
ATOM     88  C   UNL A   1      41.328  22.243  27.073  1.00  0.00     0.060 A 
BRANCH  88  89
ATOM     89  S   UNL A   1      40.880  20.564  26.578  1.00  0.00     0.124 S 
ATOM     90  O   UNL A   1      41.996  20.208  25.712  1.00  0.00    -0.237 OA
ATOM     91  O   UNL A   1      40.819  19.871  27.861  1.00  0.00    -0.237 OA
ATOM     92  O   UNL A   1      39.593  20.745  25.912  1.00  0.00    -0.744 OA
ENDBRANCH  88  89
ENDBRANCH  56  81
BRANCH  68  93
ATOM     93  C   UNL A   1      48.274  28.007  27.997  1.00  0.00     0.058 A 
ATOM     94  C   UNL A   1      49.097  27.528  29.025  1.00  0.00     0.135 A 
ATOM     95  C   UNL A   1      48.756  27.941  26.680  1.00  0.00     0.135 A 
ATOM     96  F   UNL A   1      48.685  27.578  30.302  1.00  0.00    -0.206 F 
ATOM     97  C   UNL A   1      50.357  27.002  28.758  1.00  0.00     0.059 A 
ATOM     98  C   UNL A   1      50.001  27.395  26.388  1.00  0.00     0.059 A 
ATOM     99  F   UNL A   1      48.001  28.378  25.660  1.00  0.00    -0.206 F 
ATOM    100  C   UNL A   1      50.797  26.931  27.434  1.00  0.00     0.060 A 
BRANCH 100 101
ATOM    101  S   UNL A   1      52.402  26.180  27.093  1.00  0.00     0.124 S 
ATOM    102  O   UNL A   1      52.012  24.887  26.542  1.00  0.00    -0.237 OA
ATOM    103  O   UNL A   1      52.993  27.122  26.147  1.00  0.00    -0.237 OA
ATOM    104  O   UNL A   1      53.043  26.136  28.405  1.00  0.00    -0.744 OA
ENDBRANCH 100 101
ENDBRANCH  68  93
ENDBRANCH  42  43
ENDBRANCH  34  37
ENDBRANCH  32  33
ENDBRANCH  31  32
ENDBRANCH   1  31
TORSDOF 20
ENDMDL
MODEL 2
REMARK VINA RESULT:     -11.6      2.372      8.573
REMARK SMILES COc1ccc(C(=O)C2=C(NCCCCNC(=O)c3ccc(-c4c5nc(c(-c6c(F)cc(S(=O)(=O)[O-])cc6F)c6ccc([nH]6)c(-c6c(F)cc(S(=O)(=O)[O-])cc6F)c6nc(c(-c7c(F)cc(S(=O)(=O)[O-])cc7F)c7ccc4[nH]7)C=C6)C=C5)cc3)C(=O)N(CC(=O)[O-])[C@H]2c2ccccc2)cc1
REMARK SMILES IDX 13 1 12 2 11 3 10 5 9 6 92 7 85 8 87 9 86 10 7 11 8 12 6 13
REMARK SMILES IDX 3 14 4 15 100 16 5 17 99 18 2 19 1 20 93 21 94 22 98 23
REMARK SMILES IDX 95 24 97 25 96 26 88 27 89 28 90 29 91 30 14 31 15 32 16 33
REMARK SMILES IDX 17 34 18 36 19 37 20 38 84 39 21 40 83 41 22 42 23 43 24 44
REMARK SMILES IDX 77 45 25 46 82 47 76 48 78 49 26 50 81 51 75 52 74 53 27 55
REMARK SMILES IDX 61 56 40 57 60 58 41 59 44 60 59 61 79 62 42 63 43 64 58 66
REMARK SMILES IDX 80 67 45 68 28 69 29 70 38 71 30 72 31 73 37 74 39 75 32 76
REMARK SMILES IDX 33 77 34 78 35 79 36 80 62 81 63 82 72 83 64 84 65 85 71 86
REMARK SMILES IDX 73 87 66 88 67 89 68 90 69 91 70 92 46 93 47 94 56 95 48 96
REMARK SMILES IDX 49 97 55 98 57 99 50 100 51 101 52 102 53 103 54 104
REMARK H PARENT 11 4 16 35 78 54 44 65
REMARK Flexibility Score: inf
ROOT
ATOM      1  C   UNL A   1      34.027  30.437  27.308  1.00  0.00     0.023 C 
ENDROOT
BRANCH   1   2
ATOM      2  C   UNL A   1      32.504  30.477  27.199  1.00  0.00     0.113 C 
BRANCH   2   3
ATOM      3  N   UNL A   1      32.096  30.319  25.823  1.00  0.00    -0.380 N 
ATOM      4  H   UNL A   1      32.368  31.050  25.222  1.00  0.00     0.160 HD
BRANCH   3   5
ATOM      5  C   UNL A   1      31.389  29.309  25.226  1.00  0.00     0.110 C 
ATOM      6  C   UNL A   1      31.232  27.991  25.407  1.00  0.00     0.056 C 
ATOM      7  C   UNL A   1      30.243  27.346  24.481  1.00  0.00     0.153 C 
ATOM      8  C   UNL A   1      30.461  29.640  24.090  1.00  0.00     0.271 C 
ATOM      9  N   UNL A   1      29.808  28.492  23.721  1.00  0.00    -0.320 N 
ATOM     10  O   UNL A   1      30.329  30.753  23.608  1.00  0.00    -0.267 OA
BRANCH   6  11
ATOM     11  C   UNL A   1      31.797  27.236  26.534  1.00  0.00     0.193 C 
ATOM     12  O   UNL A   1      31.547  27.592  27.683  1.00  0.00    -0.289 OA
BRANCH  11  13
ATOM     13  C   UNL A   1      32.625  26.018  26.286  1.00  0.00     0.023 A 
ATOM     14  C   UNL A   1      34.381  23.828  26.002  1.00  0.00     0.118 A 
ATOM     15  C   UNL A   1      34.735  25.088  25.516  1.00  0.00     0.047 A 
ATOM     16  C   UNL A   1      33.126  23.656  26.582  1.00  0.00     0.047 A 
ATOM     17  C   UNL A   1      33.869  26.177  25.662  1.00  0.00     0.016 A 
ATOM     18  C   UNL A   1      32.243  24.739  26.694  1.00  0.00     0.016 A 
BRANCH  14  19
ATOM     19  O   UNL A   1      35.337  22.862  25.857  1.00  0.00    -0.497 OA
ATOM     20  C   UNL A   1      36.603  23.284  25.363  1.00  0.00     0.278 C 
ENDBRANCH  14  19
ENDBRANCH  11  13
ENDBRANCH   6  11
BRANCH   7  21
ATOM     21  C   UNL A   1      30.856  26.279  23.585  1.00  0.00    -0.021 A 
ATOM     22  C   UNL A   1      31.892  26.584  22.680  1.00  0.00     0.006 A 
ATOM     23  C   UNL A   1      30.418  24.950  23.676  1.00  0.00     0.006 A 
ATOM     24  C   UNL A   1      32.485  25.588  21.904  1.00  0.00     0.000 A 
ATOM     25  C   UNL A   1      31.006  23.956  22.888  1.00  0.00     0.000 A 
ATOM     26  C   UNL A   1      32.041  24.274  22.009  1.00  0.00     0.000 A 
ENDBRANCH   7  21
BRANCH   9  27
ATOM     27  C   UNL A   1      28.796  28.442  22.674  1.00  0.00     0.173 C 
BRANCH  27  28
ATOM     28  C   UNL A   1      27.492  29.153  23.000  1.00  0.00     0.061 C 
ATOM     29  O   UNL A   1      27.258  30.330  22.765  1.00  0.00    -0.548 OA
ATOM     30  O   UNL A   1      26.531  28.368  23.525  1.00  0.00    -0.548 OA
ENDBRANCH  27  28
ENDBRANCH   9  27
ENDBRANCH   3   5
ENDBRANCH   2   3
ENDBRANCH   1   2
BRANCH   1  31
ATOM     31  C   UNL A   1      34.680  31.765  27.702  1.00  0.00     0.023 C 
BRANCH  31  32
ATOM     32  C   UNL A   1      35.953  31.644  28.533  1.00  0.00     0.116 C 
BRANCH  32  33
ATOM     33  N   UNL A   1      35.791  30.791  29.703  1.00  0.00    -0.352 N 
ATOM     34  C   UNL A   1      36.690  29.908  30.256  1.00  0.00     0.251 C 
ATOM     35  H   UNL A   1      34.920  30.855  30.160  1.00  0.00     0.163 HD
ATOM     36  O   UNL A   1      36.351  29.167  31.173  1.00  0.00    -0.269 OA
BRANCH  34  37
ATOM     37  C   UNL A   1      38.060  29.840  29.707  1.00  0.00     0.039 A 
ATOM     38  C   UNL A   1      39.149  29.879  30.583  1.00  0.00     0.014 A 
ATOM     39  C   UNL A   1      38.260  29.677  28.335  1.00  0.00     0.014 A 
ATOM     40  C   UNL A   1      40.439  29.667  30.089  1.00  0.00     0.010 A 
ATOM     41  C   UNL A   1      39.536  29.400  27.856  1.00  0.00     0.010 A 
ATOM     42  C   UNL A   1      40.637  29.381  28.728  1.00  0.00    -0.014 A 
BRANCH  42  43
ATOM     43  C   UNL A   1      41.977  29.044  28.181  1.00  0.00     0.031 A 
ATOM     44  C   UNL A   1      42.271  27.630  27.759  1.00  0.00     0.074 A 
ATOM     45  C   UNL A   1      42.957  29.971  28.181  1.00  0.00     0.049 A 
ATOM     46  N   UNL A   1      43.416  27.085  27.441  1.00  0.00    -0.248 NA
ATOM     47  C   UNL A   1      41.131  26.697  27.725  1.00  0.00     0.031 C 
ATOM     48  C   UNL A   1      42.808  31.365  28.609  1.00  0.00     0.029 A 
ATOM     49  N   UNL A   1      44.284  29.873  27.840  1.00  0.00    -0.354 N 
ATOM     50  C   UNL A   1      43.143  25.742  27.209  1.00  0.00     0.074 A 
ATOM     51  C   UNL A   1      41.730  25.548  27.446  1.00  0.00     0.031 C 
ATOM     52  C   UNL A   1      43.996  31.985  28.513  1.00  0.00     0.029 A 
ATOM     53  C   UNL A   1      45.000  31.028  28.061  1.00  0.00     0.049 A 
ATOM     54  H   UNL A   1      44.687  29.052  27.473  1.00  0.00     0.167 HD
ATOM     55  C   UNL A   1      43.995  24.763  26.824  1.00  0.00     0.037 A 
ATOM     56  C   UNL A   1      46.320  31.280  27.941  1.00  0.00     0.037 A 
ATOM     57  C   UNL A   1      45.388  24.977  26.534  1.00  0.00     0.049 A 
ATOM     58  C   UNL A   1      47.239  30.177  27.483  1.00  0.00     0.074 A 
ATOM     59  C   UNL A   1      46.310  24.068  26.045  1.00  0.00     0.029 A 
ATOM     60  N   UNL A   1      46.058  26.178  26.704  1.00  0.00    -0.354 N 
ATOM     61  N   UNL A   1      46.949  28.932  27.194  1.00  0.00    -0.248 NA
ATOM     62  C   UNL A   1      48.663  30.512  27.331  1.00  0.00     0.031 C 
ATOM     63  C   UNL A   1      47.549  24.708  25.958  1.00  0.00     0.029 A 
ATOM     64  C   UNL A   1      47.387  26.028  26.346  1.00  0.00     0.049 A 
ATOM     65  H   UNL A   1      45.651  27.013  27.028  1.00  0.00     0.167 HD
ATOM     66  C   UNL A   1      48.145  28.345  26.793  1.00  0.00     0.074 A 
ATOM     67  C   UNL A   1      49.162  29.372  26.873  1.00  0.00     0.031 C 
ATOM     68  C   UNL A   1      48.380  27.071  26.396  1.00  0.00     0.037 A 
BRANCH  55  69
ATOM     69  C   UNL A   1      43.458  23.368  26.680  1.00  0.00     0.058 A 
ATOM     70  C   UNL A   1      43.301  22.763  25.424  1.00  0.00     0.135 A 
ATOM     71  C   UNL A   1      43.182  22.595  27.821  1.00  0.00     0.135 A 
ATOM     72  F   UNL A   1      43.535  23.463  24.303  1.00  0.00    -0.206 F 
ATOM     73  C   UNL A   1      42.886  21.441  25.302  1.00  0.00     0.059 A 
ATOM     74  C   UNL A   1      42.790  21.264  27.723  1.00  0.00     0.059 A 
ATOM     75  F   UNL A   1      43.312  23.128  29.046  1.00  0.00    -0.206 F 
ATOM     76  C   UNL A   1      42.641  20.697  26.458  1.00  0.00     0.060 A 
BRANCH  76  77
ATOM     77  S   UNL A   1      42.156  18.967  26.282  1.00  0.00     0.124 S 
ATOM     78  O   UNL A   1      42.326  18.476  27.646  1.00  0.00    -0.237 OA
ATOM     79  O   UNL A   1      40.776  19.077  25.818  1.00  0.00    -0.237 OA
ATOM     80  O   UNL A   1      43.103  18.446  25.304  1.00  0.00    -0.744 OA
ENDBRANCH  76  77
ENDBRANCH  55  69
BRANCH  56  81
ATOM     81  C   UNL A   1      46.864  32.625  28.273  1.00  0.00     0.058 A 
ATOM     82  C   UNL A   1      47.292  32.932  29.573  1.00  0.00     0.135 A 
ATOM     83  C   UNL A   1      46.934  33.641  27.307  1.00  0.00     0.135 A 
ATOM     84  F   UNL A   1      47.239  31.997  30.534  1.00  0.00    -0.206 F 
ATOM     85  C   UNL A   1      47.735  34.206  29.915  1.00  0.00     0.059 A 
ATOM     86  C   UNL A   1      47.401  34.915  27.617  1.00  0.00     0.059 A 
ATOM     87  F   UNL A   1      46.555  33.395  26.043  1.00  0.00    -0.206 F 
ATOM     88  C   UNL A   1      47.781  35.194  28.929  1.00  0.00     0.060 A 
BRANCH  88  89
ATOM     89  S   UNL A   1      48.362  36.843  29.379  1.00  0.00     0.124 S 
ATOM     90  O   UNL A   1      49.577  36.952  28.580  1.00  0.00    -0.237 OA
ATOM     91  O   UNL A   1      47.247  37.688  28.964  1.00  0.00    -0.237 OA
ATOM     92  O   UNL A   1      48.560  36.746  30.822  1.00  0.00    -0.744 OA
ENDBRANCH  88  89
ENDBRANCH  56  81
BRANCH  68  93
ATOM     93  C   UNL A   1      49.772  26.717  25.954  1.00  0.00     0.058 A 
ATOM     94  C   UNL A   1      50.218  26.965  24.648  1.00  0.00     0.135 A 
ATOM     95  C   UNL A   1      50.698  26.214  26.882  1.00  0.00     0.135 A 
ATOM     96  F   UNL A   1      49.369  27.438  23.722  1.00  0.00    -0.206 F 
ATOM     97  C   UNL A   1      51.535  26.722  24.275  1.00  0.00     0.059 A 
ATOM     98  C   UNL A   1      52.026  25.988  26.537  1.00  0.00     0.059 A 
ATOM     99  F   UNL A   1      50.321  25.969  28.148  1.00  0.00    -0.206 F 
ATOM    100  C   UNL A   1      52.435  26.242  25.229  1.00  0.00     0.060 A 
BRANCH 100 101
ATOM    101  S   UNL A   1      54.158  25.999  24.751  1.00  0.00     0.124 S 
ATOM    102  O   UNL A   1      54.132  26.387  23.345  1.00  0.00    -0.237 OA
ATOM    103  O   UNL A   1      54.863  26.911  25.648  1.00  0.00    -0.237 OA
ATOM    104  O   UNL A   1      54.386  24.580  25.007  1.00  0.00    -0.744 OA
ENDBRANCH 100 101
ENDBRANCH  68  93
ENDBRANCH  42  43
ENDBRANCH  34  37
ENDBRANCH  32  33
ENDBRANCH  31  32
ENDBRANCH   1  31
TORSDOF 20
ENDMDL
MODEL 3
REMARK VINA RESULT:     -11.4      4.486     11.075
REMARK SMILES COc1ccc(C(=O)C2=C(NCCCCNC(=O)c3ccc(-c4c5nc(c(-c6c(F)cc(S(=O)(=O)[O-])cc6F)c6ccc([nH]6)c(-c6c(F)cc(S(=O)(=O)[O-])cc6F)c6nc(c(-c7c(F)cc(S(=O)(=O)[O-])cc7F)c7ccc4[nH]7)C=C6)C=C5)cc3)C(=O)N(CC(=O)[O-])[C@H]2c2ccccc2)cc1
REMARK SMILES IDX 13 1 12 2 11 3 10 5 9 6 92 7 85 8 87 9 86 10 7 11 8 12 6 13
REMARK SMILES IDX 3 14 4 15 100 16 5 17 99 18 2 19 1 20 93 21 94 22 98 23
REMARK SMILES IDX 95 24 97 25 96 26 88 27 89 28 90 29 91 30 14 31 15 32 16 33
REMARK SMILES IDX 17 34 18 36 19 37 20 38 84 39 21 40 83 41 22 42 23 43 24 44
REMARK SMILES IDX 77 45 25 46 82 47 76 48 78 49 26 50 81 51 75 52 74 53 27 55
REMARK SMILES IDX 61 56 40 57 60 58 41 59 44 60 59 61 79 62 42 63 43 64 58 66
REMARK SMILES IDX 80 67 45 68 28 69 29 70 38 71 30 72 31 73 37 74 39 75 32 76
REMARK SMILES IDX 33 77 34 78 35 79 36 80 62 81 63 82 72 83 64 84 65 85 71 86
REMARK SMILES IDX 73 87 66 88 67 89 68 90 69 91 70 92 46 93 47 94 56 95 48 96
REMARK SMILES IDX 49 97 55 98 57 99 50 100 51 101 52 102 53 103 54 104
REMARK H PARENT 11 4 16 35 78 54 44 65
REMARK Flexibility Score: inf
ROOT
ATOM      1  C   UNL A   1      34.708  31.869  27.771  1.00  0.00     0.023 C 
ENDROOT
BRANCH   1   2
ATOM      2  C   UNL A   1      36.107  32.435  28.008  1.00  0.00     0.113 C 
BRANCH   2   3
ATOM      3  N   UNL A   1      36.024  33.729  28.642  1.00  0.00    -0.380 N 
ATOM      4  H   UNL A   1      35.889  34.486  28.027  1.00  0.00     0.160 HD
BRANCH   3   5
ATOM      5  C   UNL A   1      36.105  34.066  29.967  1.00  0.00     0.110 C 
ATOM      6  C   UNL A   1      37.080  34.322  30.850  1.00  0.00     0.056 C 
ATOM      7  C   UNL A   1      36.600  34.731  32.211  1.00  0.00     0.153 C 
ATOM      8  C   UNL A   1      34.836  34.295  30.742  1.00  0.00     0.271 C 
ATOM      9  N   UNL A   1      35.173  34.702  32.008  1.00  0.00    -0.320 N 
ATOM     10  O   UNL A   1      33.713  34.143  30.289  1.00  0.00    -0.267 OA
BRANCH   6  11
ATOM     11  C   UNL A   1      38.506  34.414  30.505  1.00  0.00     0.193 C 
ATOM     12  O   UNL A   1      38.848  35.076  29.529  1.00  0.00    -0.289 OA
BRANCH  11  13
ATOM     13  C   UNL A   1      39.532  33.750  31.363  1.00  0.00     0.023 A 
ATOM     14  C   UNL A   1      41.303  32.558  33.208  1.00  0.00     0.118 A 
ATOM     15  C   UNL A   1      41.112  33.941  33.201  1.00  0.00     0.047 A 
ATOM     16  C   UNL A   1      40.647  31.781  32.256  1.00  0.00     0.047 A 
ATOM     17  C   UNL A   1      40.229  34.534  32.292  1.00  0.00     0.016 A 
ATOM     18  C   UNL A   1      39.792  32.379  31.321  1.00  0.00     0.016 A 
BRANCH  14  19
ATOM     19  O   UNL A   1      42.139  32.094  34.185  1.00  0.00    -0.497 OA
ATOM     20  C   UNL A   1      42.005  32.682  35.473  1.00  0.00     0.278 C 
ENDBRANCH  14  19
ENDBRANCH  11  13
ENDBRANCH   6  11
BRANCH   7  21
ATOM     21  C   UNL A   1      37.028  33.777  33.317  1.00  0.00    -0.021 A 
ATOM     22  C   UNL A   1      36.925  32.379  33.165  1.00  0.00     0.006 A 
ATOM     23  C   UNL A   1      37.574  34.280  34.507  1.00  0.00     0.006 A 
ATOM     24  C   UNL A   1      37.372  31.513  34.162  1.00  0.00     0.000 A 
ATOM     25  C   UNL A   1      38.010  33.409  35.509  1.00  0.00     0.000 A 
ATOM     26  C   UNL A   1      37.915  32.029  35.334  1.00  0.00     0.000 A 
ENDBRANCH   7  21
BRANCH   9  27
ATOM     27  C   UNL A   1      34.194  35.056  33.026  1.00  0.00     0.173 C 
BRANCH  27  28
ATOM     28  C   UNL A   1      33.639  36.468  32.929  1.00  0.00     0.061 C 
ATOM     29  O   UNL A   1      32.872  36.861  32.062  1.00  0.00    -0.548 OA
ATOM     30  O   UNL A   1      33.997  37.292  33.933  1.00  0.00    -0.548 OA
ENDBRANCH  27  28
ENDBRANCH   9  27
ENDBRANCH   3   5
ENDBRANCH   2   3
ENDBRANCH   1   2
BRANCH   1  31
ATOM     31  C   UNL A   1      34.670  30.393  27.371  1.00  0.00     0.023 C 
BRANCH  31  32
ATOM     32  C   UNL A   1      35.666  29.495  28.099  1.00  0.00     0.116 C 
BRANCH  32  33
ATOM     33  N   UNL A   1      35.547  29.571  29.550  1.00  0.00    -0.352 N 
ATOM     34  C   UNL A   1      36.541  29.505  30.499  1.00  0.00     0.251 C 
ATOM     35  H   UNL A   1      34.632  29.684  29.897  1.00  0.00     0.163 HD
ATOM     36  O   UNL A   1      36.259  29.458  31.692  1.00  0.00    -0.269 OA
BRANCH  34  37
ATOM     37  C   UNL A   1      37.951  29.457  30.061  1.00  0.00     0.039 A 
ATOM     38  C   UNL A   1      38.897  28.829  30.876  1.00  0.00     0.014 A 
ATOM     39  C   UNL A   1      38.320  29.981  28.821  1.00  0.00     0.014 A 
ATOM     40  C   UNL A   1      40.201  28.650  30.406  1.00  0.00     0.010 A 
ATOM     41  C   UNL A   1      39.598  29.741  28.328  1.00  0.00     0.010 A 
ATOM     42  C   UNL A   1      40.549  29.064  29.110  1.00  0.00    -0.014 A 
BRANCH  42  43
ATOM     43  C   UNL A   1      41.892  28.796  28.531  1.00  0.00     0.031 A 
ATOM     44  C   UNL A   1      42.223  27.415  28.035  1.00  0.00     0.074 A 
ATOM     45  C   UNL A   1      42.843  29.753  28.565  1.00  0.00     0.049 A 
ATOM     46  N   UNL A   1      43.379  26.922  27.677  1.00  0.00    -0.248 NA
ATOM     47  C   UNL A   1      41.111  26.450  27.967  1.00  0.00     0.031 C 
ATOM     48  C   UNL A   1      42.657  31.118  29.064  1.00  0.00     0.029 A 
ATOM     49  N   UNL A   1      44.167  29.713  28.204  1.00  0.00    -0.354 N 
ATOM     50  C   UNL A   1      43.144  25.584  27.381  1.00  0.00     0.074 A 
ATOM     51  C   UNL A   1      41.741  25.335  27.624  1.00  0.00     0.031 C 
ATOM     52  C   UNL A   1      43.823  31.779  28.986  1.00  0.00     0.029 A 
ATOM     53  C   UNL A   1      44.850  30.878  28.474  1.00  0.00     0.049 A 
ATOM     54  H   UNL A   1      44.590  28.925  27.792  1.00  0.00     0.167 HD
ATOM     55  C   UNL A   1      44.021  24.653  26.937  1.00  0.00     0.037 A 
ATOM     56  C   UNL A   1      46.160  31.176  28.352  1.00  0.00     0.037 A 
ATOM     57  C   UNL A   1      45.402  24.925  26.642  1.00  0.00     0.049 A 
ATOM     58  C   UNL A   1      47.106  30.126  27.828  1.00  0.00     0.074 A 
ATOM     59  C   UNL A   1      46.345  24.071  26.097  1.00  0.00     0.029 A 
ATOM     60  N   UNL A   1      46.038  26.136  26.864  1.00  0.00    -0.354 N 
ATOM     61  N   UNL A   1      46.851  28.888  27.480  1.00  0.00    -0.248 NA
ATOM     62  C   UNL A   1      48.517  30.512  27.676  1.00  0.00     0.031 C 
ATOM     63  C   UNL A   1      47.562  24.752  26.027  1.00  0.00     0.029 A 
ATOM     64  C   UNL A   1      47.366  26.046  26.484  1.00  0.00     0.049 A 
ATOM     65  H   UNL A   1      45.610  26.941  27.234  1.00  0.00     0.167 HD
ATOM     66  C   UNL A   1      48.059  28.360  27.037  1.00  0.00     0.074 A 
ATOM     67  C   UNL A   1      49.045  29.413  27.156  1.00  0.00     0.031 C 
ATOM     68  C   UNL A   1      48.327  27.116  26.573  1.00  0.00     0.037 A 
BRANCH  55  69
ATOM     69  C   UNL A   1      43.524  23.251  26.729  1.00  0.00     0.058 A 
ATOM     70  C   UNL A   1      43.378  22.702  25.447  1.00  0.00     0.135 A 
ATOM     71  C   UNL A   1      43.279  22.417  27.834  1.00  0.00     0.135 A 
ATOM     72  F   UNL A   1      43.583  23.461  24.359  1.00  0.00    -0.206 F 
ATOM     73  C   UNL A   1      43.002  21.376  25.265  1.00  0.00     0.059 A 
ATOM     74  C   UNL A   1      42.926  21.081  27.674  1.00  0.00     0.059 A 
ATOM     75  F   UNL A   1      43.401  22.895  29.082  1.00  0.00    -0.206 F 
ATOM     76  C   UNL A   1      42.786  20.570  26.385  1.00  0.00     0.060 A 
BRANCH  76  77
ATOM     77  S   UNL A   1      42.351  18.837  26.130  1.00  0.00     0.124 S 
ATOM     78  O   UNL A   1      42.572  18.282  27.461  1.00  0.00    -0.237 OA
ATOM     79  O   UNL A   1      40.957  18.925  25.705  1.00  0.00    -0.237 OA
ATOM     80  O   UNL A   1      43.290  18.398  25.103  1.00  0.00    -0.744 OA
ENDBRANCH  76  77
ENDBRANCH  55  69
BRANCH  56  81
ATOM     81  C   UNL A   1      46.667  32.519  28.744  1.00  0.00     0.058 A 
ATOM     82  C   UNL A   1      47.092  32.777  30.056  1.00  0.00     0.135 A 
ATOM     83  C   UNL A   1      46.704  33.581  27.827  1.00  0.00     0.135 A 
ATOM     84  F   UNL A   1      47.070  31.797  30.973  1.00  0.00    -0.206 F 
ATOM     85  C   UNL A   1      47.501  34.046  30.455  1.00  0.00     0.059 A 
ATOM     86  C   UNL A   1      47.136  34.852  28.194  1.00  0.00     0.059 A 
ATOM     87  F   UNL A   1      46.327  33.383  26.554  1.00  0.00    -0.206 F 
ATOM     88  C   UNL A   1      47.514  35.079  29.516  1.00  0.00     0.060 A 
BRANCH  88  89
ATOM     89  S   UNL A   1      48.051  36.722  30.041  1.00  0.00     0.124 S 
ATOM     90  O   UNL A   1      49.494  36.542  30.133  1.00  0.00    -0.237 OA
ATOM     91  O   UNL A   1      47.580  37.565  28.945  1.00  0.00    -0.237 OA
ATOM     92  O   UNL A   1      47.353  36.912  31.309  1.00  0.00    -0.744 OA
ENDBRANCH  88  89
ENDBRANCH  56  81
BRANCH  68  93
ATOM     93  C   UNL A   1      49.723  26.827  26.098  1.00  0.00     0.058 A 
ATOM     94  C   UNL A   1      50.682  26.241  26.936  1.00  0.00     0.135 A 
ATOM     95  C   UNL A   1      50.069  27.051  24.755  1.00  0.00     0.135 A 
ATOM     96  F   UNL A   1      50.403  26.014  28.229  1.00  0.00    -0.206 F 
ATOM     97  C   UNL A   1      51.941  25.891  26.460  1.00  0.00     0.059 A 
ATOM     98  C   UNL A   1      51.312  26.685  24.253  1.00  0.00     0.059 A 
ATOM     99  F   UNL A   1      49.181  27.602  23.911  1.00  0.00    -0.206 F 
ATOM    100  C   UNL A   1      52.244  26.108  25.114  1.00  0.00     0.060 A 
BRANCH 100 101
ATOM    101  S   UNL A   1      53.855  25.582  24.492  1.00  0.00     0.124 S 
ATOM    102  O   UNL A   1      53.754  25.931  23.079  1.00  0.00    -0.237 OA
ATOM    103  O   UNL A   1      54.776  26.395  25.282  1.00  0.00    -0.237 OA
ATOM    104  O   UNL A   1      53.883  24.152  24.785  1.00  0.00    -0.744 OA
ENDBRANCH 100 101
ENDBRANCH  68  93
ENDBRANCH  42  43
ENDBRANCH  34  37
ENDBRANCH  32  33
ENDBRANCH  31  32
ENDBRANCH   1  31
TORSDOF 20
ENDMDL
