MODEL 1
REMARK VINA RESULT:     -12.2      0.000      0.000
REMARK SMILES O=C(Nc1c(F)cc(F)cc1F)N[C@H]1C=C[C@@H](C(=O)NCCCCNC(=O)c2ccc(-c3c4nc(c(-c5c(F)cc(S(=O)(=O)[O-])cc5F)c5ccc([nH]5)c(-c5c(F)cc(S(=O)(=O)[O-])cc5F)c5nc(c(-c6c(F)cc(S(=O)(=O)[O-])cc6F)c6ccc3[nH]6)C=C5)C=C4)cc2)C1
REMARK SMILES IDX 23 1 22 2 21 3 20 4 18 5 19 6 17 8 14 9 15 10 94 11 16 12
REMARK SMILES IDX 13 13 1 14 2 15 3 16 4 19 5 20 11 21 6 22 7 23 10 24 12 25
REMARK SMILES IDX 8 26 9 27 24 28 25 29 26 30 27 32 28 33 29 34 93 35 30 36
REMARK SMILES IDX 92 37 31 38 32 39 33 40 86 41 34 42 91 43 85 44 87 45 35 46
REMARK SMILES IDX 90 47 84 48 83 49 36 51 70 52 49 53 69 54 50 55 53 56 68 57
REMARK SMILES IDX 88 58 51 59 52 60 67 62 89 63 54 64 37 65 38 66 47 67 39 68
REMARK SMILES IDX 40 69 46 70 48 71 41 72 42 73 43 74 44 75 45 76 71 77 72 78
REMARK SMILES IDX 81 79 73 80 74 81 80 82 82 83 75 84 76 85 77 86 78 87 79 88
REMARK SMILES IDX 55 89 56 90 65 91 57 92 58 93 64 94 66 95 59 96 60 97 61 98
REMARK SMILES IDX 62 99 63 100
REMARK H PARENT 20 7 3 17 13 18 25 31 87 50 53 61
REMARK Flexibility Score: inf
ROOT
ATOM      1  C   UNL A   1      34.087  28.462  25.756  1.00  0.00     0.023 C 
ENDROOT
BRANCH   1   2
ATOM      2  C   UNL A   1      33.081  28.886  24.688  1.00  0.00     0.023 C 
BRANCH   2   3
ATOM      3  C   UNL A   1      31.615  28.856  25.114  1.00  0.00     0.116 C 
BRANCH   3   4
ATOM      4  N   UNL A   1      30.789  29.758  24.340  1.00  0.00    -0.356 N 
ATOM      5  C   UNL A   1      29.889  29.510  23.350  1.00  0.00     0.227 C 
ATOM      6  O   UNL A   1      29.236  30.473  22.931  1.00  0.00    -0.274 OA
ATOM      7  H   UNL A   1      30.895  30.710  24.568  1.00  0.00     0.163 HD
BRANCH   5   8
ATOM      8  C   UNL A   1      29.648  28.116  22.755  1.00  0.00     0.103 C 
ATOM      9  C   UNL A   1      30.959  26.017  22.675  1.00  0.00     0.107 C 
ATOM     10  C   UNL A   1      29.807  25.946  23.636  1.00  0.00    -0.006 C 
ATOM     11  C   UNL A   1      30.876  27.453  22.124  1.00  0.00     0.047 C 
ATOM     12  C   UNL A   1      29.121  27.092  23.708  1.00  0.00    -0.016 C 
BRANCH   9  13
ATOM     13  N   UNL A   1      32.150  25.671  23.420  1.00  0.00    -0.332 N 
ATOM     14  O   UNL A   1      33.718  26.021  21.785  1.00  0.00    -0.248 OA
ATOM     15  C   UNL A   1      33.413  25.623  22.904  1.00  0.00     0.319 C 
ATOM     16  N   UNL A   1      34.386  25.286  23.803  1.00  0.00    -0.303 N 
ATOM     17  H   UNL A   1      35.201  25.838  23.773  1.00  0.00     0.172 HD
ATOM     18  H   UNL A   1      32.040  25.452  24.373  1.00  0.00     0.165 HD
BRANCH  16  19
ATOM     19  C   UNL A   1      34.385  24.259  24.768  1.00  0.00     0.115 A 
ATOM     20  C   UNL A   1      33.754  24.364  26.013  1.00  0.00     0.152 A 
ATOM     21  C   UNL A   1      34.950  23.027  24.421  1.00  0.00     0.152 A 
ATOM     22  F   UNL A   1      33.133  25.494  26.378  1.00  0.00    -0.204 F 
ATOM     23  C   UNL A   1      33.687  23.279  26.881  1.00  0.00     0.081 A 
ATOM     24  C   UNL A   1      34.919  21.940  25.289  1.00  0.00     0.081 A 
ATOM     25  F   UNL A   1      35.553  22.887  23.231  1.00  0.00    -0.204 F 
ATOM     26  C   UNL A   1      34.277  22.076  26.511  1.00  0.00     0.129 A 
ATOM     27  F   UNL A   1      34.209  21.030  27.344  1.00  0.00    -0.207 F 
ENDBRANCH  16  19
ENDBRANCH   9  13
ENDBRANCH   5   8
ENDBRANCH   3   4
ENDBRANCH   2   3
ENDBRANCH   1   2
BRANCH   1  28
ATOM     28  C   UNL A   1      33.601  28.568  27.197  1.00  0.00     0.116 C 
BRANCH  28  29
ATOM     29  N   UNL A   1      33.520  29.936  27.687  1.00  0.00    -0.352 N 
ATOM     30  C   UNL A   1      34.491  30.697  28.296  1.00  0.00     0.251 C 
ATOM     31  H   UNL A   1      32.650  30.380  27.564  1.00  0.00     0.163 HD
ATOM     32  O   UNL A   1      34.219  31.817  28.718  1.00  0.00    -0.269 OA
BRANCH  30  33
ATOM     33  C   UNL A   1      35.850  30.141  28.478  1.00  0.00     0.039 A 
ATOM     34  C   UNL A   1      36.738  30.169  27.400  1.00  0.00     0.014 A 
ATOM     35  C   UNL A   1      36.257  29.631  29.714  1.00  0.00     0.014 A 
ATOM     36  C   UNL A   1      38.061  29.760  27.583  1.00  0.00     0.010 A 
ATOM     37  C   UNL A   1      37.592  29.290  29.913  1.00  0.00     0.010 A 
ATOM     38  C   UNL A   1      38.508  29.358  28.853  1.00  0.00    -0.014 A 
BRANCH  38  39
ATOM     39  C   UNL A   1      39.931  29.017  29.101  1.00  0.00     0.031 A 
ATOM     40  C   UNL A   1      40.868  30.055  29.653  1.00  0.00     0.074 A 
ATOM     41  C   UNL A   1      40.398  27.803  28.748  1.00  0.00     0.049 A 
ATOM     42  N   UNL A   1      42.162  29.987  29.834  1.00  0.00    -0.248 NA
ATOM     43  C   UNL A   1      40.277  31.352  30.020  1.00  0.00     0.031 C 
ATOM     44  C   UNL A   1      39.601  26.729  28.149  1.00  0.00     0.029 A 
ATOM     45  N   UNL A   1      41.661  27.272  28.828  1.00  0.00    -0.354 N 
ATOM     46  C   UNL A   1      42.544  31.237  30.306  1.00  0.00     0.074 A 
ATOM     47  C   UNL A   1      41.350  32.055  30.349  1.00  0.00     0.031 C 
ATOM     48  C   UNL A   1      40.391  25.663  27.934  1.00  0.00     0.029 A 
ATOM     49  C   UNL A   1      41.751  25.987  28.349  1.00  0.00     0.049 A 
ATOM     50  H   UNL A   1      42.430  27.766  29.194  1.00  0.00     0.167 HD
ATOM     51  C   UNL A   1      43.773  31.660  30.686  1.00  0.00     0.037 A 
ATOM     52  C   UNL A   1      42.813  25.164  28.251  1.00  0.00     0.037 A 
ATOM     53  C   UNL A   1      44.949  30.831  30.685  1.00  0.00     0.049 A 
ATOM     54  C   UNL A   1      44.158  25.638  28.727  1.00  0.00     0.074 A 
ATOM     55  C   UNL A   1      46.227  31.147  31.109  1.00  0.00     0.029 A 
ATOM     56  N   UNL A   1      44.987  29.516  30.245  1.00  0.00    -0.354 N 
ATOM     57  N   UNL A   1      44.491  26.809  29.215  1.00  0.00    -0.248 NA
ATOM     58  C   UNL A   1      45.269  24.680  28.643  1.00  0.00     0.031 C 
ATOM     59  C   UNL A   1      47.044  30.028  30.909  1.00  0.00     0.029 A 
ATOM     60  C   UNL A   1      46.268  29.007  30.385  1.00  0.00     0.049 A 
ATOM     61  H   UNL A   1      44.218  29.018  29.885  1.00  0.00     0.167 HD
ATOM     62  C   UNL A   1      45.845  26.721  29.517  1.00  0.00     0.074 A 
ATOM     63  C   UNL A   1      46.267  25.380  29.165  1.00  0.00     0.031 C 
ATOM     64  C   UNL A   1      46.664  27.666  30.040  1.00  0.00     0.037 A 
BRANCH  51  65
ATOM     65  C   UNL A   1      43.898  33.084  31.146  1.00  0.00     0.058 A 
ATOM     66  C   UNL A   1      44.211  34.119  30.251  1.00  0.00     0.135 A 
ATOM     67  C   UNL A   1      43.697  33.420  32.495  1.00  0.00     0.135 A 
ATOM     68  F   UNL A   1      44.429  33.848  28.955  1.00  0.00    -0.206 F 
ATOM     69  C   UNL A   1      44.355  35.433  30.682  1.00  0.00     0.059 A 
ATOM     70  C   UNL A   1      43.814  34.732  32.944  1.00  0.00     0.059 A 
ATOM     71  F   UNL A   1      43.398  32.468  33.392  1.00  0.00    -0.206 F 
ATOM     72  C   UNL A   1      44.162  35.729  32.032  1.00  0.00     0.060 A 
BRANCH  72  73
ATOM     73  S   UNL A   1      44.367  37.436  32.583  1.00  0.00     0.124 S 
ATOM     74  O   UNL A   1      45.785  37.459  32.930  1.00  0.00    -0.237 OA
ATOM     75  O   UNL A   1      43.993  38.200  31.398  1.00  0.00    -0.237 OA
ATOM     76  O   UNL A   1      43.443  37.540  33.709  1.00  0.00    -0.744 OA
ENDBRANCH  72  73
ENDBRANCH  51  65
BRANCH  52  77
ATOM     77  C   UNL A   1      42.638  23.791  27.712  1.00  0.00     0.058 A 
ATOM     78  C   UNL A   1      42.650  23.561  26.328  1.00  0.00     0.135 A 
ATOM     79  C   UNL A   1      42.479  22.686  28.560  1.00  0.00     0.135 A 
ATOM     80  F   UNL A   1      42.795  24.589  25.479  1.00  0.00    -0.206 F 
ATOM     81  C   UNL A   1      42.496  22.283  25.802  1.00  0.00     0.059 A 
ATOM     82  C   UNL A   1      42.343  21.396  28.059  1.00  0.00     0.059 A 
ATOM     83  F   UNL A   1      42.479  22.855  29.892  1.00  0.00    -0.206 F 
ATOM     84  C   UNL A   1      42.344  21.205  26.677  1.00  0.00     0.060 A 
BRANCH  84  85
ATOM     85  S   UNL A   1      42.201  19.542  25.989  1.00  0.00     0.124 S 
ATOM     86  O   UNL A   1      42.624  18.720  27.116  1.00  0.00    -0.237 OA
ATOM     87  O   UNL A   1      40.785  19.469  25.642  1.00  0.00    -0.237 OA
ATOM     88  O   UNL A   1      43.114  19.574  24.849  1.00  0.00    -0.744 OA
ENDBRANCH  84  85
ENDBRANCH  52  77
BRANCH  64  89
ATOM     89  C   UNL A   1      48.091  27.274  30.290  1.00  0.00     0.058 A 
ATOM     90  C   UNL A   1      49.099  27.533  29.348  1.00  0.00     0.135 A 
ATOM     91  C   UNL A   1      48.461  26.678  31.505  1.00  0.00     0.135 A 
ATOM     92  F   UNL A   1      48.792  28.095  28.169  1.00  0.00    -0.206 F 
ATOM     93  C   UNL A   1      50.425  27.198  29.597  1.00  0.00     0.059 A 
ATOM     94  C   UNL A   1      49.784  26.351  31.782  1.00  0.00     0.059 A 
ATOM     95  F   UNL A   1      47.534  26.417  32.441  1.00  0.00    -0.206 F 
ATOM     96  C   UNL A   1      50.758  26.606  30.817  1.00  0.00     0.060 A 
BRANCH  96  97
ATOM     97  S   UNL A   1      52.488  26.207  31.149  1.00  0.00     0.124 S 
ATOM     98  O   UNL A   1      52.914  27.372  31.919  1.00  0.00    -0.237 OA
ATOM     99  O   UNL A   1      52.387  24.957  31.895  1.00  0.00    -0.237 OA
ATOM    100  O   UNL A   1      53.068  26.087  29.816  1.00  0.00    -0.744 OA
ENDBRANCH  96  97
ENDBRANCH  64  89
ENDBRANCH  38  39
ENDBRANCH  30  33
ENDBRANCH  28  29
ENDBRANCH   1  28
TORSDOF 16
ENDMDL
MODEL 2
REMARK VINA RESULT:     -12.0      1.645      3.264
REMARK SMILES O=C(Nc1c(F)cc(F)cc1F)N[C@H]1C=C[C@@H](C(=O)NCCCCNC(=O)c2ccc(-c3c4nc(c(-c5c(F)cc(S(=O)(=O)[O-])cc5F)c5ccc([nH]5)c(-c5c(F)cc(S(=O)(=O)[O-])cc5F)c5nc(c(-c6c(F)cc(S(=O)(=O)[O-])cc6F)c6ccc3[nH]6)C=C5)C=C4)cc2)C1
REMARK SMILES IDX 23 1 22 2 21 3 20 4 18 5 19 6 17 8 14 9 15 10 94 11 16 12
REMARK SMILES IDX 13 13 1 14 2 15 3 16 4 19 5 20 11 21 6 22 7 23 10 24 12 25
REMARK SMILES IDX 8 26 9 27 24 28 25 29 26 30 27 32 28 33 29 34 93 35 30 36
REMARK SMILES IDX 92 37 31 38 32 39 33 40 86 41 34 42 91 43 85 44 87 45 35 46
REMARK SMILES IDX 90 47 84 48 83 49 36 51 70 52 49 53 69 54 50 55 53 56 68 57
REMARK SMILES IDX 88 58 51 59 52 60 67 62 89 63 54 64 37 65 38 66 47 67 39 68
REMARK SMILES IDX 40 69 46 70 48 71 41 72 42 73 43 74 44 75 45 76 71 77 72 78
REMARK SMILES IDX 81 79 73 80 74 81 80 82 82 83 75 84 76 85 77 86 78 87 79 88
REMARK SMILES IDX 55 89 56 90 65 91 57 92 58 93 64 94 66 95 59 96 60 97 61 98
REMARK SMILES IDX 62 99 63 100
REMARK H PARENT 20 7 3 17 13 18 25 31 87 50 53 61
REMARK Flexibility Score: inf
ROOT
ATOM      1  C   UNL A   1      32.342  27.698  26.826  1.00  0.00     0.023 C 
ENDROOT
BRANCH   1   2
ATOM      2  C   UNL A   1      32.394  26.397  26.028  1.00  0.00     0.023 C 
BRANCH   2   3
ATOM      3  C   UNL A   1      31.201  25.462  26.214  1.00  0.00     0.116 C 
BRANCH   3   4
ATOM      4  N   UNL A   1      31.467  24.398  27.159  1.00  0.00    -0.356 N 
ATOM      5  C   UNL A   1      32.017  23.166  26.978  1.00  0.00     0.227 C 
ATOM      6  O   UNL A   1      32.228  22.492  27.993  1.00  0.00    -0.274 OA
ATOM      7  H   UNL A   1      31.206  24.598  28.086  1.00  0.00     0.163 HD
BRANCH   5   8
ATOM      8  C   UNL A   1      32.388  22.598  25.601  1.00  0.00     0.103 C 
ATOM      9  C   UNL A   1      32.190  23.425  23.276  1.00  0.00     0.107 C 
ATOM     10  C   UNL A   1      33.602  23.458  23.786  1.00  0.00    -0.006 C 
ATOM     11  C   UNL A   1      31.389  22.895  24.480  1.00  0.00     0.047 C 
ATOM     12  C   UNL A   1      33.705  23.047  25.055  1.00  0.00    -0.016 C 
BRANCH   9  13
ATOM     13  N   UNL A   1      31.877  24.762  22.820  1.00  0.00    -0.332 N 
ATOM     14  O   UNL A   1      33.132  24.797  20.902  1.00  0.00    -0.248 OA
ATOM     15  C   UNL A   1      32.424  25.368  21.726  1.00  0.00     0.319 C 
ATOM     16  N   UNL A   1      31.963  26.630  21.479  1.00  0.00    -0.303 N 
ATOM     17  H   UNL A   1      31.736  26.823  20.541  1.00  0.00     0.172 HD
ATOM     18  H   UNL A   1      31.217  25.275  23.340  1.00  0.00     0.165 HD
BRANCH  16  19
ATOM     19  C   UNL A   1      31.768  27.695  22.382  1.00  0.00     0.115 A 
ATOM     20  C   UNL A   1      30.534  27.996  22.971  1.00  0.00     0.152 A 
ATOM     21  C   UNL A   1      32.888  28.423  22.797  1.00  0.00     0.152 A 
ATOM     22  F   UNL A   1      29.435  27.291  22.670  1.00  0.00    -0.204 F 
ATOM     23  C   UNL A   1      30.422  28.987  23.942  1.00  0.00     0.081 A 
ATOM     24  C   UNL A   1      32.789  29.437  23.744  1.00  0.00     0.081 A 
ATOM     25  F   UNL A   1      34.088  28.153  22.261  1.00  0.00    -0.204 F 
ATOM     26  C   UNL A   1      31.552  29.703  24.315  1.00  0.00     0.129 A 
ATOM     27  F   UNL A   1      31.447  30.653  25.252  1.00  0.00    -0.207 F 
ENDBRANCH  16  19
ENDBRANCH   9  13
ENDBRANCH   5   8
ENDBRANCH   3   4
ENDBRANCH   2   3
ENDBRANCH   1   2
BRANCH   1  28
ATOM     28  C   UNL A   1      33.690  28.345  27.120  1.00  0.00     0.116 C 
BRANCH  28  29
ATOM     29  N   UNL A   1      33.586  29.703  27.635  1.00  0.00    -0.352 N 
ATOM     30  C   UNL A   1      34.547  30.472  28.250  1.00  0.00     0.251 C 
ATOM     31  H   UNL A   1      32.706  30.131  27.527  1.00  0.00     0.163 HD
ATOM     32  O   UNL A   1      34.256  31.579  28.693  1.00  0.00    -0.269 OA
BRANCH  30  33
ATOM     33  C   UNL A   1      35.918  29.941  28.410  1.00  0.00     0.039 A 
ATOM     34  C   UNL A   1      36.814  30.056  27.344  1.00  0.00     0.014 A 
ATOM     35  C   UNL A   1      36.329  29.368  29.617  1.00  0.00     0.014 A 
ATOM     36  C   UNL A   1      38.145  29.670  27.515  1.00  0.00     0.010 A 
ATOM     37  C   UNL A   1      37.670  29.049  29.808  1.00  0.00     0.010 A 
ATOM     38  C   UNL A   1      38.592  29.204  28.762  1.00  0.00    -0.014 A 
BRANCH  38  39
ATOM     39  C   UNL A   1      40.022  28.885  29.003  1.00  0.00     0.031 A 
ATOM     40  C   UNL A   1      40.946  29.937  29.548  1.00  0.00     0.074 A 
ATOM     41  C   UNL A   1      40.505  27.677  28.650  1.00  0.00     0.049 A 
ATOM     42  N   UNL A   1      42.242  29.889  29.721  1.00  0.00    -0.248 NA
ATOM     43  C   UNL A   1      40.338  31.226  29.915  1.00  0.00     0.031 C 
ATOM     44  C   UNL A   1      39.720  26.590  28.058  1.00  0.00     0.029 A 
ATOM     45  N   UNL A   1      41.776  27.165  28.723  1.00  0.00    -0.354 N 
ATOM     46  C   UNL A   1      42.608  31.145  30.188  1.00  0.00     0.074 A 
ATOM     47  C   UNL A   1      41.403  31.946  30.237  1.00  0.00     0.031 C 
ATOM     48  C   UNL A   1      40.524  25.535  27.840  1.00  0.00     0.029 A 
ATOM     49  C   UNL A   1      41.882  25.880  28.246  1.00  0.00     0.049 A 
ATOM     50  H   UNL A   1      42.540  27.671  29.084  1.00  0.00     0.167 HD
ATOM     51  C   UNL A   1      43.834  31.587  30.560  1.00  0.00     0.037 A 
ATOM     52  C   UNL A   1      42.955  25.073  28.144  1.00  0.00     0.037 A 
ATOM     53  C   UNL A   1      45.021  30.776  30.554  1.00  0.00     0.049 A 
ATOM     54  C   UNL A   1      44.296  25.568  28.611  1.00  0.00     0.074 A 
ATOM     55  C   UNL A   1      46.297  31.112  30.970  1.00  0.00     0.029 A 
ATOM     56  N   UNL A   1      45.077  29.461  30.116  1.00  0.00    -0.354 N 
ATOM     57  N   UNL A   1      44.615  26.745  29.094  1.00  0.00    -0.248 NA
ATOM     58  C   UNL A   1      45.420  24.626  28.523  1.00  0.00     0.031 C 
ATOM     59  C   UNL A   1      47.130  30.005  30.768  1.00  0.00     0.029 A 
ATOM     60  C   UNL A   1      46.365  28.972  30.250  1.00  0.00     0.049 A 
ATOM     61  H   UNL A   1      44.313  28.951  29.762  1.00  0.00     0.167 HD
ATOM     62  C   UNL A   1      45.971  26.678  29.389  1.00  0.00     0.074 A 
ATOM     63  C   UNL A   1      46.411  25.342  29.037  1.00  0.00     0.031 C 
ATOM     64  C   UNL A   1      46.780  27.635  29.905  1.00  0.00     0.037 A 
BRANCH  51  65
ATOM     65  C   UNL A   1      43.940  33.014  31.017  1.00  0.00     0.058 A 
ATOM     66  C   UNL A   1      43.710  33.375  32.355  1.00  0.00     0.135 A 
ATOM     67  C   UNL A   1      44.282  34.031  30.111  1.00  0.00     0.135 A 
ATOM     68  F   UNL A   1      43.364  32.443  33.255  1.00  0.00    -0.206 F 
ATOM     69  C   UNL A   1      43.780  34.699  32.771  1.00  0.00     0.059 A 
ATOM     70  C   UNL A   1      44.381  35.361  30.512  1.00  0.00     0.059 A 
ATOM     71  F   UNL A   1      44.511  33.740  28.822  1.00  0.00    -0.206 F 
ATOM     72  C   UNL A   1      44.109  35.687  31.841  1.00  0.00     0.060 A 
BRANCH  72  73
ATOM     73  S   UNL A   1      44.183  37.405  32.390  1.00  0.00     0.124 S 
ATOM     74  O   UNL A   1      43.776  38.112  31.180  1.00  0.00    -0.237 OA
ATOM     75  O   UNL A   1      43.223  37.429  33.489  1.00  0.00    -0.237 OA
ATOM     76  O   UNL A   1      45.580  37.575  32.778  1.00  0.00    -0.744 OA
ENDBRANCH  72  73
ENDBRANCH  51  65
BRANCH  52  77
ATOM     77  C   UNL A   1      42.798  23.697  27.609  1.00  0.00     0.058 A 
ATOM     78  C   UNL A   1      42.570  22.615  28.473  1.00  0.00     0.135 A 
ATOM     79  C   UNL A   1      42.850  23.437  26.232  1.00  0.00     0.135 A 
ATOM     80  F   UNL A   1      42.517  22.816  29.798  1.00  0.00    -0.206 F 
ATOM     81  C   UNL A   1      42.412  21.320  27.992  1.00  0.00     0.059 A 
ATOM     82  C   UNL A   1      42.676  22.153  25.725  1.00  0.00     0.059 A 
ATOM     83  F   UNL A   1      43.048  24.443  25.365  1.00  0.00    -0.206 F 
ATOM     84  C   UNL A   1      42.465  21.100  26.614  1.00  0.00     0.060 A 
BRANCH  84  85
ATOM     85  S   UNL A   1      42.203  19.424  25.993  1.00  0.00     0.124 S 
ATOM     86  O   UNL A   1      43.078  19.404  24.827  1.00  0.00    -0.237 OA
ATOM     87  O   UNL A   1      42.627  18.603  27.123  1.00  0.00    -0.237 OA
ATOM     88  O   UNL A   1      40.771  19.394  25.712  1.00  0.00    -0.744 OA
ENDBRANCH  84  85
ENDBRANCH  52  77
BRANCH  64  89
ATOM     89  C   UNL A   1      48.214  27.266  30.148  1.00  0.00     0.058 A 
ATOM     90  C   UNL A   1      49.225  27.615  29.240  1.00  0.00     0.135 A 
ATOM     91  C   UNL A   1      48.585  26.597  31.325  1.00  0.00     0.135 A 
ATOM     92  F   UNL A   1      48.917  28.249  28.098  1.00  0.00    -0.206 F 
ATOM     93  C   UNL A   1      50.557  27.299  29.484  1.00  0.00     0.059 A 
ATOM     94  C   UNL A   1      49.913  26.287  31.597  1.00  0.00     0.059 A 
ATOM     95  F   UNL A   1      47.654  26.248  32.227  1.00  0.00    -0.206 F 
ATOM     96  C   UNL A   1      50.892  26.633  30.665  1.00  0.00     0.060 A 
BRANCH  96  97
ATOM     97  S   UNL A   1      52.627  26.259  30.993  1.00  0.00     0.124 S 
ATOM     98  O   UNL A   1      53.075  27.489  31.640  1.00  0.00    -0.237 OA
ATOM     99  O   UNL A   1      52.540  25.085  31.856  1.00  0.00    -0.237 OA
ATOM    100  O   UNL A   1      53.175  26.011  29.664  1.00  0.00    -0.744 OA
ENDBRANCH  96  97
ENDBRANCH  64  89
ENDBRANCH  38  39
ENDBRANCH  30  33
ENDBRANCH  28  29
ENDBRANCH   1  28
TORSDOF 16
ENDMDL
MODEL 3
REMARK VINA RESULT:     -12.0      3.431      6.199
REMARK SMILES O=C(Nc1c(F)cc(F)cc1F)N[C@H]1C=C[C@@H](C(=O)NCCCCNC(=O)c2ccc(-c3c4nc(c(-c5c(F)cc(S(=O)(=O)[O-])cc5F)c5ccc([nH]5)c(-c5c(F)cc(S(=O)(=O)[O-])cc5F)c5nc(c(-c6c(F)cc(S(=O)(=O)[O-])cc6F)c6ccc3[nH]6)C=C5)C=C4)cc2)C1
REMARK SMILES IDX 23 1 22 2 21 3 20 4 18 5 19 6 17 8 14 9 15 10 94 11 16 12
REMARK SMILES IDX 13 13 1 14 2 15 3 16 4 19 5 20 11 21 6 22 7 23 10 24 12 25
REMARK SMILES IDX 8 26 9 27 24 28 25 29 26 30 27 32 28 33 29 34 93 35 30 36
REMARK SMILES IDX 92 37 31 38 32 39 33 40 86 41 34 42 91 43 85 44 87 45 35 46
REMARK SMILES IDX 90 47 84 48 83 49 36 51 70 52 49 53 69 54 50 55 53 56 68 57
REMARK SMILES IDX 88 58 51 59 52 60 67 62 89 63 54 64 37 65 38 66 47 67 39 68
REMARK SMILES IDX 40 69 46 70 48 71 41 72 42 73 43 74 44 75 45 76 71 77 72 78
REMARK SMILES IDX 81 79 73 80 74 81 80 82 82 83 75 84 76 85 77 86 78 87 79 88
REMARK SMILES IDX 55 89 56 90 65 91 57 92 58 93 64 94 66 95 59 96 60 97 61 98
REMARK SMILES IDX 62 99 63 100
REMARK H PARENT 20 7 3 17 13 18 25 31 87 50 53 61
REMARK Flexibility Score: inf
ROOT
ATOM      1  C   UNL A   1      33.355  33.572  28.029  1.00  0.00     0.023 C 
ENDROOT
BRANCH   1   2
ATOM      2  C   UNL A   1      33.869  34.943  28.465  1.00  0.00     0.023 C 
BRANCH   2   3
ATOM      3  C   UNL A   1      33.352  35.442  29.813  1.00  0.00     0.116 C 
BRANCH   3   4
ATOM      4  N   UNL A   1      33.355  34.411  30.829  1.00  0.00    -0.356 N 
ATOM      5  C   UNL A   1      34.332  34.014  31.689  1.00  0.00     0.227 C 
ATOM      6  O   UNL A   1      34.023  33.170  32.538  1.00  0.00    -0.274 OA
ATOM      7  H   UNL A   1      32.509  33.915  30.913  1.00  0.00     0.163 HD
BRANCH   5   8
ATOM      8  C   UNL A   1      35.763  34.566  31.657  1.00  0.00     0.103 C 
ATOM      9  C   UNL A   1      37.929  33.816  32.592  1.00  0.00     0.107 C 
ATOM     10  C   UNL A   1      37.837  33.614  31.107  1.00  0.00    -0.006 C 
ATOM     11  C   UNL A   1      36.554  34.407  32.958  1.00  0.00     0.047 C 
ATOM     12  C   UNL A   1      36.653  33.984  30.606  1.00  0.00    -0.016 C 
BRANCH   9  13
ATOM     13  N   UNL A   1      38.263  32.532  33.170  1.00  0.00    -0.332 N 
ATOM     14  O   UNL A   1      38.433  33.156  35.369  1.00  0.00    -0.248 OA
ATOM     15  C   UNL A   1      38.564  32.316  34.484  1.00  0.00     0.319 C 
ATOM     16  N   UNL A   1      38.833  31.015  34.805  1.00  0.00    -0.303 N 
ATOM     17  H   UNL A   1      38.401  30.682  35.624  1.00  0.00     0.172 HD
ATOM     18  H   UNL A   1      38.276  31.754  32.568  1.00  0.00     0.165 HD
BRANCH  16  19
ATOM     19  C   UNL A   1      39.643  30.084  34.124  1.00  0.00     0.115 A 
ATOM     20  C   UNL A   1      39.139  29.095  33.271  1.00  0.00     0.152 A 
ATOM     21  C   UNL A   1      41.032  30.223  34.221  1.00  0.00     0.152 A 
ATOM     22  F   UNL A   1      37.820  28.955  33.079  1.00  0.00    -0.204 F 
ATOM     23  C   UNL A   1      39.991  28.276  32.537  1.00  0.00     0.081 A 
ATOM     24  C   UNL A   1      41.898  29.391  33.518  1.00  0.00     0.081 A 
ATOM     25  F   UNL A   1      41.548  31.166  35.021  1.00  0.00    -0.204 F 
ATOM     26  C   UNL A   1      41.365  28.429  32.672  1.00  0.00     0.129 A 
ATOM     27  F   UNL A   1      42.185  27.643  31.963  1.00  0.00    -0.207 F 
ENDBRANCH  16  19
ENDBRANCH   9  13
ENDBRANCH   5   8
ENDBRANCH   3   4
ENDBRANCH   2   3
ENDBRANCH   1   2
BRANCH   1  28
ATOM     28  C   UNL A   1      34.357  32.428  28.136  1.00  0.00     0.116 C 
BRANCH  28  29
ATOM     29  N   UNL A   1      33.772  31.116  27.897  1.00  0.00    -0.352 N 
ATOM     30  C   UNL A   1      34.384  29.884  27.888  1.00  0.00     0.251 C 
ATOM     31  H   UNL A   1      32.804  31.110  27.718  1.00  0.00     0.163 HD
ATOM     32  O   UNL A   1      33.742  28.882  27.588  1.00  0.00    -0.269 OA
BRANCH  30  33
ATOM     33  C   UNL A   1      35.827  29.781  28.199  1.00  0.00     0.039 A 
ATOM     34  C   UNL A   1      36.212  29.415  29.491  1.00  0.00     0.014 A 
ATOM     35  C   UNL A   1      36.791  30.007  27.213  1.00  0.00     0.014 A 
ATOM     36  C   UNL A   1      37.562  29.195  29.773  1.00  0.00     0.010 A 
ATOM     37  C   UNL A   1      38.127  29.720  27.477  1.00  0.00     0.010 A 
ATOM     38  C   UNL A   1      38.525  29.304  28.757  1.00  0.00    -0.014 A 
BRANCH  38  39
ATOM     39  C   UNL A   1      39.952  28.977  29.002  1.00  0.00     0.031 A 
ATOM     40  C   UNL A   1      40.882  30.027  29.542  1.00  0.00     0.074 A 
ATOM     41  C   UNL A   1      40.427  27.764  28.658  1.00  0.00     0.049 A 
ATOM     42  N   UNL A   1      42.177  29.971  29.719  1.00  0.00    -0.248 NA
ATOM     43  C   UNL A   1      40.282  31.322  29.900  1.00  0.00     0.031 C 
ATOM     44  C   UNL A   1      39.637  26.678  28.071  1.00  0.00     0.029 A 
ATOM     45  N   UNL A   1      41.694  27.244  28.737  1.00  0.00    -0.354 N 
ATOM     46  C   UNL A   1      42.551  31.227  30.179  1.00  0.00     0.074 A 
ATOM     47  C   UNL A   1      41.351  32.037  30.220  1.00  0.00     0.031 C 
ATOM     48  C   UNL A   1      40.434  25.616  27.862  1.00  0.00     0.029 A 
ATOM     49  C   UNL A   1      41.793  25.955  28.269  1.00  0.00     0.049 A 
ATOM     50  H   UNL A   1      42.461  27.746  29.096  1.00  0.00     0.167 HD
ATOM     51  C   UNL A   1      43.779  31.663  30.551  1.00  0.00     0.037 A 
ATOM     52  C   UNL A   1      42.861  25.140  28.175  1.00  0.00     0.037 A 
ATOM     53  C   UNL A   1      44.961  30.844  30.552  1.00  0.00     0.049 A 
ATOM     54  C   UNL A   1      44.204  25.628  28.641  1.00  0.00     0.074 A 
ATOM     55  C   UNL A   1      46.238  31.174  30.968  1.00  0.00     0.029 A 
ATOM     56  N   UNL A   1      45.008  29.526  30.123  1.00  0.00    -0.354 N 
ATOM     57  N   UNL A   1      44.530  26.806  29.117  1.00  0.00    -0.248 NA
ATOM     58  C   UNL A   1      45.322  24.679  28.561  1.00  0.00     0.031 C 
ATOM     59  C   UNL A   1      47.063  30.060  30.775  1.00  0.00     0.029 A 
ATOM     60  C   UNL A   1      46.293  29.028  30.262  1.00  0.00     0.049 A 
ATOM     61  H   UNL A   1      44.242  29.019  29.770  1.00  0.00     0.167 HD
ATOM     62  C   UNL A   1      45.885  26.732  29.416  1.00  0.00     0.074 A 
ATOM     63  C   UNL A   1      46.316  25.391  29.073  1.00  0.00     0.031 C 
ATOM     64  C   UNL A   1      46.699  27.687  29.927  1.00  0.00     0.037 A 
BRANCH  51  65
ATOM     65  C   UNL A   1      43.894  33.093  30.998  1.00  0.00     0.058 A 
ATOM     66  C   UNL A   1      44.198  34.122  30.093  1.00  0.00     0.135 A 
ATOM     67  C   UNL A   1      43.692  33.438  32.344  1.00  0.00     0.135 A 
ATOM     68  F   UNL A   1      44.417  33.841  28.800  1.00  0.00    -0.206 F 
ATOM     69  C   UNL A   1      44.334  35.440  30.513  1.00  0.00     0.059 A 
ATOM     70  C   UNL A   1      43.800  34.756  32.782  1.00  0.00     0.059 A 
ATOM     71  F   UNL A   1      43.401  32.492  33.250  1.00  0.00    -0.206 F 
ATOM     72  C   UNL A   1      44.140  35.747  31.861  1.00  0.00     0.060 A 
BRANCH  72  73
ATOM     73  S   UNL A   1      44.333  37.460  32.397  1.00  0.00     0.124 S 
ATOM     74  O   UNL A   1      43.842  38.185  31.229  1.00  0.00    -0.237 OA
ATOM     75  O   UNL A   1      43.485  37.520  33.582  1.00  0.00    -0.237 OA
ATOM     76  O   UNL A   1      45.767  37.574  32.650  1.00  0.00    -0.744 OA
ENDBRANCH  72  73
ENDBRANCH  51  65
BRANCH  52  77
ATOM     77  C   UNL A   1      42.695  23.761  27.647  1.00  0.00     0.058 A 
ATOM     78  C   UNL A   1      42.544  22.675  28.522  1.00  0.00     0.135 A 
ATOM     79  C   UNL A   1      42.663  23.504  26.269  1.00  0.00     0.135 A 
ATOM     80  F   UNL A   1      42.573  22.874  29.849  1.00  0.00    -0.206 F 
ATOM     81  C   UNL A   1      42.380  21.378  28.050  1.00  0.00     0.059 A 
ATOM     82  C   UNL A   1      42.481  22.217  25.772  1.00  0.00     0.059 A 
ATOM     83  F   UNL A   1      42.786  24.513  25.393  1.00  0.00    -0.206 F 
ATOM     84  C   UNL A   1      42.348  21.159  26.671  1.00  0.00     0.060 A 
BRANCH  84  85
ATOM     85  S   UNL A   1      42.078  19.479  26.065  1.00  0.00     0.124 S 
ATOM     86  O   UNL A   1      42.935  19.452  24.886  1.00  0.00    -0.237 OA
ATOM     87  O   UNL A   1      42.519  18.666  27.194  1.00  0.00    -0.237 OA
ATOM     88  O   UNL A   1      40.642  19.446  25.806  1.00  0.00    -0.744 OA
ENDBRANCH  84  85
ENDBRANCH  52  77
BRANCH  64  89
ATOM     89  C   UNL A   1      48.130  27.309  30.175  1.00  0.00     0.058 A 
ATOM     90  C   UNL A   1      49.115  27.482  29.192  1.00  0.00     0.135 A 
ATOM     91  C   UNL A   1      48.527  26.814  31.427  1.00  0.00     0.135 A 
ATOM     92  F   UNL A   1      48.782  27.946  27.977  1.00  0.00    -0.206 F 
ATOM     93  C   UNL A   1      50.446  27.161  29.436  1.00  0.00     0.059 A 
ATOM     94  C   UNL A   1      49.854  26.503  31.699  1.00  0.00     0.059 A 
ATOM     95  F   UNL A   1      47.621  26.638  32.403  1.00  0.00    -0.206 F 
ATOM     96  C   UNL A   1      50.806  26.671  30.693  1.00  0.00     0.060 A 
BRANCH  96  97
ATOM     97  S   UNL A   1      52.541  26.291  31.016  1.00  0.00     0.124 S 
ATOM     98  O   UNL A   1      52.950  27.442  31.816  1.00  0.00    -0.237 OA
ATOM     99  O   UNL A   1      52.460  25.020  31.730  1.00  0.00    -0.237 OA
ATOM    100  O   UNL A   1      53.124  26.213  29.681  1.00  0.00    -0.744 OA
ENDBRANCH  96  97
ENDBRANCH  64  89
ENDBRANCH  38  39
ENDBRANCH  30  33
ENDBRANCH  28  29
ENDBRANCH   1  28
TORSDOF 16
ENDMDL
