MODEL 1
REMARK VINA RESULT:     -10.5      0.000      0.000
REMARK SMILES CC(C)OCCS(=O)(=O)N1CCC[C@H](C(=O)NCCCCNC(=O)c2ccc(-c3c4nc(c(-c5c(F)cc(S(=O)(=O)[O-])cc5F)c5ccc([nH]5)c(-c5c(F)cc(S(=O)(=O)[O-])cc5F)c5nc(c(-c6c(F)cc(S(=O)(=O)[O-])cc6F)c6ccc3[nH]6)C=C5)C=C4)cc2)C1
REMARK SMILES IDX 18 1 17 2 15 3 16 4 14 6 10 7 11 8 91 9 12 10 13 11 7 12
REMARK SMILES IDX 8 13 9 14 6 15 5 16 4 17 2 18 1 19 3 20 19 21 20 22 21 23
REMARK SMILES IDX 22 24 23 25 24 27 25 28 26 29 90 30 27 31 89 32 28 33 29 34
REMARK SMILES IDX 30 35 83 36 31 37 88 38 82 39 84 40 32 41 87 42 81 43 80 44
REMARK SMILES IDX 33 46 67 47 46 48 66 49 47 50 50 51 65 52 85 53 48 54 49 55
REMARK SMILES IDX 64 57 86 58 51 59 34 60 35 61 44 62 36 63 37 64 43 65 45 66
REMARK SMILES IDX 38 67 39 68 40 69 41 70 42 71 68 72 69 73 78 74 70 75 71 76
REMARK SMILES IDX 77 77 79 78 72 79 73 80 74 81 75 82 76 83 52 84 53 85 62 86
REMARK SMILES IDX 54 87 55 88 61 89 63 90 56 91 57 92 58 93 59 94 60 95
REMARK H PARENT 17 5 22 26 84 45 50 56
REMARK Flexibility Score: inf
ROOT
ATOM      1  C   UNL A   1      32.185  30.617  26.176  1.00  0.00     0.116 C 
ENDROOT
BRANCH   1   2
ATOM      2  N   UNL A   1      32.829  29.918  25.085  1.00  0.00    -0.356 N 
ATOM      3  C   UNL A   1      32.464  28.835  24.357  1.00  0.00     0.224 C 
ATOM      4  O   UNL A   1      33.246  28.478  23.469  1.00  0.00    -0.275 OA
ATOM      5  H   UNL A   1      33.697  30.301  24.824  1.00  0.00     0.163 HD
BRANCH   3   6
ATOM      6  C   UNL A   1      31.184  28.025  24.594  1.00  0.00     0.093 C 
ATOM      7  N   UNL A   1      30.956  25.472  24.964  1.00  0.00    -0.201 NA
ATOM      8  C   UNL A   1      31.044  25.278  23.483  1.00  0.00     0.102 C 
ATOM      9  C   UNL A   1      31.346  26.829  25.512  1.00  0.00     0.115 C 
ATOM     10  C   UNL A   1      30.787  26.509  22.617  1.00  0.00     0.018 C 
ATOM     11  C   UNL A   1      30.374  27.766  23.340  1.00  0.00     0.016 C 
BRANCH   7  12
ATOM     12  S   UNL A   1      31.686  24.226  25.928  1.00  0.00     0.216 S 
ATOM     13  O   UNL A   1      31.652  23.004  25.149  1.00  0.00    -0.212 OA
ATOM     14  O   UNL A   1      31.030  24.276  27.218  1.00  0.00    -0.212 OA
BRANCH  12  15
ATOM     15  C   UNL A   1      33.416  24.642  26.167  1.00  0.00     0.182 C 
BRANCH  15  16
ATOM     16  C   UNL A   1      34.396  23.819  25.337  1.00  0.00     0.178 C 
BRANCH  16  17
ATOM     17  O   UNL A   1      35.630  23.463  25.969  1.00  0.00    -0.378 OA
BRANCH  17  18
ATOM     18  C   UNL A   1      36.865  23.712  25.296  1.00  0.00     0.112 C 
ATOM     19  C   UNL A   1      38.121  23.493  26.133  1.00  0.00     0.038 C 
ATOM     20  C   UNL A   1      36.856  23.008  23.950  1.00  0.00     0.038 C 
ENDBRANCH  17  18
ENDBRANCH  16  17
ENDBRANCH  15  16
ENDBRANCH  12  15
ENDBRANCH   7  12
ENDBRANCH   3   6
ENDBRANCH   1   2
BRANCH   1  21
ATOM     21  C   UNL A   1      33.039  30.603  27.442  1.00  0.00     0.023 C 
BRANCH  21  22
ATOM     22  C   UNL A   1      34.508  30.317  27.186  1.00  0.00     0.023 C 
BRANCH  22  23
ATOM     23  C   UNL A   1      35.254  29.774  28.393  1.00  0.00     0.116 C 
BRANCH  23  24
ATOM     24  N   UNL A   1      35.528  30.766  29.428  1.00  0.00    -0.352 N 
ATOM     25  C   UNL A   1      36.738  30.979  30.058  1.00  0.00     0.251 C 
ATOM     26  H   UNL A   1      34.777  31.338  29.705  1.00  0.00     0.163 HD
ATOM     27  O   UNL A   1      36.859  31.791  30.968  1.00  0.00    -0.269 OA
BRANCH  25  28
ATOM     28  C   UNL A   1      37.874  30.148  29.616  1.00  0.00     0.039 A 
ATOM     29  C   UNL A   1      38.185  30.088  28.258  1.00  0.00     0.014 A 
ATOM     30  C   UNL A   1      38.745  29.635  30.581  1.00  0.00     0.014 A 
ATOM     31  C   UNL A   1      39.428  29.588  27.870  1.00  0.00     0.010 A 
ATOM     32  C   UNL A   1      40.020  29.242  30.196  1.00  0.00     0.010 A 
ATOM     33  C   UNL A   1      40.374  29.211  28.838  1.00  0.00    -0.014 A 
BRANCH  33  34
ATOM     34  C   UNL A   1      41.740  28.767  28.457  1.00  0.00     0.031 A 
ATOM     35  C   UNL A   1      42.861  29.770  28.425  1.00  0.00     0.074 A 
ATOM     36  C   UNL A   1      41.957  27.492  28.071  1.00  0.00     0.049 A 
ATOM     37  N   UNL A   1      44.105  29.608  28.056  1.00  0.00    -0.248 NA
ATOM     38  C   UNL A   1      42.527  31.149  28.818  1.00  0.00     0.031 C 
ATOM     39  C   UNL A   1      40.940  26.441  27.990  1.00  0.00     0.029 A 
ATOM     40  N   UNL A   1      43.110  26.864  27.667  1.00  0.00    -0.354 N 
ATOM     41  C   UNL A   1      44.687  30.868  28.139  1.00  0.00     0.074 A 
ATOM     42  C   UNL A   1      43.647  31.792  28.529  1.00  0.00     0.031 C 
ATOM     43  C   UNL A   1      41.522  25.291  27.610  1.00  0.00     0.029 A 
ATOM     44  C   UNL A   1      42.944  25.528  27.383  1.00  0.00     0.049 A 
ATOM     45  H   UNL A   1      43.975  27.327  27.588  1.00  0.00     0.167 HD
ATOM     46  C   UNL A   1      45.979  31.219  27.942  1.00  0.00     0.037 A 
ATOM     47  C   UNL A   1      43.840  24.600  26.996  1.00  0.00     0.037 A 
ATOM     48  C   UNL A   1      47.020  30.283  27.616  1.00  0.00     0.049 A 
ATOM     49  C   UNL A   1      45.280  25.004  26.820  1.00  0.00     0.074 A 
ATOM     50  C   UNL A   1      48.378  30.516  27.491  1.00  0.00     0.029 A 
ATOM     51  N   UNL A   1      46.817  28.934  27.366  1.00  0.00    -0.354 N 
ATOM     52  N   UNL A   1      45.831  26.184  26.983  1.00  0.00    -0.248 NA
ATOM     53  C   UNL A   1      46.222  23.952  26.411  1.00  0.00     0.031 C 
ATOM     54  C   UNL A   1      48.993  29.312  27.128  1.00  0.00     0.029 A 
ATOM     55  C   UNL A   1      48.023  28.323  27.068  1.00  0.00     0.049 A 
ATOM     56  H   UNL A   1      45.946  28.478  27.397  1.00  0.00     0.167 HD
ATOM     57  C   UNL A   1      47.187  26.009  26.727  1.00  0.00     0.074 A 
ATOM     58  C   UNL A   1      47.373  24.609  26.404  1.00  0.00     0.031 C 
ATOM     59  C   UNL A   1      48.187  26.924  26.760  1.00  0.00     0.037 A 
BRANCH  46  60
ATOM     60  C   UNL A   1      46.330  32.674  28.087  1.00  0.00     0.058 A 
ATOM     61  C   UNL A   1      46.853  33.193  29.283  1.00  0.00     0.135 A 
ATOM     62  C   UNL A   1      46.132  33.563  27.019  1.00  0.00     0.135 A 
ATOM     63  F   UNL A   1      47.045  32.391  30.343  1.00  0.00    -0.206 F 
ATOM     64  C   UNL A   1      47.126  34.549  29.430  1.00  0.00     0.059 A 
ATOM     65  C   UNL A   1      46.428  34.918  27.134  1.00  0.00     0.059 A 
ATOM     66  F   UNL A   1      45.633  33.122  25.855  1.00  0.00    -0.206 F 
ATOM     67  C   UNL A   1      46.905  35.404  28.350  1.00  0.00     0.060 A 
BRANCH  67  68
ATOM     68  S   UNL A   1      47.249  37.164  28.559  1.00  0.00     0.124 S 
ATOM     69  O   UNL A   1      48.078  37.438  27.389  1.00  0.00    -0.237 OA
ATOM     70  O   UNL A   1      45.912  37.750  28.537  1.00  0.00    -0.237 OA
ATOM     71  O   UNL A   1      47.936  37.225  29.844  1.00  0.00    -0.744 OA
ENDBRANCH  67  68
ENDBRANCH  46  60
BRANCH  47  72
ATOM     72  C   UNL A   1      43.417  23.186  26.803  1.00  0.00     0.058 A 
ATOM     73  C   UNL A   1      43.347  22.632  25.515  1.00  0.00     0.135 A 
ATOM     74  C   UNL A   1      43.092  22.359  27.888  1.00  0.00     0.135 A 
ATOM     75  F   UNL A   1      43.640  23.385  24.445  1.00  0.00    -0.206 F 
ATOM     76  C   UNL A   1      42.961  21.311  25.309  1.00  0.00     0.059 A 
ATOM     77  C   UNL A   1      42.724  21.028  27.709  1.00  0.00     0.059 A 
ATOM     78  F   UNL A   1      43.157  22.837  29.141  1.00  0.00    -0.206 F 
ATOM     79  C   UNL A   1      42.656  20.515  26.414  1.00  0.00     0.060 A 
BRANCH  79  80
ATOM     80  S   UNL A   1      42.215  18.784  26.138  1.00  0.00     0.124 S 
ATOM     81  O   UNL A   1      43.152  18.406  25.086  1.00  0.00    -0.237 OA
ATOM     82  O   UNL A   1      42.457  18.194  27.451  1.00  0.00    -0.237 OA
ATOM     83  O   UNL A   1      40.812  18.856  25.740  1.00  0.00    -0.744 OA
ENDBRANCH  79  80
ENDBRANCH  47  72
BRANCH  59  84
ATOM     84  C   UNL A   1      49.580  26.438  26.472  1.00  0.00     0.058 A 
ATOM     85  C   UNL A   1      50.137  26.517  25.187  1.00  0.00     0.135 A 
ATOM     86  C   UNL A   1      50.387  25.946  27.511  1.00  0.00     0.135 A 
ATOM     87  F   UNL A   1      49.404  26.974  24.160  1.00  0.00    -0.206 F 
ATOM     88  C   UNL A   1      51.442  26.108  24.938  1.00  0.00     0.059 A 
ATOM     89  C   UNL A   1      51.703  25.556  27.289  1.00  0.00     0.059 A 
ATOM     90  F   UNL A   1      49.904  25.862  28.761  1.00  0.00    -0.206 F 
ATOM     91  C   UNL A   1      52.219  25.631  25.996  1.00  0.00     0.060 A 
BRANCH  91  92
ATOM     92  S   UNL A   1      53.925  25.142  25.667  1.00  0.00     0.124 S 
ATOM     93  O   UNL A   1      54.596  25.583  26.885  1.00  0.00    -0.237 OA
ATOM     94  O   UNL A   1      53.809  23.697  25.495  1.00  0.00    -0.237 OA
ATOM     95  O   UNL A   1      54.263  25.886  24.457  1.00  0.00    -0.744 OA
ENDBRANCH  91  92
ENDBRANCH  59  84
ENDBRANCH  33  34
ENDBRANCH  25  28
ENDBRANCH  23  24
ENDBRANCH  22  23
ENDBRANCH  21  22
ENDBRANCH   1  21
TORSDOF 19
ENDMDL
MODEL 2
REMARK VINA RESULT:     -10.5      2.993      3.783
REMARK SMILES CC(C)OCCS(=O)(=O)N1CCC[C@H](C(=O)NCCCCNC(=O)c2ccc(-c3c4nc(c(-c5c(F)cc(S(=O)(=O)[O-])cc5F)c5ccc([nH]5)c(-c5c(F)cc(S(=O)(=O)[O-])cc5F)c5nc(c(-c6c(F)cc(S(=O)(=O)[O-])cc6F)c6ccc3[nH]6)C=C5)C=C4)cc2)C1
REMARK SMILES IDX 18 1 17 2 15 3 16 4 14 6 10 7 11 8 91 9 12 10 13 11 7 12
REMARK SMILES IDX 8 13 9 14 6 15 5 16 4 17 2 18 1 19 3 20 19 21 20 22 21 23
REMARK SMILES IDX 22 24 23 25 24 27 25 28 26 29 90 30 27 31 89 32 28 33 29 34
REMARK SMILES IDX 30 35 83 36 31 37 88 38 82 39 84 40 32 41 87 42 81 43 80 44
REMARK SMILES IDX 33 46 67 47 46 48 66 49 47 50 50 51 65 52 85 53 48 54 49 55
REMARK SMILES IDX 64 57 86 58 51 59 34 60 35 61 44 62 36 63 37 64 43 65 45 66
REMARK SMILES IDX 38 67 39 68 40 69 41 70 42 71 68 72 69 73 78 74 70 75 71 76
REMARK SMILES IDX 77 77 79 78 72 79 73 80 74 81 75 82 76 83 52 84 53 85 62 86
REMARK SMILES IDX 54 87 55 88 61 89 63 90 56 91 57 92 58 93 59 94 60 95
REMARK H PARENT 17 5 22 26 84 45 50 56
REMARK Flexibility Score: inf
ROOT
ATOM      1  C   UNL A   1      31.489  28.796  24.073  1.00  0.00     0.116 C 
ENDROOT
BRANCH   1   2
ATOM      2  N   UNL A   1      32.448  27.876  23.503  1.00  0.00    -0.356 N 
ATOM      3  C   UNL A   1      32.680  26.557  23.712  1.00  0.00     0.224 C 
ATOM      4  O   UNL A   1      33.588  26.044  23.050  1.00  0.00    -0.275 OA
ATOM      5  H   UNL A   1      33.048  28.286  22.838  1.00  0.00     0.163 HD
BRANCH   3   6
ATOM      6  C   UNL A   1      31.920  25.697  24.729  1.00  0.00     0.093 C 
ATOM      7  N   UNL A   1      32.404  23.252  25.431  1.00  0.00    -0.201 NA
ATOM      8  C   UNL A   1      31.688  22.787  24.201  1.00  0.00     0.102 C 
ATOM      9  C   UNL A   1      32.778  24.718  25.505  1.00  0.00     0.115 C 
ATOM     10  C   UNL A   1      30.776  23.803  23.518  1.00  0.00     0.018 C 
ATOM     11  C   UNL A   1      30.613  25.133  24.208  1.00  0.00     0.016 C 
BRANCH   7  12
ATOM     12  S   UNL A   1      33.758  22.282  25.920  1.00  0.00     0.216 S 
ATOM     13  O   UNL A   1      33.284  21.357  26.930  1.00  0.00    -0.212 OA
ATOM     14  O   UNL A   1      34.825  23.209  26.239  1.00  0.00    -0.212 OA
BRANCH  12  15
ATOM     15  C   UNL A   1      34.281  21.295  24.515  1.00  0.00     0.182 C 
BRANCH  15  16
ATOM     16  C   UNL A   1      33.620  19.924  24.410  1.00  0.00     0.178 C 
BRANCH  16  17
ATOM     17  O   UNL A   1      34.423  18.796  24.771  1.00  0.00    -0.378 OA
BRANCH  17  18
ATOM     18  C   UNL A   1      33.951  17.477  24.494  1.00  0.00     0.112 C 
ATOM     19  C   UNL A   1      33.412  17.258  23.085  1.00  0.00     0.038 C 
ATOM     20  C   UNL A   1      34.987  16.464  24.952  1.00  0.00     0.038 C 
ENDBRANCH  17  18
ENDBRANCH  16  17
ENDBRANCH  15  16
ENDBRANCH  12  15
ENDBRANCH   7  12
ENDBRANCH   3   6
ENDBRANCH   1   2
BRANCH   1  21
ATOM     21  C   UNL A   1      31.994  29.408  25.378  1.00  0.00     0.023 C 
BRANCH  21  22
ATOM     22  C   UNL A   1      33.415  29.003  25.733  1.00  0.00     0.023 C 
BRANCH  22  23
ATOM     23  C   UNL A   1      33.687  28.947  27.228  1.00  0.00     0.116 C 
BRANCH  23  24
ATOM     24  N   UNL A   1      33.674  30.247  27.891  1.00  0.00    -0.352 N 
ATOM     25  C   UNL A   1      34.727  30.832  28.564  1.00  0.00     0.251 C 
ATOM     26  H   UNL A   1      32.832  30.754  27.857  1.00  0.00     0.163 HD
ATOM     27  O   UNL A   1      34.604  31.900  29.153  1.00  0.00    -0.269 OA
BRANCH  25  28
ATOM     28  C   UNL A   1      36.001  30.089  28.584  1.00  0.00     0.039 A 
ATOM     29  C   UNL A   1      36.853  30.172  27.483  1.00  0.00     0.014 A 
ATOM     30  C   UNL A   1      36.426  29.517  29.787  1.00  0.00     0.014 A 
ATOM     31  C   UNL A   1      38.178  29.756  27.620  1.00  0.00     0.010 A 
ATOM     32  C   UNL A   1      37.770  29.208  29.947  1.00  0.00     0.010 A 
ATOM     33  C   UNL A   1      38.660  29.321  28.866  1.00  0.00    -0.014 A 
BRANCH  33  34
ATOM     34  C   UNL A   1      40.089  28.965  29.066  1.00  0.00     0.031 A 
ATOM     35  C   UNL A   1      41.029  29.984  29.651  1.00  0.00     0.074 A 
ATOM     36  C   UNL A   1      40.554  27.767  28.657  1.00  0.00     0.049 A 
ATOM     37  N   UNL A   1      42.320  29.903  29.843  1.00  0.00    -0.248 NA
ATOM     38  C   UNL A   1      40.448  31.283  30.028  1.00  0.00     0.031 C 
ATOM     39  C   UNL A   1      39.758  26.719  28.010  1.00  0.00     0.029 A 
ATOM     40  N   UNL A   1      41.815  27.227  28.720  1.00  0.00    -0.354 N 
ATOM     41  C   UNL A   1      42.706  31.147  30.328  1.00  0.00     0.074 A 
ATOM     42  C   UNL A   1      41.527  31.983  30.338  1.00  0.00     0.031 C 
ATOM     43  C   UNL A   1      40.539  25.650  27.781  1.00  0.00     0.029 A 
ATOM     44  C   UNL A   1      41.896  25.945  28.227  1.00  0.00     0.049 A 
ATOM     45  H   UNL A   1      42.590  27.714  29.084  1.00  0.00     0.167 HD
ATOM     46  C   UNL A   1      43.924  31.548  30.758  1.00  0.00     0.037 A 
ATOM     47  C   UNL A   1      42.945  25.103  28.156  1.00  0.00     0.037 A 
ATOM     48  C   UNL A   1      45.077  30.692  30.803  1.00  0.00     0.049 A 
ATOM     49  C   UNL A   1      44.283  25.557  28.676  1.00  0.00     0.074 A 
ATOM     50  C   UNL A   1      46.334  30.967  31.312  1.00  0.00     0.029 A 
ATOM     51  N   UNL A   1      45.112  29.391  30.324  1.00  0.00    -0.354 N 
ATOM     52  N   UNL A   1      44.613  26.709  29.209  1.00  0.00    -0.248 NA
ATOM     53  C   UNL A   1      45.392  24.595  28.590  1.00  0.00     0.031 C 
ATOM     54  C   UNL A   1      47.141  29.842  31.105  1.00  0.00     0.029 A 
ATOM     55  C   UNL A   1      46.375  28.855  30.506  1.00  0.00     0.049 A 
ATOM     56  H   UNL A   1      44.351  28.918  29.915  1.00  0.00     0.167 HD
ATOM     57  C   UNL A   1      45.957  26.601  29.549  1.00  0.00     0.074 A 
ATOM     58  C   UNL A   1      46.378  25.268  29.167  1.00  0.00     0.031 C 
ATOM     59  C   UNL A   1      46.769  27.520  30.128  1.00  0.00     0.037 A 
BRANCH  46  60
ATOM     60  C   UNL A   1      44.058  32.972  31.222  1.00  0.00     0.058 A 
ATOM     61  C   UNL A   1      44.388  34.012  30.336  1.00  0.00     0.135 A 
ATOM     62  C   UNL A   1      43.862  33.302  32.572  1.00  0.00     0.135 A 
ATOM     63  F   UNL A   1      44.604  33.750  29.036  1.00  0.00    -0.206 F 
ATOM     64  C   UNL A   1      44.563  35.318  30.778  1.00  0.00     0.059 A 
ATOM     65  C   UNL A   1      44.001  34.609  33.032  1.00  0.00     0.059 A 
ATOM     66  F   UNL A   1      43.548  32.349  33.463  1.00  0.00    -0.206 F 
ATOM     67  C   UNL A   1      44.373  35.605  32.131  1.00  0.00     0.060 A 
BRANCH  67  68
ATOM     68  S   UNL A   1      44.618  37.302  32.695  1.00  0.00     0.124 S 
ATOM     69  O   UNL A   1      43.313  37.606  33.274  1.00  0.00    -0.237 OA
ATOM     70  O   UNL A   1      45.715  37.161  33.647  1.00  0.00    -0.237 OA
ATOM     71  O   UNL A   1      44.945  38.023  31.469  1.00  0.00    -0.744 OA
ENDBRANCH  67  68
ENDBRANCH  46  60
BRANCH  47  72
ATOM     72  C   UNL A   1      42.762  23.725  27.623  1.00  0.00     0.058 A 
ATOM     73  C   UNL A   1      42.552  22.645  28.494  1.00  0.00     0.135 A 
ATOM     74  C   UNL A   1      42.774  23.460  26.245  1.00  0.00     0.135 A 
ATOM     75  F   UNL A   1      42.540  22.846  29.820  1.00  0.00    -0.206 F 
ATOM     76  C   UNL A   1      42.371  21.350  28.020  1.00  0.00     0.059 A 
ATOM     77  C   UNL A   1      42.573  22.176  25.746  1.00  0.00     0.059 A 
ATOM     78  F   UNL A   1      42.956  24.461  25.369  1.00  0.00    -0.206 F 
ATOM     79  C   UNL A   1      42.378  21.126  26.642  1.00  0.00     0.060 A 
BRANCH  79  80
ATOM     80  S   UNL A   1      42.081  19.449  26.037  1.00  0.00     0.124 S 
ATOM     81  O   UNL A   1      42.920  19.413  24.845  1.00  0.00    -0.237 OA
ATOM     82  O   UNL A   1      42.532  18.634  27.160  1.00  0.00    -0.237 OA
ATOM     83  O   UNL A   1      40.640  19.431  25.798  1.00  0.00    -0.744 OA
ENDBRANCH  79  80
ENDBRANCH  47  72
BRANCH  59  84
ATOM     84  C   UNL A   1      48.185  27.109  30.417  1.00  0.00     0.058 A 
ATOM     85  C   UNL A   1      49.235  27.418  29.539  1.00  0.00     0.135 A 
ATOM     86  C   UNL A   1      48.501  26.455  31.618  1.00  0.00     0.135 A 
ATOM     87  F   UNL A   1      48.983  28.036  28.375  1.00  0.00    -0.206 F 
ATOM     88  C   UNL A   1      50.550  27.075  29.835  1.00  0.00     0.059 A 
ATOM     89  C   UNL A   1      49.812  26.126  31.946  1.00  0.00     0.059 A 
ATOM     90  F   UNL A   1      47.534  26.149  32.497  1.00  0.00    -0.206 F 
ATOM     91  C   UNL A   1      50.829  26.431  31.042  1.00  0.00     0.060 A 
BRANCH  91  92
ATOM     92  S   UNL A   1      52.545  26.028  31.433  1.00  0.00     0.124 S 
ATOM     93  O   UNL A   1      52.910  27.128  32.319  1.00  0.00    -0.237 OA
ATOM     94  O   UNL A   1      52.423  24.718  32.065  1.00  0.00    -0.237 OA
ATOM     95  O   UNL A   1      53.198  26.028  30.126  1.00  0.00    -0.744 OA
ENDBRANCH  91  92
ENDBRANCH  59  84
ENDBRANCH  33  34
ENDBRANCH  25  28
ENDBRANCH  23  24
ENDBRANCH  22  23
ENDBRANCH  21  22
ENDBRANCH   1  21
TORSDOF 19
ENDMDL
MODEL 3
REMARK VINA RESULT:     -10.4      4.904     12.250
REMARK SMILES CC(C)OCCS(=O)(=O)N1CCC[C@H](C(=O)NCCCCNC(=O)c2ccc(-c3c4nc(c(-c5c(F)cc(S(=O)(=O)[O-])cc5F)c5ccc([nH]5)c(-c5c(F)cc(S(=O)(=O)[O-])cc5F)c5nc(c(-c6c(F)cc(S(=O)(=O)[O-])cc6F)c6ccc3[nH]6)C=C5)C=C4)cc2)C1
REMARK SMILES IDX 18 1 17 2 15 3 16 4 14 6 10 7 11 8 91 9 12 10 13 11 7 12
REMARK SMILES IDX 8 13 9 14 6 15 5 16 4 17 2 18 1 19 3 20 19 21 20 22 21 23
REMARK SMILES IDX 22 24 23 25 24 27 25 28 26 29 90 30 27 31 89 32 28 33 29 34
REMARK SMILES IDX 30 35 83 36 31 37 88 38 82 39 84 40 32 41 87 42 81 43 80 44
REMARK SMILES IDX 33 46 67 47 46 48 66 49 47 50 50 51 65 52 85 53 48 54 49 55
REMARK SMILES IDX 64 57 86 58 51 59 34 60 35 61 44 62 36 63 37 64 43 65 45 66
REMARK SMILES IDX 38 67 39 68 40 69 41 70 42 71 68 72 69 73 78 74 70 75 71 76
REMARK SMILES IDX 77 77 79 78 72 79 73 80 74 81 75 82 76 83 52 84 53 85 62 86
REMARK SMILES IDX 54 87 55 88 61 89 63 90 56 91 57 92 58 93 59 94 60 95
REMARK H PARENT 17 5 22 26 84 45 50 56
REMARK Flexibility Score: inf
ROOT
ATOM      1  C   UNL A   1      44.195  23.068  29.116  1.00  0.00     0.116 C 
ENDROOT
BRANCH   1   2
ATOM      2  N   UNL A   1      45.009  22.974  27.924  1.00  0.00    -0.356 N 
ATOM      3  C   UNL A   1      45.939  23.802  27.389  1.00  0.00     0.224 C 
ATOM      4  O   UNL A   1      46.476  23.426  26.340  1.00  0.00    -0.275 OA
ATOM      5  H   UNL A   1      44.858  22.152  27.402  1.00  0.00     0.163 HD
BRANCH   3   6
ATOM      6  C   UNL A   1      46.324  25.164  27.978  1.00  0.00     0.093 C 
ATOM      7  N   UNL A   1      46.936  27.336  26.708  1.00  0.00    -0.201 NA
ATOM      8  C   UNL A   1      48.322  26.802  26.519  1.00  0.00     0.102 C 
ATOM      9  C   UNL A   1      45.871  26.362  27.166  1.00  0.00     0.115 C 
ATOM     10  C   UNL A   1      48.738  25.648  27.429  1.00  0.00     0.018 C 
ATOM     11  C   UNL A   1      47.749  25.236  28.489  1.00  0.00     0.016 C 
BRANCH   7  12
ATOM     12  S   UNL A   1      46.320  28.298  25.401  1.00  0.00     0.216 S 
ATOM     13  O   UNL A   1      45.001  27.792  25.078  1.00  0.00    -0.212 OA
ATOM     14  O   UNL A   1      47.354  28.312  24.387  1.00  0.00    -0.212 OA
BRANCH  12  15
ATOM     15  C   UNL A   1      46.100  29.979  25.994  1.00  0.00     0.182 C 
BRANCH  15  16
ATOM     16  C   UNL A   1      46.673  30.252  27.381  1.00  0.00     0.178 C 
BRANCH  16  17
ATOM     17  O   UNL A   1      45.732  30.343  28.456  1.00  0.00    -0.378 OA
BRANCH  17  18
ATOM     18  C   UNL A   1      44.954  31.529  28.614  1.00  0.00     0.112 C 
ATOM     19  C   UNL A   1      43.446  31.318  28.685  1.00  0.00     0.038 C 
ATOM     20  C   UNL A   1      45.541  32.371  29.735  1.00  0.00     0.038 C 
ENDBRANCH  17  18
ENDBRANCH  16  17
ENDBRANCH  15  16
ENDBRANCH  12  15
ENDBRANCH   7  12
ENDBRANCH   3   6
ENDBRANCH   1   2
BRANCH   1  21
ATOM     21  C   UNL A   1      42.705  22.957  28.796  1.00  0.00     0.023 C 
BRANCH  21  22
ATOM     22  C   UNL A   1      42.396  22.020  27.641  1.00  0.00     0.023 C 
BRANCH  22  23
ATOM     23  C   UNL A   1      41.938  22.727  26.376  1.00  0.00     0.116 C 
BRANCH  23  24
ATOM     24  N   UNL A   1      40.656  22.261  25.856  1.00  0.00    -0.352 N 
ATOM     25  C   UNL A   1      39.442  22.907  25.975  1.00  0.00     0.251 C 
ATOM     26  H   UNL A   1      40.657  21.403  25.376  1.00  0.00     0.163 HD
ATOM     27  O   UNL A   1      38.401  22.406  25.567  1.00  0.00    -0.269 OA
BRANCH  25  28
ATOM     28  C   UNL A   1      39.447  24.212  26.663  1.00  0.00     0.039 A 
ATOM     29  C   UNL A   1      38.959  24.294  27.967  1.00  0.00     0.014 A 
ATOM     30  C   UNL A   1      40.150  25.273  26.086  1.00  0.00     0.014 A 
ATOM     31  C   UNL A   1      39.257  25.422  28.732  1.00  0.00     0.010 A 
ATOM     32  C   UNL A   1      40.535  26.340  26.886  1.00  0.00     0.010 A 
ATOM     33  C   UNL A   1      40.092  26.428  28.216  1.00  0.00    -0.014 A 
BRANCH  33  34
ATOM     34  C   UNL A   1      40.506  27.593  29.040  1.00  0.00     0.031 A 
ATOM     35  C   UNL A   1      41.845  27.573  29.726  1.00  0.00     0.074 A 
ATOM     36  C   UNL A   1      39.659  28.625  29.233  1.00  0.00     0.049 A 
ATOM     37  N   UNL A   1      42.369  28.449  30.543  1.00  0.00    -0.248 NA
ATOM     38  C   UNL A   1      42.688  26.387  29.500  1.00  0.00     0.031 C 
ATOM     39  C   UNL A   1      38.306  28.732  28.681  1.00  0.00     0.029 A 
ATOM     40  N   UNL A   1      39.810  29.784  29.954  1.00  0.00    -0.354 N 
ATOM     41  C   UNL A   1      43.580  27.904  30.951  1.00  0.00     0.074 A 
ATOM     42  C   UNL A   1      43.684  26.596  30.346  1.00  0.00     0.031 C 
ATOM     43  C   UNL A   1      37.772  29.910  29.043  1.00  0.00     0.029 A 
ATOM     44  C   UNL A   1      38.726  30.628  29.884  1.00  0.00     0.049 A 
ATOM     45  H   UNL A   1      40.621  29.992  30.473  1.00  0.00     0.167 HD
ATOM     46  C   UNL A   1      44.537  28.456  31.732  1.00  0.00     0.037 A 
ATOM     47  C   UNL A   1      38.530  31.845  30.427  1.00  0.00     0.037 A 
ATOM     48  C   UNL A   1      44.455  29.782  32.280  1.00  0.00     0.049 A 
ATOM     49  C   UNL A   1      39.624  32.457  31.261  1.00  0.00     0.074 A 
ATOM     50  C   UNL A   1      45.409  30.476  33.002  1.00  0.00     0.029 A 
ATOM     51  N   UNL A   1      43.353  30.617  32.162  1.00  0.00    -0.354 N 
ATOM     52  N   UNL A   1      40.800  31.963  31.569  1.00  0.00    -0.248 NA
ATOM     53  C   UNL A   1      39.368  33.792  31.818  1.00  0.00     0.031 C 
ATOM     54  C   UNL A   1      44.869  31.718  33.353  1.00  0.00     0.029 A 
ATOM     55  C   UNL A   1      43.596  31.813  32.814  1.00  0.00     0.049 A 
ATOM     56  H   UNL A   1      42.523  30.392  31.683  1.00  0.00     0.167 HD
ATOM     57  C   UNL A   1      41.435  32.939  32.330  1.00  0.00     0.074 A 
ATOM     58  C   UNL A   1      40.515  34.054  32.429  1.00  0.00     0.031 C 
ATOM     59  C   UNL A   1      42.669  32.915  32.891  1.00  0.00     0.037 A 
BRANCH  46  60
ATOM     60  C   UNL A   1      45.755  27.624  32.025  1.00  0.00     0.058 A 
ATOM     61  C   UNL A   1      45.808  26.752  33.126  1.00  0.00     0.135 A 
ATOM     62  C   UNL A   1      46.888  27.705  31.200  1.00  0.00     0.135 A 
ATOM     63  F   UNL A   1      44.760  26.648  33.959  1.00  0.00    -0.206 F 
ATOM     64  C   UNL A   1      46.955  26.024  33.423  1.00  0.00     0.059 A 
ATOM     65  C   UNL A   1      48.035  26.961  31.461  1.00  0.00     0.059 A 
ATOM     66  F   UNL A   1      46.893  28.523  30.137  1.00  0.00    -0.206 F 
ATOM     67  C   UNL A   1      48.066  26.140  32.587  1.00  0.00     0.060 A 
BRANCH  67  68
ATOM     68  S   UNL A   1      49.553  25.201  32.993  1.00  0.00     0.124 S 
ATOM     69  O   UNL A   1      49.987  24.760  31.670  1.00  0.00    -0.237 OA
ATOM     70  O   UNL A   1      50.395  26.209  33.631  1.00  0.00    -0.237 OA
ATOM     71  O   UNL A   1      49.060  24.150  33.876  1.00  0.00    -0.744 OA
ENDBRANCH  67  68
ENDBRANCH  46  60
BRANCH  47  72
ATOM     72  C   UNL A   1      37.272  32.592  30.153  1.00  0.00     0.058 A 
ATOM     73  C   UNL A   1      37.227  33.571  29.149  1.00  0.00     0.135 A 
ATOM     74  C   UNL A   1      36.092  32.336  30.868  1.00  0.00     0.135 A 
ATOM     75  F   UNL A   1      38.331  33.858  28.443  1.00  0.00    -0.206 F 
ATOM     76  C   UNL A   1      36.062  34.277  28.869  1.00  0.00     0.059 A 
ATOM     77  C   UNL A   1      34.908  33.014  30.592  1.00  0.00     0.059 A 
ATOM     78  F   UNL A   1      36.078  31.398  31.828  1.00  0.00    -0.206 F 
ATOM     79  C   UNL A   1      34.905  33.988  29.594  1.00  0.00     0.060 A 
BRANCH  79  80
ATOM     80  S   UNL A   1      33.382  34.868  29.180  1.00  0.00     0.124 S 
ATOM     81  O   UNL A   1      32.765  33.957  28.223  1.00  0.00    -0.237 OA
ATOM     82  O   UNL A   1      32.725  34.970  30.480  1.00  0.00    -0.237 OA
ATOM     83  O   UNL A   1      33.865  36.131  28.630  1.00  0.00    -0.744 OA
ENDBRANCH  79  80
ENDBRANCH  47  72
BRANCH  59  84
ATOM     84  C   UNL A   1      43.114  34.142  33.637  1.00  0.00     0.058 A 
ATOM     85  C   UNL A   1      43.630  35.263  32.969  1.00  0.00     0.135 A 
ATOM     86  C   UNL A   1      42.961  34.218  35.030  1.00  0.00     0.135 A 
ATOM     87  F   UNL A   1      43.802  35.236  31.638  1.00  0.00    -0.206 F 
ATOM     88  C   UNL A   1      43.997  36.412  33.660  1.00  0.00     0.059 A 
ATOM     89  C   UNL A   1      43.296  35.367  35.738  1.00  0.00     0.059 A 
ATOM     90  F   UNL A   1      42.460  33.177  35.714  1.00  0.00    -0.206 F 
ATOM     91  C   UNL A   1      43.824  36.456  35.045  1.00  0.00     0.060 A 
BRANCH  91  92
ATOM     92  S   UNL A   1      44.265  37.969  35.926  1.00  0.00     0.124 S 
ATOM     93  O   UNL A   1      43.482  37.834  37.150  1.00  0.00    -0.237 OA
ATOM     94  O   UNL A   1      45.710  37.832  36.079  1.00  0.00    -0.237 OA
ATOM     95  O   UNL A   1      43.834  39.027  35.017  1.00  0.00    -0.744 OA
ENDBRANCH  91  92
ENDBRANCH  59  84
ENDBRANCH  33  34
ENDBRANCH  25  28
ENDBRANCH  23  24
ENDBRANCH  22  23
ENDBRANCH  21  22
ENDBRANCH   1  21
TORSDOF 19
ENDMDL
