MODEL 1
REMARK VINA RESULT:     -11.3      0.000      0.000
REMARK SMILES Cn1ccnc(N[C@H]2C=C[C@H](C(=O)NCCCCNC(=O)c3ccc(-c4c5nc(c(-c6c(F)cc(S(=O)(=O)[O-])cc6F)c6ccc([nH]6)c(-c6c(F)cc(S(=O)(=O)[O-])cc6F)c6nc(c(-c7c(F)cc(S(=O)(=O)[O-])cc7F)c7ccc4[nH]7)C=C6)C=C5)cc3)C2)c1=O
REMARK SMILES IDX 17 1 16 2 15 3 14 4 12 5 13 6 11 8 8 9 9 10 88 11 10 12 7 13
REMARK SMILES IDX 6 15 1 16 2 17 3 18 89 19 4 20 90 21 5 22 18 23 19 24 20 25
REMARK SMILES IDX 21 27 22 28 23 29 87 30 24 31 86 32 25 33 26 34 27 35 80 36
REMARK SMILES IDX 28 37 85 38 79 39 81 40 29 41 84 42 78 43 77 44 30 46 64 47
REMARK SMILES IDX 43 48 63 49 44 50 47 51 62 52 82 53 45 54 46 55 61 57 83 58
REMARK SMILES IDX 48 59 31 60 32 61 41 62 33 63 34 64 40 65 42 66 35 67 36 68
REMARK SMILES IDX 37 69 38 70 39 71 65 72 66 73 75 74 67 75 68 76 74 77 76 78
REMARK SMILES IDX 69 79 70 80 71 81 72 82 73 83 49 84 50 85 59 86 51 87 52 88
REMARK SMILES IDX 58 89 60 90 53 91 54 92 55 93 56 94 57 95
REMARK H PARENT 14 7 7 14 19 26 81 45 47 56
REMARK Flexibility Score: inf
ROOT
ATOM      1  C   UNL A   1      32.106  28.322  26.557  1.00  0.00     0.023 C 
ENDROOT
BRANCH   1   2
ATOM      2  C   UNL A   1      31.428  29.478  25.825  1.00  0.00     0.023 C 
BRANCH   2   3
ATOM      3  C   UNL A   1      31.216  29.263  24.332  1.00  0.00     0.116 C 
BRANCH   3   4
ATOM      4  N   UNL A   1      32.446  29.361  23.563  1.00  0.00    -0.356 N 
ATOM      5  C   UNL A   1      33.173  28.343  23.001  1.00  0.00     0.227 C 
ATOM      6  O   UNL A   1      34.125  28.623  22.275  1.00  0.00    -0.274 OA
ATOM      7  H   UNL A   1      32.801  30.269  23.429  1.00  0.00     0.163 HD
BRANCH   5   8
ATOM      8  C   UNL A   1      32.754  26.910  23.315  1.00  0.00     0.103 C 
ATOM      9  C   UNL A   1      33.551  24.867  22.212  1.00  0.00     0.104 C 
ATOM     10  C   UNL A   1      32.227  25.280  21.685  1.00  0.00    -0.006 C 
ATOM     11  C   UNL A   1      33.906  25.888  23.293  1.00  0.00     0.046 C 
ATOM     12  C   UNL A   1      31.802  26.408  22.260  1.00  0.00    -0.016 C 
BRANCH   9  13
ATOM     13  N   UNL A   1      33.541  23.498  22.653  1.00  0.00    -0.359 N 
ATOM     14  H   UNL A   1      32.935  22.925  22.130  1.00  0.00     0.162 HD
BRANCH  13  15
ATOM     15  C   UNL A   1      34.204  22.820  23.652  1.00  0.00     0.193 A 
ATOM     16  C   UNL A   1      37.584  21.425  24.833  1.00  0.00     0.153 C 
ATOM     17  N   UNL A   1      36.178  21.765  24.758  1.00  0.00    -0.314 N 
ATOM     18  C   UNL A   1      35.293  21.351  25.720  1.00  0.00     0.109 A 
ATOM     19  C   UNL A   1      35.743  22.534  23.681  1.00  0.00     0.293 A 
ATOM     20  C   UNL A   1      33.999  21.675  25.638  1.00  0.00     0.131 A 
ATOM     21  O   UNL A   1      36.507  22.952  22.824  1.00  0.00    -0.265 OA
ATOM     22  N   UNL A   1      33.428  22.398  24.628  1.00  0.00    -0.233 NA
ENDBRANCH  13  15
ENDBRANCH   9  13
ENDBRANCH   5   8
ENDBRANCH   3   4
ENDBRANCH   2   3
ENDBRANCH   1   2
BRANCH   1  23
ATOM     23  C   UNL A   1      33.401  28.678  27.279  1.00  0.00     0.116 C 
BRANCH  23  24
ATOM     24  N   UNL A   1      33.452  30.071  27.698  1.00  0.00    -0.352 N 
ATOM     25  C   UNL A   1      34.476  30.768  28.295  1.00  0.00     0.251 C 
ATOM     26  H   UNL A   1      32.632  30.591  27.530  1.00  0.00     0.163 HD
ATOM     27  O   UNL A   1      34.280  31.905  28.716  1.00  0.00    -0.269 OA
BRANCH  25  28
ATOM     28  C   UNL A   1      35.800  30.130  28.464  1.00  0.00     0.039 A 
ATOM     29  C   UNL A   1      36.675  30.094  27.375  1.00  0.00     0.014 A 
ATOM     30  C   UNL A   1      36.194  29.607  29.698  1.00  0.00     0.014 A 
ATOM     31  C   UNL A   1      37.979  29.626  27.553  1.00  0.00     0.010 A 
ATOM     32  C   UNL A   1      37.516  29.214  29.893  1.00  0.00     0.010 A 
ATOM     33  C   UNL A   1      38.428  29.239  28.827  1.00  0.00    -0.014 A 
BRANCH  33  34
ATOM     34  C   UNL A   1      39.859  28.928  29.078  1.00  0.00     0.031 A 
ATOM     35  C   UNL A   1      40.791  29.977  29.615  1.00  0.00     0.074 A 
ATOM     36  C   UNL A   1      40.336  27.713  28.739  1.00  0.00     0.049 A 
ATOM     37  N   UNL A   1      42.080  29.905  29.827  1.00  0.00    -0.248 NA
ATOM     38  C   UNL A   1      40.201  31.287  29.935  1.00  0.00     0.031 C 
ATOM     39  C   UNL A   1      39.541  26.622  28.168  1.00  0.00     0.029 A 
ATOM     40  N   UNL A   1      41.604  27.190  28.815  1.00  0.00    -0.354 N 
ATOM     41  C   UNL A   1      42.458  31.156  30.299  1.00  0.00     0.074 A 
ATOM     42  C   UNL A   1      41.270  31.984  30.290  1.00  0.00     0.031 C 
ATOM     43  C   UNL A   1      40.332  25.556  27.970  1.00  0.00     0.029 A 
ATOM     44  C   UNL A   1      41.699  25.899  28.349  1.00  0.00     0.049 A 
ATOM     45  H   UNL A   1      42.373  27.693  29.169  1.00  0.00     0.167 HD
ATOM     46  C   UNL A   1      43.678  31.570  30.720  1.00  0.00     0.037 A 
ATOM     47  C   UNL A   1      42.765  25.086  28.224  1.00  0.00     0.037 A 
ATOM     48  C   UNL A   1      44.854  30.738  30.724  1.00  0.00     0.049 A 
ATOM     49  C   UNL A   1      44.119  25.584  28.649  1.00  0.00     0.074 A 
ATOM     50  C   UNL A   1      46.123  31.044  31.184  1.00  0.00     0.029 A 
ATOM     51  N   UNL A   1      44.915  29.443  30.227  1.00  0.00    -0.354 N 
ATOM     52  N   UNL A   1      44.444  26.743  29.170  1.00  0.00    -0.248 NA
ATOM     53  C   UNL A   1      45.253  24.666  28.467  1.00  0.00     0.031 C 
ATOM     54  C   UNL A   1      46.963  29.959  30.910  1.00  0.00     0.029 A 
ATOM     55  C   UNL A   1      46.207  28.953  30.330  1.00  0.00     0.049 A 
ATOM     56  H   UNL A   1      44.150  28.945  29.856  1.00  0.00     0.167 HD
ATOM     57  C   UNL A   1      45.816  26.690  29.389  1.00  0.00     0.074 A 
ATOM     58  C   UNL A   1      46.256  25.377  28.965  1.00  0.00     0.031 C 
ATOM     59  C   UNL A   1      46.636  27.646  29.892  1.00  0.00     0.037 A 
BRANCH  46  60
ATOM     60  C   UNL A   1      43.802  32.992  31.201  1.00  0.00     0.058 A 
ATOM     61  C   UNL A   1      44.136  34.042  30.330  1.00  0.00     0.135 A 
ATOM     62  C   UNL A   1      43.568  33.314  32.548  1.00  0.00     0.135 A 
ATOM     63  F   UNL A   1      44.382  33.793  29.034  1.00  0.00    -0.206 F 
ATOM     64  C   UNL A   1      44.276  35.350  30.784  1.00  0.00     0.059 A 
ATOM     65  C   UNL A   1      43.670  34.621  33.018  1.00  0.00     0.059 A 
ATOM     66  F   UNL A   1      43.240  32.354  33.427  1.00  0.00    -0.206 F 
ATOM     67  C   UNL A   1      44.045  35.629  32.131  1.00  0.00     0.060 A 
BRANCH  67  68
ATOM     68  S   UNL A   1      44.254  37.327  32.707  1.00  0.00     0.124 S 
ATOM     69  O   UNL A   1      44.095  38.076  31.464  1.00  0.00    -0.237 OA
ATOM     70  O   UNL A   1      43.168  37.464  33.671  1.00  0.00    -0.237 OA
ATOM     71  O   UNL A   1      45.599  37.333  33.274  1.00  0.00    -0.744 OA
ENDBRANCH  67  68
ENDBRANCH  46  60
BRANCH  47  72
ATOM     72  C   UNL A   1      42.587  23.713  27.680  1.00  0.00     0.058 A 
ATOM     73  C   UNL A   1      42.626  23.478  26.298  1.00  0.00     0.135 A 
ATOM     74  C   UNL A   1      42.414  22.606  28.526  1.00  0.00     0.135 A 
ATOM     75  F   UNL A   1      42.779  24.504  25.447  1.00  0.00    -0.206 F 
ATOM     76  C   UNL A   1      42.500  22.196  25.773  1.00  0.00     0.059 A 
ATOM     77  C   UNL A   1      42.311  21.311  28.027  1.00  0.00     0.059 A 
ATOM     78  F   UNL A   1      42.381  22.776  29.857  1.00  0.00    -0.206 F 
ATOM     79  C   UNL A   1      42.352  21.117  26.647  1.00  0.00     0.060 A 
BRANCH  79  80
ATOM     80  S   UNL A   1      42.265  19.451  25.956  1.00  0.00     0.124 S 
ATOM     81  O   UNL A   1      42.756  18.644  27.067  1.00  0.00    -0.237 OA
ATOM     82  O   UNL A   1      40.844  19.322  25.652  1.00  0.00    -0.237 OA
ATOM     83  O   UNL A   1      43.143  19.524  24.792  1.00  0.00    -0.744 OA
ENDBRANCH  79  80
ENDBRANCH  47  72
BRANCH  59  84
ATOM     84  C   UNL A   1      48.099  27.312  30.012  1.00  0.00     0.058 A 
ATOM     85  C   UNL A   1      49.008  27.620  28.989  1.00  0.00     0.135 A 
ATOM     86  C   UNL A   1      48.609  26.736  31.188  1.00  0.00     0.135 A 
ATOM     87  F   UNL A   1      48.574  28.160  27.839  1.00  0.00    -0.206 F 
ATOM     88  C   UNL A   1      50.369  27.359  29.121  1.00  0.00     0.059 A 
ATOM     89  C   UNL A   1      49.969  26.494  31.354  1.00  0.00     0.059 A 
ATOM     90  F   UNL A   1      47.784  26.426  32.202  1.00  0.00    -0.206 F 
ATOM     91  C   UNL A   1      50.841  26.803  30.312  1.00  0.00     0.060 A 
BRANCH  91  92
ATOM     92  S   UNL A   1      52.616  26.522  30.487  1.00  0.00     0.124 S 
ATOM     93  O   UNL A   1      53.019  26.304  29.103  1.00  0.00    -0.237 OA
ATOM     94  O   UNL A   1      53.069  27.772  31.091  1.00  0.00    -0.237 OA
ATOM     95  O   UNL A   1      52.692  25.350  31.355  1.00  0.00    -0.744 OA
ENDBRANCH  91  92
ENDBRANCH  59  84
ENDBRANCH  33  34
ENDBRANCH  25  28
ENDBRANCH  23  24
ENDBRANCH   1  23
TORSDOF 16
ENDMDL
MODEL 2
REMARK VINA RESULT:     -11.2      1.444      2.351
REMARK SMILES Cn1ccnc(N[C@H]2C=C[C@H](C(=O)NCCCCNC(=O)c3ccc(-c4c5nc(c(-c6c(F)cc(S(=O)(=O)[O-])cc6F)c6ccc([nH]6)c(-c6c(F)cc(S(=O)(=O)[O-])cc6F)c6nc(c(-c7c(F)cc(S(=O)(=O)[O-])cc7F)c7ccc4[nH]7)C=C6)C=C5)cc3)C2)c1=O
REMARK SMILES IDX 17 1 16 2 15 3 14 4 12 5 13 6 11 8 8 9 9 10 88 11 10 12 7 13
REMARK SMILES IDX 6 15 1 16 2 17 3 18 89 19 4 20 90 21 5 22 18 23 19 24 20 25
REMARK SMILES IDX 21 27 22 28 23 29 87 30 24 31 86 32 25 33 26 34 27 35 80 36
REMARK SMILES IDX 28 37 85 38 79 39 81 40 29 41 84 42 78 43 77 44 30 46 64 47
REMARK SMILES IDX 43 48 63 49 44 50 47 51 62 52 82 53 45 54 46 55 61 57 83 58
REMARK SMILES IDX 48 59 31 60 32 61 41 62 33 63 34 64 40 65 42 66 35 67 36 68
REMARK SMILES IDX 37 69 38 70 39 71 65 72 66 73 75 74 67 75 68 76 74 77 76 78
REMARK SMILES IDX 69 79 70 80 71 81 72 82 73 83 49 84 50 85 59 86 51 87 52 88
REMARK SMILES IDX 58 89 60 90 53 91 54 92 55 93 56 94 57 95
REMARK H PARENT 14 7 7 14 19 26 81 45 47 56
REMARK Flexibility Score: inf
ROOT
ATOM      1  C   UNL A   1      32.070  28.288  26.747  1.00  0.00     0.023 C 
ENDROOT
BRANCH   1   2
ATOM      2  C   UNL A   1      31.785  26.787  26.742  1.00  0.00     0.023 C 
BRANCH   2   3
ATOM      3  C   UNL A   1      30.597  26.357  25.891  1.00  0.00     0.116 C 
BRANCH   3   4
ATOM      4  N   UNL A   1      29.884  25.218  26.444  1.00  0.00    -0.356 N 
ATOM      5  C   UNL A   1      30.383  23.978  26.752  1.00  0.00     0.227 C 
ATOM      6  O   UNL A   1      29.657  23.172  27.331  1.00  0.00    -0.274 OA
ATOM      7  H   UNL A   1      28.924  25.352  26.618  1.00  0.00     0.163 HD
BRANCH   5   8
ATOM      8  C   UNL A   1      31.823  23.670  26.352  1.00  0.00     0.103 C 
ATOM      9  C   UNL A   1      32.678  21.558  25.438  1.00  0.00     0.104 C 
ATOM     10  C   UNL A   1      32.964  21.670  26.890  1.00  0.00    -0.006 C 
ATOM     11  C   UNL A   1      31.964  22.854  25.054  1.00  0.00     0.046 C 
ATOM     12  C   UNL A   1      32.475  22.804  27.398  1.00  0.00    -0.016 C 
BRANCH   9  13
ATOM     13  N   UNL A   1      33.869  21.276  24.684  1.00  0.00    -0.359 N 
ATOM     14  H   UNL A   1      33.685  20.914  23.787  1.00  0.00     0.162 HD
BRANCH  13  15
ATOM     15  C   UNL A   1      35.213  21.407  24.953  1.00  0.00     0.193 A 
ATOM     16  C   UNL A   1      38.041  23.849  25.851  1.00  0.00     0.153 C 
ATOM     17  N   UNL A   1      37.308  22.647  25.512  1.00  0.00    -0.314 N 
ATOM     18  C   UNL A   1      37.945  21.445  25.348  1.00  0.00     0.109 A 
ATOM     19  C   UNL A   1      35.926  22.741  25.362  1.00  0.00     0.293 A 
ATOM     20  C   UNL A   1      37.253  20.346  25.037  1.00  0.00     0.131 A 
ATOM     21  O   UNL A   1      35.317  23.786  25.535  1.00  0.00    -0.265 OA
ATOM     22  N   UNL A   1      35.902  20.293  24.833  1.00  0.00    -0.233 NA
ENDBRANCH  13  15
ENDBRANCH   9  13
ENDBRANCH   5   8
ENDBRANCH   3   4
ENDBRANCH   2   3
ENDBRANCH   1   2
BRANCH   1  23
ATOM     23  C   UNL A   1      33.432  28.690  27.303  1.00  0.00     0.116 C 
BRANCH  23  24
ATOM     24  N   UNL A   1      33.480  30.081  27.733  1.00  0.00    -0.352 N 
ATOM     25  C   UNL A   1      34.508  30.778  28.323  1.00  0.00     0.251 C 
ATOM     26  H   UNL A   1      32.656  30.598  27.577  1.00  0.00     0.163 HD
ATOM     27  O   UNL A   1      34.311  31.911  28.755  1.00  0.00    -0.269 OA
BRANCH  25  28
ATOM     28  C   UNL A   1      35.836  30.145  28.473  1.00  0.00     0.039 A 
ATOM     29  C   UNL A   1      36.725  30.179  27.395  1.00  0.00     0.014 A 
ATOM     30  C   UNL A   1      36.221  29.557  29.680  1.00  0.00     0.014 A 
ATOM     31  C   UNL A   1      38.032  29.716  27.562  1.00  0.00     0.010 A 
ATOM     32  C   UNL A   1      37.545  29.168  29.869  1.00  0.00     0.010 A 
ATOM     33  C   UNL A   1      38.469  29.262  28.818  1.00  0.00    -0.014 A 
BRANCH  33  34
ATOM     34  C   UNL A   1      39.901  28.952  29.069  1.00  0.00     0.031 A 
ATOM     35  C   UNL A   1      40.832  30.001  29.608  1.00  0.00     0.074 A 
ATOM     36  C   UNL A   1      40.380  27.738  28.728  1.00  0.00     0.049 A 
ATOM     37  N   UNL A   1      42.121  29.930  29.821  1.00  0.00    -0.248 NA
ATOM     38  C   UNL A   1      40.240  31.309  29.930  1.00  0.00     0.031 C 
ATOM     39  C   UNL A   1      39.586  26.648  28.154  1.00  0.00     0.029 A 
ATOM     40  N   UNL A   1      41.648  27.216  28.803  1.00  0.00    -0.354 N 
ATOM     41  C   UNL A   1      42.497  31.181  30.295  1.00  0.00     0.074 A 
ATOM     42  C   UNL A   1      41.308  32.007  30.287  1.00  0.00     0.031 C 
ATOM     43  C   UNL A   1      40.377  25.583  27.955  1.00  0.00     0.029 A 
ATOM     44  C   UNL A   1      41.744  25.926  28.335  1.00  0.00     0.049 A 
ATOM     45  H   UNL A   1      42.416  27.719  29.159  1.00  0.00     0.167 HD
ATOM     46  C   UNL A   1      43.716  31.595  30.717  1.00  0.00     0.037 A 
ATOM     47  C   UNL A   1      42.812  25.115  28.210  1.00  0.00     0.037 A 
ATOM     48  C   UNL A   1      44.894  30.764  30.720  1.00  0.00     0.049 A 
ATOM     49  C   UNL A   1      44.165  25.613  28.636  1.00  0.00     0.074 A 
ATOM     50  C   UNL A   1      46.162  31.071  31.181  1.00  0.00     0.029 A 
ATOM     51  N   UNL A   1      44.956  29.470  30.221  1.00  0.00    -0.354 N 
ATOM     52  N   UNL A   1      44.489  26.772  29.159  1.00  0.00    -0.248 NA
ATOM     53  C   UNL A   1      45.300  24.697  28.452  1.00  0.00     0.031 C 
ATOM     54  C   UNL A   1      47.003  29.987  30.905  1.00  0.00     0.029 A 
ATOM     55  C   UNL A   1      46.249  28.982  30.324  1.00  0.00     0.049 A 
ATOM     56  H   UNL A   1      44.192  28.972  29.848  1.00  0.00     0.167 HD
ATOM     57  C   UNL A   1      45.861  26.720  29.379  1.00  0.00     0.074 A 
ATOM     58  C   UNL A   1      46.301  25.407  28.952  1.00  0.00     0.031 C 
ATOM     59  C   UNL A   1      46.679  27.675  29.883  1.00  0.00     0.037 A 
BRANCH  46  60
ATOM     60  C   UNL A   1      43.839  33.016  31.201  1.00  0.00     0.058 A 
ATOM     61  C   UNL A   1      43.507  33.381  32.516  1.00  0.00     0.135 A 
ATOM     62  C   UNL A   1      44.313  34.025  30.346  1.00  0.00     0.135 A 
ATOM     63  F   UNL A   1      43.039  32.462  33.375  1.00  0.00    -0.206 F 
ATOM     64  C   UNL A   1      43.597  34.700  32.952  1.00  0.00     0.059 A 
ATOM     65  C   UNL A   1      44.442  35.345  30.770  1.00  0.00     0.059 A 
ATOM     66  F   UNL A   1      44.651  33.735  29.080  1.00  0.00    -0.206 F 
ATOM     67  C   UNL A   1      44.062  35.676  32.069  1.00  0.00     0.060 A 
BRANCH  67  68
ATOM     68  S   UNL A   1      44.150  37.385  32.644  1.00  0.00     0.124 S 
ATOM     69  O   UNL A   1      43.108  37.401  33.667  1.00  0.00    -0.237 OA
ATOM     70  O   UNL A   1      45.520  37.477  33.136  1.00  0.00    -0.237 OA
ATOM     71  O   UNL A   1      43.862  38.164  31.445  1.00  0.00    -0.744 OA
ENDBRANCH  67  68
ENDBRANCH  46  60
BRANCH  47  72
ATOM     72  C   UNL A   1      42.635  23.742  27.663  1.00  0.00     0.058 A 
ATOM     73  C   UNL A   1      42.728  23.501  26.284  1.00  0.00     0.135 A 
ATOM     74  C   UNL A   1      42.410  22.641  28.505  1.00  0.00     0.135 A 
ATOM     75  F   UNL A   1      42.931  24.521  25.437  1.00  0.00    -0.206 F 
ATOM     76  C   UNL A   1      42.603  22.219  25.759  1.00  0.00     0.059 A 
ATOM     77  C   UNL A   1      42.308  21.346  28.006  1.00  0.00     0.059 A 
ATOM     78  F   UNL A   1      42.325  22.817  29.832  1.00  0.00    -0.206 F 
ATOM     79  C   UNL A   1      42.403  21.146  26.630  1.00  0.00     0.060 A 
BRANCH  79  80
ATOM     80  S   UNL A   1      42.319  19.479  25.941  1.00  0.00     0.124 S 
ATOM     81  O   UNL A   1      40.892  19.342  25.673  1.00  0.00    -0.237 OA
ATOM     82  O   UNL A   1      43.181  19.591  24.769  1.00  0.00    -0.237 OA
ATOM     83  O   UNL A   1      42.843  18.643  27.018  1.00  0.00    -0.744 OA
ENDBRANCH  79  80
ENDBRANCH  47  72
BRANCH  59  84
ATOM     84  C   UNL A   1      48.143  27.343  30.004  1.00  0.00     0.058 A 
ATOM     85  C   UNL A   1      49.063  27.713  29.011  1.00  0.00     0.135 A 
ATOM     86  C   UNL A   1      48.641  26.705  31.152  1.00  0.00     0.135 A 
ATOM     87  F   UNL A   1      48.640  28.315  27.888  1.00  0.00    -0.206 F 
ATOM     88  C   UNL A   1      50.423  27.451  29.146  1.00  0.00     0.059 A 
ATOM     89  C   UNL A   1      50.000  26.460  31.322  1.00  0.00     0.059 A 
ATOM     90  F   UNL A   1      47.805  26.334  32.136  1.00  0.00    -0.206 F 
ATOM     91  C   UNL A   1      50.883  26.832  30.310  1.00  0.00     0.060 A 
BRANCH  91  92
ATOM     92  S   UNL A   1      52.657  26.551  30.492  1.00  0.00     0.124 S 
ATOM     93  O   UNL A   1      53.101  27.820  31.059  1.00  0.00    -0.237 OA
ATOM     94  O   UNL A   1      52.699  25.405  31.396  1.00  0.00    -0.237 OA
ATOM     95  O   UNL A   1      53.102  26.283  29.128  1.00  0.00    -0.744 OA
ENDBRANCH  91  92
ENDBRANCH  59  84
ENDBRANCH  33  34
ENDBRANCH  25  28
ENDBRANCH  23  24
ENDBRANCH   1  23
TORSDOF 16
ENDMDL
MODEL 3
REMARK VINA RESULT:     -11.1      5.927     11.852
REMARK SMILES Cn1ccnc(N[C@H]2C=C[C@H](C(=O)NCCCCNC(=O)c3ccc(-c4c5nc(c(-c6c(F)cc(S(=O)(=O)[O-])cc6F)c6ccc([nH]6)c(-c6c(F)cc(S(=O)(=O)[O-])cc6F)c6nc(c(-c7c(F)cc(S(=O)(=O)[O-])cc7F)c7ccc4[nH]7)C=C6)C=C5)cc3)C2)c1=O
REMARK SMILES IDX 17 1 16 2 15 3 14 4 12 5 13 6 11 8 8 9 9 10 88 11 10 12 7 13
REMARK SMILES IDX 6 15 1 16 2 17 3 18 89 19 4 20 90 21 5 22 18 23 19 24 20 25
REMARK SMILES IDX 21 27 22 28 23 29 87 30 24 31 86 32 25 33 26 34 27 35 80 36
REMARK SMILES IDX 28 37 85 38 79 39 81 40 29 41 84 42 78 43 77 44 30 46 64 47
REMARK SMILES IDX 43 48 63 49 44 50 47 51 62 52 82 53 45 54 46 55 61 57 83 58
REMARK SMILES IDX 48 59 31 60 32 61 41 62 33 63 34 64 40 65 42 66 35 67 36 68
REMARK SMILES IDX 37 69 38 70 39 71 65 72 66 73 75 74 67 75 68 76 74 77 76 78
REMARK SMILES IDX 69 79 70 80 71 81 72 82 73 83 49 84 50 85 59 86 51 87 52 88
REMARK SMILES IDX 58 89 60 90 53 91 54 92 55 93 56 94 57 95
REMARK H PARENT 14 7 7 14 19 26 81 45 47 56
REMARK Flexibility Score: inf
ROOT
ATOM      1  C   UNL A   1      42.981  22.904  29.152  1.00  0.00     0.023 C 
ENDROOT
BRANCH   1   2
ATOM      2  C   UNL A   1      43.538  24.227  29.671  1.00  0.00     0.023 C 
BRANCH   2   3
ATOM      3  C   UNL A   1      45.024  24.216  30.009  1.00  0.00     0.116 C 
BRANCH   3   4
ATOM      4  N   UNL A   1      45.731  25.382  29.506  1.00  0.00    -0.356 N 
ATOM      5  C   UNL A   1      45.845  25.806  28.207  1.00  0.00     0.227 C 
ATOM      6  O   UNL A   1      46.379  26.890  27.979  1.00  0.00    -0.274 OA
ATOM      7  H   UNL A   1      46.184  25.937  30.182  1.00  0.00     0.163 HD
BRANCH   5   8
ATOM      8  C   UNL A   1      45.297  24.896  27.111  1.00  0.00     0.103 C 
ATOM      9  C   UNL A   1      46.591  23.745  25.371  1.00  0.00     0.104 C 
ATOM     10  C   UNL A   1      45.962  24.982  24.843  1.00  0.00    -0.006 C 
ATOM     11  C   UNL A   1      46.153  23.647  26.832  1.00  0.00     0.046 C 
ATOM     12  C   UNL A   1      45.283  25.628  25.793  1.00  0.00    -0.016 C 
BRANCH   9  13
ATOM     13  N   UNL A   1      46.266  22.601  24.563  1.00  0.00    -0.359 N 
ATOM     14  H   UNL A   1      46.470  22.728  23.608  1.00  0.00     0.162 HD
BRANCH  13  15
ATOM     15  C   UNL A   1      45.730  21.364  24.846  1.00  0.00     0.193 A 
ATOM     16  C   UNL A   1      42.534  19.421  25.724  1.00  0.00     0.153 C 
ATOM     17  N   UNL A   1      43.914  19.757  25.439  1.00  0.00    -0.314 N 
ATOM     18  C   UNL A   1      44.904  18.811  25.496  1.00  0.00     0.109 A 
ATOM     19  C   UNL A   1      44.212  21.074  25.097  1.00  0.00     0.293 A 
ATOM     20  C   UNL A   1      46.171  19.138  25.228  1.00  0.00     0.131 A 
ATOM     21  O   UNL A   1      43.352  21.937  25.000  1.00  0.00    -0.265 OA
ATOM     22  N   UNL A   1      46.614  20.391  24.905  1.00  0.00    -0.233 NA
ENDBRANCH  13  15
ENDBRANCH   9  13
ENDBRANCH   5   8
ENDBRANCH   3   4
ENDBRANCH   2   3
ENDBRANCH   1   2
BRANCH   1  23
ATOM     23  C   UNL A   1      41.701  23.013  28.330  1.00  0.00     0.116 C 
BRANCH  23  24
ATOM     24  N   UNL A   1      41.936  23.504  26.979  1.00  0.00    -0.352 N 
ATOM     25  C   UNL A   1      41.770  24.770  26.468  1.00  0.00     0.251 C 
ATOM     26  H   UNL A   1      42.261  22.830  26.338  1.00  0.00     0.163 HD
ATOM     27  O   UNL A   1      41.875  24.960  25.259  1.00  0.00    -0.269 OA
BRANCH  25  28
ATOM     28  C   UNL A   1      41.426  25.889  27.371  1.00  0.00     0.039 A 
ATOM     29  C   UNL A   1      40.297  25.775  28.186  1.00  0.00     0.014 A 
ATOM     30  C   UNL A   1      42.232  27.028  27.444  1.00  0.00     0.014 A 
ATOM     31  C   UNL A   1      40.037  26.756  29.146  1.00  0.00     0.010 A 
ATOM     32  C   UNL A   1      42.016  27.965  28.452  1.00  0.00     0.010 A 
ATOM     33  C   UNL A   1      40.928  27.828  29.327  1.00  0.00    -0.014 A 
BRANCH  33  34
ATOM     34  C   UNL A   1      40.778  28.770  30.466  1.00  0.00     0.031 A 
ATOM     35  C   UNL A   1      41.616  28.618  31.704  1.00  0.00     0.074 A 
ATOM     36  C   UNL A   1      39.821  29.719  30.413  1.00  0.00     0.049 A 
ATOM     37  N   UNL A   1      41.572  29.302  32.819  1.00  0.00    -0.248 NA
ATOM     38  C   UNL A   1      42.621  27.543  31.696  1.00  0.00     0.031 C 
ATOM     39  C   UNL A   1      38.913  29.940  29.284  1.00  0.00     0.029 A 
ATOM     40  N   UNL A   1      39.441  30.667  31.330  1.00  0.00    -0.354 N 
ATOM     41  C   UNL A   1      42.535  28.738  33.648  1.00  0.00     0.074 A 
ATOM     42  C   UNL A   1      43.110  27.623  32.925  1.00  0.00     0.031 C 
ATOM     43  C   UNL A   1      38.102  30.972  29.565  1.00  0.00     0.029 A 
ATOM     44  C   UNL A   1      38.393  31.454  30.911  1.00  0.00     0.049 A 
ATOM     45  H   UNL A   1      39.878  30.774  32.206  1.00  0.00     0.167 HD
ATOM     46  C   UNL A   1      42.919  29.129  34.887  1.00  0.00     0.037 A 
ATOM     47  C   UNL A   1      37.730  32.442  31.542  1.00  0.00     0.037 A 
ATOM     48  C   UNL A   1      42.340  30.241  35.598  1.00  0.00     0.049 A 
ATOM     49  C   UNL A   1      38.138  32.825  32.938  1.00  0.00     0.074 A 
ATOM     50  C   UNL A   1      42.697  30.753  36.833  1.00  0.00     0.029 A 
ATOM     51  N   UNL A   1      41.268  31.001  35.149  1.00  0.00    -0.354 N 
ATOM     52  N   UNL A   1      39.106  32.335  33.676  1.00  0.00    -0.248 NA
ATOM     53  C   UNL A   1      37.363  33.890  33.589  1.00  0.00     0.031 C 
ATOM     54  C   UNL A   1      41.805  31.780  37.157  1.00  0.00     0.029 A 
ATOM     55  C   UNL A   1      40.926  31.949  36.100  1.00  0.00     0.049 A 
ATOM     56  H   UNL A   1      40.819  30.884  34.280  1.00  0.00     0.167 HD
ATOM     57  C   UNL A   1      39.065  33.041  34.873  1.00  0.00     0.074 A 
ATOM     58  C   UNL A   1      37.991  34.005  34.752  1.00  0.00     0.031 C 
ATOM     59  C   UNL A   1      39.844  32.898  35.973  1.00  0.00     0.037 A 
BRANCH  46  60
ATOM     60  C   UNL A   1      44.012  28.339  35.559  1.00  0.00     0.058 A 
ATOM     61  C   UNL A   1      43.727  27.275  36.431  1.00  0.00     0.135 A 
ATOM     62  C   UNL A   1      45.363  28.635  35.314  1.00  0.00     0.135 A 
ATOM     63  F   UNL A   1      42.454  26.952  36.711  1.00  0.00    -0.206 F 
ATOM     64  C   UNL A   1      44.738  26.565  37.070  1.00  0.00     0.059 A 
ATOM     65  C   UNL A   1      46.392  27.916  35.916  1.00  0.00     0.059 A 
ATOM     66  F   UNL A   1      45.697  29.637  34.486  1.00  0.00    -0.206 F 
ATOM     67  C   UNL A   1      46.069  26.896  36.809  1.00  0.00     0.060 A 
BRANCH  67  68
ATOM     68  S   UNL A   1      47.368  25.978  37.664  1.00  0.00     0.124 S 
ATOM     69  O   UNL A   1      48.182  25.516  36.544  1.00  0.00    -0.237 OA
ATOM     70  O   UNL A   1      47.973  27.007  38.503  1.00  0.00    -0.237 OA
ATOM     71  O   UNL A   1      46.637  24.938  38.379  1.00  0.00    -0.744 OA
ENDBRANCH  67  68
ENDBRANCH  46  60
BRANCH  47  72
ATOM     72  C   UNL A   1      36.615  33.142  30.848  1.00  0.00     0.058 A 
ATOM     73  C   UNL A   1      35.282  32.917  31.222  1.00  0.00     0.135 A 
ATOM     74  C   UNL A   1      36.858  34.076  29.828  1.00  0.00     0.135 A 
ATOM     75  F   UNL A   1      34.997  32.026  32.185  1.00  0.00    -0.206 F 
ATOM     76  C   UNL A   1      34.230  33.590  30.611  1.00  0.00     0.059 A 
ATOM     77  C   UNL A   1      35.824  34.781  29.219  1.00  0.00     0.059 A 
ATOM     78  F   UNL A   1      38.116  34.336  29.441  1.00  0.00    -0.206 F 
ATOM     79  C   UNL A   1      34.512  34.528  29.616  1.00  0.00     0.060 A 
BRANCH  79  80
ATOM     80  S   UNL A   1      33.143  35.450  28.885  1.00  0.00     0.124 S 
ATOM     81  O   UNL A   1      33.849  36.467  28.115  1.00  0.00    -0.237 OA
ATOM     82  O   UNL A   1      32.463  34.418  28.108  1.00  0.00    -0.237 OA
ATOM     83  O   UNL A   1      32.405  35.936  30.048  1.00  0.00    -0.744 OA
ENDBRANCH  79  80
ENDBRANCH  47  72
BRANCH  59  84
ATOM     84  C   UNL A   1      39.567  33.804  37.143  1.00  0.00     0.058 A 
ATOM     85  C   UNL A   1      38.831  33.364  38.253  1.00  0.00     0.135 A 
ATOM     86  C   UNL A   1      40.096  35.105  37.183  1.00  0.00     0.135 A 
ATOM     87  F   UNL A   1      38.292  32.135  38.263  1.00  0.00    -0.206 F 
ATOM     88  C   UNL A   1      38.618  34.185  39.357  1.00  0.00     0.059 A 
ATOM     89  C   UNL A   1      39.922  35.932  38.288  1.00  0.00     0.059 A 
ATOM     90  F   UNL A   1      40.814  35.575  36.150  1.00  0.00    -0.206 F 
ATOM     91  C   UNL A   1      39.176  35.465  39.369  1.00  0.00     0.060 A 
BRANCH  91  92
ATOM     92  S   UNL A   1      38.937  36.495  40.832  1.00  0.00     0.124 S 
ATOM     93  O   UNL A   1      37.886  35.770  41.536  1.00  0.00    -0.237 OA
ATOM     94  O   UNL A   1      40.258  36.461  41.454  1.00  0.00    -0.237 OA
ATOM     95  O   UNL A   1      38.545  37.788  40.278  1.00  0.00    -0.744 OA
ENDBRANCH  91  92
ENDBRANCH  59  84
ENDBRANCH  33  34
ENDBRANCH  25  28
ENDBRANCH  23  24
ENDBRANCH   1  23
TORSDOF 16
ENDMDL
