MODEL 1
REMARK VINA RESULT:     -11.0      0.000      0.000
REMARK SMILES O=C(Cc1ccn(C(F)F)c(=O)c1)NCCCCNC(=O)c1ccc(-c2c3nc(c(-c4c(F)cc(S(=O)(=O)[O-])cc4F)c4ccc([nH]4)c(-c4c(F)cc(S(=O)(=O)[O-])cc4F)c4nc(c(-c5c(F)cc(S(=O)(=O)[O-])cc5F)c5ccc2[nH]5)C=C4)C=C3)cc1
REMARK SMILES IDX 17 1 16 2 15 3 14 4 1 5 2 6 3 8 4 9 5 10 13 11 6 12 11 13
REMARK SMILES IDX 7 14 12 15 8 16 9 17 10 18 18 19 19 20 20 21 21 23 22 24
REMARK SMILES IDX 23 25 87 26 24 27 86 28 25 29 26 30 27 31 80 32 28 33 85 34
REMARK SMILES IDX 79 35 81 36 29 37 84 38 78 39 77 40 30 42 64 43 43 44 63 45
REMARK SMILES IDX 44 46 47 47 62 48 82 49 45 50 46 51 61 53 83 54 48 55 31 56
REMARK SMILES IDX 32 57 41 58 33 59 34 60 40 61 42 62 35 63 36 64 37 65 38 66
REMARK SMILES IDX 39 67 65 68 66 69 75 70 67 71 68 72 74 73 76 74 69 75 70 76
REMARK SMILES IDX 71 77 72 78 73 79 49 80 50 81 59 82 51 83 52 84 58 85 60 86
REMARK SMILES IDX 53 87 54 88 55 89 56 90 57 91
REMARK H PARENT 14 7 19 22 81 41 47 52
REMARK Flexibility Score: inf
ROOT
ATOM      1  C   UNL A   1      40.701  21.648  26.846  1.00  0.00     0.023 C 
ENDROOT
BRANCH   1   2
ATOM      2  C   UNL A   1      41.359  20.331  27.270  1.00  0.00     0.023 C 
BRANCH   2   3
ATOM      3  C   UNL A   1      41.819  19.429  26.125  1.00  0.00     0.116 C 
BRANCH   3   4
ATOM      4  N   UNL A   1      42.918  20.006  25.377  1.00  0.00    -0.356 N 
ATOM      5  O   UNL A   1      44.266  18.143  25.417  1.00  0.00    -0.275 OA
ATOM      6  C   UNL A   1      44.059  19.298  25.059  1.00  0.00     0.224 C 
ATOM      7  H   UNL A   1      42.847  20.942  25.081  1.00  0.00     0.163 HD
BRANCH   6   8
ATOM      8  C   UNL A   1      45.055  20.073  24.201  1.00  0.00     0.135 C 
BRANCH   8   9
ATOM      9  C   UNL A   1      45.140  21.503  24.666  1.00  0.00    -0.032 A 
ATOM     10  C   UNL A   1      44.364  22.506  23.964  1.00  0.00     0.022 A 
ATOM     11  C   UNL A   1      45.896  21.876  25.714  1.00  0.00     0.076 A 
ATOM     12  C   UNL A   1      44.458  23.797  24.307  1.00  0.00     0.095 A 
ATOM     13  C   UNL A   1      45.995  23.306  26.123  1.00  0.00     0.255 A 
ATOM     14  N   UNL A   1      45.269  24.201  25.352  1.00  0.00    -0.258 N 
ATOM     15  O   UNL A   1      46.701  23.592  27.085  1.00  0.00    -0.269 OA
BRANCH  14  16
ATOM     16  C   UNL A   1      45.380  25.597  25.694  1.00  0.00     0.451 C 
ATOM     17  F   UNL A   1      46.558  26.112  25.267  1.00  0.00    -0.185 F 
ATOM     18  F   UNL A   1      44.379  26.314  25.124  1.00  0.00    -0.185 F 
ENDBRANCH  14  16
ENDBRANCH   8   9
ENDBRANCH   6   8
ENDBRANCH   3   4
ENDBRANCH   2   3
ENDBRANCH   1   2
BRANCH   1  19
ATOM     19  C   UNL A   1      41.484  22.915  27.175  1.00  0.00     0.116 C 
BRANCH  19  20
ATOM     20  N   UNL A   1      41.533  23.863  26.073  1.00  0.00    -0.352 N 
ATOM     21  C   UNL A   1      41.424  25.237  26.100  1.00  0.00     0.251 C 
ATOM     22  H   UNL A   1      41.663  23.467  25.181  1.00  0.00     0.163 HD
ATOM     23  O   UNL A   1      41.370  25.867  25.048  1.00  0.00    -0.269 OA
BRANCH  21  24
ATOM     24  C   UNL A   1      41.328  25.948  27.396  1.00  0.00     0.039 A 
ATOM     25  C   UNL A   1      40.188  25.834  28.195  1.00  0.00     0.014 A 
ATOM     26  C   UNL A   1      42.384  26.769  27.803  1.00  0.00     0.014 A 
ATOM     27  C   UNL A   1      40.031  26.672  29.297  1.00  0.00     0.010 A 
ATOM     28  C   UNL A   1      42.255  27.553  28.955  1.00  0.00     0.010 A 
ATOM     29  C   UNL A   1      41.053  27.555  29.680  1.00  0.00    -0.014 A 
BRANCH  29  30
ATOM     30  C   UNL A   1      40.828  28.492  30.816  1.00  0.00     0.031 A 
ATOM     31  C   UNL A   1      41.712  28.442  32.038  1.00  0.00     0.074 A 
ATOM     32  C   UNL A   1      39.869  29.434  30.722  1.00  0.00     0.049 A 
ATOM     33  N   UNL A   1      41.679  29.196  33.108  1.00  0.00    -0.248 NA
ATOM     34  C   UNL A   1      42.769  27.418  32.066  1.00  0.00     0.031 C 
ATOM     35  C   UNL A   1      38.947  29.591  29.595  1.00  0.00     0.029 A 
ATOM     36  N   UNL A   1      39.520  30.449  31.578  1.00  0.00    -0.354 N 
ATOM     37  C   UNL A   1      42.691  28.728  33.940  1.00  0.00     0.074 A 
ATOM     38  C   UNL A   1      43.308  27.609  33.263  1.00  0.00     0.031 C 
ATOM     39  C   UNL A   1      38.169  30.663  29.808  1.00  0.00     0.029 A 
ATOM     40  C   UNL A   1      38.498  31.241  31.107  1.00  0.00     0.049 A 
ATOM     41  H   UNL A   1      39.959  30.598  32.446  1.00  0.00     0.167 HD
ATOM     42  C   UNL A   1      43.081  29.197  35.150  1.00  0.00     0.037 A 
ATOM     43  C   UNL A   1      37.885  32.305  31.660  1.00  0.00     0.037 A 
ATOM     44  C   UNL A   1      42.493  30.334  35.811  1.00  0.00     0.049 A 
ATOM     45  C   UNL A   1      38.324  32.790  33.014  1.00  0.00     0.074 A 
ATOM     46  C   UNL A   1      42.847  30.898  37.024  1.00  0.00     0.029 A 
ATOM     47  N   UNL A   1      41.436  31.081  35.317  1.00  0.00    -0.354 N 
ATOM     48  N   UNL A   1      39.292  32.339  33.775  1.00  0.00    -0.248 NA
ATOM     49  C   UNL A   1      37.584  33.923  33.588  1.00  0.00     0.031 C 
ATOM     50  C   UNL A   1      41.985  31.968  37.278  1.00  0.00     0.029 A 
ATOM     51  C   UNL A   1      41.116  32.092  36.206  1.00  0.00     0.049 A 
ATOM     52  H   UNL A   1      40.980  30.918  34.459  1.00  0.00     0.167 HD
ATOM     53  C   UNL A   1      39.279  33.135  34.914  1.00  0.00     0.074 A 
ATOM     54  C   UNL A   1      38.226  34.112  34.733  1.00  0.00     0.031 C 
ATOM     55  C   UNL A   1      40.066  33.059  36.013  1.00  0.00     0.037 A 
BRANCH  42  56
ATOM     56  C   UNL A   1      44.209  28.496  35.853  1.00  0.00     0.058 A 
ATOM     57  C   UNL A   1      45.543  28.888  35.665  1.00  0.00     0.135 A 
ATOM     58  C   UNL A   1      43.946  27.494  36.800  1.00  0.00     0.135 A 
ATOM     59  F   UNL A   1      45.849  29.829  34.757  1.00  0.00    -0.206 F 
ATOM     60  C   UNL A   1      46.578  28.313  36.394  1.00  0.00     0.059 A 
ATOM     61  C   UNL A   1      44.964  26.917  37.555  1.00  0.00     0.059 A 
ATOM     62  F   UNL A   1      42.686  27.083  37.015  1.00  0.00    -0.206 F 
ATOM     63  C   UNL A   1      46.277  27.333  37.344  1.00  0.00     0.060 A 
BRANCH  63  64
ATOM     64  S   UNL A   1      47.630  26.635  38.314  1.00  0.00     0.124 S 
ATOM     65  O   UNL A   1      47.894  27.712  39.263  1.00  0.00    -0.237 OA
ATOM     66  O   UNL A   1      47.022  25.433  38.874  1.00  0.00    -0.237 OA
ATOM     67  O   UNL A   1      48.675  26.402  37.322  1.00  0.00    -0.744 OA
ENDBRANCH  63  64
ENDBRANCH  42  56
BRANCH  43  68
ATOM     68  C   UNL A   1      36.775  32.978  30.939  1.00  0.00     0.058 A 
ATOM     69  C   UNL A   1      35.437  32.732  31.278  1.00  0.00     0.135 A 
ATOM     70  C   UNL A   1      37.032  33.883  29.898  1.00  0.00     0.135 A 
ATOM     71  F   UNL A   1      35.143  31.868  32.262  1.00  0.00    -0.206 F 
ATOM     72  C   UNL A   1      34.390  33.350  30.603  1.00  0.00     0.059 A 
ATOM     73  C   UNL A   1      36.004  34.533  29.225  1.00  0.00     0.059 A 
ATOM     74  F   UNL A   1      38.297  34.162  29.546  1.00  0.00    -0.206 F 
ATOM     75  C   UNL A   1      34.685  34.251  29.577  1.00  0.00     0.060 A 
BRANCH  75  76
ATOM     76  S   UNL A   1      33.322  35.085  28.736  1.00  0.00     0.124 S 
ATOM     77  O   UNL A   1      32.532  35.562  29.865  1.00  0.00    -0.237 OA
ATOM     78  O   UNL A   1      34.018  36.109  27.964  1.00  0.00    -0.237 OA
ATOM     79  O   UNL A   1      32.716  34.017  27.946  1.00  0.00    -0.744 OA
ENDBRANCH  75  76
ENDBRANCH  43  68
BRANCH  55  80
ATOM     80  C   UNL A   1      39.830  34.060  37.107  1.00  0.00     0.058 A 
ATOM     81  C   UNL A   1      38.997  33.766  38.197  1.00  0.00     0.135 A 
ATOM     82  C   UNL A   1      40.492  35.298  37.099  1.00  0.00     0.135 A 
ATOM     83  F   UNL A   1      38.338  32.598  38.247  1.00  0.00    -0.206 F 
ATOM     84  C   UNL A   1      38.819  34.671  39.238  1.00  0.00     0.059 A 
ATOM     85  C   UNL A   1      40.345  36.209  38.139  1.00  0.00     0.059 A 
ATOM     86  F   UNL A   1      41.306  35.622  36.081  1.00  0.00    -0.206 F 
ATOM     87  C   UNL A   1      39.499  35.889  39.201  1.00  0.00     0.060 A 
BRANCH  87  88
ATOM     88  S   UNL A   1      39.293  37.036  40.580  1.00  0.00     0.124 S 
ATOM     89  O   UNL A   1      40.680  37.334  40.922  1.00  0.00    -0.237 OA
ATOM     90  O   UNL A   1      38.541  38.128  39.970  1.00  0.00    -0.237 OA
ATOM     91  O   UNL A   1      38.557  36.251  41.567  1.00  0.00    -0.744 OA
ENDBRANCH  87  88
ENDBRANCH  55  80
ENDBRANCH  29  30
ENDBRANCH  21  24
ENDBRANCH  19  20
ENDBRANCH   1  19
TORSDOF 16
ENDMDL
MODEL 2
REMARK VINA RESULT:     -11.0      1.512      2.934
REMARK SMILES O=C(Cc1ccn(C(F)F)c(=O)c1)NCCCCNC(=O)c1ccc(-c2c3nc(c(-c4c(F)cc(S(=O)(=O)[O-])cc4F)c4ccc([nH]4)c(-c4c(F)cc(S(=O)(=O)[O-])cc4F)c4nc(c(-c5c(F)cc(S(=O)(=O)[O-])cc5F)c5ccc2[nH]5)C=C4)C=C3)cc1
REMARK SMILES IDX 17 1 16 2 15 3 14 4 1 5 2 6 3 8 4 9 5 10 13 11 6 12 11 13
REMARK SMILES IDX 7 14 12 15 8 16 9 17 10 18 18 19 19 20 20 21 21 23 22 24
REMARK SMILES IDX 23 25 87 26 24 27 86 28 25 29 26 30 27 31 80 32 28 33 85 34
REMARK SMILES IDX 79 35 81 36 29 37 84 38 78 39 77 40 30 42 64 43 43 44 63 45
REMARK SMILES IDX 44 46 47 47 62 48 82 49 45 50 46 51 61 53 83 54 48 55 31 56
REMARK SMILES IDX 32 57 41 58 33 59 34 60 40 61 42 62 35 63 36 64 37 65 38 66
REMARK SMILES IDX 39 67 65 68 66 69 75 70 67 71 68 72 74 73 76 74 69 75 70 76
REMARK SMILES IDX 71 77 72 78 73 79 49 80 50 81 59 82 51 83 52 84 58 85 60 86
REMARK SMILES IDX 53 87 54 88 55 89 56 90 57 91
REMARK H PARENT 14 7 19 22 81 41 47 52
REMARK Flexibility Score: inf
ROOT
ATOM      1  C   UNL A   1      43.426  26.375  25.002  1.00  0.00     0.023 C 
ENDROOT
BRANCH   1   2
ATOM      2  C   UNL A   1      44.462  26.903  25.999  1.00  0.00     0.023 C 
BRANCH   2   3
ATOM      3  C   UNL A   1      45.812  26.186  25.983  1.00  0.00     0.116 C 
BRANCH   3   4
ATOM      4  N   UNL A   1      45.827  25.058  25.074  1.00  0.00    -0.356 N 
ATOM      5  O   UNL A   1      46.777  23.558  26.535  1.00  0.00    -0.275 OA
ATOM      6  C   UNL A   1      46.294  23.812  25.436  1.00  0.00     0.224 C 
ATOM      7  H   UNL A   1      45.488  25.186  24.158  1.00  0.00     0.163 HD
BRANCH   6   8
ATOM      8  C   UNL A   1      46.147  22.750  24.349  1.00  0.00     0.135 C 
BRANCH   8   9
ATOM      9  C   UNL A   1      45.148  21.705  24.775  1.00  0.00    -0.032 A 
ATOM     10  C   UNL A   1      43.856  22.142  25.265  1.00  0.00     0.022 A 
ATOM     11  C   UNL A   1      45.409  20.388  24.700  1.00  0.00     0.076 A 
ATOM     12  C   UNL A   1      42.964  21.248  25.709  1.00  0.00     0.095 A 
ATOM     13  C   UNL A   1      44.418  19.379  25.170  1.00  0.00     0.255 A 
ATOM     14  N   UNL A   1      43.237  19.893  25.684  1.00  0.00    -0.258 N 
ATOM     15  O   UNL A   1      44.706  18.189  25.082  1.00  0.00    -0.269 OA
BRANCH  14  16
ATOM     16  C   UNL A   1      42.276  18.944  26.188  1.00  0.00     0.451 C 
ATOM     17  F   UNL A   1      42.381  18.813  27.533  1.00  0.00    -0.185 F 
ATOM     18  F   UNL A   1      41.011  19.341  25.903  1.00  0.00    -0.185 F 
ENDBRANCH  14  16
ENDBRANCH   8   9
ENDBRANCH   6   8
ENDBRANCH   3   4
ENDBRANCH   2   3
ENDBRANCH   1   2
BRANCH   1  19
ATOM     19  C   UNL A   1      41.966  26.610  25.377  1.00  0.00     0.116 C 
BRANCH  19  20
ATOM     20  N   UNL A   1      41.205  25.380  25.530  1.00  0.00    -0.352 N 
ATOM     21  C   UNL A   1      40.583  24.874  26.650  1.00  0.00     0.251 C 
ATOM     22  H   UNL A   1      41.123  24.831  24.716  1.00  0.00     0.163 HD
ATOM     23  O   UNL A   1      40.084  23.753  26.619  1.00  0.00    -0.269 OA
BRANCH  21  24
ATOM     24  C   UNL A   1      40.555  25.663  27.904  1.00  0.00     0.039 A 
ATOM     25  C   UNL A   1      39.391  25.753  28.671  1.00  0.00     0.014 A 
ATOM     26  C   UNL A   1      41.705  26.352  28.301  1.00  0.00     0.014 A 
ATOM     27  C   UNL A   1      39.325  26.665  29.722  1.00  0.00     0.010 A 
ATOM     28  C   UNL A   1      41.658  27.209  29.406  1.00  0.00     0.010 A 
ATOM     29  C   UNL A   1      40.451  27.419  30.090  1.00  0.00    -0.014 A 
BRANCH  29  30
ATOM     30  C   UNL A   1      40.331  28.440  31.168  1.00  0.00     0.031 A 
ATOM     31  C   UNL A   1      41.253  28.407  32.363  1.00  0.00     0.074 A 
ATOM     32  C   UNL A   1      39.435  29.439  31.042  1.00  0.00     0.049 A 
ATOM     33  N   UNL A   1      41.310  29.228  33.380  1.00  0.00    -0.248 NA
ATOM     34  C   UNL A   1      42.238  27.314  32.425  1.00  0.00     0.031 C 
ATOM     35  C   UNL A   1      38.487  29.588  29.936  1.00  0.00     0.029 A 
ATOM     36  N   UNL A   1      39.187  30.529  31.838  1.00  0.00    -0.354 N 
ATOM     37  C   UNL A   1      42.316  28.744  34.210  1.00  0.00     0.074 A 
ATOM     38  C   UNL A   1      42.831  27.543  33.589  1.00  0.00     0.031 C 
ATOM     39  C   UNL A   1      37.792  30.723  30.101  1.00  0.00     0.029 A 
ATOM     40  C   UNL A   1      38.206  31.359  31.348  1.00  0.00     0.049 A 
ATOM     41  H   UNL A   1      39.667  30.702  32.681  1.00  0.00     0.167 HD
ATOM     42  C   UNL A   1      42.780  29.261  35.373  1.00  0.00     0.037 A 
ATOM     43  C   UNL A   1      37.687  32.497  31.849  1.00  0.00     0.037 A 
ATOM     44  C   UNL A   1      42.295  30.476  35.975  1.00  0.00     0.049 A 
ATOM     45  C   UNL A   1      38.207  33.035  33.152  1.00  0.00     0.074 A 
ATOM     46  C   UNL A   1      42.730  31.091  37.137  1.00  0.00     0.029 A 
ATOM     47  N   UNL A   1      41.275  31.263  35.465  1.00  0.00    -0.354 N 
ATOM     48  N   UNL A   1      39.167  32.567  33.911  1.00  0.00    -0.248 NA
ATOM     49  C   UNL A   1      37.566  34.253  33.672  1.00  0.00     0.031 C 
ATOM     50  C   UNL A   1      41.952  32.233  37.346  1.00  0.00     0.029 A 
ATOM     51  C   UNL A   1      41.057  32.349  36.296  1.00  0.00     0.049 A 
ATOM     52  H   UNL A   1      40.779  31.078  34.636  1.00  0.00     0.167 HD
ATOM     53  C   UNL A   1      39.250  33.434  34.995  1.00  0.00     0.074 A 
ATOM     54  C   UNL A   1      38.260  34.469  34.782  1.00  0.00     0.031 C 
ATOM     55  C   UNL A   1      40.069  33.373  36.072  1.00  0.00     0.037 A 
BRANCH  42  56
ATOM     56  C   UNL A   1      43.883  28.529  36.086  1.00  0.00     0.058 A 
ATOM     57  C   UNL A   1      43.616  27.410  36.889  1.00  0.00     0.135 A 
ATOM     58  C   UNL A   1      45.225  28.888  35.881  1.00  0.00     0.135 A 
ATOM     59  F   UNL A   1      42.349  27.037  37.130  1.00  0.00    -0.206 F 
ATOM     60  C   UNL A   1      44.643  26.668  37.462  1.00  0.00     0.059 A 
ATOM     61  C   UNL A   1      46.269  28.148  36.429  1.00  0.00     0.059 A 
ATOM     62  F   UNL A   1      45.531  29.952  35.122  1.00  0.00    -0.206 F 
ATOM     63  C   UNL A   1      45.968  27.041  37.220  1.00  0.00     0.060 A 
BRANCH  63  64
ATOM     64  S   UNL A   1      47.287  26.035  37.933  1.00  0.00     0.124 S 
ATOM     65  O   UNL A   1      47.253  26.458  39.330  1.00  0.00    -0.237 OA
ATOM     66  O   UNL A   1      46.818  24.678  37.671  1.00  0.00    -0.237 OA
ATOM     67  O   UNL A   1      48.470  26.443  37.183  1.00  0.00    -0.744 OA
ENDBRANCH  63  64
ENDBRANCH  42  56
BRANCH  43  68
ATOM     68  C   UNL A   1      36.600  33.198  31.118  1.00  0.00     0.058 A 
ATOM     69  C   UNL A   1      35.267  33.108  31.544  1.00  0.00     0.135 A 
ATOM     70  C   UNL A   1      36.876  33.976  29.984  1.00  0.00     0.135 A 
ATOM     71  F   UNL A   1      34.956  32.370  32.620  1.00  0.00    -0.206 F 
ATOM     72  C   UNL A   1      34.242  33.754  30.863  1.00  0.00     0.059 A 
ATOM     73  C   UNL A   1      35.872  34.652  29.300  1.00  0.00     0.059 A 
ATOM     74  F   UNL A   1      38.138  34.105  29.546  1.00  0.00    -0.206 F 
ATOM     75  C   UNL A   1      34.555  34.525  29.741  1.00  0.00     0.060 A 
BRANCH  75  76
ATOM     76  S   UNL A   1      33.224  35.399  28.889  1.00  0.00     0.124 S 
ATOM     77  O   UNL A   1      33.972  36.360  28.088  1.00  0.00    -0.237 OA
ATOM     78  O   UNL A   1      32.572  34.321  28.152  1.00  0.00    -0.237 OA
ATOM     79  O   UNL A   1      32.441  35.962  29.985  1.00  0.00    -0.744 OA
ENDBRANCH  75  76
ENDBRANCH  43  68
BRANCH  55  80
ATOM     80  C   UNL A   1      39.941  34.456  37.103  1.00  0.00     0.058 A 
ATOM     81  C   UNL A   1      40.644  35.664  36.983  1.00  0.00     0.135 A 
ATOM     82  C   UNL A   1      39.058  34.312  38.186  1.00  0.00     0.135 A 
ATOM     83  F   UNL A   1      41.504  35.846  35.969  1.00  0.00    -0.206 F 
ATOM     84  C   UNL A   1      40.486  36.690  37.909  1.00  0.00     0.059 A 
ATOM     85  C   UNL A   1      38.868  35.332  39.111  1.00  0.00     0.059 A 
ATOM     86  F   UNL A   1      38.356  33.177  38.339  1.00  0.00    -0.206 F 
ATOM     87  C   UNL A   1      39.594  36.515  38.968  1.00  0.00     0.060 A 
BRANCH  87  88
ATOM     88  S   UNL A   1      39.365  37.872  40.138  1.00  0.00     0.124 S 
ATOM     89  O   UNL A   1      40.631  38.586  40.009  1.00  0.00    -0.237 OA
ATOM     90  O   UNL A   1      38.194  38.556  39.598  1.00  0.00    -0.237 OA
ATOM     91  O   UNL A   1      39.154  37.190  41.411  1.00  0.00    -0.744 OA
ENDBRANCH  87  88
ENDBRANCH  55  80
ENDBRANCH  29  30
ENDBRANCH  21  24
ENDBRANCH  19  20
ENDBRANCH   1  19
TORSDOF 16
ENDMDL
MODEL 3
REMARK VINA RESULT:     -10.9      3.083      4.505
REMARK SMILES O=C(Cc1ccn(C(F)F)c(=O)c1)NCCCCNC(=O)c1ccc(-c2c3nc(c(-c4c(F)cc(S(=O)(=O)[O-])cc4F)c4ccc([nH]4)c(-c4c(F)cc(S(=O)(=O)[O-])cc4F)c4nc(c(-c5c(F)cc(S(=O)(=O)[O-])cc5F)c5ccc2[nH]5)C=C4)C=C3)cc1
REMARK SMILES IDX 17 1 16 2 15 3 14 4 1 5 2 6 3 8 4 9 5 10 13 11 6 12 11 13
REMARK SMILES IDX 7 14 12 15 8 16 9 17 10 18 18 19 19 20 20 21 21 23 22 24
REMARK SMILES IDX 23 25 87 26 24 27 86 28 25 29 26 30 27 31 80 32 28 33 85 34
REMARK SMILES IDX 79 35 81 36 29 37 84 38 78 39 77 40 30 42 64 43 43 44 63 45
REMARK SMILES IDX 44 46 47 47 62 48 82 49 45 50 46 51 61 53 83 54 48 55 31 56
REMARK SMILES IDX 32 57 41 58 33 59 34 60 40 61 42 62 35 63 36 64 37 65 38 66
REMARK SMILES IDX 39 67 65 68 66 69 75 70 67 71 68 72 74 73 76 74 69 75 70 76
REMARK SMILES IDX 71 77 72 78 73 79 49 80 50 81 59 82 51 83 52 84 58 85 60 86
REMARK SMILES IDX 53 87 54 88 55 89 56 90 57 91
REMARK H PARENT 14 7 19 22 81 41 47 52
REMARK Flexibility Score: inf
ROOT
ATOM      1  C   UNL A   1      42.821  22.253  27.238  1.00  0.00     0.023 C 
ENDROOT
BRANCH   1   2
ATOM      2  C   UNL A   1      41.706  21.719  26.334  1.00  0.00     0.023 C 
BRANCH   2   3
ATOM      3  C   UNL A   1      40.360  21.486  27.019  1.00  0.00     0.116 C 
BRANCH   3   4
ATOM      4  N   UNL A   1      39.421  22.561  26.768  1.00  0.00    -0.356 N 
ATOM      5  O   UNL A   1      38.196  21.466  25.157  1.00  0.00    -0.275 OA
ATOM      6  C   UNL A   1      38.387  22.454  25.861  1.00  0.00     0.224 C 
ATOM      7  H   UNL A   1      39.524  23.403  27.266  1.00  0.00     0.163 HD
BRANCH   6   8
ATOM      8  C   UNL A   1      37.472  23.674  25.810  1.00  0.00     0.135 C 
BRANCH   8   9
ATOM      9  C   UNL A   1      36.132  23.297  25.234  1.00  0.00    -0.032 A 
ATOM     10  C   UNL A   1      35.176  22.625  26.092  1.00  0.00     0.022 A 
ATOM     11  C   UNL A   1      35.790  23.575  23.964  1.00  0.00     0.076 A 
ATOM     12  C   UNL A   1      33.997  22.219  25.602  1.00  0.00     0.095 A 
ATOM     13  C   UNL A   1      34.473  23.149  23.410  1.00  0.00     0.255 A 
ATOM     14  N   UNL A   1      33.651  22.454  24.284  1.00  0.00    -0.258 N 
ATOM     15  O   UNL A   1      34.211  23.426  22.243  1.00  0.00    -0.269 OA
BRANCH  14  16
ATOM     16  C   UNL A   1      32.390  21.990  23.766  1.00  0.00     0.451 C 
ATOM     17  F   UNL A   1      32.545  20.844  23.059  1.00  0.00    -0.185 F 
ATOM     18  F   UNL A   1      31.514  21.745  24.772  1.00  0.00    -0.185 F 
ENDBRANCH  14  16
ENDBRANCH   8   9
ENDBRANCH   6   8
ENDBRANCH   3   4
ENDBRANCH   2   3
ENDBRANCH   1   2
BRANCH   1  19
ATOM     19  C   UNL A   1      43.404  23.605  26.842  1.00  0.00     0.116 C 
BRANCH  19  20
ATOM     20  N   UNL A   1      42.619  24.298  25.831  1.00  0.00    -0.352 N 
ATOM     21  C   UNL A   1      41.799  25.397  25.967  1.00  0.00     0.251 C 
ATOM     22  H   UNL A   1      42.683  23.928  24.921  1.00  0.00     0.163 HD
ATOM     23  O   UNL A   1      41.118  25.773  25.017  1.00  0.00    -0.269 OA
BRANCH  21  24
ATOM     24  C   UNL A   1      41.707  26.098  27.269  1.00  0.00     0.039 A 
ATOM     25  C   UNL A   1      40.741  25.738  28.212  1.00  0.00     0.014 A 
ATOM     26  C   UNL A   1      42.582  27.155  27.538  1.00  0.00     0.014 A 
ATOM     27  C   UNL A   1      40.535  26.542  29.331  1.00  0.00     0.010 A 
ATOM     28  C   UNL A   1      42.422  27.914  28.703  1.00  0.00     0.010 A 
ATOM     29  C   UNL A   1      41.359  27.651  29.580  1.00  0.00    -0.014 A 
BRANCH  29  30
ATOM     30  C   UNL A   1      41.069  28.536  30.743  1.00  0.00     0.031 A 
ATOM     31  C   UNL A   1      41.929  28.483  31.982  1.00  0.00     0.074 A 
ATOM     32  C   UNL A   1      40.070  29.436  30.661  1.00  0.00     0.049 A 
ATOM     33  N   UNL A   1      41.840  29.196  33.076  1.00  0.00    -0.248 NA
ATOM     34  C   UNL A   1      43.031  27.506  31.997  1.00  0.00     0.031 C 
ATOM     35  C   UNL A   1      39.165  29.591  29.520  1.00  0.00     0.029 A 
ATOM     36  N   UNL A   1      39.657  30.404  31.542  1.00  0.00    -0.354 N 
ATOM     37  C   UNL A   1      42.855  28.744  33.913  1.00  0.00     0.074 A 
ATOM     38  C   UNL A   1      43.536  27.679  33.211  1.00  0.00     0.031 C 
ATOM     39  C   UNL A   1      38.335  30.619  29.752  1.00  0.00     0.029 A 
ATOM     40  C   UNL A   1      38.611  31.166  31.077  1.00  0.00     0.049 A 
ATOM     41  H   UNL A   1      40.072  30.542  32.425  1.00  0.00     0.167 HD
ATOM     42  C   UNL A   1      43.198  29.187  35.146  1.00  0.00     0.037 A 
ATOM     43  C   UNL A   1      37.939  32.181  31.653  1.00  0.00     0.037 A 
ATOM     44  C   UNL A   1      42.546  30.272  35.833  1.00  0.00     0.049 A 
ATOM     45  C   UNL A   1      38.328  32.637  33.031  1.00  0.00     0.074 A 
ATOM     46  C   UNL A   1      42.849  30.809  37.073  1.00  0.00     0.029 A 
ATOM     47  N   UNL A   1      41.467  30.989  35.342  1.00  0.00    -0.354 N 
ATOM     48  N   UNL A   1      39.299  32.203  33.798  1.00  0.00    -0.248 NA
ATOM     49  C   UNL A   1      37.525  33.715  33.627  1.00  0.00     0.031 C 
ATOM     50  C   UNL A   1      41.934  31.830  37.344  1.00  0.00     0.029 A 
ATOM     51  C   UNL A   1      41.083  31.953  36.259  1.00  0.00     0.049 A 
ATOM     52  H   UNL A   1      41.036  30.836  34.470  1.00  0.00     0.167 HD
ATOM     53  C   UNL A   1      39.227  32.957  34.963  1.00  0.00     0.074 A 
ATOM     54  C   UNL A   1      38.135  33.892  34.793  1.00  0.00     0.031 C 
ATOM     55  C   UNL A   1      39.994  32.877  36.076  1.00  0.00     0.037 A 
BRANCH  42  56
ATOM     56  C   UNL A   1      44.343  28.513  35.850  1.00  0.00     0.058 A 
ATOM     57  C   UNL A   1      45.666  28.944  35.670  1.00  0.00     0.135 A 
ATOM     58  C   UNL A   1      44.104  27.498  36.789  1.00  0.00     0.135 A 
ATOM     59  F   UNL A   1      45.950  29.900  34.771  1.00  0.00    -0.206 F 
ATOM     60  C   UNL A   1      46.714  28.393  36.400  1.00  0.00     0.059 A 
ATOM     61  C   UNL A   1      45.134  26.944  37.544  1.00  0.00     0.059 A 
ATOM     62  F   UNL A   1      42.855  27.050  36.996  1.00  0.00    -0.206 F 
ATOM     63  C   UNL A   1      46.436  27.398  37.342  1.00  0.00     0.060 A 
BRANCH  63  64
ATOM     64  S   UNL A   1      47.804  26.731  38.313  1.00  0.00     0.124 S 
ATOM     65  O   UNL A   1      48.958  27.204  37.555  1.00  0.00    -0.237 OA
ATOM     66  O   UNL A   1      47.598  27.361  39.613  1.00  0.00    -0.237 OA
ATOM     67  O   UNL A   1      47.577  25.290  38.275  1.00  0.00    -0.744 OA
ENDBRANCH  63  64
ENDBRANCH  42  56
BRANCH  43  68
ATOM     68  C   UNL A   1      36.814  32.828  30.930  1.00  0.00     0.058 A 
ATOM     69  C   UNL A   1      37.050  33.790  29.938  1.00  0.00     0.135 A 
ATOM     70  C   UNL A   1      35.482  32.493  31.216  1.00  0.00     0.135 A 
ATOM     71  F   UNL A   1      38.308  34.147  29.636  1.00  0.00    -0.206 F 
ATOM     72  C   UNL A   1      36.005  34.408  29.261  1.00  0.00     0.059 A 
ATOM     73  C   UNL A   1      34.420  33.078  30.536  1.00  0.00     0.059 A 
ATOM     74  F   UNL A   1      35.206  31.567  32.147  1.00  0.00    -0.206 F 
ATOM     75  C   UNL A   1      34.691  34.044  29.568  1.00  0.00     0.060 A 
BRANCH  75  76
ATOM     76  S   UNL A   1      33.340  34.818  28.653  1.00  0.00     0.124 S 
ATOM     77  O   UNL A   1      32.894  33.718  27.806  1.00  0.00    -0.237 OA
ATOM     78  O   UNL A   1      32.429  35.211  29.723  1.00  0.00    -0.237 OA
ATOM     79  O   UNL A   1      33.997  35.923  27.961  1.00  0.00    -0.744 OA
ENDBRANCH  75  76
ENDBRANCH  43  68
BRANCH  55  80
ATOM     80  C   UNL A   1      39.690  33.828  37.198  1.00  0.00     0.058 A 
ATOM     81  C   UNL A   1      38.861  33.454  38.266  1.00  0.00     0.135 A 
ATOM     82  C   UNL A   1      40.285  35.099  37.239  1.00  0.00     0.135 A 
ATOM     83  F   UNL A   1      38.264  32.251  38.268  1.00  0.00    -0.206 F 
ATOM     84  C   UNL A   1      38.621  34.313  39.332  1.00  0.00     0.059 A 
ATOM     85  C   UNL A   1      40.076  35.966  38.306  1.00  0.00     0.059 A 
ATOM     86  F   UNL A   1      41.094  35.499  36.245  1.00  0.00    -0.206 F 
ATOM     87  C   UNL A   1      39.235  35.566  39.345  1.00  0.00     0.060 A 
BRANCH  87  88
ATOM     88  S   UNL A   1      38.950  36.654  40.758  1.00  0.00     0.124 S 
ATOM     89  O   UNL A   1      40.305  36.832  41.268  1.00  0.00    -0.237 OA
ATOM     90  O   UNL A   1      38.348  37.828  40.132  1.00  0.00    -0.237 OA
ATOM     91  O   UNL A   1      38.054  35.877  41.609  1.00  0.00    -0.744 OA
ENDBRANCH  87  88
ENDBRANCH  55  80
ENDBRANCH  29  30
ENDBRANCH  21  24
ENDBRANCH  19  20
ENDBRANCH   1  19
TORSDOF 16
ENDMDL
