MODEL 1
REMARK VINA RESULT:     -13.0      0.000      0.000
REMARK SMILES CNS(=O)(=O)c1ccc([C@H]2CC(=O)Nc3cc(O)c(C(=O)NCCCCNC(=O)c4ccc(-c5c6nc(c(-c7c(F)cc(S(=O)(=O)[O-])cc7F)c7ccc([nH]7)c(-c7c(F)cc(S(=O)(=O)[O-])cc7F)c7nc(c(-c8c(F)cc(S(=O)(=O)[O-])cc8F)c8ccc5[nH]8)C=C7)C=C6)cc4)cc32)cc1
REMARK SMILES IDX 24 1 23 2 22 3 20 4 21 5 19 7 10 8 11 9 97 10 12 11 15 12
REMARK SMILES IDX 96 13 13 14 14 15 16 16 17 18 9 19 6 20 7 21 99 22 8 23
REMARK SMILES IDX 98 24 3 25 4 26 5 27 2 28 1 29 18 31 25 33 26 34 27 35 28 36
REMARK SMILES IDX 29 38 30 39 31 40 95 41 32 42 94 43 33 44 34 45 35 46 88 47
REMARK SMILES IDX 36 48 93 49 87 50 89 51 37 52 92 53 86 54 85 55 38 57 72 58
REMARK SMILES IDX 51 59 71 60 52 61 55 62 70 63 90 64 53 65 54 66 69 68 91 69
REMARK SMILES IDX 56 70 39 71 40 72 49 73 41 74 42 75 48 76 50 77 43 78 44 79
REMARK SMILES IDX 45 80 46 81 47 82 73 83 74 84 83 85 75 86 76 87 82 88 84 89
REMARK SMILES IDX 77 90 78 91 79 92 80 93 81 94 57 95 58 96 67 97 59 98 60 99
REMARK SMILES IDX 66 100 68 101 61 102 62 103 63 104 64 105 65 106
REMARK H PARENT 22 6 14 17 2 30 18 32 27 37 89 56 55 67
REMARK Flexibility Score: inf
ROOT
ATOM      1  C   UNL A   1      38.954  22.877  26.380  1.00  0.00     0.023 C 
ENDROOT
BRANCH   1   2
ATOM      2  C   UNL A   1      38.119  21.884  25.576  1.00  0.00     0.116 C 
BRANCH   2   3
ATOM      3  N   UNL A   1      37.555  22.479  24.382  1.00  0.00    -0.352 N 
ATOM      4  C   UNL A   1      36.302  22.774  23.931  1.00  0.00     0.255 C 
ATOM      5  O   UNL A   1      36.242  23.178  22.761  1.00  0.00    -0.269 OA
ATOM      6  H   UNL A   1      38.251  22.733  23.733  1.00  0.00     0.163 HD
BRANCH   4   7
ATOM      7  C   UNL A   1      35.013  22.661  24.681  1.00  0.00     0.082 A 
ATOM      8  C   UNL A   1      32.075  24.723  26.137  1.00  0.00     0.061 C 
ATOM      9  C   UNL A   1      30.920  24.283  27.075  1.00  0.00     0.113 C 
ATOM     10  C   UNL A   1      32.939  23.544  25.697  1.00  0.00    -0.015 A 
ATOM     11  C   UNL A   1      30.362  22.909  26.840  1.00  0.00     0.225 C 
ATOM     12  C   UNL A   1      32.493  22.233  25.883  1.00  0.00     0.048 A 
ATOM     13  C   UNL A   1      34.204  23.740  25.087  1.00  0.00     0.024 A 
ATOM     14  O   UNL A   1      29.215  22.604  27.162  1.00  0.00    -0.275 OA
ATOM     15  N   UNL A   1      31.226  21.967  26.388  1.00  0.00    -0.326 N 
ATOM     16  C   UNL A   1      33.277  21.148  25.508  1.00  0.00     0.073 A 
ATOM     17  H   UNL A   1      30.935  21.026  26.420  1.00  0.00     0.169 HD
ATOM     18  C   UNL A   1      34.513  21.362  24.909  1.00  0.00     0.130 A 
BRANCH   8  19
ATOM     19  C   UNL A   1      31.543  25.677  25.057  1.00  0.00    -0.040 A 
ATOM     20  C   UNL A   1      30.453  27.703  23.439  1.00  0.00     0.082 A 
ATOM     21  C   UNL A   1      31.615  27.948  24.162  1.00  0.00     0.022 A 
ATOM     22  C   UNL A   1      29.895  26.423  23.420  1.00  0.00     0.022 A 
ATOM     23  C   UNL A   1      32.187  26.924  24.909  1.00  0.00     0.006 A 
ATOM     24  C   UNL A   1      30.429  25.420  24.243  1.00  0.00     0.006 A 
BRANCH  20  25
ATOM     25  S   UNL A   1      29.579  29.075  22.730  1.00  0.00     0.240 S 
ATOM     26  O   UNL A   1      28.159  28.777  22.808  1.00  0.00    -0.207 OA
ATOM     27  O   UNL A   1      30.207  29.414  21.480  1.00  0.00    -0.207 OA
BRANCH  25  28
ATOM     28  N   UNL A   1      29.907  30.356  23.764  1.00  0.00    -0.214 NA
ATOM     29  C   UNL A   1      28.996  31.491  23.832  1.00  0.00     0.120 C 
ATOM     30  H   UNL A   1      29.964  29.967  24.706  1.00  0.00     0.141 HD
ENDBRANCH  25  28
ENDBRANCH  20  25
ENDBRANCH   8  19
BRANCH  18  31
ATOM     31  O   UNL A   1      35.163  20.211  24.535  1.00  0.00    -0.507 OA
ATOM     32  H   UNL A   1      35.163  19.468  25.105  1.00  0.00     0.293 HD
ENDBRANCH  18  31
ENDBRANCH   4   7
ENDBRANCH   2   3
ENDBRANCH   1   2
BRANCH   1  33
ATOM     33  C   UNL A   1      40.118  22.269  27.168  1.00  0.00     0.023 C 
BRANCH  33  34
ATOM     34  C   UNL A   1      41.365  23.139  27.300  1.00  0.00     0.116 C 
BRANCH  34  35
ATOM     35  N   UNL A   1      41.614  23.971  26.133  1.00  0.00    -0.352 N 
ATOM     36  C   UNL A   1      41.663  25.342  26.039  1.00  0.00     0.251 C 
ATOM     37  H   UNL A   1      41.769  23.484  25.292  1.00  0.00     0.163 HD
ATOM     38  O   UNL A   1      41.785  25.873  24.939  1.00  0.00    -0.269 OA
BRANCH  36  39
ATOM     39  C   UNL A   1      41.536  26.170  27.257  1.00  0.00     0.039 A 
ATOM     40  C   UNL A   1      42.537  27.101  27.546  1.00  0.00     0.014 A 
ATOM     41  C   UNL A   1      40.431  26.039  28.104  1.00  0.00     0.014 A 
ATOM     42  C   UNL A   1      42.397  27.950  28.646  1.00  0.00     0.010 A 
ATOM     43  C   UNL A   1      40.263  26.928  29.162  1.00  0.00     0.010 A 
ATOM     44  C   UNL A   1      41.241  27.894  29.443  1.00  0.00    -0.014 A 
BRANCH  44  45
ATOM     45  C   UNL A   1      41.035  28.836  30.572  1.00  0.00     0.031 A 
ATOM     46  C   UNL A   1      41.867  28.714  31.819  1.00  0.00     0.074 A 
ATOM     47  C   UNL A   1      40.049  29.753  30.505  1.00  0.00     0.049 A 
ATOM     48  N   UNL A   1      41.779  29.381  32.940  1.00  0.00    -0.248 NA
ATOM     49  C   UNL A   1      42.920  27.686  31.812  1.00  0.00     0.031 C 
ATOM     50  C   UNL A   1      39.144  29.940  29.368  1.00  0.00     0.029 A 
ATOM     51  N   UNL A   1      39.632  30.690  31.416  1.00  0.00    -0.354 N 
ATOM     52  C   UNL A   1      42.750  28.843  33.777  1.00  0.00     0.074 A 
ATOM     53  C   UNL A   1      43.381  27.762  33.052  1.00  0.00     0.031 C 
ATOM     54  C   UNL A   1      38.293  30.941  29.643  1.00  0.00     0.029 A 
ATOM     55  C   UNL A   1      38.563  31.441  30.988  1.00  0.00     0.049 A 
ATOM     56  H   UNL A   1      40.059  30.812  32.295  1.00  0.00     0.167 HD
ATOM     57  C   UNL A   1      43.098  29.229  35.029  1.00  0.00     0.037 A 
ATOM     58  C   UNL A   1      37.872  32.416  31.611  1.00  0.00     0.037 A 
ATOM     59  C   UNL A   1      42.482  30.322  35.735  1.00  0.00     0.049 A 
ATOM     60  C   UNL A   1      38.276  32.828  33.001  1.00  0.00     0.074 A 
ATOM     61  C   UNL A   1      42.804  30.832  36.981  1.00  0.00     0.029 A 
ATOM     62  N   UNL A   1      41.416  31.072  35.260  1.00  0.00    -0.354 N 
ATOM     63  N   UNL A   1      39.237  32.349  33.755  1.00  0.00    -0.248 NA
ATOM     64  C   UNL A   1      37.504  33.912  33.623  1.00  0.00     0.031 C 
ATOM     65  C   UNL A   1      41.904  31.862  37.277  1.00  0.00     0.029 A 
ATOM     66  C   UNL A   1      41.052  32.027  36.195  1.00  0.00     0.049 A 
ATOM     67  H   UNL A   1      40.981  30.945  34.386  1.00  0.00     0.167 HD
ATOM     68  C   UNL A   1      39.202  33.091  34.930  1.00  0.00     0.074 A 
ATOM     69  C   UNL A   1      38.132  34.057  34.782  1.00  0.00     0.031 C 
ATOM     70  C   UNL A   1      39.985  32.983  36.032  1.00  0.00     0.037 A 
BRANCH  57  71
ATOM     71  C   UNL A   1      44.197  28.460  35.711  1.00  0.00     0.058 A 
ATOM     72  C   UNL A   1      43.920  27.374  36.557  1.00  0.00     0.135 A 
ATOM     73  C   UNL A   1      45.543  28.801  35.505  1.00  0.00     0.135 A 
ATOM     74  F   UNL A   1      42.650  27.013  36.802  1.00  0.00    -0.206 F 
ATOM     75  C   UNL A   1      44.936  26.679  37.205  1.00  0.00     0.059 A 
ATOM     76  C   UNL A   1      46.577  28.101  36.120  1.00  0.00     0.059 A 
ATOM     77  F   UNL A   1      45.866  29.829  34.704  1.00  0.00    -0.206 F 
ATOM     78  C   UNL A   1      46.262  27.053  36.985  1.00  0.00     0.060 A 
BRANCH  78  79
ATOM     79  S   UNL A   1      47.568  26.151  37.844  1.00  0.00     0.124 S 
ATOM     80  O   UNL A   1      48.704  26.368  36.953  1.00  0.00    -0.237 OA
ATOM     81  O   UNL A   1      47.630  26.838  39.129  1.00  0.00    -0.237 OA
ATOM     82  O   UNL A   1      47.061  24.783  37.891  1.00  0.00    -0.744 OA
ENDBRANCH  78  79
ENDBRANCH  57  71
BRANCH  58  83
ATOM     83  C   UNL A   1      36.744  33.086  30.911  1.00  0.00     0.058 A 
ATOM     84  C   UNL A   1      35.415  32.803  31.256  1.00  0.00     0.135 A 
ATOM     85  C   UNL A   1      36.970  34.037  29.905  1.00  0.00     0.135 A 
ATOM     86  F   UNL A   1      35.148  31.895  32.207  1.00  0.00    -0.206 F 
ATOM     87  C   UNL A   1      34.347  33.432  30.623  1.00  0.00     0.059 A 
ATOM     88  C   UNL A   1      35.921  34.697  29.273  1.00  0.00     0.059 A 
ATOM     89  F   UNL A   1      38.225  34.355  29.549  1.00  0.00    -0.206 F 
ATOM     90  C   UNL A   1      34.611  34.382  29.635  1.00  0.00     0.060 A 
BRANCH  90  91
ATOM     91  S   UNL A   1      33.220  35.237  28.864  1.00  0.00     0.124 S 
ATOM     92  O   UNL A   1      32.428  35.619  30.028  1.00  0.00    -0.237 OA
ATOM     93  O   UNL A   1      33.885  36.327  28.156  1.00  0.00    -0.237 OA
ATOM     94  O   UNL A   1      32.629  34.212  28.007  1.00  0.00    -0.744 OA
ENDBRANCH  90  91
ENDBRANCH  58  83
BRANCH  70  95
ATOM     95  C   UNL A   1      39.736  33.951  37.156  1.00  0.00     0.058 A 
ATOM     96  C   UNL A   1      38.931  33.613  38.254  1.00  0.00     0.135 A 
ATOM     97  C   UNL A   1      40.353  35.212  37.158  1.00  0.00     0.135 A 
ATOM     98  F   UNL A   1      38.311  32.422  38.298  1.00  0.00    -0.206 F 
ATOM     99  C   UNL A   1      38.728  34.500  39.307  1.00  0.00     0.059 A 
ATOM    100  C   UNL A   1      40.186  36.105  38.212  1.00  0.00     0.059 A 
ATOM    101  F   UNL A   1      41.141  35.580  36.136  1.00  0.00    -0.206 F 
ATOM    102  C   UNL A   1      39.362  35.743  39.277  1.00  0.00     0.060 A 
BRANCH 102 103
ATOM    103  S   UNL A   1      39.121  36.873  40.666  1.00  0.00     0.124 S 
ATOM    104  O   UNL A   1      38.290  37.909  40.060  1.00  0.00    -0.237 OA
ATOM    105  O   UNL A   1      38.458  36.022  41.649  1.00  0.00    -0.237 OA
ATOM    106  O   UNL A   1      40.478  37.280  41.012  1.00  0.00    -0.744 OA
ENDBRANCH 102 103
ENDBRANCH  70  95
ENDBRANCH  44  45
ENDBRANCH  36  39
ENDBRANCH  34  35
ENDBRANCH  33  34
ENDBRANCH   1  33
TORSDOF 18
ENDMDL
MODEL 2
REMARK VINA RESULT:     -12.4      6.354     12.099
REMARK SMILES CNS(=O)(=O)c1ccc([C@H]2CC(=O)Nc3cc(O)c(C(=O)NCCCCNC(=O)c4ccc(-c5c6nc(c(-c7c(F)cc(S(=O)(=O)[O-])cc7F)c7ccc([nH]7)c(-c7c(F)cc(S(=O)(=O)[O-])cc7F)c7nc(c(-c8c(F)cc(S(=O)(=O)[O-])cc8F)c8ccc5[nH]8)C=C7)C=C6)cc4)cc32)cc1
REMARK SMILES IDX 24 1 23 2 22 3 20 4 21 5 19 7 10 8 11 9 97 10 12 11 15 12
REMARK SMILES IDX 96 13 13 14 14 15 16 16 17 18 9 19 6 20 7 21 99 22 8 23
REMARK SMILES IDX 98 24 3 25 4 26 5 27 2 28 1 29 18 31 25 33 26 34 27 35 28 36
REMARK SMILES IDX 29 38 30 39 31 40 95 41 32 42 94 43 33 44 34 45 35 46 88 47
REMARK SMILES IDX 36 48 93 49 87 50 89 51 37 52 92 53 86 54 85 55 38 57 72 58
REMARK SMILES IDX 51 59 71 60 52 61 55 62 70 63 90 64 53 65 54 66 69 68 91 69
REMARK SMILES IDX 56 70 39 71 40 72 49 73 41 74 42 75 48 76 50 77 43 78 44 79
REMARK SMILES IDX 45 80 46 81 47 82 73 83 74 84 83 85 75 86 76 87 82 88 84 89
REMARK SMILES IDX 77 90 78 91 79 92 80 93 81 94 57 95 58 96 67 97 59 98 60 99
REMARK SMILES IDX 66 100 68 101 61 102 62 103 63 104 64 105 65 106
REMARK H PARENT 22 6 14 17 2 30 18 32 27 37 89 56 55 67
REMARK Flexibility Score: inf
ROOT
ATOM      1  C   UNL A   1      36.464  33.415  28.393  1.00  0.00     0.023 C 
ENDROOT
BRANCH   1   2
ATOM      2  C   UNL A   1      35.406  32.515  27.761  1.00  0.00     0.116 C 
BRANCH   2   3
ATOM      3  N   UNL A   1      35.503  31.145  28.219  1.00  0.00    -0.352 N 
ATOM      4  C   UNL A   1      34.954  29.949  27.861  1.00  0.00     0.255 C 
ATOM      5  O   UNL A   1      35.214  29.001  28.614  1.00  0.00    -0.269 OA
ATOM      6  H   UNL A   1      36.121  31.054  28.981  1.00  0.00     0.163 HD
BRANCH   4   7
ATOM      7  C   UNL A   1      34.083  29.664  26.680  1.00  0.00     0.082 A 
ATOM      8  C   UNL A   1      33.643  27.302  23.641  1.00  0.00     0.061 C 
ATOM      9  C   UNL A   1      32.673  27.404  22.434  1.00  0.00     0.113 C 
ATOM     10  C   UNL A   1      33.378  28.385  24.684  1.00  0.00    -0.015 A 
ATOM     11  C   UNL A   1      31.298  27.928  22.731  1.00  0.00     0.225 C 
ATOM     12  C   UNL A   1      32.194  29.125  24.649  1.00  0.00     0.048 A 
ATOM     13  C   UNL A   1      34.312  28.665  25.714  1.00  0.00     0.024 A 
ATOM     14  O   UNL A   1      30.326  27.653  22.030  1.00  0.00    -0.275 OA
ATOM     15  N   UNL A   1      31.193  28.842  23.727  1.00  0.00    -0.326 N 
ATOM     16  C   UNL A   1      31.948  30.129  25.579  1.00  0.00     0.073 A 
ATOM     17  H   UNL A   1      30.348  29.342  23.803  1.00  0.00     0.169 HD
ATOM     18  C   UNL A   1      32.875  30.386  26.582  1.00  0.00     0.130 A 
BRANCH   8  19
ATOM     19  C   UNL A   1      33.743  25.845  24.116  1.00  0.00    -0.040 A 
ATOM     20  C   UNL A   1      34.252  23.337  25.285  1.00  0.00     0.082 A 
ATOM     21  C   UNL A   1      33.658  24.342  26.040  1.00  0.00     0.022 A 
ATOM     22  C   UNL A   1      34.486  23.529  23.922  1.00  0.00     0.022 A 
ATOM     23  C   UNL A   1      33.348  25.558  25.441  1.00  0.00     0.006 A 
ATOM     24  C   UNL A   1      34.249  24.786  23.346  1.00  0.00     0.006 A 
BRANCH  20  25
ATOM     25  S   UNL A   1      34.901  21.911  26.117  1.00  0.00     0.240 S 
ATOM     26  O   UNL A   1      34.742  20.774  25.226  1.00  0.00    -0.207 OA
ATOM     27  O   UNL A   1      34.378  21.892  27.457  1.00  0.00    -0.207 OA
BRANCH  25  28
ATOM     28  N   UNL A   1      36.541  22.232  26.274  1.00  0.00    -0.214 NA
ATOM     29  C   UNL A   1      37.495  21.628  25.353  1.00  0.00     0.120 C 
ATOM     30  H   UNL A   1      36.652  23.243  26.193  1.00  0.00     0.141 HD
ENDBRANCH  25  28
ENDBRANCH  20  25
ENDBRANCH   8  19
BRANCH  18  31
ATOM     31  O   UNL A   1      32.488  31.361  27.468  1.00  0.00    -0.507 OA
ATOM     32  H   UNL A   1      31.583  31.591  27.545  1.00  0.00     0.293 HD
ENDBRANCH  18  31
ENDBRANCH   4   7
ENDBRANCH   2   3
ENDBRANCH   1   2
BRANCH   1  33
ATOM     33  C   UNL A   1      36.166  33.874  29.823  1.00  0.00     0.023 C 
BRANCH  33  34
ATOM     34  C   UNL A   1      37.010  33.233  30.922  1.00  0.00     0.116 C 
BRANCH  34  35
ATOM     35  N   UNL A   1      36.425  32.015  31.462  1.00  0.00    -0.352 N 
ATOM     36  C   UNL A   1      36.919  30.733  31.443  1.00  0.00     0.251 C 
ATOM     37  H   UNL A   1      35.551  32.125  31.903  1.00  0.00     0.163 HD
ATOM     38  O   UNL A   1      36.229  29.808  31.863  1.00  0.00    -0.269 OA
BRANCH  36  39
ATOM     39  C   UNL A   1      38.264  30.469  30.889  1.00  0.00     0.039 A 
ATOM     40  C   UNL A   1      39.324  30.243  31.772  1.00  0.00     0.014 A 
ATOM     41  C   UNL A   1      38.478  30.432  29.508  1.00  0.00     0.014 A 
ATOM     42  C   UNL A   1      40.584  29.911  31.269  1.00  0.00     0.010 A 
ATOM     43  C   UNL A   1      39.718  30.039  29.012  1.00  0.00     0.010 A 
ATOM     44  C   UNL A   1      40.783  29.772  29.886  1.00  0.00    -0.014 A 
BRANCH  44  45
ATOM     45  C   UNL A   1      42.094  29.347  29.332  1.00  0.00     0.031 A 
ATOM     46  C   UNL A   1      43.211  30.343  29.189  1.00  0.00     0.074 A 
ATOM     47  C   UNL A   1      42.254  28.083  28.892  1.00  0.00     0.049 A 
ATOM     48  N   UNL A   1      44.393  30.188  28.650  1.00  0.00    -0.248 NA
ATOM     49  C   UNL A   1      42.954  31.702  29.692  1.00  0.00     0.031 C 
ATOM     50  C   UNL A   1      41.230  27.036  28.935  1.00  0.00     0.029 A 
ATOM     51  N   UNL A   1      43.331  27.467  28.307  1.00  0.00    -0.354 N 
ATOM     52  C   UNL A   1      45.013  31.429  28.733  1.00  0.00     0.074 A 
ATOM     53  C   UNL A   1      44.058  32.338  29.328  1.00  0.00     0.031 C 
ATOM     54  C   UNL A   1      41.735  25.904  28.418  1.00  0.00     0.029 A 
ATOM     55  C   UNL A   1      43.103  26.154  27.970  1.00  0.00     0.049 A 
ATOM     56  H   UNL A   1      44.189  27.923  28.144  1.00  0.00     0.167 HD
ATOM     57  C   UNL A   1      46.271  31.775  28.367  1.00  0.00     0.037 A 
ATOM     58  C   UNL A   1      43.899  25.254  27.360  1.00  0.00     0.037 A 
ATOM     59  C   UNL A   1      47.224  30.858  27.798  1.00  0.00     0.049 A 
ATOM     60  C   UNL A   1      45.292  25.660  26.960  1.00  0.00     0.074 A 
ATOM     61  C   UNL A   1      48.543  31.094  27.450  1.00  0.00     0.029 A 
ATOM     62  N   UNL A   1      46.961  29.531  27.489  1.00  0.00    -0.354 N 
ATOM     63  N   UNL A   1      45.883  26.823  27.103  1.00  0.00    -0.248 NA
ATOM     64  C   UNL A   1      46.126  24.633  26.322  1.00  0.00     0.031 C 
ATOM     65  C   UNL A   1      49.064  29.920  26.892  1.00  0.00     0.029 A 
ATOM     66  C   UNL A   1      48.085  28.940  26.936  1.00  0.00     0.049 A 
ATOM     67  H   UNL A   1      46.102  29.075  27.642  1.00  0.00     0.167 HD
ATOM     68  C   UNL A   1      47.167  26.660  26.594  1.00  0.00     0.074 A 
ATOM     69  C   UNL A   1      47.269  25.284  26.151  1.00  0.00     0.031 C 
ATOM     70  C   UNL A   1      48.171  27.567  26.502  1.00  0.00     0.037 A 
BRANCH  57  71
ATOM     71  C   UNL A   1      46.684  33.207  28.571  1.00  0.00     0.058 A 
ATOM     72  C   UNL A   1      46.512  34.174  27.568  1.00  0.00     0.135 A 
ATOM     73  C   UNL A   1      47.243  33.623  29.790  1.00  0.00     0.135 A 
ATOM     74  F   UNL A   1      45.996  33.829  26.377  1.00  0.00    -0.206 F 
ATOM     75  C   UNL A   1      46.916  35.492  27.751  1.00  0.00     0.059 A 
ATOM     76  C   UNL A   1      47.628  34.943  30.006  1.00  0.00     0.059 A 
ATOM     77  F   UNL A   1      47.429  32.740  30.786  1.00  0.00    -0.206 F 
ATOM     78  C   UNL A   1      47.478  35.866  28.972  1.00  0.00     0.060 A 
BRANCH  78  79
ATOM     79  S   UNL A   1      48.010  37.578  29.188  1.00  0.00     0.124 S 
ATOM     80  O   UNL A   1      48.533  37.547  30.551  1.00  0.00    -0.237 OA
ATOM     81  O   UNL A   1      49.004  37.733  28.132  1.00  0.00    -0.237 OA
ATOM     82  O   UNL A   1      46.780  38.342  29.007  1.00  0.00    -0.744 OA
ENDBRANCH  78  79
ENDBRANCH  57  71
BRANCH  58  83
ATOM     83  C   UNL A   1      43.404  23.874  27.115  1.00  0.00     0.058 A 
ATOM     84  C   UNL A   1      43.347  22.936  28.155  1.00  0.00     0.135 A 
ATOM     85  C   UNL A   1      42.958  23.471  25.847  1.00  0.00     0.135 A 
ATOM     86  F   UNL A   1      43.770  23.270  29.384  1.00  0.00    -0.206 F 
ATOM     87  C   UNL A   1      42.874  21.644  27.948  1.00  0.00     0.059 A 
ATOM     88  C   UNL A   1      42.458  22.193  25.619  1.00  0.00     0.059 A 
ATOM     89  F   UNL A   1      42.978  24.337  24.821  1.00  0.00    -0.206 F 
ATOM     90  C   UNL A   1      42.426  21.283  26.676  1.00  0.00     0.060 A 
BRANCH  90  91
ATOM     91  S   UNL A   1      41.756  19.625  26.433  1.00  0.00     0.124 S 
ATOM     92  O   UNL A   1      42.212  18.943  27.639  1.00  0.00    -0.237 OA
ATOM     93  O   UNL A   1      40.321  19.884  26.349  1.00  0.00    -0.237 OA
ATOM     94  O   UNL A   1      42.380  19.190  25.186  1.00  0.00    -0.744 OA
ENDBRANCH  90  91
ENDBRANCH  58  83
BRANCH  70  95
ATOM     95  C   UNL A   1      49.479  27.097  25.927  1.00  0.00     0.058 A 
ATOM     96  C   UNL A   1      49.785  27.255  24.567  1.00  0.00     0.135 A 
ATOM     97  C   UNL A   1      50.457  26.527  26.758  1.00  0.00     0.135 A 
ATOM     98  F   UNL A   1      48.881  27.787  23.727  1.00  0.00    -0.206 F 
ATOM     99  C   UNL A   1      51.008  26.847  24.045  1.00  0.00     0.059 A 
ATOM    100  C   UNL A   1      51.697  26.136  26.263  1.00  0.00     0.059 A 
ATOM    101  F   UNL A   1      50.218  26.363  28.068  1.00  0.00    -0.206 F 
ATOM    102  C   UNL A   1      51.959  26.290  24.903  1.00  0.00     0.060 A 
BRANCH 102 103
ATOM    103  S   UNL A   1      53.557  25.796  24.222  1.00  0.00     0.124 S 
ATOM    104  O   UNL A   1      54.448  26.792  24.811  1.00  0.00    -0.237 OA
ATOM    105  O   UNL A   1      53.704  24.435  24.727  1.00  0.00    -0.237 OA
ATOM    106  O   UNL A   1      53.360  25.906  22.780  1.00  0.00    -0.744 OA
ENDBRANCH 102 103
ENDBRANCH  70  95
ENDBRANCH  44  45
ENDBRANCH  36  39
ENDBRANCH  34  35
ENDBRANCH  33  34
ENDBRANCH   1  33
TORSDOF 18
ENDMDL
MODEL 3
REMARK VINA RESULT:     -12.0      6.397     11.816
REMARK SMILES CNS(=O)(=O)c1ccc([C@H]2CC(=O)Nc3cc(O)c(C(=O)NCCCCNC(=O)c4ccc(-c5c6nc(c(-c7c(F)cc(S(=O)(=O)[O-])cc7F)c7ccc([nH]7)c(-c7c(F)cc(S(=O)(=O)[O-])cc7F)c7nc(c(-c8c(F)cc(S(=O)(=O)[O-])cc8F)c8ccc5[nH]8)C=C7)C=C6)cc4)cc32)cc1
REMARK SMILES IDX 24 1 23 2 22 3 20 4 21 5 19 7 10 8 11 9 97 10 12 11 15 12
REMARK SMILES IDX 96 13 13 14 14 15 16 16 17 18 9 19 6 20 7 21 99 22 8 23
REMARK SMILES IDX 98 24 3 25 4 26 5 27 2 28 1 29 18 31 25 33 26 34 27 35 28 36
REMARK SMILES IDX 29 38 30 39 31 40 95 41 32 42 94 43 33 44 34 45 35 46 88 47
REMARK SMILES IDX 36 48 93 49 87 50 89 51 37 52 92 53 86 54 85 55 38 57 72 58
REMARK SMILES IDX 51 59 71 60 52 61 55 62 70 63 90 64 53 65 54 66 69 68 91 69
REMARK SMILES IDX 56 70 39 71 40 72 49 73 41 74 42 75 48 76 50 77 43 78 44 79
REMARK SMILES IDX 45 80 46 81 47 82 73 83 74 84 83 85 75 86 76 87 82 88 84 89
REMARK SMILES IDX 77 90 78 91 79 92 80 93 81 94 57 95 58 96 67 97 59 98 60 99
REMARK SMILES IDX 66 100 68 101 61 102 62 103 63 104 64 105 65 106
REMARK H PARENT 22 6 14 17 2 30 18 32 27 37 89 56 55 67
REMARK Flexibility Score: inf
ROOT
ATOM      1  C   UNL A   1      36.424  33.512  28.428  1.00  0.00     0.023 C 
ENDROOT
BRANCH   1   2
ATOM      2  C   UNL A   1      35.527  32.566  27.636  1.00  0.00     0.116 C 
BRANCH   2   3
ATOM      3  N   UNL A   1      35.637  31.194  28.088  1.00  0.00    -0.352 N 
ATOM      4  C   UNL A   1      35.049  30.005  27.768  1.00  0.00     0.255 C 
ATOM      5  O   UNL A   1      35.346  29.054  28.502  1.00  0.00    -0.269 OA
ATOM      6  H   UNL A   1      36.303  31.095  28.806  1.00  0.00     0.163 HD
BRANCH   4   7
ATOM      7  C   UNL A   1      34.097  29.732  26.647  1.00  0.00     0.082 A 
ATOM      8  C   UNL A   1      33.463  27.424  23.602  1.00  0.00     0.061 C 
ATOM      9  C   UNL A   1      32.407  27.537  22.471  1.00  0.00     0.113 C 
ATOM     10  C   UNL A   1      33.263  28.483  24.683  1.00  0.00    -0.015 A 
ATOM     11  C   UNL A   1      31.051  28.037  22.879  1.00  0.00     0.225 C 
ATOM     12  C   UNL A   1      32.071  29.208  24.750  1.00  0.00     0.048 A 
ATOM     13  C   UNL A   1      34.267  28.755  25.648  1.00  0.00     0.024 A 
ATOM     14  O   UNL A   1      30.033  27.762  22.245  1.00  0.00    -0.275 OA
ATOM     15  N   UNL A   1      31.008  28.930  23.898  1.00  0.00    -0.326 N 
ATOM     16  C   UNL A   1      31.882  30.190  25.715  1.00  0.00     0.073 A 
ATOM     17  H   UNL A   1      30.165  29.416  24.045  1.00  0.00     0.169 HD
ATOM     18  C   UNL A   1      32.877  30.439  26.653  1.00  0.00     0.130 A 
BRANCH   8  19
ATOM     19  C   UNL A   1      33.615  25.959  24.038  1.00  0.00    -0.040 A 
ATOM     20  C   UNL A   1      34.215  23.441  25.139  1.00  0.00     0.082 A 
ATOM     21  C   UNL A   1      33.593  24.406  25.923  1.00  0.00     0.022 A 
ATOM     22  C   UNL A   1      34.434  23.676  23.781  1.00  0.00     0.022 A 
ATOM     23  C   UNL A   1      33.238  25.626  25.357  1.00  0.00     0.006 A 
ATOM     24  C   UNL A   1      34.152  24.939  23.239  1.00  0.00     0.006 A 
BRANCH  20  25
ATOM     25  S   UNL A   1      34.917  22.017  25.930  1.00  0.00     0.240 S 
ATOM     26  O   UNL A   1      35.139  21.012  24.905  1.00  0.00    -0.207 OA
ATOM     27  O   UNL A   1      34.144  21.728  27.109  1.00  0.00    -0.207 OA
BRANCH  25  28
ATOM     28  N   UNL A   1      36.411  22.543  26.486  1.00  0.00    -0.214 NA
ATOM     29  C   UNL A   1      37.085  23.654  25.827  1.00  0.00     0.120 C 
ATOM     30  H   UNL A   1      36.283  22.813  27.462  1.00  0.00     0.141 HD
ENDBRANCH  25  28
ENDBRANCH  20  25
ENDBRANCH   8  19
BRANCH  18  31
ATOM     31  O   UNL A   1      32.544  31.392  27.585  1.00  0.00    -0.507 OA
ATOM     32  H   UNL A   1      32.190  31.134  28.413  1.00  0.00     0.293 HD
ENDBRANCH  18  31
ENDBRANCH   4   7
ENDBRANCH   2   3
ENDBRANCH   1   2
BRANCH   1  33
ATOM     33  C   UNL A   1      36.019  33.732  29.889  1.00  0.00     0.023 C 
BRANCH  33  34
ATOM     34  C   UNL A   1      36.921  33.089  30.939  1.00  0.00     0.116 C 
BRANCH  34  35
ATOM     35  N   UNL A   1      36.406  31.828  31.448  1.00  0.00    -0.352 N 
ATOM     36  C   UNL A   1      36.951  30.568  31.359  1.00  0.00     0.251 C 
ATOM     37  H   UNL A   1      35.545  31.883  31.922  1.00  0.00     0.163 HD
ATOM     38  O   UNL A   1      36.315  29.600  31.763  1.00  0.00    -0.269 OA
BRANCH  36  39
ATOM     39  C   UNL A   1      38.285  30.384  30.748  1.00  0.00     0.039 A 
ATOM     40  C   UNL A   1      39.383  30.160  31.584  1.00  0.00     0.014 A 
ATOM     41  C   UNL A   1      38.452  30.418  29.361  1.00  0.00     0.014 A 
ATOM     42  C   UNL A   1      40.637  29.902  31.025  1.00  0.00     0.010 A 
ATOM     43  C   UNL A   1      39.687  30.097  28.806  1.00  0.00     0.010 A 
ATOM     44  C   UNL A   1      40.792  29.834  29.631  1.00  0.00    -0.014 A 
BRANCH  44  45
ATOM     45  C   UNL A   1      42.098  29.487  29.015  1.00  0.00     0.031 A 
ATOM     46  C   UNL A   1      42.353  28.088  28.525  1.00  0.00     0.074 A 
ATOM     47  C   UNL A   1      43.078  30.411  28.962  1.00  0.00     0.049 A 
ATOM     48  N   UNL A   1      43.451  27.568  28.041  1.00  0.00    -0.248 NA
ATOM     49  C   UNL A   1      41.232  27.139  28.621  1.00  0.00     0.031 C 
ATOM     50  C   UNL A   1      42.967  31.789  29.446  1.00  0.00     0.029 A 
ATOM     51  N   UNL A   1      44.364  30.327  28.494  1.00  0.00    -0.354 N 
ATOM     52  C   UNL A   1      43.161  26.233  27.791  1.00  0.00     0.074 A 
ATOM     53  C   UNL A   1      41.798  26.009  28.223  1.00  0.00     0.031 C 
ATOM     54  C   UNL A   1      44.130  32.425  29.231  1.00  0.00     0.029 A 
ATOM     55  C   UNL A   1      45.081  31.492  28.633  1.00  0.00     0.049 A 
ATOM     56  H   UNL A   1      44.740  29.508  28.096  1.00  0.00     0.167 HD
ATOM     57  C   UNL A   1      43.950  25.284  27.232  1.00  0.00     0.037 A 
ATOM     58  C   UNL A   1      46.361  31.775  28.324  1.00  0.00     0.037 A 
ATOM     59  C   UNL A   1      45.297  25.520  26.781  1.00  0.00     0.049 A 
ATOM     60  C   UNL A   1      47.220  30.706  27.705  1.00  0.00     0.074 A 
ATOM     61  C   UNL A   1      46.158  24.642  26.146  1.00  0.00     0.029 A 
ATOM     62  N   UNL A   1      45.981  26.719  26.921  1.00  0.00    -0.354 N 
ATOM     63  N   UNL A   1      46.909  29.464  27.418  1.00  0.00    -0.248 NA
ATOM     64  C   UNL A   1      48.600  31.076  27.365  1.00  0.00     0.031 C 
ATOM     65  C   UNL A   1      47.377  25.299  25.940  1.00  0.00     0.029 A 
ATOM     66  C   UNL A   1      47.260  26.599  26.404  1.00  0.00     0.049 A 
ATOM     67  H   UNL A   1      45.611  27.536  27.328  1.00  0.00     0.167 HD
ATOM     68  C   UNL A   1      48.048  28.912  26.841  1.00  0.00     0.074 A 
ATOM     69  C   UNL A   1      49.049  29.959  26.809  1.00  0.00     0.031 C 
ATOM     70  C   UNL A   1      48.245  27.653  26.378  1.00  0.00     0.037 A 
BRANCH  57  71
ATOM     71  C   UNL A   1      43.372  23.903  27.078  1.00  0.00     0.058 A 
ATOM     72  C   UNL A   1      43.281  23.018  28.165  1.00  0.00     0.135 A 
ATOM     73  C   UNL A   1      42.887  23.464  25.836  1.00  0.00     0.135 A 
ATOM     74  F   UNL A   1      43.742  23.379  29.373  1.00  0.00    -0.206 F 
ATOM     75  C   UNL A   1      42.768  21.733  28.015  1.00  0.00     0.059 A 
ATOM     76  C   UNL A   1      42.343  22.194  25.670  1.00  0.00     0.059 A 
ATOM     77  F   UNL A   1      42.948  24.270  24.763  1.00  0.00    -0.206 F 
ATOM     78  C   UNL A   1      42.306  21.328  26.762  1.00  0.00     0.060 A 
BRANCH  78  79
ATOM     79  S   UNL A   1      41.655  19.654  26.583  1.00  0.00     0.124 S 
ATOM     80  O   UNL A   1      40.217  19.892  26.671  1.00  0.00    -0.237 OA
ATOM     81  O   UNL A   1      42.153  19.265  25.268  1.00  0.00    -0.237 OA
ATOM     82  O   UNL A   1      42.243  18.938  27.711  1.00  0.00    -0.744 OA
ENDBRANCH  78  79
ENDBRANCH  57  71
BRANCH  58  83
ATOM     83  C   UNL A   1      46.899  33.140  28.572  1.00  0.00     0.058 A 
ATOM     84  C   UNL A   1      46.836  34.128  27.579  1.00  0.00     0.135 A 
ATOM     85  C   UNL A   1      47.461  33.491  29.808  1.00  0.00     0.135 A 
ATOM     86  F   UNL A   1      46.314  33.839  26.377  1.00  0.00    -0.206 F 
ATOM     87  C   UNL A   1      47.320  35.414  27.798  1.00  0.00     0.059 A 
ATOM     88  C   UNL A   1      47.930  34.775  30.061  1.00  0.00     0.059 A 
ATOM     89  F   UNL A   1      47.530  32.584  30.797  1.00  0.00    -0.206 F 
ATOM     90  C   UNL A   1      47.862  35.730  29.045  1.00  0.00     0.060 A 
BRANCH  90  91
ATOM     91  S   UNL A   1      48.429  37.418  29.339  1.00  0.00     0.124 S 
ATOM     92  O   UNL A   1      49.021  37.303  30.667  1.00  0.00    -0.237 OA
ATOM     93  O   UNL A   1      49.364  37.623  28.237  1.00  0.00    -0.237 OA
ATOM     94  O   UNL A   1      47.200  38.203  29.261  1.00  0.00    -0.744 OA
ENDBRANCH  90  91
ENDBRANCH  58  83
BRANCH  70  95
ATOM     95  C   UNL A   1      49.585  27.341  25.770  1.00  0.00     0.058 A 
ATOM     96  C   UNL A   1      50.656  26.875  26.548  1.00  0.00     0.135 A 
ATOM     97  C   UNL A   1      49.783  27.461  24.385  1.00  0.00     0.135 A 
ATOM     98  F   UNL A   1      50.522  26.749  27.878  1.00  0.00    -0.206 F 
ATOM     99  C   UNL A   1      51.885  26.558  25.977  1.00  0.00     0.059 A 
ATOM    100  C   UNL A   1      50.994  27.125  23.789  1.00  0.00     0.059 A 
ATOM    101  F   UNL A   1      48.787  27.892  23.595  1.00  0.00    -0.206 F 
ATOM    102  C   UNL A   1      52.043  26.684  24.595  1.00  0.00     0.060 A 
BRANCH 102 103
ATOM    103  S   UNL A   1      53.630  26.237  23.860  1.00  0.00     0.124 S 
ATOM    104  O   UNL A   1      53.262  26.047  22.460  1.00  0.00    -0.237 OA
ATOM    105  O   UNL A   1      54.449  27.410  24.146  1.00  0.00    -0.237 OA
ATOM    106  O   UNL A   1      54.008  25.025  24.579  1.00  0.00    -0.744 OA
ENDBRANCH 102 103
ENDBRANCH  70  95
ENDBRANCH  44  45
ENDBRANCH  36  39
ENDBRANCH  34  35
ENDBRANCH  33  34
ENDBRANCH   1  33
TORSDOF 18
ENDMDL
