MODEL 1
REMARK VINA RESULT:     -12.2      0.000      0.000
REMARK SMILES C[N@H+]1[C@H]2CC[C@@H]1c1sc(=O)n(CCCC(=O)NCCCCNC(=O)c3ccc(-c4c5nc(c(-c6c(F)cc(S(=O)(=O)[O-])cc6F)c6ccc([nH]6)c(-c6c(F)cc(S(=O)(=O)[O-])cc6F)c6nc(c(-c7c(F)cc(S(=O)(=O)[O-])cc7F)c7ccc4[nH]7)C=C6)C=C5)cc3)c1C2
REMARK SMILES IDX 19 1 18 2 17 3 15 4 16 5 14 7 13 8 12 9 11 10 1 11 2 12 3 13
REMARK SMILES IDX 6 14 4 16 92 17 5 18 7 19 91 20 8 21 9 22 10 23 20 24 21 25
REMARK SMILES IDX 22 26 23 27 24 29 25 30 26 31 90 32 27 33 89 34 28 35 29 36
REMARK SMILES IDX 30 37 83 38 31 39 88 40 82 41 84 42 32 43 87 44 81 45 80 46
REMARK SMILES IDX 33 48 67 49 46 50 66 51 47 52 50 53 65 54 85 55 48 56 49 57
REMARK SMILES IDX 64 59 86 60 51 61 34 62 35 63 44 64 36 65 37 66 43 67 45 68
REMARK SMILES IDX 38 69 39 70 40 71 41 72 42 73 68 74 69 75 78 76 70 77 71 78
REMARK SMILES IDX 77 79 79 80 72 81 73 82 74 83 75 84 76 85 52 86 53 87 62 88
REMARK SMILES IDX 54 89 55 90 61 91 63 92 56 93 57 94 58 95 59 96 60 97
REMARK H PARENT 17 6 2 15 22 28 84 47 50 58
REMARK Flexibility Score: inf
ROOT
ATOM      1  C   UNL A   1      40.995  21.472  27.624  1.00  0.00     0.023 C 
ENDROOT
BRANCH   1   2
ATOM      2  C   UNL A   1      39.953  21.773  26.535  1.00  0.00     0.116 C 
BRANCH   2   3
ATOM      3  N   UNL A   1      39.045  22.815  26.968  1.00  0.00    -0.356 N 
ATOM      4  C   UNL A   1      38.154  23.575  26.277  1.00  0.00     0.220 C 
ATOM      5  O   UNL A   1      37.586  24.482  26.891  1.00  0.00    -0.275 OA
ATOM      6  H   UNL A   1      39.079  23.007  27.933  1.00  0.00     0.163 HD
BRANCH   4   7
ATOM      7  C   UNL A   1      37.789  23.282  24.834  1.00  0.00     0.102 C 
BRANCH   7   8
ATOM      8  C   UNL A   1      37.103  21.965  24.465  1.00  0.00     0.032 C 
BRANCH   8   9
ATOM      9  C   UNL A   1      36.139  21.252  25.415  1.00  0.00     0.127 C 
BRANCH   9  10
ATOM     10  N   UNL A   1      34.761  20.910  25.052  1.00  0.00    -0.302 N 
ATOM     11  C   UNL A   1      32.860  15.752  25.576  1.00  0.00     0.333 C 
ATOM     12  N   UNL A   1      33.447  17.066  25.341  1.00  0.00    -0.328 N 
ATOM     13  C   UNL A   1      34.659  17.054  24.499  1.00  0.00     0.190 C 
ATOM     14  C   UNL A   1      32.540  17.976  24.581  1.00  0.00     0.227 C 
ATOM     15  H   UNL A   1      33.644  17.376  26.292  1.00  0.00     0.348 HD
ATOM     16  C   UNL A   1      34.094  16.865  23.086  1.00  0.00     0.072 C 
ATOM     17  C   UNL A   1      35.382  18.431  24.696  1.00  0.00     0.120 C 
ATOM     18  C   UNL A   1      32.734  17.568  23.111  1.00  0.00     0.077 C 
ATOM     19  C   UNL A   1      33.092  19.362  24.747  1.00  0.00     0.087 A 
ATOM     20  C   UNL A   1      34.411  19.582  24.831  1.00  0.00     0.047 A 
ATOM     21  S   UNL A   1      32.178  20.811  24.865  1.00  0.00    -0.073 S 
ATOM     22  C   UNL A   1      33.667  21.777  25.018  1.00  0.00     0.307 A 
ATOM     23  O   UNL A   1      33.637  22.987  25.078  1.00  0.00    -0.257 OA
ENDBRANCH   9  10
ENDBRANCH   8   9
ENDBRANCH   7   8
ENDBRANCH   4   7
ENDBRANCH   2   3
ENDBRANCH   1   2
BRANCH   1  24
ATOM     24  C   UNL A   1      42.085  20.464  27.237  1.00  0.00     0.023 C 
BRANCH  24  25
ATOM     25  C   UNL A   1      42.053  20.035  25.777  1.00  0.00     0.116 C 
BRANCH  25  26
ATOM     26  N   UNL A   1      43.346  19.557  25.285  1.00  0.00    -0.352 N 
ATOM     27  C   UNL A   1      44.365  20.326  24.749  1.00  0.00     0.251 C 
ATOM     28  H   UNL A   1      43.508  18.587  25.341  1.00  0.00     0.163 HD
ATOM     29  O   UNL A   1      45.208  19.843  24.003  1.00  0.00    -0.269 OA
BRANCH  27  30
ATOM     30  C   UNL A   1      44.409  21.750  25.120  1.00  0.00     0.039 A 
ATOM     31  C   UNL A   1      43.509  22.677  24.592  1.00  0.00     0.014 A 
ATOM     32  C   UNL A   1      45.326  22.110  26.106  1.00  0.00     0.014 A 
ATOM     33  C   UNL A   1      43.475  23.956  25.141  1.00  0.00     0.010 A 
ATOM     34  C   UNL A   1      45.189  23.320  26.739  1.00  0.00     0.010 A 
ATOM     35  C   UNL A   1      44.297  24.265  26.240  1.00  0.00    -0.014 A 
BRANCH  35  36
ATOM     36  C   UNL A   1      44.107  25.513  26.983  1.00  0.00     0.031 A 
ATOM     37  C   UNL A   1      45.145  26.542  26.688  1.00  0.00     0.074 A 
ATOM     38  C   UNL A   1      42.974  25.806  27.663  1.00  0.00     0.049 A 
ATOM     39  N   UNL A   1      46.106  26.945  27.453  1.00  0.00    -0.248 NA
ATOM     40  C   UNL A   1      45.249  27.050  25.307  1.00  0.00     0.031 C 
ATOM     41  C   UNL A   1      41.737  25.012  27.706  1.00  0.00     0.029 A 
ATOM     42  N   UNL A   1      42.624  26.927  28.362  1.00  0.00    -0.354 N 
ATOM     43  C   UNL A   1      46.724  27.983  26.755  1.00  0.00     0.074 A 
ATOM     44  C   UNL A   1      46.343  27.814  25.382  1.00  0.00     0.031 C 
ATOM     45  C   UNL A   1      40.718  25.773  28.155  1.00  0.00     0.029 A 
ATOM     46  C   UNL A   1      41.258  27.034  28.624  1.00  0.00     0.049 A 
ATOM     47  H   UNL A   1      43.279  27.601  28.656  1.00  0.00     0.167 HD
ATOM     48  C   UNL A   1      47.176  29.084  27.422  1.00  0.00     0.037 A 
ATOM     49  C   UNL A   1      40.601  28.073  29.196  1.00  0.00     0.037 A 
ATOM     50  C   UNL A   1      47.207  28.821  28.840  1.00  0.00     0.049 A 
ATOM     51  C   UNL A   1      41.599  28.855  29.962  1.00  0.00     0.074 A 
ATOM     52  C   UNL A   1      47.978  28.090  29.715  1.00  0.00     0.029 A 
ATOM     53  N   UNL A   1      46.018  29.090  29.464  1.00  0.00    -0.354 N 
ATOM     54  N   UNL A   1      42.243  28.379  30.994  1.00  0.00    -0.248 NA
ATOM     55  C   UNL A   1      42.173  30.056  29.368  1.00  0.00     0.031 C 
ATOM     56  C   UNL A   1      47.141  27.801  30.836  1.00  0.00     0.029 A 
ATOM     57  C   UNL A   1      45.902  28.408  30.644  1.00  0.00     0.049 A 
ATOM     58  H   UNL A   1      45.331  29.698  29.107  1.00  0.00     0.167 HD
ATOM     59  C   UNL A   1      43.498  28.946  30.905  1.00  0.00     0.074 A 
ATOM     60  C   UNL A   1      43.345  30.085  30.007  1.00  0.00     0.031 C 
ATOM     61  C   UNL A   1      44.611  28.250  31.278  1.00  0.00     0.037 A 
BRANCH  48  62
ATOM     62  C   UNL A   1      47.077  30.523  26.925  1.00  0.00     0.058 A 
ATOM     63  C   UNL A   1      48.218  31.355  27.026  1.00  0.00     0.135 A 
ATOM     64  C   UNL A   1      45.869  31.205  26.660  1.00  0.00     0.135 A 
ATOM     65  F   UNL A   1      49.431  30.827  27.264  1.00  0.00    -0.206 F 
ATOM     66  C   UNL A   1      48.147  32.750  26.962  1.00  0.00     0.059 A 
ATOM     67  C   UNL A   1      45.783  32.590  26.549  1.00  0.00     0.059 A 
ATOM     68  F   UNL A   1      44.689  30.582  26.583  1.00  0.00    -0.206 F 
ATOM     69  C   UNL A   1      46.917  33.358  26.740  1.00  0.00     0.060 A 
BRANCH  69  70
ATOM     70  S   UNL A   1      46.796  35.155  26.743  1.00  0.00     0.124 S 
ATOM     71  O   UNL A   1      47.632  35.507  25.601  1.00  0.00    -0.237 OA
ATOM     72  O   UNL A   1      45.361  35.360  26.575  1.00  0.00    -0.237 OA
ATOM     73  O   UNL A   1      47.326  35.524  28.052  1.00  0.00    -0.744 OA
ENDBRANCH  69  70
ENDBRANCH  48  62
BRANCH  49  74
ATOM     74  C   UNL A   1      39.224  28.562  28.932  1.00  0.00     0.058 A 
ATOM     75  C   UNL A   1      38.260  28.655  29.952  1.00  0.00     0.135 A 
ATOM     76  C   UNL A   1      38.909  29.210  27.720  1.00  0.00     0.135 A 
ATOM     77  F   UNL A   1      38.485  28.083  31.145  1.00  0.00    -0.206 F 
ATOM     78  C   UNL A   1      37.076  29.385  29.796  1.00  0.00     0.059 A 
ATOM     79  C   UNL A   1      37.734  29.939  27.539  1.00  0.00     0.059 A 
ATOM     80  F   UNL A   1      39.786  29.223  26.703  1.00  0.00    -0.206 F 
ATOM     81  C   UNL A   1      36.830  30.042  28.590  1.00  0.00     0.060 A 
BRANCH  81  82
ATOM     82  S   UNL A   1      35.379  31.114  28.441  1.00  0.00     0.124 S 
ATOM     83  O   UNL A   1      35.047  31.370  29.839  1.00  0.00    -0.237 OA
ATOM     84  O   UNL A   1      35.907  32.250  27.695  1.00  0.00    -0.237 OA
ATOM     85  O   UNL A   1      34.419  30.286  27.715  1.00  0.00    -0.744 OA
ENDBRANCH  81  82
ENDBRANCH  49  74
BRANCH  61  86
ATOM     86  C   UNL A   1      44.460  27.182  32.317  1.00  0.00     0.058 A 
ATOM     87  C   UNL A   1      44.281  27.397  33.692  1.00  0.00     0.135 A 
ATOM     88  C   UNL A   1      44.405  25.856  31.859  1.00  0.00     0.135 A 
ATOM     89  F   UNL A   1      44.245  28.639  34.197  1.00  0.00    -0.206 F 
ATOM     90  C   UNL A   1      44.081  26.333  34.577  1.00  0.00     0.059 A 
ATOM     91  C   UNL A   1      44.177  24.787  32.713  1.00  0.00     0.059 A 
ATOM     92  F   UNL A   1      44.529  25.593  30.547  1.00  0.00    -0.206 F 
ATOM     93  C   UNL A   1      44.029  25.031  34.076  1.00  0.00     0.060 A 
BRANCH  93  94
ATOM     94  S   UNL A   1      43.706  23.657  35.201  1.00  0.00     0.124 S 
ATOM     95  O   UNL A   1      44.572  23.976  36.332  1.00  0.00    -0.237 OA
ATOM     96  O   UNL A   1      42.271  23.779  35.446  1.00  0.00    -0.237 OA
ATOM     97  O   UNL A   1      44.099  22.481  34.428  1.00  0.00    -0.744 OA
ENDBRANCH  93  94
ENDBRANCH  61  86
ENDBRANCH  35  36
ENDBRANCH  27  30
ENDBRANCH  25  26
ENDBRANCH  24  25
ENDBRANCH   1  24
TORSDOF 17
ENDMDL
MODEL 2
REMARK VINA RESULT:     -11.8      1.706      2.943
REMARK SMILES C[N@H+]1[C@H]2CC[C@@H]1c1sc(=O)n(CCCC(=O)NCCCCNC(=O)c3ccc(-c4c5nc(c(-c6c(F)cc(S(=O)(=O)[O-])cc6F)c6ccc([nH]6)c(-c6c(F)cc(S(=O)(=O)[O-])cc6F)c6nc(c(-c7c(F)cc(S(=O)(=O)[O-])cc7F)c7ccc4[nH]7)C=C6)C=C5)cc3)c1C2
REMARK SMILES IDX 19 1 18 2 17 3 15 4 16 5 14 7 13 8 12 9 11 10 1 11 2 12 3 13
REMARK SMILES IDX 6 14 4 16 92 17 5 18 7 19 91 20 8 21 9 22 10 23 20 24 21 25
REMARK SMILES IDX 22 26 23 27 24 29 25 30 26 31 90 32 27 33 89 34 28 35 29 36
REMARK SMILES IDX 30 37 83 38 31 39 88 40 82 41 84 42 32 43 87 44 81 45 80 46
REMARK SMILES IDX 33 48 67 49 46 50 66 51 47 52 50 53 65 54 85 55 48 56 49 57
REMARK SMILES IDX 64 59 86 60 51 61 34 62 35 63 44 64 36 65 37 66 43 67 45 68
REMARK SMILES IDX 38 69 39 70 40 71 41 72 42 73 68 74 69 75 78 76 70 77 71 78
REMARK SMILES IDX 77 79 79 80 72 81 73 82 74 83 75 84 76 85 52 86 53 87 62 88
REMARK SMILES IDX 54 89 55 90 61 91 63 92 56 93 57 94 58 95 59 96 60 97
REMARK H PARENT 17 6 2 15 22 28 84 47 50 58
REMARK Flexibility Score: inf
ROOT
ATOM      1  C   UNL A   1      40.704  21.707  27.459  1.00  0.00     0.023 C 
ENDROOT
BRANCH   1   2
ATOM      2  C   UNL A   1      39.951  22.203  26.215  1.00  0.00     0.116 C 
BRANCH   2   3
ATOM      3  N   UNL A   1      38.708  22.845  26.588  1.00  0.00    -0.356 N 
ATOM      4  C   UNL A   1      37.527  22.972  25.925  1.00  0.00     0.220 C 
ATOM      5  O   UNL A   1      36.660  23.682  26.442  1.00  0.00    -0.275 OA
ATOM      6  H   UNL A   1      38.719  23.262  27.480  1.00  0.00     0.163 HD
BRANCH   4   7
ATOM      7  C   UNL A   1      37.232  22.213  24.645  1.00  0.00     0.102 C 
BRANCH   7   8
ATOM      8  C   UNL A   1      36.493  22.899  23.495  1.00  0.00     0.032 C 
BRANCH   8   9
ATOM      9  C   UNL A   1      34.967  22.883  23.380  1.00  0.00     0.127 C 
BRANCH   9  10
ATOM     10  N   UNL A   1      34.076  23.234  24.489  1.00  0.00    -0.302 N 
ATOM     11  C   UNL A   1      30.766  27.646  24.213  1.00  0.00     0.333 C 
ATOM     12  N   UNL A   1      31.746  26.568  24.284  1.00  0.00    -0.328 N 
ATOM     13  C   UNL A   1      33.140  26.991  24.044  1.00  0.00     0.190 C 
ATOM     14  C   UNL A   1      31.829  25.952  25.641  1.00  0.00     0.227 C 
ATOM     15  H   UNL A   1      31.407  25.934  23.560  1.00  0.00     0.348 HD
ATOM     16  C   UNL A   1      33.528  27.661  25.367  1.00  0.00     0.072 C 
ATOM     17  C   UNL A   1      33.975  25.700  23.737  1.00  0.00     0.120 C 
ATOM     18  C   UNL A   1      32.738  26.903  26.438  1.00  0.00     0.077 C 
ATOM     19  C   UNL A   1      32.562  24.652  25.474  1.00  0.00     0.087 A 
ATOM     20  C   UNL A   1      33.542  24.516  24.570  1.00  0.00     0.047 A 
ATOM     21  S   UNL A   1      32.273  23.204  26.350  1.00  0.00    -0.073 S 
ATOM     22  C   UNL A   1      33.567  22.366  25.457  1.00  0.00     0.307 A 
ATOM     23  O   UNL A   1      33.885  21.226  25.718  1.00  0.00    -0.257 OA
ENDBRANCH   9  10
ENDBRANCH   8   9
ENDBRANCH   7   8
ENDBRANCH   4   7
ENDBRANCH   2   3
ENDBRANCH   1   2
BRANCH   1  24
ATOM     24  C   UNL A   1      41.627  20.502  27.238  1.00  0.00     0.023 C 
BRANCH  24  25
ATOM     25  C   UNL A   1      41.797  20.101  25.779  1.00  0.00     0.116 C 
BRANCH  25  26
ATOM     26  N   UNL A   1      43.126  19.568  25.476  1.00  0.00    -0.352 N 
ATOM     27  C   UNL A   1      44.231  20.287  25.052  1.00  0.00     0.251 C 
ATOM     28  H   UNL A   1      43.247  18.596  25.585  1.00  0.00     0.163 HD
ATOM     29  O   UNL A   1      45.146  19.753  24.438  1.00  0.00    -0.269 OA
BRANCH  27  30
ATOM     30  C   UNL A   1      44.274  21.721  25.379  1.00  0.00     0.039 A 
ATOM     31  C   UNL A   1      43.386  22.634  24.808  1.00  0.00     0.014 A 
ATOM     32  C   UNL A   1      45.175  22.110  26.369  1.00  0.00     0.014 A 
ATOM     33  C   UNL A   1      43.347  23.931  25.315  1.00  0.00     0.010 A 
ATOM     34  C   UNL A   1      45.032  23.340  26.961  1.00  0.00     0.010 A 
ATOM     35  C   UNL A   1      44.152  24.271  26.417  1.00  0.00    -0.014 A 
BRANCH  35  36
ATOM     36  C   UNL A   1      43.954  25.543  27.118  1.00  0.00     0.031 A 
ATOM     37  C   UNL A   1      44.993  26.562  26.798  1.00  0.00     0.074 A 
ATOM     38  C   UNL A   1      42.814  25.856  27.778  1.00  0.00     0.049 A 
ATOM     39  N   UNL A   1      45.947  26.992  27.558  1.00  0.00    -0.248 NA
ATOM     40  C   UNL A   1      45.108  27.026  25.402  1.00  0.00     0.031 C 
ATOM     41  C   UNL A   1      41.579  25.062  27.836  1.00  0.00     0.029 A 
ATOM     42  N   UNL A   1      42.457  26.998  28.437  1.00  0.00    -0.354 N 
ATOM     43  C   UNL A   1      46.569  28.008  26.832  1.00  0.00     0.074 A 
ATOM     44  C   UNL A   1      46.201  27.793  25.461  1.00  0.00     0.031 C 
ATOM     45  C   UNL A   1      40.555  25.836  28.251  1.00  0.00     0.029 A 
ATOM     46  C   UNL A   1      41.089  27.112  28.683  1.00  0.00     0.049 A 
ATOM     47  H   UNL A   1      43.109  27.683  28.714  1.00  0.00     0.167 HD
ATOM     48  C   UNL A   1      47.015  29.130  27.466  1.00  0.00     0.037 A 
ATOM     49  C   UNL A   1      40.426  28.168  29.215  1.00  0.00     0.037 A 
ATOM     50  C   UNL A   1      47.034  28.914  28.892  1.00  0.00     0.049 A 
ATOM     51  C   UNL A   1      41.416  28.976  29.964  1.00  0.00     0.074 A 
ATOM     52  C   UNL A   1      47.798  28.213  29.797  1.00  0.00     0.029 A 
ATOM     53  N   UNL A   1      45.839  29.201  29.497  1.00  0.00    -0.354 N 
ATOM     54  N   UNL A   1      42.052  28.535  31.017  1.00  0.00    -0.248 NA
ATOM     55  C   UNL A   1      41.994  30.158  29.336  1.00  0.00     0.031 C 
ATOM     56  C   UNL A   1      46.952  27.960  30.919  1.00  0.00     0.029 A 
ATOM     57  C   UNL A   1      45.714  28.558  30.697  1.00  0.00     0.049 A 
ATOM     58  H   UNL A   1      45.154  29.796  29.114  1.00  0.00     0.167 HD
ATOM     59  C   UNL A   1      43.307  29.101  30.920  1.00  0.00     0.074 A 
ATOM     60  C   UNL A   1      43.160  30.210  29.984  1.00  0.00     0.031 C 
ATOM     61  C   UNL A   1      44.417  28.419  31.325  1.00  0.00     0.037 A 
BRANCH  48  62
ATOM     62  C   UNL A   1      46.919  30.552  26.922  1.00  0.00     0.058 A 
ATOM     63  C   UNL A   1      48.055  31.392  27.013  1.00  0.00     0.135 A 
ATOM     64  C   UNL A   1      45.712  31.220  26.616  1.00  0.00     0.135 A 
ATOM     65  F   UNL A   1      49.265  30.876  27.286  1.00  0.00    -0.206 F 
ATOM     66  C   UNL A   1      47.980  32.783  26.903  1.00  0.00     0.059 A 
ATOM     67  C   UNL A   1      45.623  32.601  26.459  1.00  0.00     0.059 A 
ATOM     68  F   UNL A   1      44.536  30.591  26.540  1.00  0.00    -0.206 F 
ATOM     69  C   UNL A   1      46.751  33.379  26.643  1.00  0.00     0.060 A 
BRANCH  69  70
ATOM     70  S   UNL A   1      46.624  35.175  26.586  1.00  0.00     0.124 S 
ATOM     71  O   UNL A   1      47.507  35.496  25.470  1.00  0.00    -0.237 OA
ATOM     72  O   UNL A   1      45.197  35.368  26.350  1.00  0.00    -0.237 OA
ATOM     73  O   UNL A   1      47.096  35.586  27.905  1.00  0.00    -0.744 OA
ENDBRANCH  69  70
ENDBRANCH  48  62
BRANCH  49  74
ATOM     74  C   UNL A   1      39.050  28.646  28.924  1.00  0.00     0.058 A 
ATOM     75  C   UNL A   1      38.065  28.728  29.924  1.00  0.00     0.135 A 
ATOM     76  C   UNL A   1      38.756  29.295  27.708  1.00  0.00     0.135 A 
ATOM     77  F   UNL A   1      38.269  28.155  31.119  1.00  0.00    -0.206 F 
ATOM     78  C   UNL A   1      36.878  29.448  29.745  1.00  0.00     0.059 A 
ATOM     79  C   UNL A   1      37.579  30.016  27.504  1.00  0.00     0.059 A 
ATOM     80  F   UNL A   1      39.654  29.319  26.710  1.00  0.00    -0.206 F 
ATOM     81  C   UNL A   1      36.652  30.107  28.536  1.00  0.00     0.060 A 
BRANCH  81  82
ATOM     82  S   UNL A   1      35.195  31.167  28.360  1.00  0.00     0.124 S 
ATOM     83  O   UNL A   1      35.694  32.224  27.487  1.00  0.00    -0.237 OA
ATOM     84  O   UNL A   1      34.221  30.259  27.765  1.00  0.00    -0.237 OA
ATOM     85  O   UNL A   1      34.905  31.577  29.732  1.00  0.00    -0.744 OA
ENDBRANCH  81  82
ENDBRANCH  49  74
BRANCH  61  86
ATOM     86  C   UNL A   1      44.259  27.385  32.398  1.00  0.00     0.058 A 
ATOM     87  C   UNL A   1      44.042  27.645  33.759  1.00  0.00     0.135 A 
ATOM     88  C   UNL A   1      44.238  26.043  31.985  1.00  0.00     0.135 A 
ATOM     89  F   UNL A   1      43.972  28.903  34.219  1.00  0.00    -0.206 F 
ATOM     90  C   UNL A   1      43.838  26.609  34.676  1.00  0.00     0.059 A 
ATOM     91  C   UNL A   1      44.007  25.001  32.871  1.00  0.00     0.059 A 
ATOM     92  F   UNL A   1      44.399  25.737  30.686  1.00  0.00    -0.206 F 
ATOM     93  C   UNL A   1      43.821  25.290  34.219  1.00  0.00     0.060 A 
BRANCH  93  94
ATOM     94  S   UNL A   1      43.494  23.950  35.384  1.00  0.00     0.124 S 
ATOM     95  O   UNL A   1      43.959  24.518  36.645  1.00  0.00    -0.237 OA
ATOM     96  O   UNL A   1      42.049  23.771  35.263  1.00  0.00    -0.237 OA
ATOM     97  O   UNL A   1      44.294  22.842  34.867  1.00  0.00    -0.744 OA
ENDBRANCH  93  94
ENDBRANCH  61  86
ENDBRANCH  35  36
ENDBRANCH  27  30
ENDBRANCH  25  26
ENDBRANCH  24  25
ENDBRANCH   1  24
TORSDOF 17
ENDMDL
MODEL 3
REMARK VINA RESULT:     -11.7      3.150      8.232
REMARK SMILES C[N@H+]1[C@H]2CC[C@@H]1c1sc(=O)n(CCCC(=O)NCCCCNC(=O)c3ccc(-c4c5nc(c(-c6c(F)cc(S(=O)(=O)[O-])cc6F)c6ccc([nH]6)c(-c6c(F)cc(S(=O)(=O)[O-])cc6F)c6nc(c(-c7c(F)cc(S(=O)(=O)[O-])cc7F)c7ccc4[nH]7)C=C6)C=C5)cc3)c1C2
REMARK SMILES IDX 19 1 18 2 17 3 15 4 16 5 14 7 13 8 12 9 11 10 1 11 2 12 3 13
REMARK SMILES IDX 6 14 4 16 92 17 5 18 7 19 91 20 8 21 9 22 10 23 20 24 21 25
REMARK SMILES IDX 22 26 23 27 24 29 25 30 26 31 90 32 27 33 89 34 28 35 29 36
REMARK SMILES IDX 30 37 83 38 31 39 88 40 82 41 84 42 32 43 87 44 81 45 80 46
REMARK SMILES IDX 33 48 67 49 46 50 66 51 47 52 50 53 65 54 85 55 48 56 49 57
REMARK SMILES IDX 64 59 86 60 51 61 34 62 35 63 44 64 36 65 37 66 43 67 45 68
REMARK SMILES IDX 38 69 39 70 40 71 41 72 42 73 68 74 69 75 78 76 70 77 71 78
REMARK SMILES IDX 77 79 79 80 72 81 73 82 74 83 75 84 76 85 52 86 53 87 62 88
REMARK SMILES IDX 54 89 55 90 61 91 63 92 56 93 57 94 58 95 59 96 60 97
REMARK H PARENT 17 6 2 15 22 28 84 47 50 58
REMARK Flexibility Score: inf
ROOT
ATOM      1  C   UNL A   1      37.284  21.012  24.648  1.00  0.00     0.023 C 
ENDROOT
BRANCH   1   2
ATOM      2  C   UNL A   1      37.270  22.247  25.564  1.00  0.00     0.116 C 
BRANCH   2   3
ATOM      3  N   UNL A   1      36.154  22.191  26.486  1.00  0.00    -0.356 N 
ATOM      4  C   UNL A   1      34.818  22.348  26.290  1.00  0.00     0.220 C 
ATOM      5  O   UNL A   1      34.097  22.365  27.291  1.00  0.00    -0.275 OA
ATOM      6  H   UNL A   1      36.408  22.007  27.419  1.00  0.00     0.163 HD
BRANCH   4   7
ATOM      7  C   UNL A   1      34.206  22.411  24.903  1.00  0.00     0.102 C 
BRANCH   7   8
ATOM      8  C   UNL A   1      33.595  23.717  24.390  1.00  0.00     0.032 C 
BRANCH   8   9
ATOM      9  C   UNL A   1      34.393  25.020  24.323  1.00  0.00     0.127 C 
BRANCH   9  10
ATOM     10  N   UNL A   1      33.810  26.297  23.901  1.00  0.00    -0.302 N 
ATOM     11  C   UNL A   1      34.023  30.755  27.152  1.00  0.00     0.333 C 
ATOM     12  N   UNL A   1      33.886  29.520  26.388  1.00  0.00    -0.328 N 
ATOM     13  C   UNL A   1      33.253  28.410  27.127  1.00  0.00     0.190 C 
ATOM     14  C   UNL A   1      32.987  29.670  25.206  1.00  0.00     0.227 C 
ATOM     15  H   UNL A   1      34.857  29.318  26.148  1.00  0.00     0.348 HD
ATOM     16  C   UNL A   1      31.768  28.788  27.109  1.00  0.00     0.072 C 
ATOM     17  C   UNL A   1      33.564  27.088  26.344  1.00  0.00     0.120 C 
ATOM     18  C   UNL A   1      31.568  29.533  25.785  1.00  0.00     0.077 C 
ATOM     19  C   UNL A   1      33.238  28.480  24.326  1.00  0.00     0.087 A 
ATOM     20  C   UNL A   1      33.537  27.281  24.845  1.00  0.00     0.047 A 
ATOM     21  S   UNL A   1      33.204  28.461  22.610  1.00  0.00    -0.073 S 
ATOM     22  C   UNL A   1      33.597  26.723  22.588  1.00  0.00     0.307 A 
ATOM     23  O   UNL A   1      33.649  26.096  21.552  1.00  0.00    -0.257 OA
ENDBRANCH   9  10
ENDBRANCH   8   9
ENDBRANCH   7   8
ENDBRANCH   4   7
ENDBRANCH   2   3
ENDBRANCH   1   2
BRANCH   1  24
ATOM     24  C   UNL A   1      38.171  19.851  25.114  1.00  0.00     0.023 C 
BRANCH  24  25
ATOM     25  C   UNL A   1      39.430  20.282  25.854  1.00  0.00     0.116 C 
BRANCH  25  26
ATOM     26  N   UNL A   1      40.489  19.272  25.833  1.00  0.00    -0.352 N 
ATOM     27  C   UNL A   1      41.853  19.499  25.906  1.00  0.00     0.251 C 
ATOM     28  H   UNL A   1      40.202  18.333  25.759  1.00  0.00     0.163 HD
ATOM     29  O   UNL A   1      42.662  18.686  25.477  1.00  0.00    -0.269 OA
BRANCH  27  30
ATOM     30  C   UNL A   1      42.300  20.753  26.535  1.00  0.00     0.039 A 
ATOM     31  C   UNL A   1      42.732  21.843  25.777  1.00  0.00     0.014 A 
ATOM     32  C   UNL A   1      42.171  20.839  27.920  1.00  0.00     0.014 A 
ATOM     33  C   UNL A   1      42.942  23.059  26.422  1.00  0.00     0.010 A 
ATOM     34  C   UNL A   1      42.237  22.069  28.524  1.00  0.00     0.010 A 
ATOM     35  C   UNL A   1      42.660  23.177  27.796  1.00  0.00    -0.014 A 
BRANCH  35  36
ATOM     36  C   UNL A   1      42.638  24.492  28.440  1.00  0.00     0.031 A 
ATOM     37  C   UNL A   1      41.408  25.279  28.137  1.00  0.00     0.074 A 
ATOM     38  C   UNL A   1      43.506  24.857  29.413  1.00  0.00     0.049 A 
ATOM     39  N   UNL A   1      41.297  26.323  27.383  1.00  0.00    -0.248 NA
ATOM     40  C   UNL A   1      40.108  24.733  28.569  1.00  0.00     0.031 C 
ATOM     41  C   UNL A   1      44.528  24.011  30.048  1.00  0.00     0.029 A 
ATOM     42  N   UNL A   1      43.593  26.012  30.136  1.00  0.00    -0.354 N 
ATOM     43  C   UNL A   1      39.971  26.737  27.516  1.00  0.00     0.074 A 
ATOM     44  C   UNL A   1      39.253  25.598  28.015  1.00  0.00     0.031 C 
ATOM     45  C   UNL A   1      44.935  24.575  31.204  1.00  0.00     0.029 A 
ATOM     46  C   UNL A   1      44.366  25.906  31.292  1.00  0.00     0.049 A 
ATOM     47  H   UNL A   1      43.148  26.848  29.866  1.00  0.00     0.167 HD
ATOM     48  C   UNL A   1      39.669  28.066  27.559  1.00  0.00     0.037 A 
ATOM     49  C   UNL A   1      44.549  26.840  32.258  1.00  0.00     0.037 A 
ATOM     50  C   UNL A   1      40.806  28.843  27.130  1.00  0.00     0.049 A 
ATOM     51  C   UNL A   1      44.226  28.156  31.662  1.00  0.00     0.074 A 
ATOM     52  C   UNL A   1      41.448  29.124  25.945  1.00  0.00     0.029 A 
ATOM     53  N   UNL A   1      41.672  29.138  28.148  1.00  0.00    -0.354 N 
ATOM     54  N   UNL A   1      44.908  28.686  30.682  1.00  0.00    -0.248 NA
ATOM     55  C   UNL A   1      42.911  28.742  31.894  1.00  0.00     0.031 C 
ATOM     56  C   UNL A   1      42.792  29.456  26.291  1.00  0.00     0.029 A 
ATOM     57  C   UNL A   1      42.924  29.426  27.678  1.00  0.00     0.049 A 
ATOM     58  H   UNL A   1      41.426  29.142  29.101  1.00  0.00     0.167 HD
ATOM     59  C   UNL A   1      43.962  29.348  29.925  1.00  0.00     0.074 A 
ATOM     60  C   UNL A   1      42.804  29.496  30.798  1.00  0.00     0.031 C 
ATOM     61  C   UNL A   1      44.066  29.405  28.566  1.00  0.00     0.037 A 
BRANCH  48  62
ATOM     62  C   UNL A   1      38.616  28.706  28.460  1.00  0.00     0.058 A 
ATOM     63  C   UNL A   1      37.826  29.758  27.938  1.00  0.00     0.135 A 
ATOM     64  C   UNL A   1      38.563  28.566  29.865  1.00  0.00     0.135 A 
ATOM     65  F   UNL A   1      37.781  29.987  26.615  1.00  0.00    -0.206 F 
ATOM     66  C   UNL A   1      37.119  30.649  28.750  1.00  0.00     0.059 A 
ATOM     67  C   UNL A   1      37.830  29.416  30.689  1.00  0.00     0.059 A 
ATOM     68  F   UNL A   1      39.284  27.658  30.529  1.00  0.00    -0.206 F 
ATOM     69  C   UNL A   1      37.143  30.478  30.130  1.00  0.00     0.060 A 
BRANCH  69  70
ATOM     70  S   UNL A   1      36.310  31.670  31.193  1.00  0.00     0.124 S 
ATOM     71  O   UNL A   1      35.096  31.942  30.432  1.00  0.00    -0.237 OA
ATOM     72  O   UNL A   1      36.138  30.906  32.423  1.00  0.00    -0.237 OA
ATOM     73  O   UNL A   1      37.265  32.770  31.274  1.00  0.00    -0.744 OA
ENDBRANCH  69  70
ENDBRANCH  48  62
BRANCH  49  74
ATOM     74  C   UNL A   1      44.755  26.642  33.716  1.00  0.00     0.058 A 
ATOM     75  C   UNL A   1      43.712  26.226  34.563  1.00  0.00     0.135 A 
ATOM     76  C   UNL A   1      46.054  26.592  34.259  1.00  0.00     0.135 A 
ATOM     77  F   UNL A   1      42.445  26.224  34.122  1.00  0.00    -0.206 F 
ATOM     78  C   UNL A   1      43.948  25.747  35.857  1.00  0.00     0.059 A 
ATOM     79  C   UNL A   1      46.314  26.122  35.547  1.00  0.00     0.059 A 
ATOM     80  F   UNL A   1      47.121  26.918  33.513  1.00  0.00    -0.206 F 
ATOM     81  C   UNL A   1      45.257  25.679  36.334  1.00  0.00     0.060 A 
BRANCH  81  82
ATOM     82  S   UNL A   1      45.579  24.914  37.943  1.00  0.00     0.124 S 
ATOM     83  O   UNL A   1      46.983  25.246  38.161  1.00  0.00    -0.237 OA
ATOM     84  O   UNL A   1      44.623  25.596  38.808  1.00  0.00    -0.237 OA
ATOM     85  O   UNL A   1      45.303  23.499  37.707  1.00  0.00    -0.744 OA
ENDBRANCH  81  82
ENDBRANCH  49  74
BRANCH  61  86
ATOM     86  C   UNL A   1      45.433  29.321  27.958  1.00  0.00     0.058 A 
ATOM     87  C   UNL A   1      46.390  30.347  27.953  1.00  0.00     0.135 A 
ATOM     88  C   UNL A   1      45.815  28.078  27.428  1.00  0.00     0.135 A 
ATOM     89  F   UNL A   1      46.128  31.539  28.508  1.00  0.00    -0.206 F 
ATOM     90  C   UNL A   1      47.667  30.150  27.418  1.00  0.00     0.059 A 
ATOM     91  C   UNL A   1      47.085  27.850  26.920  1.00  0.00     0.059 A 
ATOM     92  F   UNL A   1      44.953  27.047  27.444  1.00  0.00    -0.206 F 
ATOM     93  C   UNL A   1      48.004  28.896  26.906  1.00  0.00     0.060 A 
BRANCH  93  94
ATOM     94  S   UNL A   1      49.671  28.613  26.273  1.00  0.00     0.124 S 
ATOM     95  O   UNL A   1      49.408  28.024  24.964  1.00  0.00    -0.237 OA
ATOM     96  O   UNL A   1      50.238  29.959  26.262  1.00  0.00    -0.237 OA
ATOM     97  O   UNL A   1      50.263  27.707  27.256  1.00  0.00    -0.744 OA
ENDBRANCH  93  94
ENDBRANCH  61  86
ENDBRANCH  35  36
ENDBRANCH  27  30
ENDBRANCH  25  26
ENDBRANCH  24  25
ENDBRANCH   1  24
TORSDOF 17
ENDMDL
