MODEL 1
REMARK VINA RESULT:      -8.9      0.000      0.000
REMARK SMILES C[C@H]([NH2+]CCc1ccco1)[C@@H](C)C(=O)NCCCCNC(=O)c1ccc(-c2c3nc(c(-c4c(F)cc(S(=O)(=O)[O-])cc4F)c4ccc([nH]4)c(-c4c(F)cc(S(=O)(=O)[O-])cc4F)c4nc(c(-c5c(F)cc(S(=O)(=O)[O-])cc5F)c5ccc2[nH]5)C=C4)C=C3)cc1
REMARK SMILES IDX 16 1 15 2 13 3 14 4 11 6 12 7 2 8 1 9 3 10 4 13 5 14 6 15
REMARK SMILES IDX 7 16 10 17 8 18 9 19 17 20 18 21 19 22 20 23 21 24 22 26
REMARK SMILES IDX 23 27 24 28 88 29 25 30 87 31 26 32 27 33 28 34 81 35 29 36
REMARK SMILES IDX 86 37 80 38 82 39 30 40 85 41 79 42 78 43 31 45 65 46 44 47
REMARK SMILES IDX 64 48 45 49 48 50 63 51 83 52 46 53 47 54 62 56 84 57 49 58
REMARK SMILES IDX 32 59 33 60 42 61 34 62 35 63 41 64 43 65 36 66 37 67 38 68
REMARK SMILES IDX 39 69 40 70 66 71 67 72 76 73 68 74 69 75 75 76 77 77 70 78
REMARK SMILES IDX 71 79 72 80 73 81 74 82 50 83 51 84 60 85 52 86 53 87 59 88
REMARK SMILES IDX 61 89 54 90 55 91 56 92 57 93 58 94
REMARK H PARENT 15 5 3 11 3 12 20 25 82 44 48 55
REMARK Flexibility Score: inf
ROOT
ATOM      1  C   UNL A   1      42.844  20.188  25.750  1.00  0.00     0.116 C 
ENDROOT
BRANCH   1   2
ATOM      2  N   UNL A   1      44.285  20.040  25.669  1.00  0.00    -0.356 N 
ATOM      3  C   UNL A   1      45.273  20.956  25.469  1.00  0.00     0.228 C 
ATOM      4  O   UNL A   1      46.433  20.534  25.424  1.00  0.00    -0.275 OA
ATOM      5  H   UNL A   1      44.605  19.115  25.775  1.00  0.00     0.163 HD
BRANCH   3   6
ATOM      6  C   UNL A   1      44.996  22.451  25.324  1.00  0.00     0.133 C 
ATOM      7  C   UNL A   1      45.451  22.943  23.946  1.00  0.00     0.024 C 
BRANCH   6   8
ATOM      8  C   UNL A   1      45.516  23.263  26.534  1.00  0.00     0.191 C 
ATOM      9  C   UNL A   1      44.450  23.308  27.642  1.00  0.00     0.076 C 
BRANCH   8  10
ATOM     10  N   UNL A   1      45.899  24.626  26.125  1.00  0.00    -0.343 N 
ATOM     11  H   UNL A   1      46.386  24.577  25.229  1.00  0.00     0.346 HD
ATOM     12  H   UNL A   1      46.501  25.016  26.850  1.00  0.00     0.346 HD
BRANCH  10  13
ATOM     13  C   UNL A   1      44.729  25.507  25.982  1.00  0.00     0.268 C 
BRANCH  13  14
ATOM     14  C   UNL A   1      45.101  26.890  25.431  1.00  0.00     0.136 C 
BRANCH  14  15
ATOM     15  C   UNL A   1      44.417  28.020  26.119  1.00  0.00     0.109 A 
ATOM     16  C   UNL A   1      44.814  28.884  27.118  1.00  0.00     0.046 A 
ATOM     17  O   UNL A   1      43.147  28.321  25.722  1.00  0.00    -0.469 OA
ATOM     18  C   UNL A   1      43.735  29.777  27.324  1.00  0.00     0.042 A 
ATOM     19  C   UNL A   1      42.748  29.395  26.447  1.00  0.00     0.195 A 
ENDBRANCH  14  15
ENDBRANCH  13  14
ENDBRANCH  10  13
ENDBRANCH   8  10
ENDBRANCH   6   8
ENDBRANCH   3   6
ENDBRANCH   1   2
BRANCH   1  20
ATOM     20  C   UNL A   1      42.288  19.683  27.082  1.00  0.00     0.023 C 
BRANCH  20  21
ATOM     21  C   UNL A   1      41.228  20.580  27.718  1.00  0.00     0.023 C 
BRANCH  21  22
ATOM     22  C   UNL A   1      41.029  21.931  27.045  1.00  0.00     0.116 C 
BRANCH  22  23
ATOM     23  N   UNL A   1      39.829  21.996  26.224  1.00  0.00    -0.352 N 
ATOM     24  C   UNL A   1      38.943  23.038  26.085  1.00  0.00     0.251 C 
ATOM     25  H   UNL A   1      39.625  21.188  25.702  1.00  0.00     0.163 HD
ATOM     26  O   UNL A   1      37.916  22.892  25.428  1.00  0.00    -0.269 OA
BRANCH  24  27
ATOM     27  C   UNL A   1      39.222  24.317  26.767  1.00  0.00     0.039 A 
ATOM     28  C   UNL A   1      38.750  24.506  28.068  1.00  0.00     0.014 A 
ATOM     29  C   UNL A   1      39.991  25.303  26.143  1.00  0.00     0.014 A 
ATOM     30  C   UNL A   1      39.118  25.654  28.773  1.00  0.00     0.010 A 
ATOM     31  C   UNL A   1      40.413  26.410  26.870  1.00  0.00     0.010 A 
ATOM     32  C   UNL A   1      39.986  26.594  28.194  1.00  0.00    -0.014 A 
BRANCH  32  33
ATOM     33  C   UNL A   1      40.468  27.772  28.957  1.00  0.00     0.031 A 
ATOM     34  C   UNL A   1      41.833  27.752  29.586  1.00  0.00     0.074 A 
ATOM     35  C   UNL A   1      39.648  28.825  29.145  1.00  0.00     0.049 A 
ATOM     36  N   UNL A   1      42.397  28.641  30.362  1.00  0.00    -0.248 NA
ATOM     37  C   UNL A   1      42.661  26.562  29.335  1.00  0.00     0.031 C 
ATOM     38  C   UNL A   1      38.284  28.941  28.625  1.00  0.00     0.029 A 
ATOM     39  N   UNL A   1      39.839  29.996  29.836  1.00  0.00    -0.354 N 
ATOM     40  C   UNL A   1      43.636  28.114  30.702  1.00  0.00     0.074 A 
ATOM     41  C   UNL A   1      43.721  26.805  30.091  1.00  0.00     0.031 C 
ATOM     42  C   UNL A   1      37.770  30.125  28.996  1.00  0.00     0.029 A 
ATOM     43  C   UNL A   1      38.751  30.836  29.809  1.00  0.00     0.049 A 
ATOM     44  H   UNL A   1      40.676  30.213  30.307  1.00  0.00     0.167 HD
ATOM     45  C   UNL A   1      44.625  28.678  31.437  1.00  0.00     0.037 A 
ATOM     46  C   UNL A   1      38.565  32.042  30.380  1.00  0.00     0.037 A 
ATOM     47  C   UNL A   1      44.546  29.991  32.020  1.00  0.00     0.049 A 
ATOM     48  C   UNL A   1      39.678  32.651  31.189  1.00  0.00     0.074 A 
ATOM     49  C   UNL A   1      45.511  30.674  32.738  1.00  0.00     0.029 A 
ATOM     50  N   UNL A   1      43.437  30.822  31.950  1.00  0.00    -0.354 N 
ATOM     51  N   UNL A   1      40.865  32.159  31.457  1.00  0.00    -0.248 NA
ATOM     52  C   UNL A   1      39.428  33.976  31.771  1.00  0.00     0.031 C 
ATOM     53  C   UNL A   1      44.976  31.906  33.129  1.00  0.00     0.029 A 
ATOM     54  C   UNL A   1      43.690  32.006  32.623  1.00  0.00     0.049 A 
ATOM     55  H   UNL A   1      42.595  30.602  31.490  1.00  0.00     0.167 HD
ATOM     56  C   UNL A   1      41.513  33.127  32.215  1.00  0.00     0.074 A 
ATOM     57  C   UNL A   1      40.589  34.234  32.358  1.00  0.00     0.031 C 
ATOM     58  C   UNL A   1      42.760  33.101  32.747  1.00  0.00     0.037 A 
BRANCH  45  59
ATOM     59  C   UNL A   1      45.879  27.873  31.641  1.00  0.00     0.058 A 
ATOM     60  C   UNL A   1      46.961  27.966  30.752  1.00  0.00     0.135 A 
ATOM     61  C   UNL A   1      46.006  27.011  32.741  1.00  0.00     0.135 A 
ATOM     62  F   UNL A   1      46.886  28.763  29.674  1.00  0.00    -0.206 F 
ATOM     63  C   UNL A   1      48.112  27.204  30.925  1.00  0.00     0.059 A 
ATOM     64  C   UNL A   1      47.159  26.260  32.950  1.00  0.00     0.059 A 
ATOM     65  F   UNL A   1      45.001  26.885  33.623  1.00  0.00    -0.206 F 
ATOM     66  C   UNL A   1      48.200  26.350  32.026  1.00  0.00     0.060 A 
BRANCH  66  67
ATOM     67  S   UNL A   1      49.694  25.359  32.232  1.00  0.00     0.124 S 
ATOM     68  O   UNL A   1      49.244  24.352  33.188  1.00  0.00    -0.237 OA
ATOM     69  O   UNL A   1      49.942  24.878  30.877  1.00  0.00    -0.237 OA
ATOM     70  O   UNL A   1      50.669  26.318  32.742  1.00  0.00    -0.744 OA
ENDBRANCH  66  67
ENDBRANCH  45  59
BRANCH  46  71
ATOM     71  C   UNL A   1      37.284  32.769  30.178  1.00  0.00     0.058 A 
ATOM     72  C   UNL A   1      37.124  33.652  29.100  1.00  0.00     0.135 A 
ATOM     73  C   UNL A   1      36.194  32.585  31.042  1.00  0.00     0.135 A 
ATOM     74  F   UNL A   1      38.140  33.864  28.251  1.00  0.00    -0.206 F 
ATOM     75  C   UNL A   1      35.931  34.337  28.891  1.00  0.00     0.059 A 
ATOM     76  C   UNL A   1      34.985  33.242  30.841  1.00  0.00     0.059 A 
ATOM     77  F   UNL A   1      36.292  31.737  32.078  1.00  0.00    -0.206 F 
ATOM     78  C   UNL A   1      34.866  34.124  29.768  1.00  0.00     0.060 A 
BRANCH  78  79
ATOM     79  S   UNL A   1      33.304  34.977  29.456  1.00  0.00     0.124 S 
ATOM     80  O   UNL A   1      32.679  34.932  30.773  1.00  0.00    -0.237 OA
ATOM     81  O   UNL A   1      33.755  36.291  29.008  1.00  0.00    -0.237 OA
ATOM     82  O   UNL A   1      32.674  34.155  28.428  1.00  0.00    -0.744 OA
ENDBRANCH  78  79
ENDBRANCH  46  71
BRANCH  58  83
ATOM     83  C   UNL A   1      43.215  34.318  33.501  1.00  0.00     0.058 A 
ATOM     84  C   UNL A   1      43.681  35.463  32.838  1.00  0.00     0.135 A 
ATOM     85  C   UNL A   1      43.129  34.358  34.901  1.00  0.00     0.135 A 
ATOM     86  F   UNL A   1      43.789  35.471  31.499  1.00  0.00    -0.206 F 
ATOM     87  C   UNL A   1      44.065  36.601  33.538  1.00  0.00     0.059 A 
ATOM     88  C   UNL A   1      43.485  35.494  35.621  1.00  0.00     0.059 A 
ATOM     89  F   UNL A   1      42.680  33.292  35.583  1.00  0.00    -0.206 F 
ATOM     90  C   UNL A   1      43.961  36.608  34.931  1.00  0.00     0.060 A 
BRANCH  90  91
ATOM     91  S   UNL A   1      44.422  38.106  35.828  1.00  0.00     0.124 S 
ATOM     92  O   UNL A   1      45.853  37.899  36.027  1.00  0.00    -0.237 OA
ATOM     93  O   UNL A   1      44.059  39.161  34.886  1.00  0.00    -0.237 OA
ATOM     94  O   UNL A   1      43.603  38.043  37.035  1.00  0.00    -0.744 OA
ENDBRANCH  90  91
ENDBRANCH  58  83
ENDBRANCH  32  33
ENDBRANCH  24  27
ENDBRANCH  22  23
ENDBRANCH  21  22
ENDBRANCH  20  21
ENDBRANCH   1  20
TORSDOF 19
ENDMDL
MODEL 2
REMARK VINA RESULT:      -8.8      3.714      6.257
REMARK SMILES C[C@H]([NH2+]CCc1ccco1)[C@@H](C)C(=O)NCCCCNC(=O)c1ccc(-c2c3nc(c(-c4c(F)cc(S(=O)(=O)[O-])cc4F)c4ccc([nH]4)c(-c4c(F)cc(S(=O)(=O)[O-])cc4F)c4nc(c(-c5c(F)cc(S(=O)(=O)[O-])cc5F)c5ccc2[nH]5)C=C4)C=C3)cc1
REMARK SMILES IDX 16 1 15 2 13 3 14 4 11 6 12 7 2 8 1 9 3 10 4 13 5 14 6 15
REMARK SMILES IDX 7 16 10 17 8 18 9 19 17 20 18 21 19 22 20 23 21 24 22 26
REMARK SMILES IDX 23 27 24 28 88 29 25 30 87 31 26 32 27 33 28 34 81 35 29 36
REMARK SMILES IDX 86 37 80 38 82 39 30 40 85 41 79 42 78 43 31 45 65 46 44 47
REMARK SMILES IDX 64 48 45 49 48 50 63 51 83 52 46 53 47 54 62 56 84 57 49 58
REMARK SMILES IDX 32 59 33 60 42 61 34 62 35 63 41 64 43 65 36 66 37 67 38 68
REMARK SMILES IDX 39 69 40 70 66 71 67 72 76 73 68 74 69 75 75 76 77 77 70 78
REMARK SMILES IDX 71 79 72 80 73 81 74 82 50 83 51 84 60 85 52 86 53 87 59 88
REMARK SMILES IDX 61 89 54 90 55 91 56 92 57 93 58 94
REMARK H PARENT 15 5 3 11 3 12 20 25 82 44 48 55
REMARK Flexibility Score: inf
ROOT
ATOM      1  C   UNL A   1      33.684  24.306  24.636  1.00  0.00     0.116 C 
ENDROOT
BRANCH   1   2
ATOM      2  N   UNL A   1      34.030  25.671  24.288  1.00  0.00    -0.356 N 
ATOM      3  C   UNL A   1      33.280  26.689  23.783  1.00  0.00     0.228 C 
ATOM      4  O   UNL A   1      33.855  27.759  23.560  1.00  0.00    -0.275 OA
ATOM      5  H   UNL A   1      34.975  25.902  24.444  1.00  0.00     0.163 HD
BRANCH   3   6
ATOM      6  C   UNL A   1      31.783  26.553  23.510  1.00  0.00     0.133 C 
ATOM      7  C   UNL A   1      31.524  26.475  22.001  1.00  0.00     0.024 C 
BRANCH   6   8
ATOM      8  C   UNL A   1      30.949  27.603  24.282  1.00  0.00     0.191 C 
ATOM      9  C   UNL A   1      30.493  28.724  23.332  1.00  0.00     0.076 C 
BRANCH   8  10
ATOM     10  N   UNL A   1      31.717  28.157  25.410  1.00  0.00    -0.343 N 
ATOM     11  H   UNL A   1      32.700  27.908  25.295  1.00  0.00     0.346 HD
ATOM     12  H   UNL A   1      31.338  27.766  26.273  1.00  0.00     0.346 HD
BRANCH  10  13
ATOM     13  C   UNL A   1      31.604  29.622  25.486  1.00  0.00     0.268 C 
BRANCH  13  14
ATOM     14  C   UNL A   1      31.903  30.160  26.892  1.00  0.00     0.136 C 
BRANCH  14  15
ATOM     15  C   UNL A   1      33.356  30.263  27.204  1.00  0.00     0.109 A 
ATOM     16  C   UNL A   1      34.157  31.317  27.590  1.00  0.00     0.046 A 
ATOM     17  O   UNL A   1      34.097  29.121  27.124  1.00  0.00    -0.469 OA
ATOM     18  C   UNL A   1      35.455  30.783  27.779  1.00  0.00     0.042 A 
ATOM     19  C   UNL A   1      35.363  29.443  27.487  1.00  0.00     0.195 A 
ENDBRANCH  14  15
ENDBRANCH  13  14
ENDBRANCH  10  13
ENDBRANCH   8  10
ENDBRANCH   6   8
ENDBRANCH   3   6
ENDBRANCH   1   2
BRANCH   1  20
ATOM     20  C   UNL A   1      34.056  23.968  26.080  1.00  0.00     0.023 C 
BRANCH  20  21
ATOM     21  C   UNL A   1      35.194  22.960  26.232  1.00  0.00     0.023 C 
BRANCH  21  22
ATOM     22  C   UNL A   1      36.571  23.466  25.821  1.00  0.00     0.116 C 
BRANCH  22  23
ATOM     23  N   UNL A   1      37.624  22.476  25.990  1.00  0.00    -0.352 N 
ATOM     24  C   UNL A   1      38.919  22.667  26.409  1.00  0.00     0.251 C 
ATOM     25  H   UNL A   1      37.375  21.548  25.776  1.00  0.00     0.163 HD
ATOM     26  O   UNL A   1      39.716  21.734  26.397  1.00  0.00    -0.269 OA
BRANCH  24  27
ATOM     27  C   UNL A   1      39.348  24.015  26.833  1.00  0.00     0.039 A 
ATOM     28  C   UNL A   1      39.259  24.357  28.184  1.00  0.00     0.014 A 
ATOM     29  C   UNL A   1      39.884  24.914  25.908  1.00  0.00     0.014 A 
ATOM     30  C   UNL A   1      39.783  25.576  28.621  1.00  0.00     0.010 A 
ATOM     31  C   UNL A   1      40.467  26.095  26.354  1.00  0.00     0.010 A 
ATOM     32  C   UNL A   1      40.427  26.435  27.716  1.00  0.00    -0.014 A 
BRANCH  32  33
ATOM     33  C   UNL A   1      41.076  27.690  28.170  1.00  0.00     0.031 A 
ATOM     34  C   UNL A   1      42.572  27.826  28.111  1.00  0.00     0.074 A 
ATOM     35  C   UNL A   1      40.325  28.672  28.706  1.00  0.00     0.049 A 
ATOM     36  N   UNL A   1      43.330  28.801  28.542  1.00  0.00    -0.248 NA
ATOM     37  C   UNL A   1      43.316  26.704  27.516  1.00  0.00     0.031 C 
ATOM     38  C   UNL A   1      38.870  28.637  28.862  1.00  0.00     0.029 A 
ATOM     39  N   UNL A   1      40.684  29.889  29.230  1.00  0.00    -0.354 N 
ATOM     40  C   UNL A   1      44.636  28.407  28.284  1.00  0.00     0.074 A 
ATOM     41  C   UNL A   1      44.572  27.081  27.707  1.00  0.00     0.031 C 
ATOM     42  C   UNL A   1      38.458  29.787  29.421  1.00  0.00     0.029 A 
ATOM     43  C   UNL A   1      39.621  30.625  29.696  1.00  0.00     0.049 A 
ATOM     44  H   UNL A   1      41.616  30.205  29.268  1.00  0.00     0.167 HD
ATOM     45  C   UNL A   1      45.785  29.095  28.487  1.00  0.00     0.037 A 
ATOM     46  C   UNL A   1      39.588  31.837  30.284  1.00  0.00     0.037 A 
ATOM     47  C   UNL A   1      45.842  30.424  29.036  1.00  0.00     0.049 A 
ATOM     48  C   UNL A   1      40.876  32.585  30.496  1.00  0.00     0.074 A 
ATOM     49  C   UNL A   1      46.950  31.228  29.234  1.00  0.00     0.029 A 
ATOM     50  N   UNL A   1      44.741  31.146  29.474  1.00  0.00    -0.354 N 
ATOM     51  N   UNL A   1      42.099  32.217  30.198  1.00  0.00    -0.248 NA
ATOM     52  C   UNL A   1      40.779  33.910  31.122  1.00  0.00     0.031 C 
ATOM     53  C   UNL A   1      46.524  32.424  29.820  1.00  0.00     0.029 A 
ATOM     54  C   UNL A   1      45.145  32.381  29.953  1.00  0.00     0.049 A 
ATOM     55  H   UNL A   1      43.810  30.827  29.448  1.00  0.00     0.167 HD
ATOM     56  C   UNL A   1      42.916  33.277  30.575  1.00  0.00     0.074 A 
ATOM     57  C   UNL A   1      42.046  34.302  31.116  1.00  0.00     0.031 C 
ATOM     58  C   UNL A   1      44.263  33.392  30.481  1.00  0.00     0.037 A 
BRANCH  45  59
ATOM     59  C   UNL A   1      47.073  28.419  28.102  1.00  0.00     0.058 A 
ATOM     60  C   UNL A   1      47.586  28.509  26.799  1.00  0.00     0.135 A 
ATOM     61  C   UNL A   1      47.806  27.685  29.047  1.00  0.00     0.135 A 
ATOM     62  F   UNL A   1      46.916  29.185  25.852  1.00  0.00    -0.206 F 
ATOM     63  C   UNL A   1      48.764  27.864  26.435  1.00  0.00     0.059 A 
ATOM     64  C   UNL A   1      49.001  27.054  28.712  1.00  0.00     0.059 A 
ATOM     65  F   UNL A   1      47.360  27.567  30.308  1.00  0.00    -0.206 F 
ATOM     66  C   UNL A   1      49.463  27.135  27.399  1.00  0.00     0.060 A 
BRANCH  66  67
ATOM     67  S   UNL A   1      50.982  26.294  26.910  1.00  0.00     0.124 S 
ATOM     68  O   UNL A   1      51.953  26.898  27.817  1.00  0.00    -0.237 OA
ATOM     69  O   UNL A   1      50.663  24.893  27.166  1.00  0.00    -0.237 OA
ATOM     70  O   UNL A   1      51.130  26.652  25.502  1.00  0.00    -0.744 OA
ENDBRANCH  66  67
ENDBRANCH  45  59
BRANCH  46  71
ATOM     71  C   UNL A   1      38.285  32.433  30.683  1.00  0.00     0.058 A 
ATOM     72  C   UNL A   1      37.797  32.278  31.987  1.00  0.00     0.135 A 
ATOM     73  C   UNL A   1      37.516  33.182  29.779  1.00  0.00     0.135 A 
ATOM     74  F   UNL A   1      38.495  31.566  32.885  1.00  0.00    -0.206 F 
ATOM     75  C   UNL A   1      36.584  32.833  32.382  1.00  0.00     0.059 A 
ATOM     76  C   UNL A   1      36.311  33.765  30.156  1.00  0.00     0.059 A 
ATOM     77  F   UNL A   1      37.950  33.374  28.523  1.00  0.00    -0.206 F 
ATOM     78  C   UNL A   1      35.848  33.577  31.458  1.00  0.00     0.060 A 
BRANCH  78  79
ATOM     79  S   UNL A   1      34.300  34.339  31.995  1.00  0.00     0.124 S 
ATOM     80  O   UNL A   1      33.623  34.553  30.722  1.00  0.00    -0.237 OA
ATOM     81  O   UNL A   1      33.731  33.306  32.856  1.00  0.00    -0.237 OA
ATOM     82  O   UNL A   1      34.745  35.545  32.687  1.00  0.00    -0.744 OA
ENDBRANCH  78  79
ENDBRANCH  46  71
BRANCH  58  83
ATOM     83  C   UNL A   1      44.880  34.683  30.942  1.00  0.00     0.058 A 
ATOM     84  C   UNL A   1      44.935  35.809  30.108  1.00  0.00     0.135 A 
ATOM     85  C   UNL A   1      45.370  34.808  32.251  1.00  0.00     0.135 A 
ATOM     86  F   UNL A   1      44.486  35.738  28.844  1.00  0.00    -0.206 F 
ATOM     87  C   UNL A   1      45.472  37.014  30.551  1.00  0.00     0.059 A 
ATOM     88  C   UNL A   1      45.890  36.008  32.723  1.00  0.00     0.059 A 
ATOM     89  F   UNL A   1      45.332  33.761  33.091  1.00  0.00    -0.206 F 
ATOM     90  C   UNL A   1      45.946  37.104  31.861  1.00  0.00     0.060 A 
BRANCH  90  91
ATOM     91  S   UNL A   1      46.602  38.684  32.439  1.00  0.00     0.124 S 
ATOM     92  O   UNL A   1      47.615  38.968  31.427  1.00  0.00    -0.237 OA
ATOM     93  O   UNL A   1      45.422  39.543  32.414  1.00  0.00    -0.237 OA
ATOM     94  O   UNL A   1      47.114  38.371  33.770  1.00  0.00    -0.744 OA
ENDBRANCH  90  91
ENDBRANCH  58  83
ENDBRANCH  32  33
ENDBRANCH  24  27
ENDBRANCH  22  23
ENDBRANCH  21  22
ENDBRANCH  20  21
ENDBRANCH   1  20
TORSDOF 19
ENDMDL
MODEL 3
REMARK VINA RESULT:      -8.8      5.145     11.223
REMARK SMILES C[C@H]([NH2+]CCc1ccco1)[C@@H](C)C(=O)NCCCCNC(=O)c1ccc(-c2c3nc(c(-c4c(F)cc(S(=O)(=O)[O-])cc4F)c4ccc([nH]4)c(-c4c(F)cc(S(=O)(=O)[O-])cc4F)c4nc(c(-c5c(F)cc(S(=O)(=O)[O-])cc5F)c5ccc2[nH]5)C=C4)C=C3)cc1
REMARK SMILES IDX 16 1 15 2 13 3 14 4 11 6 12 7 2 8 1 9 3 10 4 13 5 14 6 15
REMARK SMILES IDX 7 16 10 17 8 18 9 19 17 20 18 21 19 22 20 23 21 24 22 26
REMARK SMILES IDX 23 27 24 28 88 29 25 30 87 31 26 32 27 33 28 34 81 35 29 36
REMARK SMILES IDX 86 37 80 38 82 39 30 40 85 41 79 42 78 43 31 45 65 46 44 47
REMARK SMILES IDX 64 48 45 49 48 50 63 51 83 52 46 53 47 54 62 56 84 57 49 58
REMARK SMILES IDX 32 59 33 60 42 61 34 62 35 63 41 64 43 65 36 66 37 67 38 68
REMARK SMILES IDX 39 69 40 70 66 71 67 72 76 73 68 74 69 75 75 76 77 77 70 78
REMARK SMILES IDX 71 79 72 80 73 81 74 82 50 83 51 84 60 85 52 86 53 87 59 88
REMARK SMILES IDX 61 89 54 90 55 91 56 92 57 93 58 94
REMARK H PARENT 15 5 3 11 3 12 20 25 82 44 48 55
REMARK Flexibility Score: inf
ROOT
ATOM      1  C   UNL A   1      32.953  29.621  26.428  1.00  0.00     0.116 C 
ENDROOT
BRANCH   1   2
ATOM      2  N   UNL A   1      33.545  29.414  25.119  1.00  0.00    -0.356 N 
ATOM      3  C   UNL A   1      33.654  28.298  24.348  1.00  0.00     0.228 C 
ATOM      4  O   UNL A   1      34.238  28.413  23.266  1.00  0.00    -0.275 OA
ATOM      5  H   UNL A   1      33.938  30.223  24.719  1.00  0.00     0.163 HD
BRANCH   3   6
ATOM      6  C   UNL A   1      33.072  26.948  24.763  1.00  0.00     0.133 C 
ATOM      7  C   UNL A   1      34.075  25.826  24.471  1.00  0.00     0.024 C 
BRANCH   6   8
ATOM      8  C   UNL A   1      31.642  26.732  24.215  1.00  0.00     0.191 C 
ATOM      9  C   UNL A   1      31.173  25.295  24.502  1.00  0.00     0.076 C 
BRANCH   8  10
ATOM     10  N   UNL A   1      31.585  27.019  22.771  1.00  0.00    -0.343 N 
ATOM     11  H   UNL A   1      31.577  26.137  22.258  1.00  0.00     0.346 HD
ATOM     12  H   UNL A   1      32.402  27.579  22.528  1.00  0.00     0.346 HD
BRANCH  10  13
ATOM     13  C   UNL A   1      30.383  27.789  22.410  1.00  0.00     0.268 C 
BRANCH  13  14
ATOM     14  C   UNL A   1      30.078  28.904  23.418  1.00  0.00     0.136 C 
BRANCH  14  15
ATOM     15  C   UNL A   1      29.250  30.011  22.864  1.00  0.00     0.109 A 
ATOM     16  C   UNL A   1      28.692  31.138  23.431  1.00  0.00     0.046 A 
ATOM     17  O   UNL A   1      28.958  29.970  21.531  1.00  0.00    -0.469 OA
ATOM     18  C   UNL A   1      28.046  31.835  22.382  1.00  0.00     0.042 A 
ATOM     19  C   UNL A   1      28.241  31.085  21.247  1.00  0.00     0.195 A 
ENDBRANCH  14  15
ENDBRANCH  13  14
ENDBRANCH  10  13
ENDBRANCH   8  10
ENDBRANCH   6   8
ENDBRANCH   3   6
ENDBRANCH   1   2
BRANCH   1  20
ATOM     20  C   UNL A   1      32.040  30.847  26.458  1.00  0.00     0.023 C 
BRANCH  20  21
ATOM     21  C   UNL A   1      32.293  31.810  27.617  1.00  0.00     0.023 C 
BRANCH  21  22
ATOM     22  C   UNL A   1      33.271  32.940  27.321  1.00  0.00     0.116 C 
BRANCH  22  23
ATOM     23  N   UNL A   1      32.799  34.242  27.768  1.00  0.00    -0.352 N 
ATOM     24  C   UNL A   1      33.218  34.980  28.849  1.00  0.00     0.251 C 
ATOM     25  H   UNL A   1      32.086  34.648  27.224  1.00  0.00     0.163 HD
ATOM     26  O   UNL A   1      32.640  36.020  29.149  1.00  0.00    -0.269 OA
BRANCH  24  27
ATOM     27  C   UNL A   1      34.343  34.484  29.667  1.00  0.00     0.039 A 
ATOM     28  C   UNL A   1      34.072  33.907  30.910  1.00  0.00     0.014 A 
ATOM     29  C   UNL A   1      35.653  34.541  29.184  1.00  0.00     0.014 A 
ATOM     30  C   UNL A   1      35.108  33.315  31.635  1.00  0.00     0.010 A 
ATOM     31  C   UNL A   1      36.670  33.890  29.873  1.00  0.00     0.010 A 
ATOM     32  C   UNL A   1      36.407  33.266  31.103  1.00  0.00    -0.014 A 
BRANCH  32  33
ATOM     33  C   UNL A   1      37.504  32.558  31.808  1.00  0.00     0.031 A 
ATOM     34  C   UNL A   1      38.002  33.072  33.130  1.00  0.00     0.074 A 
ATOM     35  C   UNL A   1      38.101  31.502  31.221  1.00  0.00     0.049 A 
ATOM     36  N   UNL A   1      39.005  32.649  33.855  1.00  0.00    -0.248 NA
ATOM     37  C   UNL A   1      37.297  34.233  33.697  1.00  0.00     0.031 C 
ATOM     38  C   UNL A   1      37.739  30.940  29.918  1.00  0.00     0.029 A 
ATOM     39  N   UNL A   1      39.146  30.717  31.641  1.00  0.00    -0.354 N 
ATOM     40  C   UNL A   1      39.061  33.498  34.953  1.00  0.00     0.074 A 
ATOM     41  C   UNL A   1      38.025  34.491  34.774  1.00  0.00     0.031 C 
ATOM     42  C   UNL A   1      38.533  29.889  29.656  1.00  0.00     0.029 A 
ATOM     43  C   UNL A   1      39.484  29.724  30.751  1.00  0.00     0.049 A 
ATOM     44  H   UNL A   1      39.611  30.853  32.498  1.00  0.00     0.167 HD
ATOM     45  C   UNL A   1      39.886  33.441  36.027  1.00  0.00     0.037 A 
ATOM     46  C   UNL A   1      40.452  28.790  30.811  1.00  0.00     0.037 A 
ATOM     47  C   UNL A   1      40.897  32.435  36.214  1.00  0.00     0.049 A 
ATOM     48  C   UNL A   1      41.354  28.744  32.014  1.00  0.00     0.074 A 
ATOM     49  C   UNL A   1      41.749  32.259  37.289  1.00  0.00     0.029 A 
ATOM     50  N   UNL A   1      41.192  31.432  35.302  1.00  0.00    -0.354 N 
ATOM     51  N   UNL A   1      41.359  29.524  33.069  1.00  0.00    -0.248 NA
ATOM     52  C   UNL A   1      42.379  27.693  32.036  1.00  0.00     0.031 C 
ATOM     53  C   UNL A   1      42.581  31.168  37.015  1.00  0.00     0.029 A 
ATOM     54  C   UNL A   1      42.221  30.641  35.785  1.00  0.00     0.049 A 
ATOM     55  H   UNL A   1      40.736  31.301  34.439  1.00  0.00     0.167 HD
ATOM     56  C   UNL A   1      42.368  29.040  33.893  1.00  0.00     0.074 A 
ATOM     57  C   UNL A   1      42.948  27.897  33.217  1.00  0.00     0.031 C 
ATOM     58  C   UNL A   1      42.779  29.501  35.101  1.00  0.00     0.037 A 
BRANCH  45  59
ATOM     59  C   UNL A   1      39.717  34.497  37.084  1.00  0.00     0.058 A 
ATOM     60  C   UNL A   1      40.361  35.741  36.986  1.00  0.00     0.135 A 
ATOM     61  C   UNL A   1      38.896  34.270  38.199  1.00  0.00     0.135 A 
ATOM     62  F   UNL A   1      41.171  36.004  35.948  1.00  0.00    -0.206 F 
ATOM     63  C   UNL A   1      40.225  36.710  37.975  1.00  0.00     0.059 A 
ATOM     64  C   UNL A   1      38.724  35.235  39.187  1.00  0.00     0.059 A 
ATOM     65  F   UNL A   1      38.256  33.098  38.342  1.00  0.00    -0.206 F 
ATOM     66  C   UNL A   1      39.407  36.446  39.075  1.00  0.00     0.060 A 
BRANCH  66  67
ATOM     67  S   UNL A   1      39.251  37.707  40.356  1.00  0.00     0.124 S 
ATOM     68  O   UNL A   1      40.565  38.340  40.301  1.00  0.00    -0.237 OA
ATOM     69  O   UNL A   1      38.138  38.515  39.869  1.00  0.00    -0.237 OA
ATOM     70  O   UNL A   1      38.977  36.932  41.563  1.00  0.00    -0.744 OA
ENDBRANCH  66  67
ENDBRANCH  45  59
BRANCH  46  71
ATOM     71  C   UNL A   1      40.598  27.800  29.711  1.00  0.00     0.058 A 
ATOM     72  C   UNL A   1      39.691  26.739  29.579  1.00  0.00     0.135 A 
ATOM     73  C   UNL A   1      41.628  27.904  28.765  1.00  0.00     0.135 A 
ATOM     74  F   UNL A   1      38.693  26.596  30.463  1.00  0.00    -0.206 F 
ATOM     75  C   UNL A   1      39.807  25.806  28.554  1.00  0.00     0.059 A 
ATOM     76  C   UNL A   1      41.752  26.997  27.718  1.00  0.00     0.059 A 
ATOM     77  F   UNL A   1      42.511  28.913  28.839  1.00  0.00    -0.206 F 
ATOM     78  C   UNL A   1      40.841  25.944  27.627  1.00  0.00     0.060 A 
BRANCH  78  79
ATOM     79  S   UNL A   1      40.951  24.759  26.267  1.00  0.00     0.124 S 
ATOM     80  O   UNL A   1      41.173  25.641  25.128  1.00  0.00    -0.237 OA
ATOM     81  O   UNL A   1      42.088  23.935  26.668  1.00  0.00    -0.237 OA
ATOM     82  O   UNL A   1      39.656  24.086  26.305  1.00  0.00    -0.744 OA
ENDBRANCH  78  79
ENDBRANCH  46  71
BRANCH  58  83
ATOM     83  C   UNL A   1      43.885  28.749  35.786  1.00  0.00     0.058 A 
ATOM     84  C   UNL A   1      45.230  29.117  35.632  1.00  0.00     0.135 A 
ATOM     85  C   UNL A   1      43.589  27.684  36.651  1.00  0.00     0.135 A 
ATOM     86  F   UNL A   1      45.564  30.125  34.810  1.00  0.00    -0.206 F 
ATOM     87  C   UNL A   1      46.247  28.444  36.299  1.00  0.00     0.059 A 
ATOM     88  C   UNL A   1      44.588  27.011  37.347  1.00  0.00     0.059 A 
ATOM     89  F   UNL A   1      42.317  27.299  36.841  1.00  0.00    -0.206 F 
ATOM     90  C   UNL A   1      45.916  27.392  37.156  1.00  0.00     0.060 A 
BRANCH  90  91
ATOM     91  S   UNL A   1      47.241  26.551  38.049  1.00  0.00     0.124 S 
ATOM     92  O   UNL A   1      46.550  26.118  39.259  1.00  0.00    -0.237 OA
ATOM     93  O   UNL A   1      47.621  25.489  37.122  1.00  0.00    -0.237 OA
ATOM     94  O   UNL A   1      48.241  27.598  38.236  1.00  0.00    -0.744 OA
ENDBRANCH  90  91
ENDBRANCH  58  83
ENDBRANCH  32  33
ENDBRANCH  24  27
ENDBRANCH  22  23
ENDBRANCH  21  22
ENDBRANCH  20  21
ENDBRANCH   1  20
TORSDOF 19
ENDMDL
