MODEL 1
REMARK VINA RESULT:     -11.3      0.000      0.000
REMARK SMILES C[C@@H](SC1CCOCC1)c1ccc(C(=O)NCCCCNC(=O)c2ccc(-c3c4nc(c(-c5c(F)cc(S(=O)(=O)[O-])cc5F)c5ccc([nH]5)c(-c5c(F)cc(S(=O)(=O)[O-])cc5F)c5nc(c(-c6c(F)cc(S(=O)(=O)[O-])cc6F)c6ccc3[nH]6)C=C5)C=C4)cc2)o1
REMARK SMILES IDX 18 1 17 2 16 3 14 4 15 5 13 7 10 8 11 9 90 10 12 11 2 12
REMARK SMILES IDX 1 13 3 14 4 15 5 16 9 17 6 18 8 19 7 20 19 21 20 22 21 23
REMARK SMILES IDX 22 24 23 26 24 27 25 28 89 29 26 30 88 31 27 32 28 33 29 34
REMARK SMILES IDX 82 35 30 36 87 37 81 38 83 39 31 40 86 41 80 42 79 43 32 45
REMARK SMILES IDX 66 46 45 47 65 48 46 49 49 50 64 51 84 52 47 53 48 54 63 56
REMARK SMILES IDX 85 57 50 58 33 59 34 60 43 61 35 62 36 63 42 64 44 65 37 66
REMARK SMILES IDX 38 67 39 68 40 69 41 70 67 71 68 72 77 73 69 74 70 75 76 76
REMARK SMILES IDX 78 77 71 78 72 79 73 80 74 81 75 82 51 83 52 84 61 85 53 86
REMARK SMILES IDX 54 87 60 88 62 89 55 90 56 91 57 92 58 93 59 94
REMARK H PARENT 16 6 21 25 83 44 49 55
REMARK Flexibility Score: inf
ROOT
ATOM      1  C   UNL A   1      31.329  27.394  26.738  1.00  0.00     0.023 C 
ENDROOT
BRANCH   1   2
ATOM      2  C   UNL A   1      31.049  25.995  26.191  1.00  0.00     0.116 C 
BRANCH   2   3
ATOM      3  N   UNL A   1      31.203  25.947  24.756  1.00  0.00    -0.349 N 
ATOM      4  C   UNL A   1      32.177  25.386  23.963  1.00  0.00     0.286 C 
ATOM      5  O   UNL A   1      31.983  25.482  22.747  1.00  0.00    -0.266 OA
ATOM      6  H   UNL A   1      30.484  26.397  24.256  1.00  0.00     0.163 HD
BRANCH   4   7
ATOM      7  C   UNL A   1      33.345  24.718  24.518  1.00  0.00     0.191 A 
ATOM      8  C   UNL A   1      34.551  22.872  24.866  1.00  0.00     0.117 A 
ATOM      9  C   UNL A   1      35.240  23.910  25.454  1.00  0.00     0.047 A 
ATOM     10  O   UNL A   1      33.393  23.357  24.334  1.00  0.00    -0.455 OA
ATOM     11  C   UNL A   1      34.493  25.090  25.194  1.00  0.00     0.056 A 
BRANCH   8  12
ATOM     12  C   UNL A   1      34.807  21.396  24.714  1.00  0.00     0.110 C 
ATOM     13  C   UNL A   1      36.186  21.018  25.269  1.00  0.00     0.028 C 
BRANCH  12  14
ATOM     14  S   UNL A   1      33.518  20.457  25.649  1.00  0.00    -0.147 SA
BRANCH  14  15
ATOM     15  C   UNL A   1      33.211  18.968  24.616  1.00  0.00     0.052 C 
ATOM     16  C   UNL A   1      34.386  18.013  24.424  1.00  0.00     0.043 C 
ATOM     17  C   UNL A   1      32.591  19.332  23.265  1.00  0.00     0.043 C 
ATOM     18  C   UNL A   1      33.946  16.810  23.598  1.00  0.00     0.161 C 
ATOM     19  C   UNL A   1      32.240  18.050  22.515  1.00  0.00     0.161 C 
ATOM     20  O   UNL A   1      33.394  17.228  22.351  1.00  0.00    -0.381 OA
ENDBRANCH  14  15
ENDBRANCH  12  14
ENDBRANCH   8  12
ENDBRANCH   4   7
ENDBRANCH   2   3
ENDBRANCH   1   2
BRANCH   1  21
ATOM     21  C   UNL A   1      32.594  28.048  26.168  1.00  0.00     0.023 C 
BRANCH  21  22
ATOM     22  C   UNL A   1      33.643  28.456  27.202  1.00  0.00     0.116 C 
BRANCH  22  23
ATOM     23  N   UNL A   1      33.536  29.846  27.617  1.00  0.00    -0.352 N 
ATOM     24  C   UNL A   1      34.493  30.637  28.211  1.00  0.00     0.251 C 
ATOM     25  H   UNL A   1      32.666  30.278  27.453  1.00  0.00     0.163 HD
ATOM     26  O   UNL A   1      34.211  31.766  28.589  1.00  0.00    -0.269 OA
BRANCH  24  27
ATOM     27  C   UNL A   1      35.850  30.090  28.426  1.00  0.00     0.039 A 
ATOM     28  C   UNL A   1      36.752  30.096  27.359  1.00  0.00     0.014 A 
ATOM     29  C   UNL A   1      36.238  29.612  29.679  1.00  0.00     0.014 A 
ATOM     30  C   UNL A   1      38.070  29.686  27.571  1.00  0.00     0.010 A 
ATOM     31  C   UNL A   1      37.567  29.263  29.902  1.00  0.00     0.010 A 
ATOM     32  C   UNL A   1      38.497  29.304  28.852  1.00  0.00    -0.014 A 
BRANCH  32  33
ATOM     33  C   UNL A   1      39.916  28.957  29.119  1.00  0.00     0.031 A 
ATOM     34  C   UNL A   1      40.850  29.986  29.692  1.00  0.00     0.074 A 
ATOM     35  C   UNL A   1      40.377  27.737  28.774  1.00  0.00     0.049 A 
ATOM     36  N   UNL A   1      42.136  29.900  29.916  1.00  0.00    -0.248 NA
ATOM     37  C   UNL A   1      40.268  31.294  30.034  1.00  0.00     0.031 C 
ATOM     38  C   UNL A   1      39.580  26.672  28.160  1.00  0.00     0.029 A 
ATOM     39  N   UNL A   1      41.632  27.192  28.877  1.00  0.00    -0.354 N 
ATOM     40  C   UNL A   1      42.520  31.142  30.406  1.00  0.00     0.074 A 
ATOM     41  C   UNL A   1      41.340  31.980  30.405  1.00  0.00     0.031 C 
ATOM     42  C   UNL A   1      40.360  25.599  27.957  1.00  0.00     0.029 A 
ATOM     43  C   UNL A   1      41.718  25.907  28.393  1.00  0.00     0.049 A 
ATOM     44  H   UNL A   1      42.399  27.675  29.261  1.00  0.00     0.167 HD
ATOM     45  C   UNL A   1      43.740  31.541  30.836  1.00  0.00     0.037 A 
ATOM     46  C   UNL A   1      42.775  25.076  28.305  1.00  0.00     0.037 A 
ATOM     47  C   UNL A   1      44.902  30.691  30.869  1.00  0.00     0.049 A 
ATOM     48  C   UNL A   1      44.115  25.537  28.810  1.00  0.00     0.074 A 
ATOM     49  C   UNL A   1      46.167  30.981  31.348  1.00  0.00     0.029 A 
ATOM     50  N   UNL A   1      44.939  29.384  30.406  1.00  0.00    -0.354 N 
ATOM     51  N   UNL A   1      44.445  26.695  29.330  1.00  0.00    -0.248 NA
ATOM     52  C   UNL A   1      45.225  24.578  28.723  1.00  0.00     0.031 C 
ATOM     53  C   UNL A   1      46.979  29.861  31.146  1.00  0.00     0.029 A 
ATOM     54  C   UNL A   1      46.209  28.859  30.577  1.00  0.00     0.049 A 
ATOM     55  H   UNL A   1      44.176  28.901  30.015  1.00  0.00     0.167 HD
ATOM     56  C   UNL A   1      45.792  26.593  29.658  1.00  0.00     0.074 A 
ATOM     57  C   UNL A   1      46.213  25.258  29.287  1.00  0.00     0.031 C 
ATOM     58  C   UNL A   1      46.607  27.521  30.217  1.00  0.00     0.037 A 
BRANCH  45  59
ATOM     59  C   UNL A   1      43.881  32.956  31.323  1.00  0.00     0.058 A 
ATOM     60  C   UNL A   1      44.153  34.012  30.439  1.00  0.00     0.135 A 
ATOM     61  C   UNL A   1      43.694  33.268  32.678  1.00  0.00     0.135 A 
ATOM     62  F   UNL A   1      44.357  33.766  29.135  1.00  0.00    -0.206 F 
ATOM     63  C   UNL A   1      44.256  35.325  30.885  1.00  0.00     0.059 A 
ATOM     64  C   UNL A   1      43.766  34.578  33.144  1.00  0.00     0.059 A 
ATOM     65  F   UNL A   1      43.433  32.296  33.567  1.00  0.00    -0.206 F 
ATOM     66  C   UNL A   1      44.059  35.598  32.240  1.00  0.00     0.060 A 
BRANCH  66  67
ATOM     67  S   UNL A   1      44.177  37.311  32.799  1.00  0.00     0.124 S 
ATOM     68  O   UNL A   1      44.054  38.037  31.539  1.00  0.00    -0.237 OA
ATOM     69  O   UNL A   1      43.040  37.422  33.707  1.00  0.00    -0.237 OA
ATOM     70  O   UNL A   1      45.490  37.372  33.433  1.00  0.00    -0.744 OA
ENDBRANCH  66  67
ENDBRANCH  45  59
BRANCH  46  71
ATOM     71  C   UNL A   1      42.606  23.712  27.735  1.00  0.00     0.058 A 
ATOM     72  C   UNL A   1      42.418  22.601  28.571  1.00  0.00     0.135 A 
ATOM     73  C   UNL A   1      42.636  23.491  26.350  1.00  0.00     0.135 A 
ATOM     74  F   UNL A   1      42.388  22.761  29.902  1.00  0.00    -0.206 F 
ATOM     75  C   UNL A   1      42.289  21.315  28.056  1.00  0.00     0.059 A 
ATOM     76  C   UNL A   1      42.484  22.218  25.810  1.00  0.00     0.059 A 
ATOM     77  F   UNL A   1      42.794  24.524  25.507  1.00  0.00    -0.206 F 
ATOM     78  C   UNL A   1      42.325  21.134  26.673  1.00  0.00     0.060 A 
BRANCH  78  79
ATOM     79  S   UNL A   1      42.124  19.466  26.011  1.00  0.00     0.124 S 
ATOM     80  O   UNL A   1      42.631  18.651  27.110  1.00  0.00    -0.237 OA
ATOM     81  O   UNL A   1      40.685  19.397  25.776  1.00  0.00    -0.237 OA
ATOM     82  O   UNL A   1      42.946  19.483  24.805  1.00  0.00    -0.744 OA
ENDBRANCH  78  79
ENDBRANCH  46  71
BRANCH  58  83
ATOM     83  C   UNL A   1      48.026  27.116  30.498  1.00  0.00     0.058 A 
ATOM     84  C   UNL A   1      49.034  27.242  29.531  1.00  0.00     0.135 A 
ATOM     85  C   UNL A   1      48.390  26.648  31.771  1.00  0.00     0.135 A 
ATOM     86  F   UNL A   1      48.736  27.680  28.297  1.00  0.00    -0.206 F 
ATOM     87  C   UNL A   1      50.354  26.899  29.809  1.00  0.00     0.059 A 
ATOM     88  C   UNL A   1      49.707  26.321  32.079  1.00  0.00     0.059 A 
ATOM     89  F   UNL A   1      47.464  26.519  32.734  1.00  0.00    -0.206 F 
ATOM     90  C   UNL A   1      50.680  26.440  31.087  1.00  0.00     0.060 A 
BRANCH  90  91
ATOM     91  S   UNL A   1      52.401  26.033  31.449  1.00  0.00     0.124 S 
ATOM     92  O   UNL A   1      52.717  26.997  32.498  1.00  0.00    -0.237 OA
ATOM     93  O   UNL A   1      52.311  24.640  31.875  1.00  0.00    -0.237 OA
ATOM     94  O   UNL A   1      53.076  26.249  30.172  1.00  0.00    -0.744 OA
ENDBRANCH  90  91
ENDBRANCH  58  83
ENDBRANCH  32  33
ENDBRANCH  24  27
ENDBRANCH  22  23
ENDBRANCH  21  22
ENDBRANCH   1  21
TORSDOF 17
ENDMDL
MODEL 2
REMARK VINA RESULT:     -11.1      3.619      7.061
REMARK SMILES C[C@@H](SC1CCOCC1)c1ccc(C(=O)NCCCCNC(=O)c2ccc(-c3c4nc(c(-c5c(F)cc(S(=O)(=O)[O-])cc5F)c5ccc([nH]5)c(-c5c(F)cc(S(=O)(=O)[O-])cc5F)c5nc(c(-c6c(F)cc(S(=O)(=O)[O-])cc6F)c6ccc3[nH]6)C=C5)C=C4)cc2)o1
REMARK SMILES IDX 18 1 17 2 16 3 14 4 15 5 13 7 10 8 11 9 90 10 12 11 2 12
REMARK SMILES IDX 1 13 3 14 4 15 5 16 9 17 6 18 8 19 7 20 19 21 20 22 21 23
REMARK SMILES IDX 22 24 23 26 24 27 25 28 89 29 26 30 88 31 27 32 28 33 29 34
REMARK SMILES IDX 82 35 30 36 87 37 81 38 83 39 31 40 86 41 80 42 79 43 32 45
REMARK SMILES IDX 66 46 45 47 65 48 46 49 49 50 64 51 84 52 47 53 48 54 63 56
REMARK SMILES IDX 85 57 50 58 33 59 34 60 43 61 35 62 36 63 42 64 44 65 37 66
REMARK SMILES IDX 38 67 39 68 40 69 41 70 67 71 68 72 77 73 69 74 70 75 76 76
REMARK SMILES IDX 78 77 71 78 72 79 73 80 74 81 75 82 51 83 52 84 61 85 53 86
REMARK SMILES IDX 54 87 60 88 62 89 55 90 56 91 57 92 58 93 59 94
REMARK H PARENT 16 6 21 25 83 44 49 55
REMARK Flexibility Score: inf
ROOT
ATOM      1  C   UNL A   1      34.424  34.683  28.101  1.00  0.00     0.023 C 
ENDROOT
BRANCH   1   2
ATOM      2  C   UNL A   1      33.068  34.748  28.803  1.00  0.00     0.116 C 
BRANCH   2   3
ATOM      3  N   UNL A   1      32.966  35.915  29.647  1.00  0.00    -0.349 N 
ATOM      4  C   UNL A   1      33.338  36.128  30.954  1.00  0.00     0.286 C 
ATOM      5  O   UNL A   1      33.153  37.275  31.371  1.00  0.00    -0.266 OA
ATOM      6  H   UNL A   1      32.556  36.696  29.211  1.00  0.00     0.163 HD
BRANCH   4   7
ATOM      7  C   UNL A   1      33.918  35.080  31.781  1.00  0.00     0.191 A 
ATOM      8  C   UNL A   1      35.620  33.738  32.314  1.00  0.00     0.117 A 
ATOM      9  C   UNL A   1      34.603  33.456  33.200  1.00  0.00     0.047 A 
ATOM     10  O   UNL A   1      35.192  34.692  31.439  1.00  0.00    -0.455 OA
ATOM     11  C   UNL A   1      33.537  34.341  32.886  1.00  0.00     0.056 A 
BRANCH   8  12
ATOM     12  C   UNL A   1      37.024  33.224  32.130  1.00  0.00     0.110 C 
ATOM     13  C   UNL A   1      37.511  33.459  30.695  1.00  0.00     0.028 C 
BRANCH  12  14
ATOM     14  S   UNL A   1      38.154  34.119  33.289  1.00  0.00    -0.147 SA
BRANCH  14  15
ATOM     15  C   UNL A   1      38.788  32.801  34.402  1.00  0.00     0.052 C 
ATOM     16  C   UNL A   1      40.004  32.018  33.912  1.00  0.00     0.043 C 
ATOM     17  C   UNL A   1      37.678  31.845  34.842  1.00  0.00     0.043 C 
ATOM     18  C   UNL A   1      40.434  31.013  34.975  1.00  0.00     0.161 C 
ATOM     19  C   UNL A   1      38.241  30.861  35.864  1.00  0.00     0.161 C 
ATOM     20  O   UNL A   1      39.352  30.149  35.321  1.00  0.00    -0.381 OA
ENDBRANCH  14  15
ENDBRANCH  12  14
ENDBRANCH   8  12
ENDBRANCH   4   7
ENDBRANCH   2   3
ENDBRANCH   1   2
BRANCH   1  21
ATOM     21  C   UNL A   1      34.992  33.264  27.966  1.00  0.00     0.023 C 
BRANCH  21  22
ATOM     22  C   UNL A   1      34.411  32.231  28.931  1.00  0.00     0.116 C 
BRANCH  22  23
ATOM     23  N   UNL A   1      33.890  31.046  28.267  1.00  0.00    -0.352 N 
ATOM     24  C   UNL A   1      34.566  29.905  27.900  1.00  0.00     0.251 C 
ATOM     25  H   UNL A   1      32.930  31.062  28.051  1.00  0.00     0.163 HD
ATOM     26  O   UNL A   1      33.998  29.032  27.258  1.00  0.00    -0.269 OA
BRANCH  24  27
ATOM     27  C   UNL A   1      35.995  29.768  28.254  1.00  0.00     0.039 A 
ATOM     28  C   UNL A   1      36.330  29.345  29.542  1.00  0.00     0.014 A 
ATOM     29  C   UNL A   1      36.993  30.017  27.308  1.00  0.00     0.014 A 
ATOM     30  C   UNL A   1      37.669  29.103  29.861  1.00  0.00     0.010 A 
ATOM     31  C   UNL A   1      38.318  29.717  27.609  1.00  0.00     0.010 A 
ATOM     32  C   UNL A   1      38.668  29.251  28.885  1.00  0.00    -0.014 A 
BRANCH  32  33
ATOM     33  C   UNL A   1      40.083  28.907  29.175  1.00  0.00     0.031 A 
ATOM     34  C   UNL A   1      41.002  29.936  29.774  1.00  0.00     0.074 A 
ATOM     35  C   UNL A   1      40.556  27.693  28.829  1.00  0.00     0.049 A 
ATOM     36  N   UNL A   1      42.284  29.854  30.021  1.00  0.00    -0.248 NA
ATOM     37  C   UNL A   1      40.408  31.239  30.115  1.00  0.00     0.031 C 
ATOM     38  C   UNL A   1      39.775  26.629  28.192  1.00  0.00     0.029 A 
ATOM     39  N   UNL A   1      41.811  27.152  28.951  1.00  0.00    -0.354 N 
ATOM     40  C   UNL A   1      42.653  31.094  30.527  1.00  0.00     0.074 A 
ATOM     41  C   UNL A   1      41.470  31.926  30.512  1.00  0.00     0.031 C 
ATOM     42  C   UNL A   1      40.564  25.561  27.995  1.00  0.00     0.029 A 
ATOM     43  C   UNL A   1      41.912  25.872  28.459  1.00  0.00     0.049 A 
ATOM     44  H   UNL A   1      42.568  27.635  29.354  1.00  0.00     0.167 HD
ATOM     45  C   UNL A   1      43.863  31.494  30.984  1.00  0.00     0.037 A 
ATOM     46  C   UNL A   1      42.974  25.046  28.383  1.00  0.00     0.037 A 
ATOM     47  C   UNL A   1      45.028  30.649  31.031  1.00  0.00     0.049 A 
ATOM     48  C   UNL A   1      44.303  25.508  28.917  1.00  0.00     0.074 A 
ATOM     49  C   UNL A   1      46.282  30.941  31.537  1.00  0.00     0.029 A 
ATOM     50  N   UNL A   1      45.080  29.346  30.559  1.00  0.00    -0.354 N 
ATOM     51  N   UNL A   1      44.617  26.663  29.452  1.00  0.00    -0.248 NA
ATOM     52  C   UNL A   1      45.418  24.555  28.843  1.00  0.00     0.031 C 
ATOM     53  C   UNL A   1      47.103  29.826  31.341  1.00  0.00     0.029 A 
ATOM     54  C   UNL A   1      46.349  28.825  30.750  1.00  0.00     0.049 A 
ATOM     55  H   UNL A   1      44.327  28.863  30.150  1.00  0.00     0.167 HD
ATOM     56  C   UNL A   1      45.959  26.565  29.805  1.00  0.00     0.074 A 
ATOM     57  C   UNL A   1      46.392  25.234  29.431  1.00  0.00     0.031 C 
ATOM     58  C   UNL A   1      46.759  27.492  30.386  1.00  0.00     0.037 A 
BRANCH  45  59
ATOM     59  C   UNL A   1      43.989  32.906  31.484  1.00  0.00     0.058 A 
ATOM     60  C   UNL A   1      43.781  33.227  32.834  1.00  0.00     0.135 A 
ATOM     61  C   UNL A   1      44.372  33.940  30.616  1.00  0.00     0.135 A 
ATOM     62  F   UNL A   1      43.396  32.278  33.703  1.00  0.00    -0.206 F 
ATOM     63  C   UNL A   1      43.925  34.528  33.303  1.00  0.00     0.059 A 
ATOM     64  C   UNL A   1      44.548  35.245  31.067  1.00  0.00     0.059 A 
ATOM     65  F   UNL A   1      44.583  33.688  29.315  1.00  0.00    -0.206 F 
ATOM     66  C   UNL A   1      44.311  35.531  32.412  1.00  0.00     0.060 A 
BRANCH  66  67
ATOM     67  S   UNL A   1      44.513  37.211  33.040  1.00  0.00     0.124 S 
ATOM     68  O   UNL A   1      43.373  37.322  33.944  1.00  0.00    -0.237 OA
ATOM     69  O   UNL A   1      45.824  37.151  33.679  1.00  0.00    -0.237 OA
ATOM     70  O   UNL A   1      44.442  38.035  31.837  1.00  0.00    -0.744 OA
ENDBRANCH  66  67
ENDBRANCH  45  59
BRANCH  46  71
ATOM     71  C   UNL A   1      42.822  23.685  27.800  1.00  0.00     0.058 A 
ATOM     72  C   UNL A   1      42.914  23.483  26.415  1.00  0.00     0.135 A 
ATOM     73  C   UNL A   1      42.578  22.567  28.610  1.00  0.00     0.135 A 
ATOM     74  F   UNL A   1      43.140  24.523  25.598  1.00  0.00    -0.206 F 
ATOM     75  C   UNL A   1      42.744  22.223  25.850  1.00  0.00     0.059 A 
ATOM     76  C   UNL A   1      42.430  21.293  28.071  1.00  0.00     0.059 A 
ATOM     77  F   UNL A   1      42.501  22.705  29.943  1.00  0.00    -0.206 F 
ATOM     78  C   UNL A   1      42.502  21.133  26.687  1.00  0.00     0.060 A 
BRANCH  78  79
ATOM     79  S   UNL A   1      42.316  19.496  25.949  1.00  0.00     0.124 S 
ATOM     80  O   UNL A   1      43.181  19.601  24.780  1.00  0.00    -0.237 OA
ATOM     81  O   UNL A   1      42.788  18.620  27.017  1.00  0.00    -0.237 OA
ATOM     82  O   UNL A   1      40.885  19.415  25.671  1.00  0.00    -0.744 OA
ENDBRANCH  78  79
ENDBRANCH  46  71
BRANCH  58  83
ATOM     83  C   UNL A   1      48.174  27.091  30.690  1.00  0.00     0.058 A 
ATOM     84  C   UNL A   1      49.195  27.207  29.735  1.00  0.00     0.135 A 
ATOM     85  C   UNL A   1      48.521  26.636  31.973  1.00  0.00     0.135 A 
ATOM     86  F   UNL A   1      48.914  27.631  28.493  1.00  0.00    -0.206 F 
ATOM     87  C   UNL A   1      50.511  26.867  30.035  1.00  0.00     0.059 A 
ATOM     88  C   UNL A   1      49.834  26.313  32.302  1.00  0.00     0.059 A 
ATOM     89  F   UNL A   1      47.583  26.516  32.925  1.00  0.00    -0.206 F 
ATOM     90  C   UNL A   1      50.820  26.423  31.322  1.00  0.00     0.060 A 
BRANCH  90  91
ATOM     91  S   UNL A   1      52.536  26.020  31.711  1.00  0.00     0.124 S 
ATOM     92  O   UNL A   1      52.459  24.579  31.926  1.00  0.00    -0.237 OA
ATOM     93  O   UNL A   1      53.239  26.444  30.504  1.00  0.00    -0.237 OA
ATOM     94  O   UNL A   1      52.811  26.819  32.902  1.00  0.00    -0.744 OA
ENDBRANCH  90  91
ENDBRANCH  58  83
ENDBRANCH  32  33
ENDBRANCH  24  27
ENDBRANCH  22  23
ENDBRANCH  21  22
ENDBRANCH   1  21
TORSDOF 17
ENDMDL
MODEL 3
REMARK VINA RESULT:     -11.0      2.573      3.390
REMARK SMILES C[C@@H](SC1CCOCC1)c1ccc(C(=O)NCCCCNC(=O)c2ccc(-c3c4nc(c(-c5c(F)cc(S(=O)(=O)[O-])cc5F)c5ccc([nH]5)c(-c5c(F)cc(S(=O)(=O)[O-])cc5F)c5nc(c(-c6c(F)cc(S(=O)(=O)[O-])cc6F)c6ccc3[nH]6)C=C5)C=C4)cc2)o1
REMARK SMILES IDX 18 1 17 2 16 3 14 4 15 5 13 7 10 8 11 9 90 10 12 11 2 12
REMARK SMILES IDX 1 13 3 14 4 15 5 16 9 17 6 18 8 19 7 20 19 21 20 22 21 23
REMARK SMILES IDX 22 24 23 26 24 27 25 28 89 29 26 30 88 31 27 32 28 33 29 34
REMARK SMILES IDX 82 35 30 36 87 37 81 38 83 39 31 40 86 41 80 42 79 43 32 45
REMARK SMILES IDX 66 46 45 47 65 48 46 49 49 50 64 51 84 52 47 53 48 54 63 56
REMARK SMILES IDX 85 57 50 58 33 59 34 60 43 61 35 62 36 63 42 64 44 65 37 66
REMARK SMILES IDX 38 67 39 68 40 69 41 70 67 71 68 72 77 73 69 74 70 75 76 76
REMARK SMILES IDX 78 77 71 78 72 79 73 80 74 81 75 82 51 83 52 84 61 85 53 86
REMARK SMILES IDX 54 87 60 88 62 89 55 90 56 91 57 92 58 93 59 94
REMARK H PARENT 16 6 21 25 83 44 49 55
REMARK Flexibility Score: inf
ROOT
ATOM      1  C   UNL A   1      33.619  27.801  26.474  1.00  0.00     0.023 C 
ENDROOT
BRANCH   1   2
ATOM      2  C   UNL A   1      32.192  27.479  26.035  1.00  0.00     0.116 C 
BRANCH   2   3
ATOM      3  N   UNL A   1      31.680  26.311  26.712  1.00  0.00    -0.349 N 
ATOM      4  C   UNL A   1      31.847  24.968  26.462  1.00  0.00     0.286 C 
ATOM      5  O   UNL A   1      31.304  24.213  27.274  1.00  0.00    -0.266 OA
ATOM      6  H   UNL A   1      31.112  26.510  27.491  1.00  0.00     0.163 HD
BRANCH   4   7
ATOM      7  C   UNL A   1      32.615  24.475  25.328  1.00  0.00     0.191 A 
ATOM      8  C   UNL A   1      33.629  22.813  24.239  1.00  0.00     0.117 A 
ATOM      9  C   UNL A   1      33.792  23.945  23.470  1.00  0.00     0.047 A 
ATOM     10  O   UNL A   1      32.950  23.143  25.374  1.00  0.00    -0.455 OA
ATOM     11  C   UNL A   1      33.109  24.992  24.144  1.00  0.00     0.056 A 
BRANCH   8  12
ATOM     12  C   UNL A   1      34.038  21.371  24.083  1.00  0.00     0.110 C 
ATOM     13  C   UNL A   1      35.206  21.028  25.016  1.00  0.00     0.028 C 
BRANCH  12  14
ATOM     14  S   UNL A   1      32.604  20.285  24.511  1.00  0.00    -0.147 SA
BRANCH  14  15
ATOM     15  C   UNL A   1      33.320  18.593  24.550  1.00  0.00     0.052 C 
ATOM     16  C   UNL A   1      33.370  17.840  23.223  1.00  0.00     0.043 C 
ATOM     17  C   UNL A   1      32.673  17.726  25.633  1.00  0.00     0.043 C 
ATOM     18  C   UNL A   1      34.043  16.487  23.421  1.00  0.00     0.161 C 
ATOM     19  C   UNL A   1      33.400  16.386  25.701  1.00  0.00     0.161 C 
ATOM     20  O   UNL A   1      33.376  15.733  24.432  1.00  0.00    -0.381 OA
ENDBRANCH  14  15
ENDBRANCH  12  14
ENDBRANCH   8  12
ENDBRANCH   4   7
ENDBRANCH   2   3
ENDBRANCH   1   2
BRANCH   1  21
ATOM     21  C   UNL A   1      33.722  28.966  27.468  1.00  0.00     0.023 C 
BRANCH  21  22
ATOM     22  C   UNL A   1      35.143  29.390  27.834  1.00  0.00     0.116 C 
BRANCH  22  23
ATOM     23  N   UNL A   1      35.203  30.304  28.964  1.00  0.00    -0.352 N 
ATOM     24  C   UNL A   1      36.281  30.607  29.763  1.00  0.00     0.251 C 
ATOM     25  H   UNL A   1      34.362  30.766  29.186  1.00  0.00     0.163 HD
ATOM     26  O   UNL A   1      36.139  31.329  30.741  1.00  0.00    -0.269 OA
BRANCH  24  27
ATOM     27  C   UNL A   1      37.599  30.013  29.452  1.00  0.00     0.039 A 
ATOM     28  C   UNL A   1      37.999  29.932  28.117  1.00  0.00     0.014 A 
ATOM     29  C   UNL A   1      38.447  29.578  30.473  1.00  0.00     0.014 A 
ATOM     30  C   UNL A   1      39.284  29.477  27.810  1.00  0.00     0.010 A 
ATOM     31  C   UNL A   1      39.747  29.184  30.169  1.00  0.00     0.010 A 
ATOM     32  C   UNL A   1      40.180  29.137  28.836  1.00  0.00    -0.014 A 
BRANCH  32  33
ATOM     33  C   UNL A   1      41.579  28.743  28.536  1.00  0.00     0.031 A 
ATOM     34  C   UNL A   1      42.667  29.781  28.510  1.00  0.00     0.074 A 
ATOM     35  C   UNL A   1      41.854  27.463  28.214  1.00  0.00     0.049 A 
ATOM     36  N   UNL A   1      43.928  29.647  28.188  1.00  0.00    -0.248 NA
ATOM     37  C   UNL A   1      42.281  31.156  28.866  1.00  0.00     0.031 C 
ATOM     38  C   UNL A   1      40.874  26.375  28.151  1.00  0.00     0.029 A 
ATOM     39  N   UNL A   1      43.037  26.860  27.865  1.00  0.00    -0.354 N 
ATOM     40  C   UNL A   1      44.481  30.919  28.285  1.00  0.00     0.074 A 
ATOM     41  C   UNL A   1      43.409  31.819  28.652  1.00  0.00     0.031 C 
ATOM     42  C   UNL A   1      41.498  25.239  27.802  1.00  0.00     0.029 A 
ATOM     43  C   UNL A   1      42.913  25.520  27.583  1.00  0.00     0.049 A 
ATOM     44  H   UNL A   1      43.894  27.343  27.819  1.00  0.00     0.167 HD
ATOM     45  C   UNL A   1      45.768  31.296  28.105  1.00  0.00     0.037 A 
ATOM     46  C   UNL A   1      43.836  24.621  27.187  1.00  0.00     0.037 A 
ATOM     47  C   UNL A   1      46.837  30.390  27.776  1.00  0.00     0.049 A 
ATOM     48  C   UNL A   1      45.264  25.063  27.015  1.00  0.00     0.074 A 
ATOM     49  C   UNL A   1      48.186  30.664  27.637  1.00  0.00     0.029 A 
ATOM     50  N   UNL A   1      46.678  29.033  27.538  1.00  0.00    -0.354 N 
ATOM     51  N   UNL A   1      45.780  26.258  27.174  1.00  0.00    -0.248 NA
ATOM     52  C   UNL A   1      46.235  24.036  26.616  1.00  0.00     0.031 C 
ATOM     53  C   UNL A   1      48.839  29.479  27.283  1.00  0.00     0.029 A 
ATOM     54  C   UNL A   1      47.903  28.458  27.240  1.00  0.00     0.049 A 
ATOM     55  H   UNL A   1      45.822  28.549  27.575  1.00  0.00     0.167 HD
ATOM     56  C   UNL A   1      47.141  26.120  26.923  1.00  0.00     0.074 A 
ATOM     57  C   UNL A   1      47.368  24.724  26.611  1.00  0.00     0.031 C 
ATOM     58  C   UNL A   1      48.113  27.063  26.948  1.00  0.00     0.037 A 
BRANCH  45  59
ATOM     59  C   UNL A   1      46.099  32.753  28.274  1.00  0.00     0.058 A 
ATOM     60  C   UNL A   1      46.018  33.653  27.201  1.00  0.00     0.135 A 
ATOM     61  C   UNL A   1      46.452  33.264  29.533  1.00  0.00     0.135 A 
ATOM     62  F   UNL A   1      45.702  33.214  25.972  1.00  0.00    -0.206 F 
ATOM     63  C   UNL A   1      46.298  35.006  27.364  1.00  0.00     0.059 A 
ATOM     64  C   UNL A   1      46.711  34.618  29.726  1.00  0.00     0.059 A 
ATOM     65  F   UNL A   1      46.545  32.446  30.594  1.00  0.00    -0.206 F 
ATOM     66  C   UNL A   1      46.642  35.479  28.631  1.00  0.00     0.060 A 
BRANCH  66  67
ATOM     67  S   UNL A   1      46.982  37.241  28.830  1.00  0.00     0.124 S 
ATOM     68  O   UNL A   1      45.634  37.781  28.982  1.00  0.00    -0.237 OA
ATOM     69  O   UNL A   1      47.813  37.266  30.029  1.00  0.00    -0.237 OA
ATOM     70  O   UNL A   1      47.664  37.598  27.590  1.00  0.00    -0.744 OA
ENDBRANCH  66  67
ENDBRANCH  45  59
BRANCH  46  71
ATOM     71  C   UNL A   1      43.445  23.206  26.947  1.00  0.00     0.058 A 
ATOM     72  C   UNL A   1      43.351  22.697  25.643  1.00  0.00     0.135 A 
ATOM     73  C   UNL A   1      43.153  22.339  28.010  1.00  0.00     0.135 A 
ATOM     74  F   UNL A   1      43.615  23.490  24.593  1.00  0.00    -0.206 F 
ATOM     75  C   UNL A   1      42.958  21.385  25.399  1.00  0.00     0.059 A 
ATOM     76  C   UNL A   1      42.782  21.016  27.792  1.00  0.00     0.059 A 
ATOM     77  F   UNL A   1      43.248  22.772  29.277  1.00  0.00    -0.206 F 
ATOM     78  C   UNL A   1      42.674  20.552  26.482  1.00  0.00     0.060 A 
BRANCH  78  79
ATOM     79  S   UNL A   1      42.196  18.841  26.158  1.00  0.00     0.124 S 
ATOM     80  O   UNL A   1      42.425  18.221  27.459  1.00  0.00    -0.237 OA
ATOM     81  O   UNL A   1      40.801  18.981  25.755  1.00  0.00    -0.237 OA
ATOM     82  O   UNL A   1      43.109  18.434  25.095  1.00  0.00    -0.744 OA
ENDBRANCH  78  79
ENDBRANCH  46  71
BRANCH  58  83
ATOM     83  C   UNL A   1      49.520  26.614  26.669  1.00  0.00     0.058 A 
ATOM     84  C   UNL A   1      50.360  26.144  27.690  1.00  0.00     0.135 A 
ATOM     85  C   UNL A   1      50.012  26.602  25.354  1.00  0.00     0.135 A 
ATOM     86  F   UNL A   1      49.938  26.140  28.964  1.00  0.00    -0.206 F 
ATOM     87  C   UNL A   1      51.649  25.696  27.420  1.00  0.00     0.059 A 
ATOM     88  C   UNL A   1      51.289  26.136  25.057  1.00  0.00     0.059 A 
ATOM     89  F   UNL A   1      49.244  27.032  24.341  1.00  0.00    -0.206 F 
ATOM     90  C   UNL A   1      52.104  25.694  26.099  1.00  0.00     0.060 A 
BRANCH  90  91
ATOM     91  S   UNL A   1      53.764  25.076  25.755  1.00  0.00     0.124 S 
ATOM     92  O   UNL A   1      54.205  25.987  24.703  1.00  0.00    -0.237 OA
ATOM     93  O   UNL A   1      54.430  25.228  27.045  1.00  0.00    -0.237 OA
ATOM     94  O   UNL A   1      53.532  23.697  25.336  1.00  0.00    -0.744 OA
ENDBRANCH  90  91
ENDBRANCH  58  83
ENDBRANCH  32  33
ENDBRANCH  24  27
ENDBRANCH  22  23
ENDBRANCH  21  22
ENDBRANCH   1  21
TORSDOF 17
ENDMDL
