MODEL 1
REMARK VINA RESULT:     -10.0      0.000      0.000
REMARK SMILES CC(=O)C1=C(NCCCCNC(=O)c2ccc(-c3c4nc(c(-c5c(F)cc(S(=O)(=O)[O-])cc5F)c5ccc([nH]5)c(-c5c(F)cc(S(=O)(=O)[O-])cc5F)c5nc(c(-c6c(F)cc(S(=O)(=O)[O-])cc6F)c6ccc3[nH]6)C=C5)C=C4)cc2)C(=O)N(c2ccc(C(=O)[O-])cc2)[C@H]1c1ccc([N+](=O)[O-])cc1
REMARK SMILES IDX 9 1 8 2 7 3 6 4 5 6 4 7 92 8 80 9 82 10 81 11 2 12 1 13 3 14
REMARK SMILES IDX 93 15 94 16 101 17 95 18 100 19 96 20 97 21 98 22 99 23
REMARK SMILES IDX 83 24 84 25 91 26 85 27 90 28 86 29 87 30 88 31 89 32 10 33
REMARK SMILES IDX 11 34 12 35 13 37 14 38 15 39 79 40 16 41 78 42 17 43 18 44
REMARK SMILES IDX 19 45 72 46 20 47 77 48 71 49 73 50 21 51 76 52 70 53 69 54
REMARK SMILES IDX 22 56 56 57 35 58 55 59 36 60 39 61 54 62 74 63 37 64 38 65
REMARK SMILES IDX 53 67 75 68 40 69 23 70 24 71 33 72 25 73 26 74 32 75 34 76
REMARK SMILES IDX 27 77 28 78 29 79 30 80 31 81 57 82 58 83 67 84 59 85 60 86
REMARK SMILES IDX 66 87 68 88 61 89 62 90 63 91 64 92 65 93 41 94 42 95 51 96
REMARK SMILES IDX 43 97 44 98 50 99 52 100 45 101 46 102 47 103 48 104 49 105
REMARK H PARENT 6 5 11 36 73 55 39 66
REMARK Flexibility Score: inf
ROOT
ATOM      1  C   UNL A   1      34.820  32.976  30.269  1.00  0.00     0.023 C 
ENDROOT
BRANCH   1   2
ATOM      2  C   UNL A   1      33.992  34.226  30.564  1.00  0.00     0.023 C 
BRANCH   2   3
ATOM      3  C   UNL A   1      34.257  34.859  31.928  1.00  0.00     0.113 C 
BRANCH   3   4
ATOM      4  N   UNL A   1      35.635  35.285  32.025  1.00  0.00    -0.380 N 
ATOM      5  H   UNL A   1      35.873  36.077  31.491  1.00  0.00     0.160 HD
BRANCH   4   6
ATOM      6  C   UNL A   1      36.653  34.740  32.759  1.00  0.00     0.110 C 
ATOM      7  C   UNL A   1      37.906  34.355  32.500  1.00  0.00     0.051 C 
ATOM      8  C   UNL A   1      38.635  33.795  33.669  1.00  0.00     0.157 C 
ATOM      9  C   UNL A   1      36.478  34.490  34.240  1.00  0.00     0.275 C 
ATOM     10  N   UNL A   1      37.705  34.071  34.735  1.00  0.00    -0.295 N 
ATOM     11  O   UNL A   1      35.435  34.704  34.837  1.00  0.00    -0.267 OA
BRANCH   7  12
ATOM     12  C   UNL A   1      38.621  34.508  31.228  1.00  0.00     0.160 C 
ATOM     13  C   UNL A   1      40.104  34.748  31.272  1.00  0.00     0.093 C 
ATOM     14  O   UNL A   1      37.991  34.524  30.172  1.00  0.00    -0.295 OA
ENDBRANCH   7  12
BRANCH   8  15
ATOM     15  C   UNL A   1      38.886  32.292  33.527  1.00  0.00    -0.020 A 
ATOM     16  C   UNL A   1      40.149  31.728  33.813  1.00  0.00     0.013 A 
ATOM     17  C   UNL A   1      37.849  31.442  33.113  1.00  0.00     0.013 A 
ATOM     18  C   UNL A   1      40.369  30.353  33.700  1.00  0.00     0.086 A 
ATOM     19  C   UNL A   1      38.062  30.065  32.995  1.00  0.00     0.086 A 
ATOM     20  C   UNL A   1      39.321  29.524  33.291  1.00  0.00     0.269 A 
BRANCH  20  21
ATOM     21  N   UNL A   1      39.542  28.078  33.172  1.00  0.00     0.062 N 
ATOM     22  O   UNL A   1      40.653  27.634  33.495  1.00  0.00    -0.258 OA
ATOM     23  O   UNL A   1      38.600  27.384  32.761  1.00  0.00    -0.258 OA
ENDBRANCH  20  21
ENDBRANCH   8  15
BRANCH  10  24
ATOM     24  C   UNL A   1      38.026  33.861  36.090  1.00  0.00     0.045 A 
ATOM     25  C   UNL A   1      37.353  32.904  36.852  1.00  0.00     0.027 A 
ATOM     26  C   UNL A   1      39.060  34.604  36.678  1.00  0.00     0.027 A 
ATOM     27  C   UNL A   1      37.744  32.655  38.173  1.00  0.00     0.012 A 
ATOM     28  C   UNL A   1      39.415  34.395  38.012  1.00  0.00     0.012 A 
ATOM     29  C   UNL A   1      38.771  33.406  38.761  1.00  0.00    -0.003 A 
BRANCH  29  30
ATOM     30  C   UNL A   1      39.151  33.124  40.165  1.00  0.00     0.071 C 
ATOM     31  O   UNL A   1      39.502  33.947  40.993  1.00  0.00    -0.545 OA
ATOM     32  O   UNL A   1      39.072  31.817  40.473  1.00  0.00    -0.545 OA
ENDBRANCH  29  30
ENDBRANCH  10  24
ENDBRANCH   4   6
ENDBRANCH   3   4
ENDBRANCH   2   3
ENDBRANCH   1   2
BRANCH   1  33
ATOM     33  C   UNL A   1      35.000  32.659  28.789  1.00  0.00     0.116 C 
BRANCH  33  34
ATOM     34  N   UNL A   1      34.127  31.587  28.331  1.00  0.00    -0.352 N 
ATOM     35  C   UNL A   1      34.447  30.292  27.996  1.00  0.00     0.251 C 
ATOM     36  H   UNL A   1      33.174  31.821  28.250  1.00  0.00     0.163 HD
ATOM     37  O   UNL A   1      33.603  29.565  27.479  1.00  0.00    -0.269 OA
BRANCH  35  38
ATOM     38  C   UNL A   1      35.818  29.795  28.234  1.00  0.00     0.039 A 
ATOM     39  C   UNL A   1      36.747  29.840  27.191  1.00  0.00     0.014 A 
ATOM     40  C   UNL A   1      36.194  29.315  29.491  1.00  0.00     0.014 A 
ATOM     41  C   UNL A   1      38.071  29.471  27.432  1.00  0.00     0.010 A 
ATOM     42  C   UNL A   1      37.531  29.033  29.750  1.00  0.00     0.010 A 
ATOM     43  C   UNL A   1      38.484  29.103  28.724  1.00  0.00    -0.014 A 
BRANCH  43  44
ATOM     44  C   UNL A   1      39.905  28.786  29.021  1.00  0.00     0.031 A 
ATOM     45  C   UNL A   1      40.801  29.834  29.625  1.00  0.00     0.074 A 
ATOM     46  C   UNL A   1      40.406  27.579  28.689  1.00  0.00     0.049 A 
ATOM     47  N   UNL A   1      42.080  29.773  29.894  1.00  0.00    -0.248 NA
ATOM     48  C   UNL A   1      40.184  31.133  29.941  1.00  0.00     0.031 C 
ATOM     49  C   UNL A   1      39.652  26.498  28.051  1.00  0.00     0.029 A 
ATOM     50  N   UNL A   1      41.670  27.063  28.829  1.00  0.00    -0.354 N 
ATOM     51  C   UNL A   1      42.421  31.024  30.398  1.00  0.00     0.074 A 
ATOM     52  C   UNL A   1      41.231  31.842  30.336  1.00  0.00     0.031 C 
ATOM     53  C   UNL A   1      40.461  25.440  27.879  1.00  0.00     0.029 A 
ATOM     54  C   UNL A   1      41.800  25.780  28.351  1.00  0.00     0.049 A 
ATOM     55  H   UNL A   1      42.415  27.564  29.235  1.00  0.00     0.167 HD
ATOM     56  C   UNL A   1      43.611  31.443  30.892  1.00  0.00     0.037 A 
ATOM     57  C   UNL A   1      42.876  24.971  28.290  1.00  0.00     0.037 A 
ATOM     58  C   UNL A   1      44.787  30.616  30.963  1.00  0.00     0.049 A 
ATOM     59  C   UNL A   1      44.191  25.461  28.834  1.00  0.00     0.074 A 
ATOM     60  C   UNL A   1      46.027  30.929  31.492  1.00  0.00     0.029 A 
ATOM     61  N   UNL A   1      44.874  29.316  30.485  1.00  0.00    -0.354 N 
ATOM     62  N   UNL A   1      44.481  26.624  29.367  1.00  0.00    -0.248 NA
ATOM     63  C   UNL A   1      45.324  24.529  28.775  1.00  0.00     0.031 C 
ATOM     64  C   UNL A   1      46.878  29.839  31.284  1.00  0.00     0.029 A 
ATOM     65  C   UNL A   1      46.153  28.822  30.684  1.00  0.00     0.049 A 
ATOM     66  H   UNL A   1      44.136  28.819  30.065  1.00  0.00     0.167 HD
ATOM     67  C   UNL A   1      45.820  26.552  29.735  1.00  0.00     0.074 A 
ATOM     68  C   UNL A   1      46.279  25.228  29.373  1.00  0.00     0.031 C 
ATOM     69  C   UNL A   1      46.597  27.497  30.323  1.00  0.00     0.037 A 
BRANCH  56  70
ATOM     70  C   UNL A   1      43.695  32.861  31.390  1.00  0.00     0.058 A 
ATOM     71  C   UNL A   1      43.930  33.939  30.520  1.00  0.00     0.135 A 
ATOM     72  C   UNL A   1      43.516  33.153  32.753  1.00  0.00     0.135 A 
ATOM     73  F   UNL A   1      44.123  33.720  29.209  1.00  0.00    -0.206 F 
ATOM     74  C   UNL A   1      44.029  35.245  30.985  1.00  0.00     0.059 A 
ATOM     75  C   UNL A   1      43.576  34.457  33.237  1.00  0.00     0.059 A 
ATOM     76  F   UNL A   1      43.286  32.166  33.631  1.00  0.00    -0.206 F 
ATOM     77  C   UNL A   1      43.851  35.495  32.347  1.00  0.00     0.060 A 
BRANCH  77  78
ATOM     78  S   UNL A   1      43.989  37.196  32.936  1.00  0.00     0.124 S 
ATOM     79  O   UNL A   1      45.313  37.184  33.552  1.00  0.00    -0.237 OA
ATOM     80  O   UNL A   1      43.873  37.963  31.700  1.00  0.00    -0.237 OA
ATOM     81  O   UNL A   1      42.868  37.328  33.861  1.00  0.00    -0.744 OA
ENDBRANCH  77  78
ENDBRANCH  56  70
BRANCH  57  82
ATOM     82  C   UNL A   1      42.745  23.606  27.712  1.00  0.00     0.058 A 
ATOM     83  C   UNL A   1      42.487  22.496  28.530  1.00  0.00     0.135 A 
ATOM     84  C   UNL A   1      42.848  23.387  26.329  1.00  0.00     0.135 A 
ATOM     85  F   UNL A   1      42.388  22.651  29.859  1.00  0.00    -0.206 F 
ATOM     86  C   UNL A   1      42.347  21.217  28.000  1.00  0.00     0.059 A 
ATOM     87  C   UNL A   1      42.684  22.122  25.773  1.00  0.00     0.059 A 
ATOM     88  F   UNL A   1      43.078  24.418  25.500  1.00  0.00    -0.206 F 
ATOM     89  C   UNL A   1      42.440  21.041  26.619  1.00  0.00     0.060 A 
BRANCH  89  90
ATOM     90  S   UNL A   1      42.195  19.386  25.939  1.00  0.00     0.124 S 
ATOM     91  O   UNL A   1      40.750  19.355  25.751  1.00  0.00    -0.237 OA
ATOM     92  O   UNL A   1      42.998  19.436  24.721  1.00  0.00    -0.237 OA
ATOM     93  O   UNL A   1      42.715  18.512  26.986  1.00  0.00    -0.744 OA
ENDBRANCH  89  90
ENDBRANCH  57  82
BRANCH  69  94
ATOM     94  C   UNL A   1      48.017  27.123  30.653  1.00  0.00     0.058 A 
ATOM     95  C   UNL A   1      49.079  27.389  29.776  1.00  0.00     0.135 A 
ATOM     96  C   UNL A   1      48.324  26.540  31.894  1.00  0.00     0.135 A 
ATOM     97  F   UNL A   1      48.841  27.939  28.574  1.00  0.00    -0.206 F 
ATOM     98  C   UNL A   1      50.392  27.069  30.105  1.00  0.00     0.059 A 
ATOM     99  C   UNL A   1      49.634  26.241  32.258  1.00  0.00     0.059 A 
ATOM    100  F   UNL A   1      47.349  26.273  32.777  1.00  0.00    -0.206 F 
ATOM    101  C   UNL A   1      50.661  26.498  31.351  1.00  0.00     0.060 A 
BRANCH 101 102
ATOM    102  S   UNL A   1      52.372  26.120  31.780  1.00  0.00     0.124 S 
ATOM    103  O   UNL A   1      53.048  26.328  30.503  1.00  0.00    -0.237 OA
ATOM    104  O   UNL A   1      52.659  27.107  32.817  1.00  0.00    -0.237 OA
ATOM    105  O   UNL A   1      52.312  24.737  32.239  1.00  0.00    -0.744 OA
ENDBRANCH 101 102
ENDBRANCH  69  94
ENDBRANCH  43  44
ENDBRANCH  35  38
ENDBRANCH  33  34
ENDBRANCH   1  33
TORSDOF 19
ENDMDL
MODEL 2
REMARK VINA RESULT:      -9.7      0.733      7.973
REMARK SMILES CC(=O)C1=C(NCCCCNC(=O)c2ccc(-c3c4nc(c(-c5c(F)cc(S(=O)(=O)[O-])cc5F)c5ccc([nH]5)c(-c5c(F)cc(S(=O)(=O)[O-])cc5F)c5nc(c(-c6c(F)cc(S(=O)(=O)[O-])cc6F)c6ccc3[nH]6)C=C5)C=C4)cc2)C(=O)N(c2ccc(C(=O)[O-])cc2)[C@H]1c1ccc([N+](=O)[O-])cc1
REMARK SMILES IDX 9 1 8 2 7 3 6 4 5 6 4 7 92 8 80 9 82 10 81 11 2 12 1 13 3 14
REMARK SMILES IDX 93 15 94 16 101 17 95 18 100 19 96 20 97 21 98 22 99 23
REMARK SMILES IDX 83 24 84 25 91 26 85 27 90 28 86 29 87 30 88 31 89 32 10 33
REMARK SMILES IDX 11 34 12 35 13 37 14 38 15 39 79 40 16 41 78 42 17 43 18 44
REMARK SMILES IDX 19 45 72 46 20 47 77 48 71 49 73 50 21 51 76 52 70 53 69 54
REMARK SMILES IDX 22 56 56 57 35 58 55 59 36 60 39 61 54 62 74 63 37 64 38 65
REMARK SMILES IDX 53 67 75 68 40 69 23 70 24 71 33 72 25 73 26 74 32 75 34 76
REMARK SMILES IDX 27 77 28 78 29 79 30 80 31 81 57 82 58 83 67 84 59 85 60 86
REMARK SMILES IDX 66 87 68 88 61 89 62 90 63 91 64 92 65 93 41 94 42 95 51 96
REMARK SMILES IDX 43 97 44 98 50 99 52 100 45 101 46 102 47 103 48 104 49 105
REMARK H PARENT 6 5 11 36 73 55 39 66
REMARK Flexibility Score: inf
ROOT
ATOM      1  C   UNL A   1      34.668  32.604  29.861  1.00  0.00     0.023 C 
ENDROOT
BRANCH   1   2
ATOM      2  C   UNL A   1      34.116  33.963  30.288  1.00  0.00     0.023 C 
BRANCH   2   3
ATOM      3  C   UNL A   1      34.423  34.350  31.733  1.00  0.00     0.113 C 
BRANCH   3   4
ATOM      4  N   UNL A   1      35.743  34.930  31.829  1.00  0.00    -0.380 N 
ATOM      5  H   UNL A   1      35.900  35.723  31.268  1.00  0.00     0.160 HD
BRANCH   4   6
ATOM      6  C   UNL A   1      36.803  34.530  32.596  1.00  0.00     0.110 C 
ATOM      7  C   UNL A   1      38.103  34.311  32.374  1.00  0.00     0.051 C 
ATOM      8  C   UNL A   1      38.867  33.862  33.568  1.00  0.00     0.157 C 
ATOM      9  C   UNL A   1      36.623  34.272  34.075  1.00  0.00     0.275 C 
ATOM     10  N   UNL A   1      37.880  34.022  34.606  1.00  0.00    -0.295 N 
ATOM     11  O   UNL A   1      35.545  34.352  34.642  1.00  0.00    -0.267 OA
BRANCH   7  12
ATOM     12  C   UNL A   1      38.825  34.546  31.119  1.00  0.00     0.160 C 
ATOM     13  C   UNL A   1      38.154  34.156  29.831  1.00  0.00     0.093 C 
ATOM     14  O   UNL A   1      39.979  34.968  31.148  1.00  0.00    -0.295 OA
ENDBRANCH   7  12
BRANCH   8  15
ATOM     15  C   UNL A   1      39.317  32.403  33.450  1.00  0.00    -0.020 A 
ATOM     16  C   UNL A   1      38.446  31.402  32.964  1.00  0.00     0.013 A 
ATOM     17  C   UNL A   1      40.620  32.038  33.820  1.00  0.00     0.013 A 
ATOM     18  C   UNL A   1      38.867  30.077  32.841  1.00  0.00     0.086 A 
ATOM     19  C   UNL A   1      41.048  30.712  33.703  1.00  0.00     0.086 A 
ATOM     20  C   UNL A   1      40.170  29.735  33.211  1.00  0.00     0.269 A 
BRANCH  20  21
ATOM     21  N   UNL A   1      40.622  28.344  33.084  1.00  0.00     0.062 N 
ATOM     22  O   UNL A   1      40.417  27.580  34.037  1.00  0.00    -0.258 OA
ATOM     23  O   UNL A   1      41.177  28.015  32.025  1.00  0.00    -0.258 OA
ENDBRANCH  20  21
ENDBRANCH   8  15
BRANCH  10  24
ATOM     24  C   UNL A   1      38.189  33.868  35.971  1.00  0.00     0.045 A 
ATOM     25  C   UNL A   1      39.080  34.732  36.611  1.00  0.00     0.027 A 
ATOM     26  C   UNL A   1      37.571  32.850  36.710  1.00  0.00     0.027 A 
ATOM     27  C   UNL A   1      39.310  34.613  37.987  1.00  0.00     0.012 A 
ATOM     28  C   UNL A   1      37.841  32.695  38.071  1.00  0.00     0.012 A 
ATOM     29  C   UNL A   1      38.698  33.588  38.721  1.00  0.00    -0.003 A 
BRANCH  29  30
ATOM     30  C   UNL A   1      38.973  33.483  40.173  1.00  0.00     0.071 C 
ATOM     31  O   UNL A   1      39.211  32.457  40.786  1.00  0.00    -0.545 OA
ATOM     32  O   UNL A   1      38.940  34.674  40.796  1.00  0.00    -0.545 OA
ENDBRANCH  29  30
ENDBRANCH  10  24
ENDBRANCH   4   6
ENDBRANCH   3   4
ENDBRANCH   2   3
ENDBRANCH   1   2
BRANCH   1  33
ATOM     33  C   UNL A   1      34.536  32.295  28.375  1.00  0.00     0.116 C 
BRANCH  33  34
ATOM     34  N   UNL A   1      33.988  30.970  28.118  1.00  0.00    -0.352 N 
ATOM     35  C   UNL A   1      34.648  29.772  27.976  1.00  0.00     0.251 C 
ATOM     36  H   UNL A   1      33.008  30.925  28.037  1.00  0.00     0.163 HD
ATOM     37  O   UNL A   1      34.035  28.774  27.607  1.00  0.00    -0.269 OA
BRANCH  35  38
ATOM     38  C   UNL A   1      36.101  29.704  28.237  1.00  0.00     0.039 A 
ATOM     39  C   UNL A   1      36.545  29.339  29.511  1.00  0.00     0.014 A 
ATOM     40  C   UNL A   1      37.021  29.971  27.220  1.00  0.00     0.014 A 
ATOM     41  C   UNL A   1      37.911  29.171  29.741  1.00  0.00     0.010 A 
ATOM     42  C   UNL A   1      38.372  29.717  27.428  1.00  0.00     0.010 A 
ATOM     43  C   UNL A   1      38.834  29.319  28.692  1.00  0.00    -0.014 A 
BRANCH  43  44
ATOM     44  C   UNL A   1      40.284  29.066  28.894  1.00  0.00     0.031 A 
ATOM     45  C   UNL A   1      40.869  27.721  28.554  1.00  0.00     0.074 A 
ATOM     46  C   UNL A   1      41.061  30.020  29.443  1.00  0.00     0.049 A 
ATOM     47  N   UNL A   1      42.091  27.284  28.722  1.00  0.00    -0.248 NA
ATOM     48  C   UNL A   1      39.951  26.725  27.977  1.00  0.00     0.031 C 
ATOM     49  C   UNL A   1      40.602  31.346  29.864  1.00  0.00     0.029 A 
ATOM     50  N   UNL A   1      42.398  30.020  29.755  1.00  0.00    -0.354 N 
ATOM     51  C   UNL A   1      42.085  25.965  28.283  1.00  0.00     0.074 A 
ATOM     52  C   UNL A   1      40.725  25.653  27.903  1.00  0.00     0.031 C 
ATOM     53  C   UNL A   1      41.643  32.038  30.354  1.00  0.00     0.029 A 
ATOM     54  C   UNL A   1      42.833  31.193  30.326  1.00  0.00     0.049 A 
ATOM     55  H   UNL A   1      42.990  29.251  29.586  1.00  0.00     0.167 HD
ATOM     56  C   UNL A   1      43.124  25.101  28.181  1.00  0.00     0.037 A 
ATOM     57  C   UNL A   1      44.050  31.547  30.784  1.00  0.00     0.037 A 
ATOM     58  C   UNL A   1      44.477  25.425  28.548  1.00  0.00     0.049 A 
ATOM     59  C   UNL A   1      45.188  30.568  30.671  1.00  0.00     0.074 A 
ATOM     60  C   UNL A   1      45.611  24.639  28.435  1.00  0.00     0.029 A 
ATOM     61  N   UNL A   1      44.882  26.631  29.105  1.00  0.00    -0.354 N 
ATOM     62  N   UNL A   1      45.180  29.346  30.193  1.00  0.00    -0.248 NA
ATOM     63  C   UNL A   1      46.501  31.015  31.153  1.00  0.00     0.031 C 
ATOM     64  C   UNL A   1      46.689  25.347  28.975  1.00  0.00     0.029 A 
ATOM     65  C   UNL A   1      46.242  26.600  29.364  1.00  0.00     0.049 A 
ATOM     66  H   UNL A   1      44.289  27.394  29.290  1.00  0.00     0.167 HD
ATOM     67  C   UNL A   1      46.490  28.891  30.288  1.00  0.00     0.074 A 
ATOM     68  C   UNL A   1      47.265  29.972  30.859  1.00  0.00     0.031 C 
ATOM     69  C   UNL A   1      47.004  27.687  29.930  1.00  0.00     0.037 A 
BRANCH  56  70
ATOM     70  C   UNL A   1      42.830  23.721  27.652  1.00  0.00     0.058 A 
ATOM     71  C   UNL A   1      42.561  22.642  28.511  1.00  0.00     0.135 A 
ATOM     72  C   UNL A   1      42.796  23.477  26.269  1.00  0.00     0.135 A 
ATOM     73  F   UNL A   1      42.593  22.813  29.842  1.00  0.00    -0.206 F 
ATOM     74  C   UNL A   1      42.311  21.365  28.021  1.00  0.00     0.059 A 
ATOM     75  C   UNL A   1      42.514  22.213  25.755  1.00  0.00     0.059 A 
ATOM     76  F   UNL A   1      43.043  24.469  25.400  1.00  0.00    -0.206 F 
ATOM     77  C   UNL A   1      42.291  21.160  26.641  1.00  0.00     0.060 A 
BRANCH  77  78
ATOM     78  S   UNL A   1      41.973  19.494  26.023  1.00  0.00     0.124 S 
ATOM     79  O   UNL A   1      42.286  18.684  27.196  1.00  0.00    -0.237 OA
ATOM     80  O   UNL A   1      40.561  19.562  25.659  1.00  0.00    -0.237 OA
ATOM     81  O   UNL A   1      42.900  19.363  24.904  1.00  0.00    -0.744 OA
ENDBRANCH  77  78
ENDBRANCH  56  70
BRANCH  57  82
ATOM     82  C   UNL A   1      44.257  32.900  31.368  1.00  0.00     0.058 A 
ATOM     83  C   UNL A   1      44.213  33.104  32.755  1.00  0.00     0.135 A 
ATOM     84  C   UNL A   1      44.528  34.011  30.555  1.00  0.00     0.135 A 
ATOM     85  F   UNL A   1      43.949  32.075  33.576  1.00  0.00    -0.206 F 
ATOM     86  C   UNL A   1      44.420  34.361  33.315  1.00  0.00     0.059 A 
ATOM     87  C   UNL A   1      44.766  35.273  31.092  1.00  0.00     0.059 A 
ATOM     88  F   UNL A   1      44.597  33.868  29.221  1.00  0.00    -0.206 F 
ATOM     89  C   UNL A   1      44.702  35.439  32.475  1.00  0.00     0.060 A 
BRANCH  89  90
ATOM     90  S   UNL A   1      45.029  37.052  33.217  1.00  0.00     0.124 S 
ATOM     91  O   UNL A   1      46.484  37.043  33.316  1.00  0.00    -0.237 OA
ATOM     92  O   UNL A   1      44.461  37.963  32.228  1.00  0.00    -0.237 OA
ATOM     93  O   UNL A   1      44.310  36.990  34.486  1.00  0.00    -0.744 OA
ENDBRANCH  89  90
ENDBRANCH  57  82
BRANCH  69  94
ATOM     94  C   UNL A   1      48.486  27.484  30.105  1.00  0.00     0.058 A 
ATOM     95  C   UNL A   1      49.018  26.820  31.220  1.00  0.00     0.135 A 
ATOM     96  C   UNL A   1      49.381  27.912  29.110  1.00  0.00     0.135 A 
ATOM     97  F   UNL A   1      48.209  26.396  32.205  1.00  0.00    -0.206 F 
ATOM     98  C   UNL A   1      50.387  26.609  31.356  1.00  0.00     0.059 A 
ATOM     99  C   UNL A   1      50.749  27.683  29.209  1.00  0.00     0.059 A 
ATOM    100  F   UNL A   1      48.925  28.542  28.016  1.00  0.00    -0.206 F 
ATOM    101  C   UNL A   1      51.245  27.040  30.342  1.00  0.00     0.060 A 
BRANCH 101 102
ATOM    102  S   UNL A   1      53.014  26.729  30.514  1.00  0.00     0.124 S 
ATOM    103  O   UNL A   1      53.506  28.041  30.922  1.00  0.00    -0.237 OA
ATOM    104  O   UNL A   1      53.049  25.692  31.541  1.00  0.00    -0.237 OA
ATOM    105  O   UNL A   1      53.415  26.294  29.181  1.00  0.00    -0.744 OA
ENDBRANCH 101 102
ENDBRANCH  69  94
ENDBRANCH  43  44
ENDBRANCH  35  38
ENDBRANCH  33  34
ENDBRANCH   1  33
TORSDOF 19
ENDMDL
MODEL 3
REMARK VINA RESULT:      -9.2      1.144      3.264
REMARK SMILES CC(=O)C1=C(NCCCCNC(=O)c2ccc(-c3c4nc(c(-c5c(F)cc(S(=O)(=O)[O-])cc5F)c5ccc([nH]5)c(-c5c(F)cc(S(=O)(=O)[O-])cc5F)c5nc(c(-c6c(F)cc(S(=O)(=O)[O-])cc6F)c6ccc3[nH]6)C=C5)C=C4)cc2)C(=O)N(c2ccc(C(=O)[O-])cc2)[C@H]1c1ccc([N+](=O)[O-])cc1
REMARK SMILES IDX 9 1 8 2 7 3 6 4 5 6 4 7 92 8 80 9 82 10 81 11 2 12 1 13 3 14
REMARK SMILES IDX 93 15 94 16 101 17 95 18 100 19 96 20 97 21 98 22 99 23
REMARK SMILES IDX 83 24 84 25 91 26 85 27 90 28 86 29 87 30 88 31 89 32 10 33
REMARK SMILES IDX 11 34 12 35 13 37 14 38 15 39 79 40 16 41 78 42 17 43 18 44
REMARK SMILES IDX 19 45 72 46 20 47 77 48 71 49 73 50 21 51 76 52 70 53 69 54
REMARK SMILES IDX 22 56 56 57 35 58 55 59 36 60 39 61 54 62 74 63 37 64 38 65
REMARK SMILES IDX 53 67 75 68 40 69 23 70 24 71 33 72 25 73 26 74 32 75 34 76
REMARK SMILES IDX 27 77 28 78 29 79 30 80 31 81 57 82 58 83 67 84 59 85 60 86
REMARK SMILES IDX 66 87 68 88 61 89 62 90 63 91 64 92 65 93 41 94 42 95 51 96
REMARK SMILES IDX 43 97 44 98 50 99 52 100 45 101 46 102 47 103 48 104 49 105
REMARK H PARENT 6 5 11 36 73 55 39 66
REMARK Flexibility Score: inf
ROOT
ATOM      1  C   UNL A   1      34.024  32.856  29.302  1.00  0.00     0.023 C 
ENDROOT
BRANCH   1   2
ATOM      2  C   UNL A   1      33.915  34.380  29.306  1.00  0.00     0.023 C 
BRANCH   2   3
ATOM      3  C   UNL A   1      34.531  35.060  30.526  1.00  0.00     0.113 C 
BRANCH   3   4
ATOM      4  N   UNL A   1      35.877  34.582  30.743  1.00  0.00    -0.380 N 
ATOM      5  H   UNL A   1      36.541  34.863  30.073  1.00  0.00     0.160 HD
BRANCH   4   6
ATOM      6  C   UNL A   1      36.355  33.793  31.753  1.00  0.00     0.110 C 
ATOM      7  C   UNL A   1      35.957  33.499  32.995  1.00  0.00     0.051 C 
ATOM      8  C   UNL A   1      36.851  32.565  33.727  1.00  0.00     0.157 C 
ATOM      9  C   UNL A   1      37.604  32.965  31.551  1.00  0.00     0.275 C 
ATOM     10  N   UNL A   1      37.762  32.173  32.680  1.00  0.00    -0.295 N 
ATOM     11  O   UNL A   1      38.267  32.992  30.527  1.00  0.00    -0.267 OA
BRANCH   7  12
ATOM     12  C   UNL A   1      34.716  33.943  33.641  1.00  0.00     0.160 C 
ATOM     13  C   UNL A   1      34.733  35.248  34.388  1.00  0.00     0.093 C 
ATOM     14  O   UNL A   1      33.729  33.212  33.633  1.00  0.00    -0.295 OA
ENDBRANCH   7  12
BRANCH   8  15
ATOM     15  C   UNL A   1      37.592  33.254  34.877  1.00  0.00    -0.020 A 
ATOM     16  C   UNL A   1      38.444  34.357  34.645  1.00  0.00     0.013 A 
ATOM     17  C   UNL A   1      37.424  32.799  36.193  1.00  0.00     0.013 A 
ATOM     18  C   UNL A   1      39.102  34.994  35.699  1.00  0.00     0.086 A 
ATOM     19  C   UNL A   1      38.082  33.430  37.253  1.00  0.00     0.086 A 
ATOM     20  C   UNL A   1      38.918  34.528  37.003  1.00  0.00     0.269 A 
BRANCH  20  21
ATOM     21  N   UNL A   1      39.604  35.193  38.118  1.00  0.00     0.062 N 
ATOM     22  O   UNL A   1      38.908  35.642  39.039  1.00  0.00    -0.258 OA
ATOM     23  O   UNL A   1      40.841  35.259  38.074  1.00  0.00    -0.258 OA
ENDBRANCH  20  21
ENDBRANCH   8  15
BRANCH  10  24
ATOM     24  C   UNL A   1      38.717  31.154  32.853  1.00  0.00     0.045 A 
ATOM     25  C   UNL A   1      40.031  31.450  33.223  1.00  0.00     0.027 A 
ATOM     26  C   UNL A   1      38.339  29.815  32.680  1.00  0.00     0.027 A 
ATOM     27  C   UNL A   1      40.942  30.417  33.470  1.00  0.00     0.012 A 
ATOM     28  C   UNL A   1      39.262  28.785  32.872  1.00  0.00     0.012 A 
ATOM     29  C   UNL A   1      40.564  29.080  33.287  1.00  0.00    -0.003 A 
BRANCH  29  30
ATOM     30  C   UNL A   1      41.557  28.012  33.544  1.00  0.00     0.071 C 
ATOM     31  O   UNL A   1      42.645  27.899  33.007  1.00  0.00    -0.545 OA
ATOM     32  O   UNL A   1      41.143  27.129  34.470  1.00  0.00    -0.545 OA
ENDBRANCH  29  30
ENDBRANCH  10  24
ENDBRANCH   4   6
ENDBRANCH   3   4
ENDBRANCH   2   3
ENDBRANCH   1   2
BRANCH   1  33
ATOM     33  C   UNL A   1      34.470  32.246  27.979  1.00  0.00     0.116 C 
BRANCH  33  34
ATOM     34  N   UNL A   1      33.871  30.943  27.726  1.00  0.00    -0.352 N 
ATOM     35  C   UNL A   1      34.478  29.712  27.639  1.00  0.00     0.251 C 
ATOM     36  H   UNL A   1      32.895  30.942  27.600  1.00  0.00     0.163 HD
ATOM     37  O   UNL A   1      33.836  28.736  27.264  1.00  0.00    -0.269 OA
BRANCH  35  38
ATOM     38  C   UNL A   1      35.913  29.581  27.970  1.00  0.00     0.039 A 
ATOM     39  C   UNL A   1      36.282  29.266  29.280  1.00  0.00     0.014 A 
ATOM     40  C   UNL A   1      36.888  29.740  26.983  1.00  0.00     0.014 A 
ATOM     41  C   UNL A   1      37.626  29.039  29.581  1.00  0.00     0.010 A 
ATOM     42  C   UNL A   1      38.214  29.427  27.265  1.00  0.00     0.010 A 
ATOM     43  C   UNL A   1      38.599  29.077  28.568  1.00  0.00    -0.014 A 
BRANCH  43  44
ATOM     44  C   UNL A   1      40.023  28.758  28.849  1.00  0.00     0.031 A 
ATOM     45  C   UNL A   1      40.934  29.814  29.414  1.00  0.00     0.074 A 
ATOM     46  C   UNL A   1      40.511  27.541  28.537  1.00  0.00     0.049 A 
ATOM     47  N   UNL A   1      42.217  29.752  29.663  1.00  0.00    -0.248 NA
ATOM     48  C   UNL A   1      40.330  31.123  29.710  1.00  0.00     0.031 C 
ATOM     49  C   UNL A   1      39.741  26.450  27.936  1.00  0.00     0.029 A 
ATOM     50  N   UNL A   1      41.775  27.021  28.668  1.00  0.00    -0.354 N 
ATOM     51  C   UNL A   1      42.573  31.012  30.133  1.00  0.00     0.074 A 
ATOM     52  C   UNL A   1      41.386  31.835  30.072  1.00  0.00     0.031 C 
ATOM     53  C   UNL A   1      40.541  25.384  27.775  1.00  0.00     0.029 A 
ATOM     54  C   UNL A   1      41.889  25.727  28.217  1.00  0.00     0.049 A 
ATOM     55  H   UNL A   1      42.529  27.527  29.049  1.00  0.00     0.167 HD
ATOM     56  C   UNL A   1      43.773  31.435  30.597  1.00  0.00     0.037 A 
ATOM     57  C   UNL A   1      42.960  24.911  28.156  1.00  0.00     0.037 A 
ATOM     58  C   UNL A   1      44.946  30.603  30.667  1.00  0.00     0.049 A 
ATOM     59  C   UNL A   1      44.287  25.405  28.667  1.00  0.00     0.074 A 
ATOM     60  C   UNL A   1      46.196  30.921  31.169  1.00  0.00     0.029 A 
ATOM     61  N   UNL A   1      45.018  29.292  30.218  1.00  0.00    -0.354 N 
ATOM     62  N   UNL A   1      44.591  26.578  29.169  1.00  0.00    -0.248 NA
ATOM     63  C   UNL A   1      45.413  24.465  28.611  1.00  0.00     0.031 C 
ATOM     64  C   UNL A   1      47.038  29.821  30.972  1.00  0.00     0.029 A 
ATOM     65  C   UNL A   1      46.297  28.795  30.407  1.00  0.00     0.049 A 
ATOM     66  H   UNL A   1      44.270  28.790  29.822  1.00  0.00     0.167 HD
ATOM     67  C   UNL A   1      45.937  26.507  29.516  1.00  0.00     0.074 A 
ATOM     68  C   UNL A   1      46.382  25.172  29.176  1.00  0.00     0.031 C 
ATOM     69  C   UNL A   1      46.728  27.460  30.069  1.00  0.00     0.037 A 
BRANCH  56  70
ATOM     70  C   UNL A   1      43.873  32.864  31.062  1.00  0.00     0.058 A 
ATOM     71  C   UNL A   1      44.073  33.923  30.160  1.00  0.00     0.135 A 
ATOM     72  C   UNL A   1      43.746  33.185  32.424  1.00  0.00     0.135 A 
ATOM     73  F   UNL A   1      44.216  33.676  28.848  1.00  0.00    -0.206 F 
ATOM     74  C   UNL A   1      44.186  35.239  30.594  1.00  0.00     0.059 A 
ATOM     75  C   UNL A   1      43.822  34.499  32.878  1.00  0.00     0.059 A 
ATOM     76  F   UNL A   1      43.552  32.216  33.331  1.00  0.00    -0.206 F 
ATOM     77  C   UNL A   1      44.061  35.518  31.956  1.00  0.00     0.060 A 
BRANCH  77  78
ATOM     78  S   UNL A   1      44.217  37.231  32.502  1.00  0.00     0.124 S 
ATOM     79  O   UNL A   1      45.551  37.226  33.096  1.00  0.00    -0.237 OA
ATOM     80  O   UNL A   1      44.084  37.970  31.251  1.00  0.00    -0.237 OA
ATOM     81  O   UNL A   1      43.113  37.391  33.443  1.00  0.00    -0.744 OA
ENDBRANCH  77  78
ENDBRANCH  56  70
BRANCH  57  82
ATOM     82  C   UNL A   1      42.812  23.534  27.612  1.00  0.00     0.058 A 
ATOM     83  C   UNL A   1      42.679  22.428  28.465  1.00  0.00     0.135 A 
ATOM     84  C   UNL A   1      42.774  23.297  26.228  1.00  0.00     0.135 A 
ATOM     85  F   UNL A   1      42.717  22.600  29.796  1.00  0.00    -0.206 F 
ATOM     86  C   UNL A   1      42.524  21.138  27.969  1.00  0.00     0.059 A 
ATOM     87  C   UNL A   1      42.592  22.019  25.708  1.00  0.00     0.059 A 
ATOM     88  F   UNL A   1      42.881  24.322  25.368  1.00  0.00    -0.206 F 
ATOM     89  C   UNL A   1      42.475  20.944  26.588  1.00  0.00     0.060 A 
BRANCH  89  90
ATOM     90  S   UNL A   1      42.212  19.273  25.957  1.00  0.00     0.124 S 
ATOM     91  O   UNL A   1      42.676  18.459  27.074  1.00  0.00    -0.237 OA
ATOM     92  O   UNL A   1      40.773  19.263  25.713  1.00  0.00    -0.237 OA
ATOM     93  O   UNL A   1      43.043  19.231  24.758  1.00  0.00    -0.744 OA
ENDBRANCH  89  90
ENDBRANCH  57  82
BRANCH  69  94
ATOM     94  C   UNL A   1      48.152  27.085  30.384  1.00  0.00     0.058 A 
ATOM     95  C   UNL A   1      49.186  27.240  29.448  1.00  0.00     0.135 A 
ATOM     96  C   UNL A   1      48.493  26.617  31.664  1.00  0.00     0.135 A 
ATOM     97  F   UNL A   1      48.915  27.678  28.208  1.00  0.00    -0.206 F 
ATOM     98  C   UNL A   1      50.503  26.921  29.761  1.00  0.00     0.059 A 
ATOM     99  C   UNL A   1      49.808  26.323  32.009  1.00  0.00     0.059 A 
ATOM    100  F   UNL A   1      47.545  26.460  32.602  1.00  0.00    -0.206 F 
ATOM    101  C   UNL A   1      50.806  26.467  31.047  1.00  0.00     0.060 A 
BRANCH 101 102
ATOM    102  S   UNL A   1      52.524  26.091  31.450  1.00  0.00     0.124 S 
ATOM    103  O   UNL A   1      53.164  26.201  30.143  1.00  0.00    -0.237 OA
ATOM    104  O   UNL A   1      52.855  27.140  32.409  1.00  0.00    -0.237 OA
ATOM    105  O   UNL A   1      52.457  24.743  32.004  1.00  0.00    -0.744 OA
ENDBRANCH 101 102
ENDBRANCH  69  94
ENDBRANCH  43  44
ENDBRANCH  35  38
ENDBRANCH  33  34
ENDBRANCH   1  33
TORSDOF 19
ENDMDL
