MODEL 1
REMARK VINA RESULT:     -10.9      0.000      0.000
REMARK SMILES C[N@H+](CC(=O)NCCCCNC(=O)c1ccc(-c2c3nc(c(-c4c(F)cc(S(=O)(=O)[O-])cc4F)c4ccc([nH]4)c(-c4c(F)cc(S(=O)(=O)[O-])cc4F)c4nc(c(-c5c(F)cc(S(=O)(=O)[O-])cc5F)c5ccc2[nH]5)C=C4)C=C3)cc1)Cc1nc(-c2ccsc2)no1
REMARK SMILES IDX 8 1 7 2 6 3 4 4 5 5 3 7 2 8 1 9 80 11 81 12 82 13 90 14
REMARK SMILES IDX 83 15 89 16 84 17 85 18 88 19 86 20 87 21 9 22 10 23 11 24
REMARK SMILES IDX 12 25 13 27 14 28 15 29 79 30 16 31 78 32 17 33 18 34 19 35
REMARK SMILES IDX 72 36 20 37 77 38 71 39 73 40 21 41 76 42 70 43 69 44 22 46
REMARK SMILES IDX 56 47 35 48 55 49 36 50 39 51 54 52 74 53 37 54 38 55 53 57
REMARK SMILES IDX 75 58 40 59 23 60 24 61 33 62 25 63 26 64 32 65 34 66 27 67
REMARK SMILES IDX 28 68 29 69 30 70 31 71 57 72 58 73 67 74 59 75 60 76 66 77
REMARK SMILES IDX 68 78 61 79 62 80 63 81 64 82 65 83 41 84 42 85 51 86 43 87
REMARK SMILES IDX 44 88 50 89 52 90 45 91 46 92 47 93 48 94 49 95
REMARK H PARENT 6 6 2 10 11 26 73 45 39 56
REMARK Flexibility Score: inf
ROOT
ATOM      1  C   UNL A   1      45.614  22.621  26.072  1.00  0.00     0.023 C 
ENDROOT
BRANCH   1   2
ATOM      2  C   UNL A   1      45.163  21.523  25.111  1.00  0.00     0.116 C 
BRANCH   2   3
ATOM      3  N   UNL A   1      45.744  20.228  25.405  1.00  0.00    -0.351 N 
ATOM      4  C   UNL A   1      45.145  18.998  25.393  1.00  0.00     0.275 C 
ATOM      5  O   UNL A   1      45.828  17.998  25.622  1.00  0.00    -0.269 OA
ATOM      6  H   UNL A   1      46.699  20.234  25.648  1.00  0.00     0.163 HD
BRANCH   4   7
ATOM      7  C   UNL A   1      43.644  18.883  25.098  1.00  0.00     0.363 C 
BRANCH   7   8
ATOM      8  N   UNL A   1      42.881  18.843  26.338  1.00  0.00    -0.322 N 
ATOM      9  C   UNL A   1      43.194  17.845  27.327  1.00  0.00     0.333 C 
ATOM     10  H   UNL A   1      42.080  18.364  25.926  1.00  0.00     0.348 HD
BRANCH   8  11
ATOM     11  C   UNL A   1      42.190  20.053  26.780  1.00  0.00     0.364 C 
BRANCH  11  12
ATOM     12  C   UNL A   1      40.841  20.218  26.161  1.00  0.00     0.282 A 
ATOM     13  N   UNL A   1      40.079  21.288  26.064  1.00  0.00    -0.186 NA
ATOM     14  O   UNL A   1      40.249  19.087  25.676  1.00  0.00    -0.333 OA
ATOM     15  C   UNL A   1      38.911  20.757  25.577  1.00  0.00     0.203 A 
ATOM     16  N   UNL A   1      38.959  19.451  25.288  1.00  0.00    -0.057 NA
BRANCH  15  17
ATOM     17  C   UNL A   1      37.703  21.578  25.499  1.00  0.00     0.033 A 
ATOM     18  C   UNL A   1      36.407  21.015  25.285  1.00  0.00     0.024 A 
ATOM     19  C   UNL A   1      37.648  22.944  25.673  1.00  0.00     0.077 A 
ATOM     20  C   UNL A   1      35.415  21.970  25.321  1.00  0.00     0.065 A 
ATOM     21  S   UNL A   1      36.042  23.539  25.598  1.00  0.00    -0.152 S 
ENDBRANCH  15  17
ENDBRANCH  11  12
ENDBRANCH   8  11
ENDBRANCH   7   8
ENDBRANCH   4   7
ENDBRANCH   2   3
ENDBRANCH   1   2
BRANCH   1  22
ATOM     22  C   UNL A   1      44.707  22.832  27.276  1.00  0.00     0.023 C 
BRANCH  22  23
ATOM     23  C   UNL A   1      44.017  24.179  27.354  1.00  0.00     0.116 C 
BRANCH  23  24
ATOM     24  N   UNL A   1      43.255  24.505  26.160  1.00  0.00    -0.352 N 
ATOM     25  C   UNL A   1      42.259  25.440  26.004  1.00  0.00     0.251 C 
ATOM     26  H   UNL A   1      43.483  23.987  25.354  1.00  0.00     0.163 HD
ATOM     27  O   UNL A   1      41.636  25.496  24.947  1.00  0.00    -0.269 OA
BRANCH  25  28
ATOM     28  C   UNL A   1      41.923  26.348  27.123  1.00  0.00     0.039 A 
ATOM     29  C   UNL A   1      40.925  25.971  28.025  1.00  0.00     0.014 A 
ATOM     30  C   UNL A   1      42.601  27.558  27.295  1.00  0.00     0.014 A 
ATOM     31  C   UNL A   1      40.644  26.786  29.123  1.00  0.00     0.010 A 
ATOM     32  C   UNL A   1      42.394  28.313  28.442  1.00  0.00     0.010 A 
ATOM     33  C   UNL A   1      41.393  27.951  29.355  1.00  0.00    -0.014 A 
BRANCH  33  34
ATOM     34  C   UNL A   1      41.106  28.833  30.515  1.00  0.00     0.031 A 
ATOM     35  C   UNL A   1      41.924  28.697  31.775  1.00  0.00     0.074 A 
ATOM     36  C   UNL A   1      40.090  29.716  30.453  1.00  0.00     0.049 A 
ATOM     37  N   UNL A   1      41.812  29.345  32.906  1.00  0.00    -0.248 NA
ATOM     38  C   UNL A   1      42.983  27.674  31.778  1.00  0.00     0.031 C 
ATOM     39  C   UNL A   1      39.180  29.883  29.316  1.00  0.00     0.029 A 
ATOM     40  N   UNL A   1      39.648  30.636  31.369  1.00  0.00    -0.354 N 
ATOM     41  C   UNL A   1      42.763  28.792  33.756  1.00  0.00     0.074 A 
ATOM     42  C   UNL A   1      43.402  27.715  33.034  1.00  0.00     0.031 C 
ATOM     43  C   UNL A   1      38.310  30.869  29.591  1.00  0.00     0.029 A 
ATOM     44  C   UNL A   1      38.580  31.384  30.929  1.00  0.00     0.049 A 
ATOM     45  H   UNL A   1      40.055  30.750  32.257  1.00  0.00     0.167 HD
ATOM     46  C   UNL A   1      43.099  29.167  35.012  1.00  0.00     0.037 A 
ATOM     47  C   UNL A   1      37.903  32.377  31.537  1.00  0.00     0.037 A 
ATOM     48  C   UNL A   1      42.495  30.274  35.704  1.00  0.00     0.049 A 
ATOM     49  C   UNL A   1      38.339  32.820  32.909  1.00  0.00     0.074 A 
ATOM     50  C   UNL A   1      42.808  30.786  36.950  1.00  0.00     0.029 A 
ATOM     51  N   UNL A   1      41.459  31.048  35.200  1.00  0.00    -0.354 N 
ATOM     52  N   UNL A   1      39.290  32.332  33.671  1.00  0.00    -0.248 NA
ATOM     53  C   UNL A   1      37.624  33.960  33.496  1.00  0.00     0.031 C 
ATOM     54  C   UNL A   1      41.938  31.849  37.216  1.00  0.00     0.029 A 
ATOM     55  C   UNL A   1      41.116  32.029  36.115  1.00  0.00     0.049 A 
ATOM     56  H   UNL A   1      41.031  30.918  34.324  1.00  0.00     0.167 HD
ATOM     57  C   UNL A   1      39.308  33.125  34.812  1.00  0.00     0.074 A 
ATOM     58  C   UNL A   1      38.283  34.133  34.633  1.00  0.00     0.031 C 
ATOM     59  C   UNL A   1      40.100  33.031  35.910  1.00  0.00     0.037 A 
BRANCH  46  60
ATOM     60  C   UNL A   1      44.179  28.387  35.712  1.00  0.00     0.058 A 
ATOM     61  C   UNL A   1      43.881  27.282  36.528  1.00  0.00     0.135 A 
ATOM     62  C   UNL A   1      45.531  28.722  35.537  1.00  0.00     0.135 A 
ATOM     63  F   UNL A   1      42.605  26.928  36.746  1.00  0.00    -0.206 F 
ATOM     64  C   UNL A   1      44.882  26.555  37.163  1.00  0.00     0.059 A 
ATOM     65  C   UNL A   1      46.550  27.992  36.140  1.00  0.00     0.059 A 
ATOM     66  F   UNL A   1      45.873  29.771  34.773  1.00  0.00    -0.206 F 
ATOM     67  C   UNL A   1      46.215  26.916  36.961  1.00  0.00     0.060 A 
BRANCH  67  68
ATOM     68  S   UNL A   1      47.502  25.947  37.775  1.00  0.00     0.124 S 
ATOM     69  O   UNL A   1      47.123  26.080  39.178  1.00  0.00    -0.237 OA
ATOM     70  O   UNL A   1      47.312  24.623  37.191  1.00  0.00    -0.237 OA
ATOM     71  O   UNL A   1      48.734  26.628  37.390  1.00  0.00    -0.744 OA
ENDBRANCH  67  68
ENDBRANCH  46  60
BRANCH  47  72
ATOM     72  C   UNL A   1      36.772  33.048  30.841  1.00  0.00     0.058 A 
ATOM     73  C   UNL A   1      37.002  33.972  29.809  1.00  0.00     0.135 A 
ATOM     74  C   UNL A   1      35.440  32.782  31.192  1.00  0.00     0.135 A 
ATOM     75  F   UNL A   1      38.258  34.262  29.438  1.00  0.00    -0.206 F 
ATOM     76  C   UNL A   1      35.955  34.629  29.172  1.00  0.00     0.059 A 
ATOM     77  C   UNL A   1      34.374  33.407  30.550  1.00  0.00     0.059 A 
ATOM     78  F   UNL A   1      35.164  31.891  32.158  1.00  0.00    -0.206 F 
ATOM     79  C   UNL A   1      34.643  34.341  29.551  1.00  0.00     0.060 A 
BRANCH  79  80
ATOM     80  S   UNL A   1      33.290  35.177  28.696  1.00  0.00     0.124 S 
ATOM     81  O   UNL A   1      34.014  36.126  27.858  1.00  0.00    -0.237 OA
ATOM     82  O   UNL A   1      32.639  34.074  27.996  1.00  0.00    -0.237 OA
ATOM     83  O   UNL A   1      32.515  35.762  29.786  1.00  0.00    -0.744 OA
ENDBRANCH  79  80
ENDBRANCH  47  72
BRANCH  59  84
ATOM     84  C   UNL A   1      39.922  34.076  36.976  1.00  0.00     0.058 A 
ATOM     85  C   UNL A   1      39.027  33.901  38.043  1.00  0.00     0.135 A 
ATOM     86  C   UNL A   1      40.678  35.258  36.939  1.00  0.00     0.135 A 
ATOM     87  F   UNL A   1      38.281  32.788  38.124  1.00  0.00    -0.206 F 
ATOM     88  C   UNL A   1      38.855  34.883  39.012  1.00  0.00     0.059 A 
ATOM     89  C   UNL A   1      40.545  36.240  37.914  1.00  0.00     0.059 A 
ATOM     90  F   UNL A   1      41.561  35.467  35.949  1.00  0.00    -0.206 F 
ATOM     91  C   UNL A   1      39.614  36.052  38.936  1.00  0.00     0.060 A 
BRANCH  91  92
ATOM     92  S   UNL A   1      39.382  37.323  40.197  1.00  0.00     0.124 S 
ATOM     93  O   UNL A   1      40.742  37.823  40.361  1.00  0.00    -0.237 OA
ATOM     94  O   UNL A   1      38.443  38.236  39.552  1.00  0.00    -0.237 OA
ATOM     95  O   UNL A   1      38.844  36.579  41.332  1.00  0.00    -0.744 OA
ENDBRANCH  91  92
ENDBRANCH  59  84
ENDBRANCH  33  34
ENDBRANCH  25  28
ENDBRANCH  23  24
ENDBRANCH  22  23
ENDBRANCH   1  22
TORSDOF 18
ENDMDL
MODEL 2
REMARK VINA RESULT:     -10.8      6.040      9.393
REMARK SMILES C[N@H+](CC(=O)NCCCCNC(=O)c1ccc(-c2c3nc(c(-c4c(F)cc(S(=O)(=O)[O-])cc4F)c4ccc([nH]4)c(-c4c(F)cc(S(=O)(=O)[O-])cc4F)c4nc(c(-c5c(F)cc(S(=O)(=O)[O-])cc5F)c5ccc2[nH]5)C=C4)C=C3)cc1)Cc1nc(-c2ccsc2)no1
REMARK SMILES IDX 8 1 7 2 6 3 4 4 5 5 3 7 2 8 1 9 80 11 81 12 82 13 90 14
REMARK SMILES IDX 83 15 89 16 84 17 85 18 88 19 86 20 87 21 9 22 10 23 11 24
REMARK SMILES IDX 12 25 13 27 14 28 15 29 79 30 16 31 78 32 17 33 18 34 19 35
REMARK SMILES IDX 72 36 20 37 77 38 71 39 73 40 21 41 76 42 70 43 69 44 22 46
REMARK SMILES IDX 56 47 35 48 55 49 36 50 39 51 54 52 74 53 37 54 38 55 53 57
REMARK SMILES IDX 75 58 40 59 23 60 24 61 33 62 25 63 26 64 32 65 34 66 27 67
REMARK SMILES IDX 28 68 29 69 30 70 31 71 57 72 58 73 67 74 59 75 60 76 66 77
REMARK SMILES IDX 68 78 61 79 62 80 63 81 64 82 65 83 41 84 42 85 51 86 43 87
REMARK SMILES IDX 44 88 50 89 52 90 45 91 46 92 47 93 48 94 49 95
REMARK H PARENT 6 6 2 10 11 26 73 45 39 56
REMARK Flexibility Score: inf
ROOT
ATOM      1  C   UNL A   1      36.877  20.496  25.311  1.00  0.00     0.023 C 
ENDROOT
BRANCH   1   2
ATOM      2  C   UNL A   1      36.433  21.887  25.760  1.00  0.00     0.116 C 
BRANCH   2   3
ATOM      3  N   UNL A   1      35.463  21.860  26.838  1.00  0.00    -0.351 N 
ATOM      4  C   UNL A   1      34.391  22.684  27.045  1.00  0.00     0.275 C 
ATOM      5  O   UNL A   1      33.644  22.464  28.000  1.00  0.00    -0.269 OA
ATOM      6  H   UNL A   1      35.594  21.153  27.512  1.00  0.00     0.163 HD
BRANCH   4   7
ATOM      7  C   UNL A   1      34.137  23.860  26.094  1.00  0.00     0.363 C 
BRANCH   7   8
ATOM      8  N   UNL A   1      33.007  23.575  25.219  1.00  0.00    -0.322 N 
ATOM      9  C   UNL A   1      31.770  24.286  25.411  1.00  0.00     0.333 C 
ATOM     10  H   UNL A   1      32.737  22.722  25.710  1.00  0.00     0.348 HD
BRANCH   8  11
ATOM     11  C   UNL A   1      33.262  22.984  23.908  1.00  0.00     0.364 C 
BRANCH  11  12
ATOM     12  C   UNL A   1      32.950  21.525  23.849  1.00  0.00     0.282 A 
ATOM     13  N   UNL A   1      33.351  20.541  24.627  1.00  0.00    -0.186 NA
ATOM     14  O   UNL A   1      32.190  21.105  22.795  1.00  0.00    -0.333 OA
ATOM     15  C   UNL A   1      32.887  19.441  23.949  1.00  0.00     0.203 A 
ATOM     16  N   UNL A   1      32.152  19.712  22.864  1.00  0.00    -0.057 NA
BRANCH  15  17
ATOM     17  C   UNL A   1      33.284  18.096  24.364  1.00  0.00     0.033 A 
ATOM     18  C   UNL A   1      34.629  17.625  24.251  1.00  0.00     0.024 A 
ATOM     19  C   UNL A   1      32.459  17.161  24.953  1.00  0.00     0.077 A 
ATOM     20  C   UNL A   1      34.779  16.358  24.771  1.00  0.00     0.065 A 
ATOM     21  S   UNL A   1      33.306  15.734  25.381  1.00  0.00    -0.152 S 
ENDBRANCH  15  17
ENDBRANCH  11  12
ENDBRANCH   8  11
ENDBRANCH   7   8
ENDBRANCH   4   7
ENDBRANCH   2   3
ENDBRANCH   1   2
BRANCH   1  22
ATOM     22  C   UNL A   1      38.354  20.375  24.964  1.00  0.00     0.023 C 
BRANCH  22  23
ATOM     23  C   UNL A   1      39.317  20.489  26.130  1.00  0.00     0.116 C 
BRANCH  23  24
ATOM     24  N   UNL A   1      40.354  19.471  26.121  1.00  0.00    -0.352 N 
ATOM     25  C   UNL A   1      41.716  19.631  26.215  1.00  0.00     0.251 C 
ATOM     26  H   UNL A   1      40.039  18.542  26.036  1.00  0.00     0.163 HD
ATOM     27  O   UNL A   1      42.455  18.661  26.067  1.00  0.00    -0.269 OA
BRANCH  25  28
ATOM     28  C   UNL A   1      42.283  20.975  26.462  1.00  0.00     0.039 A 
ATOM     29  C   UNL A   1      42.500  21.827  25.377  1.00  0.00     0.014 A 
ATOM     30  C   UNL A   1      42.581  21.402  27.758  1.00  0.00     0.014 A 
ATOM     31  C   UNL A   1      42.971  23.123  25.600  1.00  0.00     0.010 A 
ATOM     32  C   UNL A   1      42.948  22.723  27.987  1.00  0.00     0.010 A 
ATOM     33  C   UNL A   1      43.174  23.590  26.909  1.00  0.00    -0.014 A 
BRANCH  33  34
ATOM     34  C   UNL A   1      43.678  24.963  27.167  1.00  0.00     0.031 A 
ATOM     35  C   UNL A   1      45.133  25.280  26.935  1.00  0.00     0.074 A 
ATOM     36  C   UNL A   1      42.844  25.904  27.651  1.00  0.00     0.049 A 
ATOM     37  N   UNL A   1      45.776  26.402  27.131  1.00  0.00    -0.248 NA
ATOM     38  C   UNL A   1      45.988  24.181  26.453  1.00  0.00     0.031 C 
ATOM     39  C   UNL A   1      41.433  25.695  27.989  1.00  0.00     0.029 A 
ATOM     40  N   UNL A   1      43.062  27.226  27.947  1.00  0.00    -0.354 N 
ATOM     41  C   UNL A   1      47.106  26.136  26.822  1.00  0.00     0.074 A 
ATOM     42  C   UNL A   1      47.192  24.733  26.486  1.00  0.00     0.031 C 
ATOM     43  C   UNL A   1      40.906  26.855  28.415  1.00  0.00     0.029 A 
ATOM     44  C   UNL A   1      41.943  27.881  28.407  1.00  0.00     0.049 A 
ATOM     45  H   UNL A   1      43.937  27.664  27.841  1.00  0.00     0.167 HD
ATOM     46  C   UNL A   1      48.156  26.990  26.789  1.00  0.00     0.037 A 
ATOM     47  C   UNL A   1      41.776  29.167  28.773  1.00  0.00     0.037 A 
ATOM     48  C   UNL A   1      48.052  28.396  27.074  1.00  0.00     0.049 A 
ATOM     49  C   UNL A   1      42.944  30.111  28.665  1.00  0.00     0.074 A 
ATOM     50  C   UNL A   1      49.036  29.365  27.001  1.00  0.00     0.029 A 
ATOM     51  N   UNL A   1      46.888  29.035  27.476  1.00  0.00    -0.354 N 
ATOM     52  N   UNL A   1      44.179  29.858  28.302  1.00  0.00    -0.248 NA
ATOM     53  C   UNL A   1      42.691  31.519  28.996  1.00  0.00     0.031 C 
ATOM     54  C   UNL A   1      48.476  30.586  27.392  1.00  0.00     0.029 A 
ATOM     55  C   UNL A   1      47.131  30.385  27.662  1.00  0.00     0.049 A 
ATOM     56  H   UNL A   1      46.018  28.594  27.610  1.00  0.00     0.167 HD
ATOM     57  C   UNL A   1      44.842  31.080  28.331  1.00  0.00     0.074 A 
ATOM     58  C   UNL A   1      43.867  32.072  28.732  1.00  0.00     0.031 C 
ATOM     59  C   UNL A   1      46.141  31.358  28.050  1.00  0.00     0.037 A 
BRANCH  46  60
ATOM     60  C   UNL A   1      49.502  26.431  26.416  1.00  0.00     0.058 A 
ATOM     61  C   UNL A   1      49.973  26.460  25.093  1.00  0.00     0.135 A 
ATOM     62  C   UNL A   1      50.350  25.894  27.398  1.00  0.00     0.135 A 
ATOM     63  F   UNL A   1      49.198  26.945  24.110  1.00  0.00    -0.206 F 
ATOM     64  C   UNL A   1      51.224  25.955  24.753  1.00  0.00     0.059 A 
ATOM     65  C   UNL A   1      51.616  25.409  27.086  1.00  0.00     0.059 A 
ATOM     66  F   UNL A   1      49.950  25.836  28.678  1.00  0.00    -0.206 F 
ATOM     67  C   UNL A   1      52.040  25.434  25.758  1.00  0.00     0.060 A 
BRANCH  67  68
ATOM     68  S   UNL A   1      53.669  24.804  25.303  1.00  0.00     0.124 S 
ATOM     69  O   UNL A   1      54.429  25.051  26.524  1.00  0.00    -0.237 OA
ATOM     70  O   UNL A   1      53.390  23.402  25.004  1.00  0.00    -0.237 OA
ATOM     71  O   UNL A   1      54.042  25.624  24.155  1.00  0.00    -0.744 OA
ENDBRANCH  67  68
ENDBRANCH  46  60
BRANCH  47  72
ATOM     72  C   UNL A   1      40.446  29.646  29.236  1.00  0.00     0.058 A 
ATOM     73  C   UNL A   1      40.207  29.924  30.591  1.00  0.00     0.135 A 
ATOM     74  C   UNL A   1      39.385  29.834  28.335  1.00  0.00     0.135 A 
ATOM     75  F   UNL A   1      41.187  29.759  31.491  1.00  0.00    -0.206 F 
ATOM     76  C   UNL A   1      38.959  30.343  31.041  1.00  0.00     0.059 A 
ATOM     77  C   UNL A   1      38.135  30.278  28.758  1.00  0.00     0.059 A 
ATOM     78  F   UNL A   1      39.566  29.601  27.025  1.00  0.00    -0.206 F 
ATOM     79  C   UNL A   1      37.928  30.515  30.116  1.00  0.00     0.060 A 
BRANCH  79  80
ATOM     80  S   UNL A   1      36.320  31.087  30.706  1.00  0.00     0.124 S 
ATOM     81  O   UNL A   1      35.561  31.164  29.463  1.00  0.00    -0.237 OA
ATOM     82  O   UNL A   1      35.931  30.022  31.626  1.00  0.00    -0.237 OA
ATOM     83  O   UNL A   1      36.630  32.366  31.336  1.00  0.00    -0.744 OA
ENDBRANCH  79  80
ENDBRANCH  47  72
BRANCH  59  84
ATOM     84  C   UNL A   1      46.563  32.799  28.118  1.00  0.00     0.058 A 
ATOM     85  C   UNL A   1      47.124  33.352  29.279  1.00  0.00     0.135 A 
ATOM     86  C   UNL A   1      46.426  33.629  26.994  1.00  0.00     0.135 A 
ATOM     87  F   UNL A   1      47.277  32.600  30.381  1.00  0.00    -0.206 F 
ATOM     88  C   UNL A   1      47.492  34.692  29.338  1.00  0.00     0.059 A 
ATOM     89  C   UNL A   1      46.816  34.963  27.020  1.00  0.00     0.059 A 
ATOM     90  F   UNL A   1      45.911  33.144  25.853  1.00  0.00    -0.206 F 
ATOM     91  C   UNL A   1      47.329  35.491  28.205  1.00  0.00     0.060 A 
BRANCH  91  92
ATOM     92  S   UNL A   1      47.807  37.230  28.292  1.00  0.00     0.124 S 
ATOM     93  O   UNL A   1      47.571  37.666  26.920  1.00  0.00    -0.237 OA
ATOM     94  O   UNL A   1      46.885  37.759  29.292  1.00  0.00    -0.237 OA
ATOM     95  O   UNL A   1      49.206  37.176  28.704  1.00  0.00    -0.744 OA
ENDBRANCH  91  92
ENDBRANCH  59  84
ENDBRANCH  33  34
ENDBRANCH  25  28
ENDBRANCH  23  24
ENDBRANCH  22  23
ENDBRANCH   1  22
TORSDOF 18
ENDMDL
MODEL 3
REMARK VINA RESULT:     -10.8      5.492     11.583
REMARK SMILES C[N@H+](CC(=O)NCCCCNC(=O)c1ccc(-c2c3nc(c(-c4c(F)cc(S(=O)(=O)[O-])cc4F)c4ccc([nH]4)c(-c4c(F)cc(S(=O)(=O)[O-])cc4F)c4nc(c(-c5c(F)cc(S(=O)(=O)[O-])cc5F)c5ccc2[nH]5)C=C4)C=C3)cc1)Cc1nc(-c2ccsc2)no1
REMARK SMILES IDX 8 1 7 2 6 3 4 4 5 5 3 7 2 8 1 9 80 11 81 12 82 13 90 14
REMARK SMILES IDX 83 15 89 16 84 17 85 18 88 19 86 20 87 21 9 22 10 23 11 24
REMARK SMILES IDX 12 25 13 27 14 28 15 29 79 30 16 31 78 32 17 33 18 34 19 35
REMARK SMILES IDX 72 36 20 37 77 38 71 39 73 40 21 41 76 42 70 43 69 44 22 46
REMARK SMILES IDX 56 47 35 48 55 49 36 50 39 51 54 52 74 53 37 54 38 55 53 57
REMARK SMILES IDX 75 58 40 59 23 60 24 61 33 62 25 63 26 64 32 65 34 66 27 67
REMARK SMILES IDX 28 68 29 69 30 70 31 71 57 72 58 73 67 74 59 75 60 76 66 77
REMARK SMILES IDX 68 78 61 79 62 80 63 81 64 82 65 83 41 84 42 85 51 86 43 87
REMARK SMILES IDX 44 88 50 89 52 90 45 91 46 92 47 93 48 94 49 95
REMARK H PARENT 6 6 2 10 11 26 73 45 39 56
REMARK Flexibility Score: inf
ROOT
ATOM      1  C   UNL A   1      33.286  29.205  24.621  1.00  0.00     0.023 C 
ENDROOT
BRANCH   1   2
ATOM      2  C   UNL A   1      33.263  28.945  23.116  1.00  0.00     0.116 C 
BRANCH   2   3
ATOM      3  N   UNL A   1      31.994  29.274  22.496  1.00  0.00    -0.351 N 
ATOM      4  C   UNL A   1      30.878  28.494  22.365  1.00  0.00     0.275 C 
ATOM      5  O   UNL A   1      29.868  28.978  21.850  1.00  0.00    -0.269 OA
ATOM      6  H   UNL A   1      31.927  30.181  22.118  1.00  0.00     0.163 HD
BRANCH   4   7
ATOM      7  C   UNL A   1      30.899  27.042  22.856  1.00  0.00     0.363 C 
BRANCH   7   8
ATOM      8  N   UNL A   1      30.061  26.890  24.039  1.00  0.00    -0.322 N 
ATOM      9  C   UNL A   1      28.774  26.256  23.914  1.00  0.00     0.333 C 
ATOM     10  H   UNL A   1      29.727  27.853  24.026  1.00  0.00     0.348 HD
BRANCH   8  11
ATOM     11  C   UNL A   1      30.691  26.909  25.357  1.00  0.00     0.364 C 
BRANCH  11  12
ATOM     12  C   UNL A   1      31.201  25.573  25.785  1.00  0.00     0.282 A 
ATOM     13  N   UNL A   1      32.097  24.788  25.223  1.00  0.00    -0.186 NA
ATOM     14  O   UNL A   1      30.617  25.022  26.890  1.00  0.00    -0.333 OA
ATOM     15  C   UNL A   1      31.980  23.647  25.976  1.00  0.00     0.203 A 
ATOM     16  N   UNL A   1      31.139  23.734  27.012  1.00  0.00    -0.057 NA
BRANCH  15  17
ATOM     17  C   UNL A   1      32.667  22.420  25.569  1.00  0.00     0.033 A 
ATOM     18  C   UNL A   1      32.006  21.373  24.857  1.00  0.00     0.024 A 
ATOM     19  C   UNL A   1      34.006  22.150  25.757  1.00  0.00     0.077 A 
ATOM     20  C   UNL A   1      32.869  20.352  24.518  1.00  0.00     0.065 A 
ATOM     21  S   UNL A   1      34.464  20.651  25.065  1.00  0.00    -0.152 S 
ENDBRANCH  15  17
ENDBRANCH  11  12
ENDBRANCH   8  11
ENDBRANCH   7   8
ENDBRANCH   4   7
ENDBRANCH   2   3
ENDBRANCH   1   2
BRANCH   1  22
ATOM     22  C   UNL A   1      34.036  28.165  25.440  1.00  0.00     0.023 C 
BRANCH  22  23
ATOM     23  C   UNL A   1      33.830  28.233  26.940  1.00  0.00     0.116 C 
BRANCH  23  24
ATOM     24  N   UNL A   1      33.601  29.583  27.428  1.00  0.00    -0.352 N 
ATOM     25  C   UNL A   1      34.466  30.411  28.103  1.00  0.00     0.251 C 
ATOM     26  H   UNL A   1      32.707  29.955  27.252  1.00  0.00     0.163 HD
ATOM     27  O   UNL A   1      34.062  31.482  28.550  1.00  0.00    -0.269 OA
BRANCH  25  28
ATOM     28  C   UNL A   1      35.869  29.992  28.316  1.00  0.00     0.039 A 
ATOM     29  C   UNL A   1      36.777  30.104  27.260  1.00  0.00     0.014 A 
ATOM     30  C   UNL A   1      36.296  29.511  29.556  1.00  0.00     0.014 A 
ATOM     31  C   UNL A   1      38.118  29.777  27.464  1.00  0.00     0.010 A 
ATOM     32  C   UNL A   1      37.647  29.287  29.788  1.00  0.00     0.010 A 
ATOM     33  C   UNL A   1      38.570  29.390  28.737  1.00  0.00    -0.014 A 
BRANCH  33  34
ATOM     34  C   UNL A   1      39.993  29.035  28.974  1.00  0.00     0.031 A 
ATOM     35  C   UNL A   1      40.930  30.061  29.559  1.00  0.00     0.074 A 
ATOM     36  C   UNL A   1      40.447  27.816  28.624  1.00  0.00     0.049 A 
ATOM     37  N   UNL A   1      42.210  29.961  29.811  1.00  0.00    -0.248 NA
ATOM     38  C   UNL A   1      40.365  31.385  29.867  1.00  0.00     0.031 C 
ATOM     39  C   UNL A   1      39.653  26.767  27.978  1.00  0.00     0.029 A 
ATOM     40  N   UNL A   1      41.691  27.253  28.757  1.00  0.00    -0.354 N 
ATOM     41  C   UNL A   1      42.602  31.211  30.280  1.00  0.00     0.074 A 
ATOM     42  C   UNL A   1      41.442  32.070  30.220  1.00  0.00     0.031 C 
ATOM     43  C   UNL A   1      40.420  25.679  27.802  1.00  0.00     0.029 A 
ATOM     44  C   UNL A   1      41.765  25.960  28.294  1.00  0.00     0.049 A 
ATOM     45  H   UNL A   1      42.459  27.731  29.146  1.00  0.00     0.167 HD
ATOM     46  C   UNL A   1      43.811  31.599  30.750  1.00  0.00     0.037 A 
ATOM     47  C   UNL A   1      42.801  25.099  28.278  1.00  0.00     0.037 A 
ATOM     48  C   UNL A   1      44.946  30.722  30.856  1.00  0.00     0.049 A 
ATOM     49  C   UNL A   1      44.117  25.533  28.866  1.00  0.00     0.074 A 
ATOM     50  C   UNL A   1      46.196  30.991  31.383  1.00  0.00     0.029 A 
ATOM     51  N   UNL A   1      44.964  29.400  30.435  1.00  0.00    -0.354 N 
ATOM     52  N   UNL A   1      44.451  26.698  29.372  1.00  0.00    -0.248 NA
ATOM     53  C   UNL A   1      45.192  24.533  28.900  1.00  0.00     0.031 C 
ATOM     54  C   UNL A   1      46.983  29.841  31.250  1.00  0.00     0.029 A 
ATOM     55  C   UNL A   1      46.206  28.842  30.684  1.00  0.00     0.049 A 
ATOM     56  H   UNL A   1      44.206  28.928  30.020  1.00  0.00     0.167 HD
ATOM     57  C   UNL A   1      45.762  26.559  29.813  1.00  0.00     0.074 A 
ATOM     58  C   UNL A   1      46.154  25.194  29.528  1.00  0.00     0.031 C 
ATOM     59  C   UNL A   1      46.571  27.476  30.403  1.00  0.00     0.037 A 
BRANCH  46  60
ATOM     60  C   UNL A   1      43.962  33.026  31.200  1.00  0.00     0.058 A 
ATOM     61  C   UNL A   1      44.397  34.035  30.325  1.00  0.00     0.135 A 
ATOM     62  C   UNL A   1      43.633  33.400  32.513  1.00  0.00     0.135 A 
ATOM     63  F   UNL A   1      44.744  33.732  29.064  1.00  0.00    -0.206 F 
ATOM     64  C   UNL A   1      44.524  35.356  30.741  1.00  0.00     0.059 A 
ATOM     65  C   UNL A   1      43.725  34.720  32.943  1.00  0.00     0.059 A 
ATOM     66  F   UNL A   1      43.217  32.476  33.394  1.00  0.00    -0.206 F 
ATOM     67  C   UNL A   1      44.182  35.690  32.052  1.00  0.00     0.060 A 
BRANCH  67  68
ATOM     68  S   UNL A   1      44.331  37.413  32.569  1.00  0.00     0.124 S 
ATOM     69  O   UNL A   1      43.376  37.471  33.671  1.00  0.00    -0.237 OA
ATOM     70  O   UNL A   1      45.737  37.506  32.945  1.00  0.00    -0.237 OA
ATOM     71  O   UNL A   1      43.954  38.160  31.373  1.00  0.00    -0.744 OA
ENDBRANCH  67  68
ENDBRANCH  46  60
BRANCH  47  72
ATOM     72  C   UNL A   1      42.627  23.729  27.723  1.00  0.00     0.058 A 
ATOM     73  C   UNL A   1      42.706  23.491  26.342  1.00  0.00     0.135 A 
ATOM     74  C   UNL A   1      42.376  22.631  28.560  1.00  0.00     0.135 A 
ATOM     75  F   UNL A   1      42.941  24.508  25.500  1.00  0.00    -0.206 F 
ATOM     76  C   UNL A   1      42.514  22.221  25.808  1.00  0.00     0.059 A 
ATOM     77  C   UNL A   1      42.208  21.346  28.052  1.00  0.00     0.059 A 
ATOM     78  F   UNL A   1      42.312  22.800  29.891  1.00  0.00    -0.206 F 
ATOM     79  C   UNL A   1      42.263  21.154  26.673  1.00  0.00     0.060 A 
BRANCH  79  80
ATOM     80  S   UNL A   1      42.045  19.504  25.972  1.00  0.00     0.124 S 
ATOM     81  O   UNL A   1      42.915  19.564  24.803  1.00  0.00    -0.237 OA
ATOM     82  O   UNL A   1      42.498  18.644  27.061  1.00  0.00    -0.237 OA
ATOM     83  O   UNL A   1      40.614  19.445  25.692  1.00  0.00    -0.744 OA
ENDBRANCH  79  80
ENDBRANCH  47  72
BRANCH  59  84
ATOM     84  C   UNL A   1      47.938  27.016  30.822  1.00  0.00     0.058 A 
ATOM     85  C   UNL A   1      48.154  26.338  32.031  1.00  0.00     0.135 A 
ATOM     86  C   UNL A   1      49.045  27.236  29.985  1.00  0.00     0.135 A 
ATOM     87  F   UNL A   1      47.129  26.102  32.866  1.00  0.00    -0.206 F 
ATOM     88  C   UNL A   1      49.427  25.934  32.419  1.00  0.00     0.059 A 
ATOM     89  C   UNL A   1      50.322  26.814  30.338  1.00  0.00     0.059 A 
ATOM     90  F   UNL A   1      48.890  27.865  28.809  1.00  0.00    -0.206 F 
ATOM     91  C   UNL A   1      50.506  26.182  31.568  1.00  0.00     0.060 A 
BRANCH  91  92
ATOM     92  S   UNL A   1      52.155  25.657  32.080  1.00  0.00     0.124 S 
ATOM     93  O   UNL A   1      51.918  24.265  32.445  1.00  0.00    -0.237 OA
ATOM     94  O   UNL A   1      52.942  25.870  30.870  1.00  0.00    -0.237 OA
ATOM     95  O   UNL A   1      52.467  26.554  33.190  1.00  0.00    -0.744 OA
ENDBRANCH  91  92
ENDBRANCH  59  84
ENDBRANCH  33  34
ENDBRANCH  25  28
ENDBRANCH  23  24
ENDBRANCH  22  23
ENDBRANCH   1  22
TORSDOF 18
ENDMDL
