MODEL 1
REMARK VINA RESULT:     -11.3      0.000      0.000
REMARK SMILES COc1ccccc1S(=O)(=O)[C@@H](C)[C@H](C)C(=O)NCCCCNC(=O)c1ccc(-c2c3nc(c(-c4c(F)cc(S(=O)(=O)[O-])cc4F)c4ccc([nH]4)c(-c4c(F)cc(S(=O)(=O)[O-])cc4F)c4nc(c(-c5c(F)cc(S(=O)(=O)[O-])cc5F)c5ccc2[nH]5)C=C4)C=C3)cc1
REMARK SMILES IDX 20 1 19 2 18 3 16 4 17 5 14 7 15 8 12 9 13 10 9 11 10 12
REMARK SMILES IDX 11 13 8 14 3 15 4 16 5 17 7 18 6 19 2 20 1 21 21 22 22 23
REMARK SMILES IDX 23 24 24 25 25 27 26 28 27 29 91 30 28 31 90 32 29 33 30 34
REMARK SMILES IDX 31 35 84 36 32 37 89 38 83 39 85 40 33 41 88 42 82 43 81 44
REMARK SMILES IDX 34 46 68 47 47 48 67 49 48 50 51 51 66 52 86 53 49 54 50 55
REMARK SMILES IDX 65 57 87 58 52 59 35 60 36 61 45 62 37 63 38 64 44 65 46 66
REMARK SMILES IDX 39 67 40 68 41 69 42 70 43 71 69 72 70 73 79 74 71 75 72 76
REMARK SMILES IDX 78 77 80 78 73 79 74 80 75 81 76 82 77 83 53 84 54 85 63 86
REMARK SMILES IDX 55 87 56 88 62 89 64 90 57 91 58 92 59 93 60 94 61 95
REMARK H PARENT 18 6 23 26 85 45 51 56
REMARK Flexibility Score: inf
ROOT
ATOM      1  C   UNL A   1      33.398  29.037  27.658  1.00  0.00     0.023 C 
ENDROOT
BRANCH   1   2
ATOM      2  C   UNL A   1      32.069  28.936  26.916  1.00  0.00     0.116 C 
BRANCH   2   3
ATOM      3  N   UNL A   1      31.423  27.654  27.100  1.00  0.00    -0.356 N 
ATOM      4  C   UNL A   1      31.539  26.501  26.380  1.00  0.00     0.224 C 
ATOM      5  O   UNL A   1      30.850  25.537  26.709  1.00  0.00    -0.275 OA
ATOM      6  H   UNL A   1      30.803  27.606  27.864  1.00  0.00     0.163 HD
BRANCH   4   7
ATOM      7  C   UNL A   1      32.496  26.419  25.189  1.00  0.00     0.093 C 
ATOM      8  C   UNL A   1      33.759  25.678  25.650  1.00  0.00     0.019 C 
BRANCH   7   9
ATOM      9  C   UNL A   1      31.702  25.973  23.922  1.00  0.00     0.122 C 
ATOM     10  C   UNL A   1      32.160  24.784  23.071  1.00  0.00     0.026 C 
BRANCH   9  11
ATOM     11  S   UNL A   1      31.129  27.330  22.902  1.00  0.00     0.185 S 
ATOM     12  O   UNL A   1      31.296  26.933  21.518  1.00  0.00    -0.223 OA
ATOM     13  O   UNL A   1      31.805  28.531  23.377  1.00  0.00    -0.223 OA
BRANCH  11  14
ATOM     14  C   UNL A   1      29.400  27.691  23.081  1.00  0.00     0.109 A 
ATOM     15  C   UNL A   1      28.746  28.800  22.559  1.00  0.00     0.137 A 
ATOM     16  C   UNL A   1      27.402  29.026  22.890  1.00  0.00     0.048 A 
ATOM     17  C   UNL A   1      26.688  28.097  23.648  1.00  0.00     0.004 A 
ATOM     18  C   UNL A   1      28.670  26.744  23.823  1.00  0.00     0.024 A 
ATOM     19  C   UNL A   1      27.316  26.940  24.091  1.00  0.00     0.002 A 
BRANCH  15  20
ATOM     20  O   UNL A   1      29.403  29.696  21.781  1.00  0.00    -0.495 OA
ATOM     21  C   UNL A   1      29.207  31.053  22.184  1.00  0.00     0.278 C 
ENDBRANCH  15  20
ENDBRANCH  11  14
ENDBRANCH   9  11
ENDBRANCH   7   9
ENDBRANCH   4   7
ENDBRANCH   2   3
ENDBRANCH   1   2
BRANCH   1  22
ATOM     22  C   UNL A   1      34.260  30.218  27.229  1.00  0.00     0.023 C 
BRANCH  22  23
ATOM     23  C   UNL A   1      35.598  30.314  27.947  1.00  0.00     0.116 C 
BRANCH  23  24
ATOM     24  N   UNL A   1      35.465  30.386  29.396  1.00  0.00    -0.352 N 
ATOM     25  C   UNL A   1      36.428  30.145  30.345  1.00  0.00     0.251 C 
ATOM     26  H   UNL A   1      34.577  30.641  29.735  1.00  0.00     0.163 HD
ATOM     27  O   UNL A   1      36.129  30.112  31.536  1.00  0.00    -0.269 OA
BRANCH  25  28
ATOM     28  C   UNL A   1      37.812  29.889  29.904  1.00  0.00     0.039 A 
ATOM     29  C   UNL A   1      38.769  29.521  30.850  1.00  0.00     0.014 A 
ATOM     30  C   UNL A   1      38.141  29.953  28.547  1.00  0.00     0.014 A 
ATOM     31  C   UNL A   1      40.050  29.167  30.423  1.00  0.00     0.010 A 
ATOM     32  C   UNL A   1      39.384  29.506  28.118  1.00  0.00     0.010 A 
ATOM     33  C   UNL A   1      40.358  29.128  29.053  1.00  0.00    -0.014 A 
BRANCH  33  34
ATOM     34  C   UNL A   1      41.711  28.737  28.583  1.00  0.00     0.031 A 
ATOM     35  C   UNL A   1      42.806  29.769  28.518  1.00  0.00     0.074 A 
ATOM     36  C   UNL A   1      41.944  27.469  28.188  1.00  0.00     0.049 A 
ATOM     37  N   UNL A   1      44.045  29.634  28.120  1.00  0.00    -0.248 NA
ATOM     38  C   UNL A   1      42.455  31.140  28.925  1.00  0.00     0.031 C 
ATOM     39  C   UNL A   1      40.948  26.394  28.154  1.00  0.00     0.029 A 
ATOM     40  N   UNL A   1      43.093  26.869  27.743  1.00  0.00    -0.354 N 
ATOM     41  C   UNL A   1      44.615  30.898  28.229  1.00  0.00     0.074 A 
ATOM     42  C   UNL A   1      43.569  31.801  28.651  1.00  0.00     0.031 C 
ATOM     43  C   UNL A   1      41.540  25.258  27.748  1.00  0.00     0.029 A 
ATOM     44  C   UNL A   1      42.944  25.530  27.461  1.00  0.00     0.049 A 
ATOM     45  H   UNL A   1      43.945  27.350  27.634  1.00  0.00     0.167 HD
ATOM     46  C   UNL A   1      45.904  31.266  28.035  1.00  0.00     0.037 A 
ATOM     47  C   UNL A   1      43.843  24.627  27.025  1.00  0.00     0.037 A 
ATOM     48  C   UNL A   1      46.945  30.358  27.632  1.00  0.00     0.049 A 
ATOM     49  C   UNL A   1      45.269  25.063  26.808  1.00  0.00     0.074 A 
ATOM     50  C   UNL A   1      48.289  30.621  27.433  1.00  0.00     0.029 A 
ATOM     51  N   UNL A   1      46.759  29.008  27.373  1.00  0.00    -0.354 N 
ATOM     52  N   UNL A   1      45.803  26.252  26.969  1.00  0.00    -0.248 NA
ATOM     53  C   UNL A   1      46.217  24.033  26.365  1.00  0.00     0.031 C 
ATOM     54  C   UNL A   1      48.908  29.439  27.015  1.00  0.00     0.029 A 
ATOM     55  C   UNL A   1      47.962  28.426  27.008  1.00  0.00     0.049 A 
ATOM     56  H   UNL A   1      45.899  28.533  27.439  1.00  0.00     0.167 HD
ATOM     57  C   UNL A   1      47.156  26.100  26.687  1.00  0.00     0.074 A 
ATOM     58  C   UNL A   1      47.359  24.704  26.358  1.00  0.00     0.031 C 
ATOM     59  C   UNL A   1      48.145  27.030  26.700  1.00  0.00     0.037 A 
BRANCH  46  60
ATOM     60  C   UNL A   1      46.255  32.710  28.273  1.00  0.00     0.058 A 
ATOM     61  C   UNL A   1      46.175  33.665  27.244  1.00  0.00     0.135 A 
ATOM     62  C   UNL A   1      46.653  33.154  29.544  1.00  0.00     0.135 A 
ATOM     63  F   UNL A   1      45.821  33.294  26.003  1.00  0.00    -0.206 F 
ATOM     64  C   UNL A   1      46.505  34.998  27.459  1.00  0.00     0.059 A 
ATOM     65  C   UNL A   1      46.957  34.490  29.790  1.00  0.00     0.059 A 
ATOM     66  F   UNL A   1      46.749  32.286  30.564  1.00  0.00    -0.206 F 
ATOM     67  C   UNL A   1      46.894  35.402  28.737  1.00  0.00     0.060 A 
BRANCH  67  68
ATOM     68  S   UNL A   1      47.309  37.139  29.000  1.00  0.00     0.124 S 
ATOM     69  O   UNL A   1      46.543  37.442  30.205  1.00  0.00    -0.237 OA
ATOM     70  O   UNL A   1      48.758  37.091  29.165  1.00  0.00    -0.237 OA
ATOM     71  O   UNL A   1      46.841  37.789  27.780  1.00  0.00    -0.744 OA
ENDBRANCH  67  68
ENDBRANCH  46  60
BRANCH  47  72
ATOM     72  C   UNL A   1      43.440  23.210  26.801  1.00  0.00     0.058 A 
ATOM     73  C   UNL A   1      43.204  22.347  27.881  1.00  0.00     0.135 A 
ATOM     74  C   UNL A   1      43.302  22.687  25.506  1.00  0.00     0.135 A 
ATOM     75  F   UNL A   1      43.324  22.798  29.140  1.00  0.00    -0.206 F 
ATOM     76  C   UNL A   1      42.880  21.007  27.690  1.00  0.00     0.059 A 
ATOM     77  C   UNL A   1      42.949  21.359  25.288  1.00  0.00     0.059 A 
ATOM     78  F   UNL A   1      43.495  23.474  24.437  1.00  0.00    -0.206 F 
ATOM     79  C   UNL A   1      42.758  20.522  26.387  1.00  0.00     0.060 A 
BRANCH  79  80
ATOM     80  S   UNL A   1      42.319  18.786  26.147  1.00  0.00     0.124 S 
ATOM     81  O   UNL A   1      42.525  18.245  27.486  1.00  0.00    -0.237 OA
ATOM     82  O   UNL A   1      40.933  18.880  25.701  1.00  0.00    -0.237 OA
ATOM     83  O   UNL A   1      43.267  18.338  25.131  1.00  0.00    -0.744 OA
ENDBRANCH  79  80
ENDBRANCH  47  72
BRANCH  59  84
ATOM     84  C   UNL A   1      49.542  26.552  26.408  1.00  0.00     0.058 A 
ATOM     85  C   UNL A   1      50.098  26.613  25.121  1.00  0.00     0.135 A 
ATOM     86  C   UNL A   1      50.343  26.041  27.444  1.00  0.00     0.135 A 
ATOM     87  F   UNL A   1      49.376  27.091  24.095  1.00  0.00    -0.206 F 
ATOM     88  C   UNL A   1      51.379  26.139  24.860  1.00  0.00     0.059 A 
ATOM     89  C   UNL A   1      51.639  25.593  27.212  1.00  0.00     0.059 A 
ATOM     90  F   UNL A   1      49.867  25.976  28.698  1.00  0.00    -0.206 F 
ATOM     91  C   UNL A   1      52.141  25.627  25.913  1.00  0.00     0.060 A 
BRANCH  91  92
ATOM     92  S   UNL A   1      53.801  25.012  25.562  1.00  0.00     0.124 S 
ATOM     93  O   UNL A   1      54.505  25.351  26.795  1.00  0.00    -0.237 OA
ATOM     94  O   UNL A   1      53.567  23.589  25.337  1.00  0.00    -0.237 OA
ATOM     95  O   UNL A   1      54.202  25.770  24.381  1.00  0.00    -0.744 OA
ENDBRANCH  91  92
ENDBRANCH  59  84
ENDBRANCH  33  34
ENDBRANCH  25  28
ENDBRANCH  23  24
ENDBRANCH  22  23
ENDBRANCH   1  22
TORSDOF 18
ENDMDL
MODEL 2
REMARK VINA RESULT:     -11.3      3.227      4.228
REMARK SMILES COc1ccccc1S(=O)(=O)[C@@H](C)[C@H](C)C(=O)NCCCCNC(=O)c1ccc(-c2c3nc(c(-c4c(F)cc(S(=O)(=O)[O-])cc4F)c4ccc([nH]4)c(-c4c(F)cc(S(=O)(=O)[O-])cc4F)c4nc(c(-c5c(F)cc(S(=O)(=O)[O-])cc5F)c5ccc2[nH]5)C=C4)C=C3)cc1
REMARK SMILES IDX 20 1 19 2 18 3 16 4 17 5 14 7 15 8 12 9 13 10 9 11 10 12
REMARK SMILES IDX 11 13 8 14 3 15 4 16 5 17 7 18 6 19 2 20 1 21 21 22 22 23
REMARK SMILES IDX 23 24 24 25 25 27 26 28 27 29 91 30 28 31 90 32 29 33 30 34
REMARK SMILES IDX 31 35 84 36 32 37 89 38 83 39 85 40 33 41 88 42 82 43 81 44
REMARK SMILES IDX 34 46 68 47 47 48 67 49 48 50 51 51 66 52 86 53 49 54 50 55
REMARK SMILES IDX 65 57 87 58 52 59 35 60 36 61 45 62 37 63 38 64 44 65 46 66
REMARK SMILES IDX 39 67 40 68 41 69 42 70 43 71 69 72 70 73 79 74 71 75 72 76
REMARK SMILES IDX 78 77 80 78 73 79 74 80 75 81 76 82 77 83 53 84 54 85 63 86
REMARK SMILES IDX 55 87 56 88 62 89 64 90 57 91 58 92 59 93 60 94 61 95
REMARK H PARENT 18 6 23 26 85 45 51 56
REMARK Flexibility Score: inf
ROOT
ATOM      1  C   UNL A   1      33.381  26.503  25.475  1.00  0.00     0.023 C 
ENDROOT
BRANCH   1   2
ATOM      2  C   UNL A   1      34.343  25.326  25.371  1.00  0.00     0.116 C 
BRANCH   2   3
ATOM      3  N   UNL A   1      34.116  24.326  26.393  1.00  0.00    -0.356 N 
ATOM      4  C   UNL A   1      34.133  22.965  26.309  1.00  0.00     0.224 C 
ATOM      5  O   UNL A   1      33.868  22.315  27.319  1.00  0.00    -0.275 OA
ATOM      6  H   UNL A   1      33.917  24.685  27.289  1.00  0.00     0.163 HD
BRANCH   4   7
ATOM      7  C   UNL A   1      34.465  22.270  24.987  1.00  0.00     0.093 C 
ATOM      8  C   UNL A   1      35.453  21.132  25.287  1.00  0.00     0.019 C 
BRANCH   7   9
ATOM      9  C   UNL A   1      33.147  22.020  24.192  1.00  0.00     0.122 C 
ATOM     10  C   UNL A   1      32.524  20.622  24.098  1.00  0.00     0.026 C 
BRANCH   9  11
ATOM     11  S   UNL A   1      33.059  22.886  22.626  1.00  0.00     0.185 S 
ATOM     12  O   UNL A   1      32.400  22.007  21.680  1.00  0.00    -0.223 OA
ATOM     13  O   UNL A   1      34.406  23.358  22.329  1.00  0.00    -0.223 OA
BRANCH  11  14
ATOM     14  C   UNL A   1      32.069  24.359  22.666  1.00  0.00     0.109 A 
ATOM     15  C   UNL A   1      32.233  25.468  21.846  1.00  0.00     0.137 A 
ATOM     16  C   UNL A   1      31.461  26.615  22.076  1.00  0.00     0.048 A 
ATOM     17  C   UNL A   1      30.461  26.618  23.048  1.00  0.00     0.004 A 
ATOM     18  C   UNL A   1      31.042  24.356  23.628  1.00  0.00     0.024 A 
ATOM     19  C   UNL A   1      30.232  25.477  23.806  1.00  0.00     0.002 A 
BRANCH  15  20
ATOM     20  O   UNL A   1      33.168  25.476  20.862  1.00  0.00    -0.495 OA
ATOM     21  C   UNL A   1      32.611  25.517  19.547  1.00  0.00     0.278 C 
ENDBRANCH  15  20
ENDBRANCH  11  14
ENDBRANCH   9  11
ENDBRANCH   7   9
ENDBRANCH   4   7
ENDBRANCH   2   3
ENDBRANCH   1   2
BRANCH   1  22
ATOM     22  C   UNL A   1      34.029  27.796  25.958  1.00  0.00     0.023 C 
BRANCH  22  23
ATOM     23  C   UNL A   1      33.667  28.188  27.382  1.00  0.00     0.116 C 
BRANCH  23  24
ATOM     24  N   UNL A   1      33.552  29.629  27.566  1.00  0.00    -0.352 N 
ATOM     25  C   UNL A   1      34.514  30.503  28.010  1.00  0.00     0.251 C 
ATOM     26  H   UNL A   1      32.678  30.023  27.344  1.00  0.00     0.163 HD
ATOM     27  O   UNL A   1      34.227  31.674  28.245  1.00  0.00    -0.269 OA
BRANCH  25  28
ATOM     28  C   UNL A   1      35.882  29.999  28.233  1.00  0.00     0.039 A 
ATOM     29  C   UNL A   1      36.806  30.060  27.190  1.00  0.00     0.014 A 
ATOM     30  C   UNL A   1      36.262  29.529  29.494  1.00  0.00     0.014 A 
ATOM     31  C   UNL A   1      38.131  29.691  27.430  1.00  0.00     0.010 A 
ATOM     32  C   UNL A   1      37.599  29.259  29.754  1.00  0.00     0.010 A 
ATOM     33  C   UNL A   1      38.544  29.317  28.720  1.00  0.00    -0.014 A 
BRANCH  33  34
ATOM     34  C   UNL A   1      39.954  28.940  28.994  1.00  0.00     0.031 A 
ATOM     35  C   UNL A   1      40.877  29.929  29.656  1.00  0.00     0.074 A 
ATOM     36  C   UNL A   1      40.408  27.728  28.619  1.00  0.00     0.049 A 
ATOM     37  N   UNL A   1      42.142  29.801  29.962  1.00  0.00    -0.248 NA
ATOM     38  C   UNL A   1      40.311  31.247  29.991  1.00  0.00     0.031 C 
ATOM     39  C   UNL A   1      39.624  26.705  27.920  1.00  0.00     0.029 A 
ATOM     40  N   UNL A   1      41.641  27.148  28.776  1.00  0.00    -0.354 N 
ATOM     41  C   UNL A   1      42.519  31.016  30.522  1.00  0.00     0.074 A 
ATOM     42  C   UNL A   1      41.374  31.895  30.439  1.00  0.00     0.031 C 
ATOM     43  C   UNL A   1      40.383  25.611  27.745  1.00  0.00     0.029 A 
ATOM     44  C   UNL A   1      41.715  25.864  28.285  1.00  0.00     0.049 A 
ATOM     45  H   UNL A   1      42.402  27.606  29.201  1.00  0.00     0.167 HD
ATOM     46  C   UNL A   1      43.699  31.358  31.091  1.00  0.00     0.037 A 
ATOM     47  C   UNL A   1      42.742  24.992  28.277  1.00  0.00     0.037 A 
ATOM     48  C   UNL A   1      44.829  30.471  31.187  1.00  0.00     0.049 A 
ATOM     49  C   UNL A   1      44.047  25.399  28.910  1.00  0.00     0.074 A 
ATOM     50  C   UNL A   1      46.063  30.707  31.767  1.00  0.00     0.029 A 
ATOM     51  N   UNL A   1      44.860  29.175  30.694  1.00  0.00    -0.354 N 
ATOM     52  N   UNL A   1      44.369  26.535  29.485  1.00  0.00    -0.248 NA
ATOM     53  C   UNL A   1      45.124  24.401  28.906  1.00  0.00     0.031 C 
ATOM     54  C   UNL A   1      46.854  29.567  31.590  1.00  0.00     0.029 A 
ATOM     55  C   UNL A   1      46.094  28.601  30.949  1.00  0.00     0.049 A 
ATOM     56  H   UNL A   1      44.115  28.729  30.230  1.00  0.00     0.167 HD
ATOM     57  C   UNL A   1      45.671  26.370  29.946  1.00  0.00     0.074 A 
ATOM     58  C   UNL A   1      46.070  25.023  29.594  1.00  0.00     0.031 C 
ATOM     59  C   UNL A   1      46.466  27.252  30.604  1.00  0.00     0.037 A 
BRANCH  46  60
ATOM     60  C   UNL A   1      43.816  32.744  31.667  1.00  0.00     0.058 A 
ATOM     61  C   UNL A   1      43.530  33.004  33.019  1.00  0.00     0.135 A 
ATOM     62  C   UNL A   1      44.240  33.820  30.872  1.00  0.00     0.135 A 
ATOM     63  F   UNL A   1      43.100  32.016  33.821  1.00  0.00    -0.206 F 
ATOM     64  C   UNL A   1      43.630  34.283  33.553  1.00  0.00     0.059 A 
ATOM     65  C   UNL A   1      44.379  35.104  31.394  1.00  0.00     0.059 A 
ATOM     66  F   UNL A   1      44.525  33.631  29.574  1.00  0.00    -0.206 F 
ATOM     67  C   UNL A   1      44.057  35.328  32.732  1.00  0.00     0.060 A 
BRANCH  67  68
ATOM     68  S   UNL A   1      44.192  36.980  33.445  1.00  0.00     0.124 S 
ATOM     69  O   UNL A   1      44.714  37.743  32.316  1.00  0.00    -0.237 OA
ATOM     70  O   UNL A   1      42.812  37.269  33.822  1.00  0.00    -0.237 OA
ATOM     71  O   UNL A   1      45.117  36.796  34.558  1.00  0.00    -0.744 OA
ENDBRANCH  67  68
ENDBRANCH  46  60
BRANCH  47  72
ATOM     72  C   UNL A   1      42.573  23.635  27.690  1.00  0.00     0.058 A 
ATOM     73  C   UNL A   1      42.251  22.533  28.496  1.00  0.00     0.135 A 
ATOM     74  C   UNL A   1      42.748  23.407  26.316  1.00  0.00     0.135 A 
ATOM     75  F   UNL A   1      42.076  22.696  29.817  1.00  0.00    -0.206 F 
ATOM     76  C   UNL A   1      42.144  21.249  27.972  1.00  0.00     0.059 A 
ATOM     77  C   UNL A   1      42.615  22.138  25.761  1.00  0.00     0.059 A 
ATOM     78  F   UNL A   1      43.034  24.429  25.495  1.00  0.00    -0.206 F 
ATOM     79  C   UNL A   1      42.331  21.061  26.601  1.00  0.00     0.060 A 
BRANCH  79  80
ATOM     80  S   UNL A   1      42.171  19.394  25.925  1.00  0.00     0.124 S 
ATOM     81  O   UNL A   1      42.968  19.494  24.708  1.00  0.00    -0.237 OA
ATOM     82  O   UNL A   1      42.735  18.575  26.994  1.00  0.00    -0.237 OA
ATOM     83  O   UNL A   1      40.732  19.249  25.728  1.00  0.00    -0.744 OA
ENDBRANCH  79  80
ENDBRANCH  47  72
BRANCH  59  84
ATOM     84  C   UNL A   1      47.822  26.764  31.038  1.00  0.00     0.058 A 
ATOM     85  C   UNL A   1      48.947  26.848  30.203  1.00  0.00     0.135 A 
ATOM     86  C   UNL A   1      47.997  26.218  32.322  1.00  0.00     0.135 A 
ATOM     87  F   UNL A   1      48.835  27.359  28.968  1.00  0.00    -0.206 F 
ATOM     88  C   UNL A   1      50.188  26.364  30.606  1.00  0.00     0.059 A 
ATOM     89  C   UNL A   1      49.236  25.760  32.758  1.00  0.00     0.059 A 
ATOM     90  F   UNL A   1      46.958  26.129  33.167  1.00  0.00    -0.206 F 
ATOM     91  C   UNL A   1      50.320  25.818  31.885  1.00  0.00     0.060 A 
BRANCH  91  92
ATOM     92  S   UNL A   1      51.934  25.191  32.395  1.00  0.00     0.124 S 
ATOM     93  O   UNL A   1      52.057  25.757  33.735  1.00  0.00    -0.237 OA
ATOM     94  O   UNL A   1      51.742  23.745  32.334  1.00  0.00    -0.237 OA
ATOM     95  O   UNL A   1      52.844  25.740  31.395  1.00  0.00    -0.744 OA
ENDBRANCH  91  92
ENDBRANCH  59  84
ENDBRANCH  33  34
ENDBRANCH  25  28
ENDBRANCH  23  24
ENDBRANCH  22  23
ENDBRANCH   1  22
TORSDOF 18
ENDMDL
MODEL 3
REMARK VINA RESULT:     -11.1      3.283      4.397
REMARK SMILES COc1ccccc1S(=O)(=O)[C@@H](C)[C@H](C)C(=O)NCCCCNC(=O)c1ccc(-c2c3nc(c(-c4c(F)cc(S(=O)(=O)[O-])cc4F)c4ccc([nH]4)c(-c4c(F)cc(S(=O)(=O)[O-])cc4F)c4nc(c(-c5c(F)cc(S(=O)(=O)[O-])cc5F)c5ccc2[nH]5)C=C4)C=C3)cc1
REMARK SMILES IDX 20 1 19 2 18 3 16 4 17 5 14 7 15 8 12 9 13 10 9 11 10 12
REMARK SMILES IDX 11 13 8 14 3 15 4 16 5 17 7 18 6 19 2 20 1 21 21 22 22 23
REMARK SMILES IDX 23 24 24 25 25 27 26 28 27 29 91 30 28 31 90 32 29 33 30 34
REMARK SMILES IDX 31 35 84 36 32 37 89 38 83 39 85 40 33 41 88 42 82 43 81 44
REMARK SMILES IDX 34 46 68 47 47 48 67 49 48 50 51 51 66 52 86 53 49 54 50 55
REMARK SMILES IDX 65 57 87 58 52 59 35 60 36 61 45 62 37 63 38 64 44 65 46 66
REMARK SMILES IDX 39 67 40 68 41 69 42 70 43 71 69 72 70 73 79 74 71 75 72 76
REMARK SMILES IDX 78 77 80 78 73 79 74 80 75 81 76 82 77 83 53 84 54 85 63 86
REMARK SMILES IDX 55 87 56 88 62 89 64 90 57 91 58 92 59 93 60 94 61 95
REMARK H PARENT 18 6 23 26 85 45 51 56
REMARK Flexibility Score: inf
ROOT
ATOM      1  C   UNL A   1      33.972  27.366  24.712  1.00  0.00     0.023 C 
ENDROOT
BRANCH   1   2
ATOM      2  C   UNL A   1      33.897  25.846  24.633  1.00  0.00     0.116 C 
BRANCH   2   3
ATOM      3  N   UNL A   1      34.936  25.195  25.404  1.00  0.00    -0.356 N 
ATOM      4  C   UNL A   1      35.495  23.960  25.256  1.00  0.00     0.224 C 
ATOM      5  O   UNL A   1      36.347  23.605  26.069  1.00  0.00    -0.275 OA
ATOM      6  H   UNL A   1      35.295  25.727  26.152  1.00  0.00     0.163 HD
BRANCH   4   7
ATOM      7  C   UNL A   1      35.061  23.039  24.114  1.00  0.00     0.093 C 
ATOM      8  C   UNL A   1      36.283  22.796  23.215  1.00  0.00     0.019 C 
BRANCH   7   9
ATOM      9  C   UNL A   1      34.224  21.858  24.695  1.00  0.00     0.122 C 
ATOM     10  C   UNL A   1      34.821  20.453  24.841  1.00  0.00     0.026 C 
BRANCH   9  11
ATOM     11  S   UNL A   1      32.535  21.797  24.102  1.00  0.00     0.185 S 
ATOM     12  O   UNL A   1      31.887  20.674  24.754  1.00  0.00    -0.223 OA
ATOM     13  O   UNL A   1      32.597  21.826  22.646  1.00  0.00    -0.223 OA
BRANCH  11  14
ATOM     14  C   UNL A   1      31.562  23.216  24.537  1.00  0.00     0.109 A 
ATOM     15  C   UNL A   1      31.158  23.559  25.821  1.00  0.00     0.137 A 
ATOM     16  C   UNL A   1      30.280  24.638  26.002  1.00  0.00     0.048 A 
ATOM     17  C   UNL A   1      29.896  25.433  24.923  1.00  0.00     0.004 A 
ATOM     18  C   UNL A   1      31.194  24.037  23.455  1.00  0.00     0.024 A 
ATOM     19  C   UNL A   1      30.376  25.149  23.651  1.00  0.00     0.002 A 
BRANCH  15  20
ATOM     20  O   UNL A   1      31.553  22.830  26.895  1.00  0.00    -0.495 OA
ATOM     21  C   UNL A   1      32.715  23.353  27.542  1.00  0.00     0.278 C 
ENDBRANCH  15  20
ENDBRANCH  11  14
ENDBRANCH   9  11
ENDBRANCH   7   9
ENDBRANCH   4   7
ENDBRANCH   2   3
ENDBRANCH   1   2
BRANCH   1  22
ATOM     22  C   UNL A   1      33.080  27.977  25.787  1.00  0.00     0.023 C 
BRANCH  22  23
ATOM     23  C   UNL A   1      33.792  28.288  27.095  1.00  0.00     0.116 C 
BRANCH  23  24
ATOM     24  N   UNL A   1      33.599  29.662  27.538  1.00  0.00    -0.352 N 
ATOM     25  C   UNL A   1      34.503  30.481  28.170  1.00  0.00     0.251 C 
ATOM     26  H   UNL A   1      32.713  30.052  27.361  1.00  0.00     0.163 HD
ATOM     27  O   UNL A   1      34.150  31.573  28.607  1.00  0.00    -0.269 OA
BRANCH  25  28
ATOM     28  C   UNL A   1      35.889  30.006  28.346  1.00  0.00     0.039 A 
ATOM     29  C   UNL A   1      36.774  30.083  27.270  1.00  0.00     0.014 A 
ATOM     30  C   UNL A   1      36.322  29.546  29.593  1.00  0.00     0.014 A 
ATOM     31  C   UNL A   1      38.114  29.743  27.463  1.00  0.00     0.010 A 
ATOM     32  C   UNL A   1      37.673  29.304  29.805  1.00  0.00     0.010 A 
ATOM     33  C   UNL A   1      38.579  29.380  28.739  1.00  0.00    -0.014 A 
BRANCH  33  34
ATOM     34  C   UNL A   1      40.006  29.033  28.963  1.00  0.00     0.031 A 
ATOM     35  C   UNL A   1      40.940  30.056  29.553  1.00  0.00     0.074 A 
ATOM     36  C   UNL A   1      40.463  27.816  28.606  1.00  0.00     0.049 A 
ATOM     37  N   UNL A   1      42.219  29.957  29.809  1.00  0.00    -0.248 NA
ATOM     38  C   UNL A   1      40.368  31.375  29.871  1.00  0.00     0.031 C 
ATOM     39  C   UNL A   1      39.667  26.760  27.974  1.00  0.00     0.029 A 
ATOM     40  N   UNL A   1      41.710  27.260  28.728  1.00  0.00    -0.354 N 
ATOM     41  C   UNL A   1      42.600  31.195  30.313  1.00  0.00     0.074 A 
ATOM     42  C   UNL A   1      41.438  32.053  30.253  1.00  0.00     0.031 C 
ATOM     43  C   UNL A   1      40.435  25.673  27.800  1.00  0.00     0.029 A 
ATOM     44  C   UNL A   1      41.785  25.962  28.274  1.00  0.00     0.049 A 
ATOM     45  H   UNL A   1      42.482  27.743  29.105  1.00  0.00     0.167 HD
ATOM     46  C   UNL A   1      43.797  31.572  30.820  1.00  0.00     0.037 A 
ATOM     47  C   UNL A   1      42.824  25.107  28.250  1.00  0.00     0.037 A 
ATOM     48  C   UNL A   1      44.944  30.706  30.894  1.00  0.00     0.049 A 
ATOM     49  C   UNL A   1      44.149  25.552  28.812  1.00  0.00     0.074 A 
ATOM     50  C   UNL A   1      46.198  30.978  31.414  1.00  0.00     0.029 A 
ATOM     51  N   UNL A   1      44.975  29.395  30.441  1.00  0.00    -0.354 N 
ATOM     52  N   UNL A   1      44.476  26.710  29.337  1.00  0.00    -0.248 NA
ATOM     53  C   UNL A   1      45.241  24.570  28.793  1.00  0.00     0.031 C 
ATOM     54  C   UNL A   1      46.999  29.845  31.238  1.00  0.00     0.029 A 
ATOM     55  C   UNL A   1      46.229  28.848  30.660  1.00  0.00     0.049 A 
ATOM     56  H   UNL A   1      44.219  28.923  30.024  1.00  0.00     0.167 HD
ATOM     57  C   UNL A   1      45.799  26.580  29.747  1.00  0.00     0.074 A 
ATOM     58  C   UNL A   1      46.204  25.228  29.420  1.00  0.00     0.031 C 
ATOM     59  C   UNL A   1      46.607  27.494  30.342  1.00  0.00     0.037 A 
BRANCH  46  60
ATOM     60  C   UNL A   1      43.916  32.976  31.348  1.00  0.00     0.058 A 
ATOM     61  C   UNL A   1      44.170  34.063  30.493  1.00  0.00     0.135 A 
ATOM     62  C   UNL A   1      43.750  33.248  32.715  1.00  0.00     0.135 A 
ATOM     63  F   UNL A   1      44.358  33.860  29.179  1.00  0.00    -0.206 F 
ATOM     64  C   UNL A   1      44.287  35.361  30.978  1.00  0.00     0.059 A 
ATOM     65  C   UNL A   1      43.830  34.544  33.218  1.00  0.00     0.059 A 
ATOM     66  F   UNL A   1      43.508  32.249  33.579  1.00  0.00    -0.206 F 
ATOM     67  C   UNL A   1      44.114  35.592  32.343  1.00  0.00     0.060 A 
BRANCH  67  68
ATOM     68  S   UNL A   1      44.258  37.285  32.952  1.00  0.00     0.124 S 
ATOM     69  O   UNL A   1      43.003  37.440  33.680  1.00  0.00    -0.237 OA
ATOM     70  O   UNL A   1      45.462  37.218  33.774  1.00  0.00    -0.237 OA
ATOM     71  O   UNL A   1      44.378  38.076  31.732  1.00  0.00    -0.744 OA
ENDBRANCH  67  68
ENDBRANCH  46  60
BRANCH  47  72
ATOM     72  C   UNL A   1      42.652  23.728  27.712  1.00  0.00     0.058 A 
ATOM     73  C   UNL A   1      42.669  23.484  26.331  1.00  0.00     0.135 A 
ATOM     74  C   UNL A   1      42.448  22.633  28.566  1.00  0.00     0.135 A 
ATOM     75  F   UNL A   1      42.858  24.498  25.472  1.00  0.00    -0.206 F 
ATOM     76  C   UNL A   1      42.454  22.212  25.811  1.00  0.00     0.059 A 
ATOM     77  C   UNL A   1      42.262  21.345  28.072  1.00  0.00     0.059 A 
ATOM     78  F   UNL A   1      42.445  22.807  29.896  1.00  0.00    -0.206 F 
ATOM     79  C   UNL A   1      42.249  21.148  26.691  1.00  0.00     0.060 A 
BRANCH  79  80
ATOM     80  S   UNL A   1      41.990  19.496  26.007  1.00  0.00     0.124 S 
ATOM     81  O   UNL A   1      42.446  18.651  27.105  1.00  0.00    -0.237 OA
ATOM     82  O   UNL A   1      40.554  19.493  25.751  1.00  0.00    -0.237 OA
ATOM     83  O   UNL A   1      42.832  19.491  24.814  1.00  0.00    -0.744 OA
ENDBRANCH  79  80
ENDBRANCH  47  72
BRANCH  59  84
ATOM     84  C   UNL A   1      47.988  27.040  30.732  1.00  0.00     0.058 A 
ATOM     85  C   UNL A   1      48.242  26.380  31.945  1.00  0.00     0.135 A 
ATOM     86  C   UNL A   1      49.073  27.256  29.864  1.00  0.00     0.135 A 
ATOM     87  F   UNL A   1      47.243  26.149  32.810  1.00  0.00    -0.206 F 
ATOM     88  C   UNL A   1      49.528  25.994  32.305  1.00  0.00     0.059 A 
ATOM     89  C   UNL A   1      50.361  26.848  30.190  1.00  0.00     0.059 A 
ATOM     90  F   UNL A   1      48.883  27.868  28.684  1.00  0.00    -0.206 F 
ATOM     91  C   UNL A   1      50.583  26.237  31.422  1.00  0.00     0.060 A 
BRANCH  91  92
ATOM     92  S   UNL A   1      52.248  25.735  31.903  1.00  0.00     0.124 S 
ATOM     93  O   UNL A   1      52.996  25.987  30.675  1.00  0.00    -0.237 OA
ATOM     94  O   UNL A   1      52.538  26.633  33.016  1.00  0.00    -0.237 OA
ATOM     95  O   UNL A   1      52.089  24.329  32.263  1.00  0.00    -0.744 OA
ENDBRANCH  91  92
ENDBRANCH  59  84
ENDBRANCH  33  34
ENDBRANCH  25  28
ENDBRANCH  23  24
ENDBRANCH  22  23
ENDBRANCH   1  22
TORSDOF 18
ENDMDL
