MODEL 1
REMARK VINA RESULT:     -13.2      0.000      0.000
REMARK SMILES Cc1cc([N+](=O)[O-])c(C(C)(C)C)cc1C(=O)NCCCCNC(=O)c1ccc(-c2c3nc(c(-c4c(F)cc(S(=O)(=O)[O-])cc4F)c4ccc([nH]4)c(-c4c(F)cc(S(=O)(=O)[O-])cc4F)c4nc(c(-c5c(F)cc(S(=O)(=O)[O-])cc5F)c5ccc2[nH]5)C=C4)C=C3)cc1
REMARK SMILES IDX 20 1 19 2 18 3 17 4 15 5 16 6 14 8 1 9 2 10 3 11 4 12 13 13
REMARK SMILES IDX 8 14 5 15 6 16 7 17 9 18 10 19 11 20 12 21 21 22 22 23 23 24
REMARK SMILES IDX 24 26 25 27 26 28 90 29 27 30 89 31 28 32 29 33 30 34 83 35
REMARK SMILES IDX 31 36 88 37 82 38 84 39 32 40 87 41 81 42 80 43 33 45 67 46
REMARK SMILES IDX 46 47 66 48 47 49 50 50 65 51 85 52 48 53 49 54 64 56 86 57
REMARK SMILES IDX 51 58 34 59 35 60 44 61 36 62 37 63 43 64 45 65 38 66 39 67
REMARK SMILES IDX 40 68 41 69 42 70 68 71 69 72 78 73 70 74 71 75 77 76 79 77
REMARK SMILES IDX 72 78 73 79 74 80 75 81 76 82 52 83 53 84 62 85 54 86 55 87
REMARK SMILES IDX 61 88 63 89 56 90 57 91 58 92 59 93 60 94
REMARK H PARENT 17 7 22 25 84 44 50 55
REMARK Flexibility Score: inf
ROOT
ATOM      1  C   UNL A   1      33.287  30.052  26.315  1.00  0.00     0.023 C 
ENDROOT
BRANCH   1   2
ATOM      2  C   UNL A   1      31.921  29.492  26.706  1.00  0.00     0.023 C 
BRANCH   2   3
ATOM      3  C   UNL A   1      31.957  28.338  27.721  1.00  0.00     0.116 C 
BRANCH   3   4
ATOM      4  N   UNL A   1      31.107  27.252  27.276  1.00  0.00    -0.352 N 
ATOM      5  C   UNL A   1      31.221  26.200  26.413  1.00  0.00     0.251 C 
ATOM      6  O   UNL A   1      30.171  25.561  26.260  1.00  0.00    -0.269 OA
ATOM      7  H   UNL A   1      30.221  27.280  27.704  1.00  0.00     0.163 HD
BRANCH   5   8
ATOM      8  C   UNL A   1      32.450  25.695  25.692  1.00  0.00     0.043 A 
ATOM      9  C   UNL A   1      32.757  27.372  23.738  1.00  0.00     0.045 C 
ATOM     10  C   UNL A   1      33.133  26.193  24.578  1.00  0.00    -0.032 A 
ATOM     11  C   UNL A   1      34.253  25.479  24.097  1.00  0.00     0.090 A 
ATOM     12  C   UNL A   1      34.635  24.212  24.588  1.00  0.00     0.273 A 
ATOM     13  C   UNL A   1      32.867  24.414  26.174  1.00  0.00     0.025 A 
ATOM     14  C   UNL A   1      33.892  23.597  25.617  1.00  0.00     0.036 A 
BRANCH  12  15
ATOM     15  N   UNL A   1      35.825  23.650  23.918  1.00  0.00     0.063 N 
ATOM     16  O   UNL A   1      35.638  23.042  22.852  1.00  0.00    -0.258 OA
ATOM     17  O   UNL A   1      36.933  23.753  24.454  1.00  0.00    -0.258 OA
ENDBRANCH  12  15
BRANCH  14  18
ATOM     18  C   UNL A   1      34.029  22.139  26.121  1.00  0.00    -0.006 C 
ATOM     19  C   UNL A   1      33.411  22.011  27.538  1.00  0.00     0.016 C 
ATOM     20  C   UNL A   1      33.453  21.121  25.115  1.00  0.00     0.016 C 
ATOM     21  C   UNL A   1      35.502  21.663  26.338  1.00  0.00     0.016 C 
ENDBRANCH  14  18
ENDBRANCH   5   8
ENDBRANCH   3   4
ENDBRANCH   2   3
ENDBRANCH   1   2
BRANCH   1  22
ATOM     22  C   UNL A   1      34.312  29.903  27.425  1.00  0.00     0.116 C 
BRANCH  22  23
ATOM     23  N   UNL A   1      35.165  31.067  27.623  1.00  0.00    -0.352 N 
ATOM     24  C   UNL A   1      36.436  31.094  28.175  1.00  0.00     0.251 C 
ATOM     25  H   UNL A   1      34.797  31.933  27.332  1.00  0.00     0.163 HD
ATOM     26  O   UNL A   1      36.981  32.145  28.496  1.00  0.00    -0.269 OA
BRANCH  24  27
ATOM     27  C   UNL A   1      37.157  29.806  28.269  1.00  0.00     0.039 A 
ATOM     28  C   UNL A   1      37.271  29.224  29.535  1.00  0.00     0.014 A 
ATOM     29  C   UNL A   1      37.974  29.404  27.218  1.00  0.00     0.014 A 
ATOM     30  C   UNL A   1      38.356  28.395  29.809  1.00  0.00     0.010 A 
ATOM     31  C   UNL A   1      39.112  28.688  27.523  1.00  0.00     0.010 A 
ATOM     32  C   UNL A   1      39.332  28.224  28.830  1.00  0.00    -0.014 A 
BRANCH  32  33
ATOM     33  C   UNL A   1      40.652  27.654  29.079  1.00  0.00     0.031 A 
ATOM     34  C   UNL A   1      40.926  26.246  28.705  1.00  0.00     0.074 A 
ATOM     35  C   UNL A   1      41.658  28.442  29.519  1.00  0.00     0.049 A 
ATOM     36  N   UNL A   1      41.962  25.569  29.071  1.00  0.00    -0.248 NA
ATOM     37  C   UNL A   1      39.986  25.457  27.919  1.00  0.00     0.031 C 
ATOM     38  C   UNL A   1      43.090  28.170  29.436  1.00  0.00     0.029 A 
ATOM     39  N   UNL A   1      41.577  29.585  30.310  1.00  0.00    -0.354 N 
ATOM     40  C   UNL A   1      41.982  24.395  28.347  1.00  0.00     0.074 A 
ATOM     41  C   UNL A   1      40.685  24.338  27.723  1.00  0.00     0.031 C 
ATOM     42  C   UNL A   1      43.739  28.958  30.305  1.00  0.00     0.029 A 
ATOM     43  C   UNL A   1      42.737  29.649  31.099  1.00  0.00     0.049 A 
ATOM     44  H   UNL A   1      40.836  30.233  30.315  1.00  0.00     0.167 HD
ATOM     45  C   UNL A   1      43.152  23.693  28.263  1.00  0.00     0.037 A 
ATOM     46  C   UNL A   1      42.663  29.580  32.462  1.00  0.00     0.037 A 
ATOM     47  C   UNL A   1      44.133  24.223  29.219  1.00  0.00     0.049 A 
ATOM     48  C   UNL A   1      43.313  28.349  33.059  1.00  0.00     0.074 A 
ATOM     49  C   UNL A   1      45.229  25.061  29.086  1.00  0.00     0.029 A 
ATOM     50  N   UNL A   1      43.873  24.138  30.585  1.00  0.00    -0.354 N 
ATOM     51  N   UNL A   1      43.688  27.311  32.363  1.00  0.00    -0.248 NA
ATOM     52  C   UNL A   1      43.577  28.181  34.486  1.00  0.00     0.031 C 
ATOM     53  C   UNL A   1      45.563  25.555  30.373  1.00  0.00     0.029 A 
ATOM     54  C   UNL A   1      44.694  24.994  31.294  1.00  0.00     0.049 A 
ATOM     55  H   UNL A   1      43.196  23.548  30.990  1.00  0.00     0.167 HD
ATOM     56  C   UNL A   1      44.176  26.342  33.200  1.00  0.00     0.074 A 
ATOM     57  C   UNL A   1      44.119  26.950  34.517  1.00  0.00     0.031 C 
ATOM     58  C   UNL A   1      44.570  25.117  32.742  1.00  0.00     0.037 A 
BRANCH  45  59
ATOM     59  C   UNL A   1      43.513  22.742  27.122  1.00  0.00     0.058 A 
ATOM     60  C   UNL A   1      42.836  21.508  26.975  1.00  0.00     0.135 A 
ATOM     61  C   UNL A   1      44.571  22.916  26.205  1.00  0.00     0.135 A 
ATOM     62  F   UNL A   1      41.740  21.221  27.691  1.00  0.00    -0.206 F 
ATOM     63  C   UNL A   1      43.251  20.499  26.094  1.00  0.00     0.059 A 
ATOM     64  C   UNL A   1      45.029  21.915  25.343  1.00  0.00     0.059 A 
ATOM     65  F   UNL A   1      45.192  24.086  26.048  1.00  0.00    -0.206 F 
ATOM     66  C   UNL A   1      44.375  20.697  25.307  1.00  0.00     0.060 A 
BRANCH  66  67
ATOM     67  S   UNL A   1      44.957  19.372  24.235  1.00  0.00     0.124 S 
ATOM     68  O   UNL A   1      44.279  18.207  24.793  1.00  0.00    -0.237 OA
ATOM     69  O   UNL A   1      44.494  19.813  22.924  1.00  0.00    -0.237 OA
ATOM     70  O   UNL A   1      46.406  19.392  24.424  1.00  0.00    -0.744 OA
ENDBRANCH  66  67
ENDBRANCH  45  59
BRANCH  46  71
ATOM     71  C   UNL A   1      41.482  30.299  33.014  1.00  0.00     0.058 A 
ATOM     72  C   UNL A   1      41.563  31.704  33.072  1.00  0.00     0.135 A 
ATOM     73  C   UNL A   1      40.205  29.721  32.998  1.00  0.00     0.135 A 
ATOM     74  F   UNL A   1      42.763  32.306  33.112  1.00  0.00    -0.206 F 
ATOM     75  C   UNL A   1      40.438  32.504  32.921  1.00  0.00     0.059 A 
ATOM     76  C   UNL A   1      39.060  30.507  32.854  1.00  0.00     0.059 A 
ATOM     77  F   UNL A   1      40.068  28.387  32.949  1.00  0.00    -0.206 F 
ATOM     78  C   UNL A   1      39.201  31.890  32.732  1.00  0.00     0.060 A 
BRANCH  78  79
ATOM     79  S   UNL A   1      37.851  32.913  32.099  1.00  0.00     0.124 S 
ATOM     80  O   UNL A   1      38.497  33.632  31.008  1.00  0.00    -0.237 OA
ATOM     81  O   UNL A   1      36.885  31.891  31.699  1.00  0.00    -0.237 OA
ATOM     82  O   UNL A   1      37.476  33.720  33.254  1.00  0.00    -0.744 OA
ENDBRANCH  78  79
ENDBRANCH  46  71
BRANCH  58  83
ATOM     83  C   UNL A   1      44.950  23.938  33.607  1.00  0.00     0.058 A 
ATOM     84  C   UNL A   1      44.061  22.915  33.974  1.00  0.00     0.135 A 
ATOM     85  C   UNL A   1      46.301  23.740  33.982  1.00  0.00     0.135 A 
ATOM     86  F   UNL A   1      42.777  22.936  33.588  1.00  0.00    -0.206 F 
ATOM     87  C   UNL A   1      44.467  21.803  34.717  1.00  0.00     0.059 A 
ATOM     88  C   UNL A   1      46.737  22.614  34.674  1.00  0.00     0.059 A 
ATOM     89  F   UNL A   1      47.248  24.638  33.674  1.00  0.00    -0.206 F 
ATOM     90  C   UNL A   1      45.807  21.661  35.062  1.00  0.00     0.060 A 
BRANCH  90  91
ATOM     91  S   UNL A   1      46.358  20.200  35.966  1.00  0.00     0.124 S 
ATOM     92  O   UNL A   1      47.808  20.353  35.910  1.00  0.00    -0.237 OA
ATOM     93  O   UNL A   1      45.756  20.385  37.284  1.00  0.00    -0.237 OA
ATOM     94  O   UNL A   1      45.805  19.099  35.183  1.00  0.00    -0.744 OA
ENDBRANCH  90  91
ENDBRANCH  58  83
ENDBRANCH  32  33
ENDBRANCH  24  27
ENDBRANCH  22  23
ENDBRANCH   1  22
TORSDOF 16
ENDMDL
MODEL 2
REMARK VINA RESULT:     -12.8      4.799     11.362
REMARK SMILES Cc1cc([N+](=O)[O-])c(C(C)(C)C)cc1C(=O)NCCCCNC(=O)c1ccc(-c2c3nc(c(-c4c(F)cc(S(=O)(=O)[O-])cc4F)c4ccc([nH]4)c(-c4c(F)cc(S(=O)(=O)[O-])cc4F)c4nc(c(-c5c(F)cc(S(=O)(=O)[O-])cc5F)c5ccc2[nH]5)C=C4)C=C3)cc1
REMARK SMILES IDX 20 1 19 2 18 3 17 4 15 5 16 6 14 8 1 9 2 10 3 11 4 12 13 13
REMARK SMILES IDX 8 14 5 15 6 16 7 17 9 18 10 19 11 20 12 21 21 22 22 23 23 24
REMARK SMILES IDX 24 26 25 27 26 28 90 29 27 30 89 31 28 32 29 33 30 34 83 35
REMARK SMILES IDX 31 36 88 37 82 38 84 39 32 40 87 41 81 42 80 43 33 45 67 46
REMARK SMILES IDX 46 47 66 48 47 49 50 50 65 51 85 52 48 53 49 54 64 56 86 57
REMARK SMILES IDX 51 58 34 59 35 60 44 61 36 62 37 63 43 64 45 65 38 66 39 67
REMARK SMILES IDX 40 68 41 69 42 70 68 71 69 72 78 73 70 74 71 75 77 76 79 77
REMARK SMILES IDX 72 78 73 79 74 80 75 81 76 82 52 83 53 84 62 85 54 86 55 87
REMARK SMILES IDX 61 88 63 89 56 90 57 91 58 92 59 93 60 94
REMARK H PARENT 17 7 22 25 84 44 50 55
REMARK Flexibility Score: inf
ROOT
ATOM      1  C   UNL A   1      37.754  21.905  25.351  1.00  0.00     0.023 C 
ENDROOT
BRANCH   1   2
ATOM      2  C   UNL A   1      36.331  22.078  24.822  1.00  0.00     0.023 C 
BRANCH   2   3
ATOM      3  C   UNL A   1      35.354  20.955  25.204  1.00  0.00     0.116 C 
BRANCH   3   4
ATOM      4  N   UNL A   1      34.167  21.018  24.374  1.00  0.00    -0.352 N 
ATOM      5  C   UNL A   1      33.163  21.916  24.158  1.00  0.00     0.251 C 
ATOM      6  O   UNL A   1      32.268  21.498  23.410  1.00  0.00    -0.269 OA
ATOM      7  H   UNL A   1      34.058  20.207  23.828  1.00  0.00     0.163 HD
BRANCH   5   8
ATOM      8  C   UNL A   1      33.041  23.341  24.651  1.00  0.00     0.043 A 
ATOM      9  C   UNL A   1      32.524  23.080  27.179  1.00  0.00     0.045 C 
ATOM     10  C   UNL A   1      32.802  23.854  25.930  1.00  0.00    -0.032 A 
ATOM     11  C   UNL A   1      32.707  25.254  26.089  1.00  0.00     0.090 A 
ATOM     12  C   UNL A   1      32.693  26.159  25.006  1.00  0.00     0.273 A 
ATOM     13  C   UNL A   1      33.033  24.283  23.575  1.00  0.00     0.025 A 
ATOM     14  C   UNL A   1      32.787  25.682  23.683  1.00  0.00     0.036 A 
BRANCH  12  15
ATOM     15  N   UNL A   1      32.563  27.573  25.415  1.00  0.00     0.063 N 
ATOM     16  O   UNL A   1      33.612  28.228  25.516  1.00  0.00    -0.258 OA
ATOM     17  O   UNL A   1      31.449  28.029  25.688  1.00  0.00    -0.258 OA
ENDBRANCH  12  15
BRANCH  14  18
ATOM     18  C   UNL A   1      32.572  26.495  22.381  1.00  0.00    -0.006 C 
ATOM     19  C   UNL A   1      31.137  27.085  22.359  1.00  0.00     0.016 C 
ATOM     20  C   UNL A   1      33.668  27.562  22.178  1.00  0.00     0.016 C 
ATOM     21  C   UNL A   1      32.622  25.647  21.070  1.00  0.00     0.016 C 
ENDBRANCH  14  18
ENDBRANCH   5   8
ENDBRANCH   3   4
ENDBRANCH   2   3
ENDBRANCH   1   2
BRANCH   1  22
ATOM     22  C   UNL A   1      38.225  23.108  26.147  1.00  0.00     0.116 C 
BRANCH  22  23
ATOM     23  N   UNL A   1      39.429  22.879  26.934  1.00  0.00    -0.352 N 
ATOM     24  C   UNL A   1      40.241  23.834  27.526  1.00  0.00     0.251 C 
ATOM     25  H   UNL A   1      39.697  21.940  27.060  1.00  0.00     0.163 HD
ATOM     26  O   UNL A   1      41.345  23.555  27.981  1.00  0.00    -0.269 OA
BRANCH  24  27
ATOM     27  C   UNL A   1      39.678  25.193  27.681  1.00  0.00     0.039 A 
ATOM     28  C   UNL A   1      40.163  26.191  26.829  1.00  0.00     0.014 A 
ATOM     29  C   UNL A   1      38.985  25.516  28.843  1.00  0.00     0.014 A 
ATOM     30  C   UNL A   1      40.150  27.517  27.256  1.00  0.00     0.010 A 
ATOM     31  C   UNL A   1      39.086  26.807  29.317  1.00  0.00     0.010 A 
ATOM     32  C   UNL A   1      39.712  27.801  28.547  1.00  0.00    -0.014 A 
BRANCH  32  33
ATOM     33  C   UNL A   1      39.935  29.073  29.227  1.00  0.00     0.031 A 
ATOM     34  C   UNL A   1      38.923  30.152  29.115  1.00  0.00     0.074 A 
ATOM     35  C   UNL A   1      40.985  29.219  30.064  1.00  0.00     0.049 A 
ATOM     36  N   UNL A   1      39.103  31.377  29.475  1.00  0.00    -0.248 NA
ATOM     37  C   UNL A   1      37.618  29.928  28.508  1.00  0.00     0.031 C 
ATOM     38  C   UNL A   1      41.142  30.223  31.113  1.00  0.00     0.029 A 
ATOM     39  N   UNL A   1      42.225  28.589  30.011  1.00  0.00    -0.354 N 
ATOM     40  C   UNL A   1      37.882  32.017  29.435  1.00  0.00     0.074 A 
ATOM     41  C   UNL A   1      37.020  31.098  28.737  1.00  0.00     0.031 C 
ATOM     42  C   UNL A   1      42.437  30.307  31.452  1.00  0.00     0.029 A 
ATOM     43  C   UNL A   1      43.185  29.479  30.521  1.00  0.00     0.049 A 
ATOM     44  H   UNL A   1      42.398  27.680  29.676  1.00  0.00     0.167 HD
ATOM     45  C   UNL A   1      37.729  33.189  30.123  1.00  0.00     0.037 A 
ATOM     46  C   UNL A   1      44.199  29.946  29.730  1.00  0.00     0.037 A 
ATOM     47  C   UNL A   1      39.033  33.685  30.579  1.00  0.00     0.049 A 
ATOM     48  C   UNL A   1      44.148  31.436  29.469  1.00  0.00     0.074 A 
ATOM     49  C   UNL A   1      39.686  33.653  31.801  1.00  0.00     0.029 A 
ATOM     50  N   UNL A   1      39.991  34.056  29.638  1.00  0.00    -0.354 N 
ATOM     51  N   UNL A   1      43.118  32.191  29.738  1.00  0.00    -0.248 NA
ATOM     52  C   UNL A   1      45.244  32.194  28.870  1.00  0.00     0.031 C 
ATOM     53  C   UNL A   1      41.062  33.913  31.573  1.00  0.00     0.029 A 
ATOM     54  C   UNL A   1      41.243  34.135  30.218  1.00  0.00     0.049 A 
ATOM     55  H   UNL A   1      39.802  34.238  28.688  1.00  0.00     0.167 HD
ATOM     56  C   UNL A   1      43.361  33.474  29.324  1.00  0.00     0.074 A 
ATOM     57  C   UNL A   1      44.722  33.432  28.820  1.00  0.00     0.031 C 
ATOM     58  C   UNL A   1      42.418  34.458  29.416  1.00  0.00     0.037 A 
BRANCH  45  59
ATOM     59  C   UNL A   1      36.394  33.720  30.645  1.00  0.00     0.058 A 
ATOM     60  C   UNL A   1      35.407  34.190  29.745  1.00  0.00     0.135 A 
ATOM     61  C   UNL A   1      36.050  33.901  32.001  1.00  0.00     0.135 A 
ATOM     62  F   UNL A   1      35.521  34.004  28.422  1.00  0.00    -0.206 F 
ATOM     63  C   UNL A   1      34.259  34.884  30.151  1.00  0.00     0.059 A 
ATOM     64  C   UNL A   1      34.930  34.620  32.432  1.00  0.00     0.059 A 
ATOM     65  F   UNL A   1      36.746  33.344  32.993  1.00  0.00    -0.206 F 
ATOM     66  C   UNL A   1      34.047  35.128  31.499  1.00  0.00     0.060 A 
BRANCH  66  67
ATOM     67  S   UNL A   1      32.614  36.089  32.016  1.00  0.00     0.124 S 
ATOM     68  O   UNL A   1      33.175  36.934  33.065  1.00  0.00    -0.237 OA
ATOM     69  O   UNL A   1      32.241  36.770  30.780  1.00  0.00    -0.237 OA
ATOM     70  O   UNL A   1      31.670  35.074  32.477  1.00  0.00    -0.744 OA
ENDBRANCH  66  67
ENDBRANCH  45  59
BRANCH  46  71
ATOM     71  C   UNL A   1      44.725  28.912  28.797  1.00  0.00     0.058 A 
ATOM     72  C   UNL A   1      44.221  28.926  27.482  1.00  0.00     0.135 A 
ATOM     73  C   UNL A   1      45.971  28.307  29.010  1.00  0.00     0.135 A 
ATOM     74  F   UNL A   1      43.021  29.473  27.229  1.00  0.00    -0.206 F 
ATOM     75  C   UNL A   1      45.000  28.538  26.400  1.00  0.00     0.059 A 
ATOM     76  C   UNL A   1      46.768  27.903  27.937  1.00  0.00     0.059 A 
ATOM     77  F   UNL A   1      46.498  28.260  30.243  1.00  0.00    -0.206 F 
ATOM     78  C   UNL A   1      46.303  28.103  26.637  1.00  0.00     0.060 A 
BRANCH  78  79
ATOM     79  S   UNL A   1      47.429  28.035  25.222  1.00  0.00     0.124 S 
ATOM     80  O   UNL A   1      46.746  28.878  24.248  1.00  0.00    -0.237 OA
ATOM     81  O   UNL A   1      48.647  28.597  25.803  1.00  0.00    -0.237 OA
ATOM     82  O   UNL A   1      47.478  26.613  24.905  1.00  0.00    -0.744 OA
ENDBRANCH  78  79
ENDBRANCH  46  71
BRANCH  58  83
ATOM     83  C   UNL A   1      42.537  35.844  28.826  1.00  0.00     0.058 A 
ATOM     84  C   UNL A   1      41.892  36.254  27.647  1.00  0.00     0.135 A 
ATOM     85  C   UNL A   1      43.218  36.861  29.538  1.00  0.00     0.135 A 
ATOM     86  F   UNL A   1      41.129  35.408  26.941  1.00  0.00    -0.206 F 
ATOM     87  C   UNL A   1      41.969  37.566  27.172  1.00  0.00     0.059 A 
ATOM     88  C   UNL A   1      43.260  38.185  29.111  1.00  0.00     0.059 A 
ATOM     89  F   UNL A   1      43.858  36.598  30.687  1.00  0.00    -0.206 F 
ATOM     90  C   UNL A   1      42.655  38.525  27.910  1.00  0.00     0.060 A 
BRANCH  90  91
ATOM     91  S   UNL A   1      42.710  40.235  27.341  1.00  0.00     0.124 S 
ATOM     92  O   UNL A   1      43.428  40.098  26.078  1.00  0.00    -0.237 OA
ATOM     93  O   UNL A   1      41.297  40.587  27.227  1.00  0.00    -0.237 OA
ATOM     94  O   UNL A   1      43.432  40.916  28.411  1.00  0.00    -0.744 OA
ENDBRANCH  90  91
ENDBRANCH  58  83
ENDBRANCH  32  33
ENDBRANCH  24  27
ENDBRANCH  22  23
ENDBRANCH   1  22
TORSDOF 16
ENDMDL
MODEL 3
REMARK VINA RESULT:     -12.7      4.520     11.370
REMARK SMILES Cc1cc([N+](=O)[O-])c(C(C)(C)C)cc1C(=O)NCCCCNC(=O)c1ccc(-c2c3nc(c(-c4c(F)cc(S(=O)(=O)[O-])cc4F)c4ccc([nH]4)c(-c4c(F)cc(S(=O)(=O)[O-])cc4F)c4nc(c(-c5c(F)cc(S(=O)(=O)[O-])cc5F)c5ccc2[nH]5)C=C4)C=C3)cc1
REMARK SMILES IDX 20 1 19 2 18 3 17 4 15 5 16 6 14 8 1 9 2 10 3 11 4 12 13 13
REMARK SMILES IDX 8 14 5 15 6 16 7 17 9 18 10 19 11 20 12 21 21 22 22 23 23 24
REMARK SMILES IDX 24 26 25 27 26 28 90 29 27 30 89 31 28 32 29 33 30 34 83 35
REMARK SMILES IDX 31 36 88 37 82 38 84 39 32 40 87 41 81 42 80 43 33 45 67 46
REMARK SMILES IDX 46 47 66 48 47 49 50 50 65 51 85 52 48 53 49 54 64 56 86 57
REMARK SMILES IDX 51 58 34 59 35 60 44 61 36 62 37 63 43 64 45 65 38 66 39 67
REMARK SMILES IDX 40 68 41 69 42 70 68 71 69 72 78 73 70 74 71 75 77 76 79 77
REMARK SMILES IDX 72 78 73 79 74 80 75 81 76 82 52 83 53 84 62 85 54 86 55 87
REMARK SMILES IDX 61 88 63 89 56 90 57 91 58 92 59 93 60 94
REMARK H PARENT 17 7 22 25 84 44 50 55
REMARK Flexibility Score: inf
ROOT
ATOM      1  C   UNL A   1      37.616  22.063  25.404  1.00  0.00     0.023 C 
ENDROOT
BRANCH   1   2
ATOM      2  C   UNL A   1      36.139  21.871  25.745  1.00  0.00     0.023 C 
BRANCH   2   3
ATOM      3  C   UNL A   1      35.327  23.170  25.869  1.00  0.00     0.116 C 
BRANCH   3   4
ATOM      4  N   UNL A   1      34.157  22.952  26.696  1.00  0.00    -0.352 N 
ATOM      5  C   UNL A   1      32.885  23.444  26.753  1.00  0.00     0.251 C 
ATOM      6  O   UNL A   1      32.231  23.032  27.722  1.00  0.00    -0.269 OA
ATOM      7  H   UNL A   1      34.321  22.279  27.395  1.00  0.00     0.163 HD
BRANCH   5   8
ATOM      8  C   UNL A   1      32.174  24.351  25.774  1.00  0.00     0.043 A 
ATOM      9  C   UNL A   1      31.122  22.713  24.061  1.00  0.00     0.045 C 
ATOM     10  C   UNL A   1      31.398  24.060  24.647  1.00  0.00    -0.032 A 
ATOM     11  C   UNL A   1      30.879  25.133  23.890  1.00  0.00     0.090 A 
ATOM     12  C   UNL A   1      31.219  26.483  24.121  1.00  0.00     0.273 A 
ATOM     13  C   UNL A   1      32.494  25.728  25.989  1.00  0.00     0.025 A 
ATOM     14  C   UNL A   1      32.114  26.821  25.158  1.00  0.00     0.036 A 
BRANCH  12  15
ATOM     15  N   UNL A   1      30.569  27.428  23.190  1.00  0.00     0.063 N 
ATOM     16  O   UNL A   1      29.661  28.137  23.649  1.00  0.00    -0.258 OA
ATOM     17  O   UNL A   1      30.906  27.442  22.002  1.00  0.00    -0.258 OA
ENDBRANCH  12  15
BRANCH  14  18
ATOM     18  C   UNL A   1      32.762  28.204  25.415  1.00  0.00    -0.006 C 
ATOM     19  C   UNL A   1      33.731  28.116  26.624  1.00  0.00     0.016 C 
ATOM     20  C   UNL A   1      33.428  28.777  24.147  1.00  0.00     0.016 C 
ATOM     21  C   UNL A   1      31.759  29.320  25.852  1.00  0.00     0.016 C 
ENDBRANCH  14  18
ENDBRANCH   5   8
ENDBRANCH   3   4
ENDBRANCH   2   3
ENDBRANCH   1   2
BRANCH   1  22
ATOM     22  C   UNL A   1      38.204  23.300  26.058  1.00  0.00     0.116 C 
BRANCH  22  23
ATOM     23  N   UNL A   1      39.362  23.045  26.904  1.00  0.00    -0.352 N 
ATOM     24  C   UNL A   1      40.205  23.982  27.480  1.00  0.00     0.251 C 
ATOM     25  H   UNL A   1      39.570  22.100  27.088  1.00  0.00     0.163 HD
ATOM     26  O   UNL A   1      41.273  23.666  27.993  1.00  0.00    -0.269 OA
BRANCH  24  27
ATOM     27  C   UNL A   1      39.717  25.377  27.545  1.00  0.00     0.039 A 
ATOM     28  C   UNL A   1      40.372  26.325  26.752  1.00  0.00     0.014 A 
ATOM     29  C   UNL A   1      38.903  25.767  28.603  1.00  0.00     0.014 A 
ATOM     30  C   UNL A   1      40.391  27.657  27.157  1.00  0.00     0.010 A 
ATOM     31  C   UNL A   1      39.026  27.058  29.070  1.00  0.00     0.010 A 
ATOM     32  C   UNL A   1      39.809  27.994  28.377  1.00  0.00    -0.014 A 
BRANCH  32  33
ATOM     33  C   UNL A   1      40.025  29.263  29.065  1.00  0.00     0.031 A 
ATOM     34  C   UNL A   1      38.987  30.320  28.997  1.00  0.00     0.074 A 
ATOM     35  C   UNL A   1      41.097  29.423  29.871  1.00  0.00     0.049 A 
ATOM     36  N   UNL A   1      39.151  31.545  29.367  1.00  0.00    -0.248 NA
ATOM     37  C   UNL A   1      37.669  30.074  28.427  1.00  0.00     0.031 C 
ATOM     38  C   UNL A   1      41.265  30.418  30.926  1.00  0.00     0.029 A 
ATOM     39  N   UNL A   1      42.349  28.822  29.773  1.00  0.00    -0.354 N 
ATOM     40  C   UNL A   1      37.916  32.159  29.372  1.00  0.00     0.074 A 
ATOM     41  C   UNL A   1      37.053  31.228  28.689  1.00  0.00     0.031 C 
ATOM     42  C   UNL A   1      42.567  30.527  31.227  1.00  0.00     0.029 A 
ATOM     43  C   UNL A   1      43.304  29.727  30.263  1.00  0.00     0.049 A 
ATOM     44  H   UNL A   1      42.531  27.921  29.421  1.00  0.00     0.167 HD
ATOM     45  C   UNL A   1      37.758  33.319  30.078  1.00  0.00     0.037 A 
ATOM     46  C   UNL A   1      44.282  30.225  29.448  1.00  0.00     0.037 A 
ATOM     47  C   UNL A   1      39.065  33.839  30.500  1.00  0.00     0.049 A 
ATOM     48  C   UNL A   1      44.191  31.717  29.206  1.00  0.00     0.074 A 
ATOM     49  C   UNL A   1      39.756  33.807  31.700  1.00  0.00     0.029 A 
ATOM     50  N   UNL A   1      39.985  34.242  29.534  1.00  0.00    -0.354 N 
ATOM     51  N   UNL A   1      43.153  32.446  29.516  1.00  0.00    -0.248 NA
ATOM     52  C   UNL A   1      45.251  32.506  28.583  1.00  0.00     0.031 C 
ATOM     53  C   UNL A   1      41.118  34.100  31.433  1.00  0.00     0.029 A 
ATOM     54  C   UNL A   1      41.252  34.342  30.076  1.00  0.00     0.049 A 
ATOM     55  H   UNL A   1      39.762  34.430  28.593  1.00  0.00     0.167 HD
ATOM     56  C   UNL A   1      43.355  33.738  29.110  1.00  0.00     0.074 A 
ATOM     57  C   UNL A   1      44.700  33.733  28.564  1.00  0.00     0.031 C 
ATOM     58  C   UNL A   1      42.394  34.700  29.243  1.00  0.00     0.037 A 
BRANCH  45  59
ATOM     59  C   UNL A   1      36.429  33.814  30.647  1.00  0.00     0.058 A 
ATOM     60  C   UNL A   1      35.383  34.216  29.781  1.00  0.00     0.135 A 
ATOM     61  C   UNL A   1      36.141  34.024  32.011  1.00  0.00     0.135 A 
ATOM     62  F   UNL A   1      35.442  33.992  28.461  1.00  0.00    -0.206 F 
ATOM     63  C   UNL A   1      34.228  34.877  30.221  1.00  0.00     0.059 A 
ATOM     64  C   UNL A   1      35.015  34.713  32.474  1.00  0.00     0.059 A 
ATOM     65  F   UNL A   1      36.906  33.527  32.985  1.00  0.00    -0.206 F 
ATOM     66  C   UNL A   1      34.069  35.156  31.569  1.00  0.00     0.060 A 
BRANCH  66  67
ATOM     67  S   UNL A   1      32.625  36.077  32.125  1.00  0.00     0.124 S 
ATOM     68  O   UNL A   1      32.264  36.832  30.929  1.00  0.00    -0.237 OA
ATOM     69  O   UNL A   1      31.708  35.007  32.505  1.00  0.00    -0.237 OA
ATOM     70  O   UNL A   1      33.137  36.880  33.232  1.00  0.00    -0.744 OA
ENDBRANCH  66  67
ENDBRANCH  45  59
BRANCH  46  71
ATOM     71  C   UNL A   1      44.803  29.214  28.487  1.00  0.00     0.058 A 
ATOM     72  C   UNL A   1      45.693  28.250  28.997  1.00  0.00     0.135 A 
ATOM     73  C   UNL A   1      44.104  28.898  27.313  1.00  0.00     0.135 A 
ATOM     74  F   UNL A   1      46.404  28.513  30.106  1.00  0.00    -0.206 F 
ATOM     75  C   UNL A   1      45.740  26.960  28.485  1.00  0.00     0.059 A 
ATOM     76  C   UNL A   1      44.143  27.610  26.777  1.00  0.00     0.059 A 
ATOM     77  F   UNL A   1      43.247  29.781  26.779  1.00  0.00    -0.206 F 
ATOM     78  C   UNL A   1      44.899  26.631  27.424  1.00  0.00     0.060 A 
BRANCH  78  79
ATOM     79  S   UNL A   1      44.648  24.875  27.073  1.00  0.00     0.124 S 
ATOM     80  O   UNL A   1      45.923  24.497  26.475  1.00  0.00    -0.237 OA
ATOM     81  O   UNL A   1      44.397  24.351  28.414  1.00  0.00    -0.237 OA
ATOM     82  O   UNL A   1      43.502  24.876  26.171  1.00  0.00    -0.744 OA
ENDBRANCH  78  79
ENDBRANCH  46  71
BRANCH  58  83
ATOM     83  C   UNL A   1      42.464  36.095  28.666  1.00  0.00     0.058 A 
ATOM     84  C   UNL A   1      42.983  37.204  29.355  1.00  0.00     0.135 A 
ATOM     85  C   UNL A   1      42.123  36.320  27.311  1.00  0.00     0.135 A 
ATOM     86  F   UNL A   1      43.439  37.093  30.611  1.00  0.00    -0.206 F 
ATOM     87  C   UNL A   1      43.098  38.464  28.762  1.00  0.00     0.059 A 
ATOM     88  C   UNL A   1      42.281  37.553  26.686  1.00  0.00     0.059 A 
ATOM     89  F   UNL A   1      41.633  35.335  26.543  1.00  0.00    -0.206 F 
ATOM     90  C   UNL A   1      42.744  38.630  27.427  1.00  0.00     0.060 A 
BRANCH  90  91
ATOM     91  S   UNL A   1      42.945  40.235  26.631  1.00  0.00     0.124 S 
ATOM     92  O   UNL A   1      44.092  39.988  25.764  1.00  0.00    -0.237 OA
ATOM     93  O   UNL A   1      41.668  40.423  25.947  1.00  0.00    -0.237 OA
ATOM     94  O   UNL A   1      43.182  41.135  27.756  1.00  0.00    -0.744 OA
ENDBRANCH  90  91
ENDBRANCH  58  83
ENDBRANCH  32  33
ENDBRANCH  24  27
ENDBRANCH  22  23
ENDBRANCH   1  22
TORSDOF 16
ENDMDL
