MODEL 1
REMARK VINA RESULT:     -11.2      0.000      0.000
REMARK SMILES CCC(CC)NC(=O)N[C@@H]1C=C[C@@H](C(=O)NCCCCNC(=O)c2ccc(-c3c4nc(c(-c5c(F)cc(S(=O)(=O)[O-])cc5F)c5ccc([nH]5)c(-c5c(F)cc(S(=O)(=O)[O-])cc5F)c5nc(c(-c6c(F)cc(S(=O)(=O)[O-])cc6F)c6ccc3[nH]6)C=C5)C=C4)cc2)C1
REMARK SMILES IDX 18 1 17 2 16 3 14 4 15 5 13 7 10 8 11 9 90 10 12 11 9 12
REMARK SMILES IDX 6 13 7 14 8 16 3 18 2 19 1 20 4 21 5 22 19 23 20 24 21 25
REMARK SMILES IDX 22 26 23 28 24 29 25 30 89 31 26 32 88 33 27 34 28 35 29 36
REMARK SMILES IDX 82 37 30 38 87 39 81 40 83 41 31 42 86 43 80 44 79 45 32 47
REMARK SMILES IDX 66 48 45 49 65 50 46 51 49 52 64 53 84 54 47 55 48 56 63 58
REMARK SMILES IDX 85 59 50 60 33 61 34 62 43 63 35 64 36 65 42 66 44 67 37 68
REMARK SMILES IDX 38 69 39 70 40 71 41 72 67 73 68 74 77 75 69 76 70 77 76 78
REMARK SMILES IDX 78 79 71 80 72 81 73 82 74 83 75 84 51 85 52 86 61 87 53 88
REMARK SMILES IDX 54 89 60 90 62 91 55 92 56 93 57 94 58 95 59 96
REMARK H PARENT 16 6 6 15 9 17 21 27 83 46 49 57
REMARK Flexibility Score: inf
ROOT
ATOM      1  C   UNL A   1      34.087  31.570  28.032  1.00  0.00     0.023 C 
ENDROOT
BRANCH   1   2
ATOM      2  C   UNL A   1      33.665  30.415  27.119  1.00  0.00     0.116 C 
BRANCH   2   3
ATOM      3  N   UNL A   1      32.719  29.556  27.782  1.00  0.00    -0.356 N 
ATOM      4  C   UNL A   1      31.904  28.614  27.255  1.00  0.00     0.227 C 
ATOM      5  O   UNL A   1      31.151  28.022  28.036  1.00  0.00    -0.274 OA
ATOM      6  H   UNL A   1      32.655  29.673  28.757  1.00  0.00     0.163 HD
BRANCH   4   7
ATOM      7  C   UNL A   1      31.882  28.266  25.766  1.00  0.00     0.103 C 
ATOM      8  C   UNL A   1      31.276  27.047  23.801  1.00  0.00     0.107 C 
ATOM      9  C   UNL A   1      30.955  28.524  23.662  1.00  0.00    -0.006 C 
ATOM     10  C   UNL A   1      31.247  26.943  25.313  1.00  0.00     0.047 C 
ATOM     11  C   UNL A   1      31.260  29.207  24.781  1.00  0.00    -0.016 C 
BRANCH   8  12
ATOM     12  N   UNL A   1      32.506  26.816  23.049  1.00  0.00    -0.332 N 
ATOM     13  N   UNL A   1      33.308  24.569  22.907  1.00  0.00    -0.335 N 
ATOM     14  C   UNL A   1      33.132  25.807  22.437  1.00  0.00     0.315 C 
ATOM     15  H   UNL A   1      33.618  23.942  22.213  1.00  0.00     0.165 HD
ATOM     16  O   UNL A   1      33.663  26.069  21.352  1.00  0.00    -0.249 OA
ATOM     17  H   UNL A   1      33.027  27.647  22.971  1.00  0.00     0.165 HD
BRANCH  13  18
ATOM     18  C   UNL A   1      33.148  23.931  24.206  1.00  0.00     0.083 C 
BRANCH  18  19
ATOM     19  C   UNL A   1      33.885  24.726  25.292  1.00  0.00     0.021 C 
ATOM     20  C   UNL A   1      35.374  24.405  25.339  1.00  0.00     0.006 C 
ENDBRANCH  18  19
BRANCH  18  21
ATOM     21  C   UNL A   1      31.699  23.519  24.512  1.00  0.00     0.021 C 
ATOM     22  C   UNL A   1      31.518  22.195  25.228  1.00  0.00     0.006 C 
ENDBRANCH  18  21
ENDBRANCH  13  18
ENDBRANCH   8  12
ENDBRANCH   4   7
ENDBRANCH   2   3
ENDBRANCH   1   2
BRANCH   1  23
ATOM     23  C   UNL A   1      35.463  32.161  27.726  1.00  0.00     0.023 C 
BRANCH  23  24
ATOM     24  C   UNL A   1      36.360  32.334  28.942  1.00  0.00     0.116 C 
BRANCH  24  25
ATOM     25  N   UNL A   1      35.979  31.486  30.062  1.00  0.00    -0.352 N 
ATOM     26  C   UNL A   1      36.705  30.479  30.652  1.00  0.00     0.251 C 
ATOM     27  H   UNL A   1      35.088  31.656  30.446  1.00  0.00     0.163 HD
ATOM     28  O   UNL A   1      36.226  29.807  31.544  1.00  0.00    -0.269 OA
BRANCH  26  29
ATOM     29  C   UNL A   1      38.056  30.208  30.128  1.00  0.00     0.039 A 
ATOM     30  C   UNL A   1      39.115  30.140  31.033  1.00  0.00     0.014 A 
ATOM     31  C   UNL A   1      38.250  29.947  28.769  1.00  0.00     0.014 A 
ATOM     32  C   UNL A   1      40.374  29.765  30.574  1.00  0.00     0.010 A 
ATOM     33  C   UNL A   1      39.485  29.492  28.331  1.00  0.00     0.010 A 
ATOM     34  C   UNL A   1      40.561  29.413  29.226  1.00  0.00    -0.014 A 
BRANCH  34  35
ATOM     35  C   UNL A   1      41.894  29.002  28.731  1.00  0.00     0.031 A 
ATOM     36  C   UNL A   1      43.003  30.013  28.657  1.00  0.00     0.074 A 
ATOM     37  C   UNL A   1      42.086  27.735  28.317  1.00  0.00     0.049 A 
ATOM     38  N   UNL A   1      44.231  29.860  28.243  1.00  0.00    -0.248 NA
ATOM     39  C   UNL A   1      42.677  31.389  29.073  1.00  0.00     0.031 C 
ATOM     40  C   UNL A   1      41.059  26.689  28.284  1.00  0.00     0.029 A 
ATOM     41  N   UNL A   1      43.210  27.110  27.846  1.00  0.00    -0.354 N 
ATOM     42  C   UNL A   1      44.820  31.115  28.335  1.00  0.00     0.074 A 
ATOM     43  C   UNL A   1      43.795  32.034  28.780  1.00  0.00     0.031 C 
ATOM     44  C   UNL A   1      41.612  25.545  27.847  1.00  0.00     0.029 A 
ATOM     45  C   UNL A   1      43.020  25.781  27.547  1.00  0.00     0.049 A 
ATOM     46  H   UNL A   1      44.073  27.569  27.731  1.00  0.00     0.167 HD
ATOM     47  C   UNL A   1      46.106  31.465  28.102  1.00  0.00     0.037 A 
ATOM     48  C   UNL A   1      43.890  24.860  27.094  1.00  0.00     0.037 A 
ATOM     49  C   UNL A   1      47.123  30.533  27.695  1.00  0.00     0.049 A 
ATOM     50  C   UNL A   1      45.324  25.262  26.880  1.00  0.00     0.074 A 
ATOM     51  C   UNL A   1      48.470  30.765  27.486  1.00  0.00     0.029 A 
ATOM     52  N   UNL A   1      46.903  29.187  27.441  1.00  0.00    -0.354 N 
ATOM     53  N   UNL A   1      45.881  26.440  27.037  1.00  0.00    -0.248 NA
ATOM     54  C   UNL A   1      46.251  24.210  26.445  1.00  0.00     0.031 C 
ATOM     55  C   UNL A   1      49.059  29.564  27.071  1.00  0.00     0.029 A 
ATOM     56  C   UNL A   1      48.088  28.575  27.068  1.00  0.00     0.049 A 
ATOM     57  H   UNL A   1      46.032  28.733  27.514  1.00  0.00     0.167 HD
ATOM     58  C   UNL A   1      47.230  26.264  26.749  1.00  0.00     0.074 A 
ATOM     59  C   UNL A   1      47.405  24.863  26.422  1.00  0.00     0.031 C 
ATOM     60  C   UNL A   1      48.235  27.176  26.755  1.00  0.00     0.037 A 
BRANCH  47  61
ATOM     61  C   UNL A   1      46.479  32.909  28.295  1.00  0.00     0.058 A 
ATOM     62  C   UNL A   1      46.934  33.392  29.534  1.00  0.00     0.135 A 
ATOM     63  C   UNL A   1      46.393  33.819  27.230  1.00  0.00     0.135 A 
ATOM     64  F   UNL A   1      47.015  32.571  30.592  1.00  0.00    -0.206 F 
ATOM     65  C   UNL A   1      47.260  34.732  29.718  1.00  0.00     0.059 A 
ATOM     66  C   UNL A   1      46.742  35.159  27.384  1.00  0.00     0.059 A 
ATOM     67  F   UNL A   1      45.961  33.413  26.026  1.00  0.00    -0.206 F 
ATOM     68  C   UNL A   1      47.159  35.608  28.637  1.00  0.00     0.060 A 
BRANCH  68  69
ATOM     69  S   UNL A   1      47.588  37.343  28.890  1.00  0.00     0.124 S 
ATOM     70  O   UNL A   1      46.294  37.992  28.696  1.00  0.00    -0.237 OA
ATOM     71  O   UNL A   1      48.096  37.342  30.258  1.00  0.00    -0.237 OA
ATOM     72  O   UNL A   1      48.583  37.602  27.854  1.00  0.00    -0.744 OA
ENDBRANCH  68  69
ENDBRANCH  47  61
BRANCH  48  73
ATOM     73  C   UNL A   1      43.440  23.463  26.857  1.00  0.00     0.058 A 
ATOM     74  C   UNL A   1      43.299  22.961  25.554  1.00  0.00     0.135 A 
ATOM     75  C   UNL A   1      43.159  22.596  27.924  1.00  0.00     0.135 A 
ATOM     76  F   UNL A   1      43.556  23.751  24.500  1.00  0.00    -0.206 F 
ATOM     77  C   UNL A   1      42.876  21.657  25.316  1.00  0.00     0.059 A 
ATOM     78  C   UNL A   1      42.758  21.281  27.712  1.00  0.00     0.059 A 
ATOM     79  F   UNL A   1      43.299  23.021  29.189  1.00  0.00    -0.206 F 
ATOM     80  C   UNL A   1      42.608  20.824  26.403  1.00  0.00     0.060 A 
BRANCH  80  81
ATOM     81  S   UNL A   1      42.102  19.119  26.084  1.00  0.00     0.124 S 
ATOM     82  O   UNL A   1      42.895  18.794  24.905  1.00  0.00    -0.237 OA
ATOM     83  O   UNL A   1      42.489  18.448  27.321  1.00  0.00    -0.237 OA
ATOM     84  O   UNL A   1      40.662  19.233  25.867  1.00  0.00    -0.744 OA
ENDBRANCH  80  81
ENDBRANCH  48  73
BRANCH  60  85
ATOM     85  C   UNL A   1      49.616  26.676  26.436  1.00  0.00     0.058 A 
ATOM     86  C   UNL A   1      50.111  26.662  25.123  1.00  0.00     0.135 A 
ATOM     87  C   UNL A   1      50.463  26.236  27.465  1.00  0.00     0.135 A 
ATOM     88  F   UNL A   1      49.338  27.069  24.104  1.00  0.00    -0.206 F 
ATOM     89  C   UNL A   1      51.388  26.195  24.836  1.00  0.00     0.059 A 
ATOM     90  C   UNL A   1      51.755  25.793  27.205  1.00  0.00     0.059 A 
ATOM     91  F   UNL A   1      50.042  26.243  28.739  1.00  0.00    -0.206 F 
ATOM     92  C   UNL A   1      52.202  25.759  25.885  1.00  0.00     0.060 A 
BRANCH  92  93
ATOM     93  S   UNL A   1      53.863  25.165  25.502  1.00  0.00     0.124 S 
ATOM     94  O   UNL A   1      54.109  25.797  24.210  1.00  0.00    -0.237 OA
ATOM     95  O   UNL A   1      54.647  25.680  26.621  1.00  0.00    -0.237 OA
ATOM     96  O   UNL A   1      53.704  23.714  25.472  1.00  0.00    -0.744 OA
ENDBRANCH  92  93
ENDBRANCH  60  85
ENDBRANCH  34  35
ENDBRANCH  26  29
ENDBRANCH  24  25
ENDBRANCH  23  24
ENDBRANCH   1  23
TORSDOF 18
ENDMDL
MODEL 2
REMARK VINA RESULT:     -11.2      3.967      6.765
REMARK SMILES CCC(CC)NC(=O)N[C@@H]1C=C[C@@H](C(=O)NCCCCNC(=O)c2ccc(-c3c4nc(c(-c5c(F)cc(S(=O)(=O)[O-])cc5F)c5ccc([nH]5)c(-c5c(F)cc(S(=O)(=O)[O-])cc5F)c5nc(c(-c6c(F)cc(S(=O)(=O)[O-])cc6F)c6ccc3[nH]6)C=C5)C=C4)cc2)C1
REMARK SMILES IDX 18 1 17 2 16 3 14 4 15 5 13 7 10 8 11 9 90 10 12 11 9 12
REMARK SMILES IDX 6 13 7 14 8 16 3 18 2 19 1 20 4 21 5 22 19 23 20 24 21 25
REMARK SMILES IDX 22 26 23 28 24 29 25 30 89 31 26 32 88 33 27 34 28 35 29 36
REMARK SMILES IDX 82 37 30 38 87 39 81 40 83 41 31 42 86 43 80 44 79 45 32 47
REMARK SMILES IDX 66 48 45 49 65 50 46 51 49 52 64 53 84 54 47 55 48 56 63 58
REMARK SMILES IDX 85 59 50 60 33 61 34 62 43 63 35 64 36 65 42 66 44 67 37 68
REMARK SMILES IDX 38 69 39 70 40 71 41 72 67 73 68 74 77 75 69 76 70 77 76 78
REMARK SMILES IDX 78 79 71 80 72 81 73 82 74 83 75 84 51 85 52 86 61 87 53 88
REMARK SMILES IDX 54 89 60 90 62 91 55 92 56 93 57 94 58 95 59 96
REMARK H PARENT 16 6 6 15 9 17 21 27 83 46 49 57
REMARK Flexibility Score: inf
ROOT
ATOM      1  C   UNL A   1      34.515  34.010  31.099  1.00  0.00     0.023 C 
ENDROOT
BRANCH   1   2
ATOM      2  C   UNL A   1      35.627  34.540  32.009  1.00  0.00     0.116 C 
BRANCH   2   3
ATOM      3  N   UNL A   1      36.864  34.672  31.285  1.00  0.00    -0.356 N 
ATOM      4  C   UNL A   1      38.130  34.450  31.707  1.00  0.00     0.227 C 
ATOM      5  O   UNL A   1      39.038  34.664  30.896  1.00  0.00    -0.274 OA
ATOM      6  H   UNL A   1      36.776  34.966  30.350  1.00  0.00     0.163 HD
BRANCH   4   7
ATOM      7  C   UNL A   1      38.467  33.958  33.115  1.00  0.00     0.103 C 
ATOM      8  C   UNL A   1      39.799  32.979  34.843  1.00  0.00     0.107 C 
ATOM      9  C   UNL A   1      39.311  34.364  35.231  1.00  0.00    -0.006 C 
ATOM     10  C   UNL A   1      39.739  33.125  33.335  1.00  0.00     0.047 C 
ATOM     11  C   UNL A   1      38.593  34.933  34.245  1.00  0.00    -0.016 C 
BRANCH   8  12
ATOM     12  N   UNL A   1      38.946  32.026  35.547  1.00  0.00    -0.332 N 
ATOM     13  N   UNL A   1      38.948  29.764  34.776  1.00  0.00    -0.335 N 
ATOM     14  C   UNL A   1      38.849  30.705  35.719  1.00  0.00     0.315 C 
ATOM     15  H   UNL A   1      39.043  28.859  35.154  1.00  0.00     0.165 HD
ATOM     16  O   UNL A   1      38.570  30.319  36.860  1.00  0.00    -0.249 OA
ATOM     17  H   UNL A   1      38.233  32.494  36.039  1.00  0.00     0.165 HD
BRANCH  13  18
ATOM     18  C   UNL A   1      38.947  29.765  33.320  1.00  0.00     0.083 C 
BRANCH  18  19
ATOM     19  C   UNL A   1      40.023  28.815  32.779  1.00  0.00     0.021 C 
ATOM     20  C   UNL A   1      41.287  28.823  33.629  1.00  0.00     0.006 C 
ENDBRANCH  18  19
BRANCH  18  21
ATOM     21  C   UNL A   1      37.542  29.643  32.708  1.00  0.00     0.021 C 
ATOM     22  C   UNL A   1      36.679  30.889  32.763  1.00  0.00     0.006 C 
ENDBRANCH  18  21
ENDBRANCH  13  18
ENDBRANCH   8  12
ENDBRANCH   4   7
ENDBRANCH   2   3
ENDBRANCH   1   2
BRANCH   1  23
ATOM     23  C   UNL A   1      34.714  32.576  30.609  1.00  0.00     0.023 C 
BRANCH  23  24
ATOM     24  C   UNL A   1      35.032  32.455  29.126  1.00  0.00     0.116 C 
BRANCH  24  25
ATOM     25  N   UNL A   1      34.197  31.482  28.437  1.00  0.00    -0.352 N 
ATOM     26  C   UNL A   1      34.551  30.242  27.963  1.00  0.00     0.251 C 
ATOM     27  H   UNL A   1      33.259  31.746  28.293  1.00  0.00     0.163 HD
ATOM     28  O   UNL A   1      33.755  29.562  27.345  1.00  0.00    -0.269 OA
BRANCH  26  29
ATOM     29  C   UNL A   1      35.937  29.792  28.181  1.00  0.00     0.039 A 
ATOM     30  C   UNL A   1      36.875  30.025  27.176  1.00  0.00     0.014 A 
ATOM     31  C   UNL A   1      36.312  29.218  29.399  1.00  0.00     0.014 A 
ATOM     32  C   UNL A   1      38.212  29.718  27.413  1.00  0.00     0.010 A 
ATOM     33  C   UNL A   1      37.655  28.993  29.663  1.00  0.00     0.010 A 
ATOM     34  C   UNL A   1      38.614  29.225  28.666  1.00  0.00    -0.014 A 
BRANCH  34  35
ATOM     35  C   UNL A   1      40.035  28.906  28.931  1.00  0.00     0.031 A 
ATOM     36  C   UNL A   1      40.916  29.934  29.584  1.00  0.00     0.074 A 
ATOM     37  C   UNL A   1      40.530  27.714  28.551  1.00  0.00     0.049 A 
ATOM     38  N   UNL A   1      42.183  29.858  29.890  1.00  0.00    -0.248 NA
ATOM     39  C   UNL A   1      40.297  31.232  29.906  1.00  0.00     0.031 C 
ATOM     40  C   UNL A   1      39.779  26.668  27.849  1.00  0.00     0.029 A 
ATOM     41  N   UNL A   1      41.782  27.178  28.700  1.00  0.00    -0.354 N 
ATOM     42  C   UNL A   1      42.516  31.097  30.426  1.00  0.00     0.074 A 
ATOM     43  C   UNL A   1      41.336  31.928  30.342  1.00  0.00     0.031 C 
ATOM     44  C   UNL A   1      40.579  25.606  27.659  1.00  0.00     0.029 A 
ATOM     45  C   UNL A   1      41.900  25.902  28.200  1.00  0.00     0.049 A 
ATOM     46  H   UNL A   1      42.528  27.661  29.124  1.00  0.00     0.167 HD
ATOM     47  C   UNL A   1      43.690  31.494  30.969  1.00  0.00     0.037 A 
ATOM     48  C   UNL A   1      42.956  25.067  28.193  1.00  0.00     0.037 A 
ATOM     49  C   UNL A   1      44.844  30.644  31.080  1.00  0.00     0.049 A 
ATOM     50  C   UNL A   1      44.239  25.516  28.838  1.00  0.00     0.074 A 
ATOM     51  C   UNL A   1      46.067  30.921  31.663  1.00  0.00     0.029 A 
ATOM     52  N   UNL A   1      44.915  29.344  30.599  1.00  0.00    -0.354 N 
ATOM     53  N   UNL A   1      44.517  26.668  29.403  1.00  0.00    -0.248 NA
ATOM     54  C   UNL A   1      45.343  24.549  28.864  1.00  0.00     0.031 C 
ATOM     55  C   UNL A   1      46.890  29.800  31.505  1.00  0.00     0.029 A 
ATOM     56  C   UNL A   1      46.164  28.808  30.864  1.00  0.00     0.049 A 
ATOM     57  H   UNL A   1      44.185  28.872  30.137  1.00  0.00     0.167 HD
ATOM     58  C   UNL A   1      45.820  26.553  29.876  1.00  0.00     0.074 A 
ATOM     59  C   UNL A   1      46.266  25.215  29.543  1.00  0.00     0.031 C 
ATOM     60  C   UNL A   1      46.580  27.469  30.528  1.00  0.00     0.037 A 
BRANCH  47  61
ATOM     61  C   UNL A   1      43.771  32.901  31.494  1.00  0.00     0.058 A 
ATOM     62  C   UNL A   1      44.215  33.963  30.687  1.00  0.00     0.135 A 
ATOM     63  C   UNL A   1      43.391  33.197  32.812  1.00  0.00     0.135 A 
ATOM     64  F   UNL A   1      44.612  33.734  29.425  1.00  0.00    -0.206 F 
ATOM     65  C   UNL A   1      44.310  35.260  31.178  1.00  0.00     0.059 A 
ATOM     66  C   UNL A   1      43.450  34.494  33.316  1.00  0.00     0.059 A 
ATOM     67  F   UNL A   1      42.964  32.221  33.628  1.00  0.00    -0.206 F 
ATOM     68  C   UNL A   1      43.926  35.516  32.495  1.00  0.00     0.060 A 
BRANCH  68  69
ATOM     69  S   UNL A   1      44.051  37.205  33.117  1.00  0.00     0.124 S 
ATOM     70  O   UNL A   1      43.953  37.978  31.882  1.00  0.00    -0.237 OA
ATOM     71  O   UNL A   1      42.901  37.295  34.011  1.00  0.00    -0.237 OA
ATOM     72  O   UNL A   1      45.355  37.231  33.772  1.00  0.00    -0.744 OA
ENDBRANCH  68  69
ENDBRANCH  47  61
BRANCH  48  73
ATOM     73  C   UNL A   1      42.829  23.711  27.596  1.00  0.00     0.058 A 
ATOM     74  C   UNL A   1      43.108  23.491  26.238  1.00  0.00     0.135 A 
ATOM     75  C   UNL A   1      42.445  22.606  28.371  1.00  0.00     0.135 A 
ATOM     76  F   UNL A   1      43.478  24.517  25.456  1.00  0.00    -0.206 F 
ATOM     77  C   UNL A   1      42.990  22.229  25.664  1.00  0.00     0.059 A 
ATOM     78  C   UNL A   1      42.344  21.330  27.826  1.00  0.00     0.059 A 
ATOM     79  F   UNL A   1      42.190  22.759  29.679  1.00  0.00    -0.206 F 
ATOM     80  C   UNL A   1      42.608  21.154  26.468  1.00  0.00     0.060 A 
BRANCH  80  81
ATOM     81  S   UNL A   1      42.502  19.511  25.723  1.00  0.00     0.124 S 
ATOM     82  O   UNL A   1      41.078  19.414  25.429  1.00  0.00    -0.237 OA
ATOM     83  O   UNL A   1      43.387  19.639  24.570  1.00  0.00    -0.237 OA
ATOM     84  O   UNL A   1      42.991  18.633  26.783  1.00  0.00    -0.744 OA
ENDBRANCH  80  81
ENDBRANCH  48  73
BRANCH  60  85
ATOM     85  C   UNL A   1      47.954  27.039  30.957  1.00  0.00     0.058 A 
ATOM     86  C   UNL A   1      48.174  26.377  32.174  1.00  0.00     0.135 A 
ATOM     87  C   UNL A   1      49.059  27.266  30.121  1.00  0.00     0.135 A 
ATOM     88  F   UNL A   1      47.151  26.141  33.011  1.00  0.00    -0.206 F 
ATOM     89  C   UNL A   1      49.449  25.985  32.565  1.00  0.00     0.059 A 
ATOM     90  C   UNL A   1      50.338  26.855  30.477  1.00  0.00     0.059 A 
ATOM     91  F   UNL A   1      48.899  27.882  28.939  1.00  0.00    -0.206 F 
ATOM     92  C   UNL A   1      50.526  26.232  31.710  1.00  0.00     0.060 A 
BRANCH  92  93
ATOM     93  S   UNL A   1      52.176  25.709  32.223  1.00  0.00     0.124 S 
ATOM     94  O   UNL A   1      52.420  26.587  33.362  1.00  0.00    -0.237 OA
ATOM     95  O   UNL A   1      51.974  24.299  32.539  1.00  0.00    -0.237 OA
ATOM     96  O   UNL A   1      52.995  25.969  31.042  1.00  0.00    -0.744 OA
ENDBRANCH  92  93
ENDBRANCH  60  85
ENDBRANCH  34  35
ENDBRANCH  26  29
ENDBRANCH  24  25
ENDBRANCH  23  24
ENDBRANCH   1  23
TORSDOF 18
ENDMDL
MODEL 3
REMARK VINA RESULT:     -11.1      6.469     12.105
REMARK SMILES CCC(CC)NC(=O)N[C@@H]1C=C[C@@H](C(=O)NCCCCNC(=O)c2ccc(-c3c4nc(c(-c5c(F)cc(S(=O)(=O)[O-])cc5F)c5ccc([nH]5)c(-c5c(F)cc(S(=O)(=O)[O-])cc5F)c5nc(c(-c6c(F)cc(S(=O)(=O)[O-])cc6F)c6ccc3[nH]6)C=C5)C=C4)cc2)C1
REMARK SMILES IDX 18 1 17 2 16 3 14 4 15 5 13 7 10 8 11 9 90 10 12 11 9 12
REMARK SMILES IDX 6 13 7 14 8 16 3 18 2 19 1 20 4 21 5 22 19 23 20 24 21 25
REMARK SMILES IDX 22 26 23 28 24 29 25 30 89 31 26 32 88 33 27 34 28 35 29 36
REMARK SMILES IDX 82 37 30 38 87 39 81 40 83 41 31 42 86 43 80 44 79 45 32 47
REMARK SMILES IDX 66 48 45 49 65 50 46 51 49 52 64 53 84 54 47 55 48 56 63 58
REMARK SMILES IDX 85 59 50 60 33 61 34 62 43 63 35 64 36 65 42 66 44 67 37 68
REMARK SMILES IDX 38 69 39 70 40 71 41 72 67 73 68 74 77 75 69 76 70 77 76 78
REMARK SMILES IDX 78 79 71 80 72 81 73 82 74 83 75 84 51 85 52 86 61 87 53 88
REMARK SMILES IDX 54 89 60 90 62 91 55 92 56 93 57 94 58 95 59 96
REMARK H PARENT 16 6 6 15 9 17 21 27 83 46 49 57
REMARK Flexibility Score: inf
ROOT
ATOM      1  C   UNL A   1      38.574  23.406  26.409  1.00  0.00     0.023 C 
ENDROOT
BRANCH   1   2
ATOM      2  C   UNL A   1      37.648  22.758  25.376  1.00  0.00     0.116 C 
BRANCH   2   3
ATOM      3  N   UNL A   1      36.615  21.992  26.022  1.00  0.00    -0.356 N 
ATOM      4  C   UNL A   1      35.286  22.235  26.090  1.00  0.00     0.227 C 
ATOM      5  O   UNL A   1      34.601  21.434  26.736  1.00  0.00    -0.274 OA
ATOM      6  H   UNL A   1      36.919  21.176  26.481  1.00  0.00     0.163 HD
BRANCH   4   7
ATOM      7  C   UNL A   1      34.620  23.433  25.414  1.00  0.00     0.103 C 
ATOM      8  C   UNL A   1      32.848  24.936  24.849  1.00  0.00     0.107 C 
ATOM      9  C   UNL A   1      34.044  25.675  25.423  1.00  0.00    -0.006 C 
ATOM     10  C   UNL A   1      33.092  23.576  25.473  1.00  0.00     0.047 C 
ATOM     11  C   UNL A   1      35.028  24.828  25.778  1.00  0.00    -0.016 C 
BRANCH   8  12
ATOM     12  N   UNL A   1      32.898  25.126  23.402  1.00  0.00    -0.332 N 
ATOM     13  N   UNL A   1      32.466  27.320  22.559  1.00  0.00    -0.335 N 
ATOM     14  C   UNL A   1      33.057  26.122  22.527  1.00  0.00     0.315 C 
ATOM     15  H   UNL A   1      32.876  27.961  21.934  1.00  0.00     0.165 HD
ATOM     16  O   UNL A   1      33.772  25.884  21.547  1.00  0.00    -0.249 OA
ATOM     17  H   UNL A   1      32.782  24.267  22.935  1.00  0.00     0.165 HD
BRANCH  13  18
ATOM     18  C   UNL A   1      31.357  27.898  23.306  1.00  0.00     0.083 C 
BRANCH  18  19
ATOM     19  C   UNL A   1      30.088  27.054  23.127  1.00  0.00     0.021 C 
ATOM     20  C   UNL A   1      29.616  26.429  24.433  1.00  0.00     0.006 C 
ENDBRANCH  18  19
BRANCH  18  21
ATOM     21  C   UNL A   1      31.728  28.295  24.744  1.00  0.00     0.021 C 
ATOM     22  C   UNL A   1      31.438  29.732  25.136  1.00  0.00     0.006 C 
ENDBRANCH  18  21
ENDBRANCH  13  18
ENDBRANCH   8  12
ENDBRANCH   4   7
ENDBRANCH   2   3
ENDBRANCH   1   2
BRANCH   1  23
ATOM     23  C   UNL A   1      39.735  22.526  26.874  1.00  0.00     0.023 C 
BRANCH  23  24
ATOM     24  C   UNL A   1      41.020  23.282  27.170  1.00  0.00     0.116 C 
BRANCH  24  25
ATOM     25  N   UNL A   1      41.504  24.059  26.038  1.00  0.00    -0.352 N 
ATOM     26  C   UNL A   1      41.783  25.404  25.987  1.00  0.00     0.251 C 
ATOM     27  H   UNL A   1      41.650  23.558  25.204  1.00  0.00     0.163 HD
ATOM     28  O   UNL A   1      42.120  25.930  24.944  1.00  0.00    -0.269 OA
BRANCH  26  29
ATOM     29  C   UNL A   1      41.606  26.191  27.221  1.00  0.00     0.039 A 
ATOM     30  C   UNL A   1      42.526  27.202  27.499  1.00  0.00     0.014 A 
ATOM     31  C   UNL A   1      40.499  25.976  28.046  1.00  0.00     0.014 A 
ATOM     32  C   UNL A   1      42.307  28.033  28.594  1.00  0.00     0.010 A 
ATOM     33  C   UNL A   1      40.239  26.859  29.083  1.00  0.00     0.010 A 
ATOM     34  C   UNL A   1      41.150  27.884  29.376  1.00  0.00    -0.014 A 
BRANCH  34  35
ATOM     35  C   UNL A   1      40.902  28.772  30.535  1.00  0.00     0.031 A 
ATOM     36  C   UNL A   1      41.746  28.631  31.770  1.00  0.00     0.074 A 
ATOM     37  C   UNL A   1      39.899  29.668  30.482  1.00  0.00     0.049 A 
ATOM     38  N   UNL A   1      41.683  29.298  32.891  1.00  0.00    -0.248 NA
ATOM     39  C   UNL A   1      42.777  27.579  31.756  1.00  0.00     0.031 C 
ATOM     40  C   UNL A   1      38.975  29.842  29.356  1.00  0.00     0.029 A 
ATOM     41  N   UNL A   1      39.487  30.603  31.395  1.00  0.00    -0.354 N 
ATOM     42  C   UNL A   1      42.651  28.740  33.717  1.00  0.00     0.074 A 
ATOM     43  C   UNL A   1      43.243  27.636  32.994  1.00  0.00     0.031 C 
ATOM     44  C   UNL A   1      38.127  30.845  29.635  1.00  0.00     0.029 A 
ATOM     45  C   UNL A   1      38.429  31.368  30.964  1.00  0.00     0.049 A 
ATOM     46  H   UNL A   1      39.909  30.715  32.278  1.00  0.00     0.167 HD
ATOM     47  C   UNL A   1      43.036  29.132  34.954  1.00  0.00     0.037 A 
ATOM     48  C   UNL A   1      37.786  32.382  31.572  1.00  0.00     0.037 A 
ATOM     49  C   UNL A   1      42.464  30.255  35.646  1.00  0.00     0.049 A 
ATOM     50  C   UNL A   1      38.257  32.827  32.930  1.00  0.00     0.074 A 
ATOM     51  C   UNL A   1      42.814  30.779  36.877  1.00  0.00     0.029 A 
ATOM     52  N   UNL A   1      41.421  31.032  35.162  1.00  0.00    -0.354 N 
ATOM     53  N   UNL A   1      39.222  32.332  33.670  1.00  0.00    -0.248 NA
ATOM     54  C   UNL A   1      37.568  33.978  33.527  1.00  0.00     0.031 C 
ATOM     55  C   UNL A   1      41.960  31.853  37.153  1.00  0.00     0.029 A 
ATOM     56  C   UNL A   1      41.108  32.027  36.073  1.00  0.00     0.049 A 
ATOM     57  H   UNL A   1      40.969  30.896  34.298  1.00  0.00     0.167 HD
ATOM     58  C   UNL A   1      39.274  33.129  34.808  1.00  0.00     0.074 A 
ATOM     59  C   UNL A   1      38.254  34.146  34.650  1.00  0.00     0.031 C 
ATOM     60  C   UNL A   1      40.092  33.032  35.887  1.00  0.00     0.037 A 
BRANCH  47  61
ATOM     61  C   UNL A   1      44.132  28.349  35.621  1.00  0.00     0.058 A 
ATOM     62  C   UNL A   1      43.862  27.176  36.346  1.00  0.00     0.135 A 
ATOM     63  C   UNL A   1      45.469  28.766  35.528  1.00  0.00     0.135 A 
ATOM     64  F   UNL A   1      42.599  26.743  36.487  1.00  0.00    -0.206 F 
ATOM     65  C   UNL A   1      44.874  26.463  36.981  1.00  0.00     0.059 A 
ATOM     66  C   UNL A   1      46.502  28.051  36.130  1.00  0.00     0.059 A 
ATOM     67  F   UNL A   1      45.784  29.882  34.851  1.00  0.00    -0.206 F 
ATOM     68  C   UNL A   1      46.191  26.909  36.868  1.00  0.00     0.060 A 
BRANCH  68  69
ATOM     69  S   UNL A   1      47.493  25.972  37.694  1.00  0.00     0.124 S 
ATOM     70  O   UNL A   1      47.215  26.264  39.097  1.00  0.00    -0.237 OA
ATOM     71  O   UNL A   1      47.214  24.605  37.265  1.00  0.00    -0.237 OA
ATOM     72  O   UNL A   1      48.721  26.555  37.163  1.00  0.00    -0.744 OA
ENDBRANCH  68  69
ENDBRANCH  47  61
BRANCH  48  73
ATOM     73  C   UNL A   1      36.662  33.071  30.884  1.00  0.00     0.058 A 
ATOM     74  C   UNL A   1      35.333  32.852  31.275  1.00  0.00     0.135 A 
ATOM     75  C   UNL A   1      36.894  33.975  29.836  1.00  0.00     0.135 A 
ATOM     76  F   UNL A   1      35.061  31.996  32.272  1.00  0.00    -0.206 F 
ATOM     77  C   UNL A   1      34.271  33.487  30.639  1.00  0.00     0.059 A 
ATOM     78  C   UNL A   1      35.851  34.641  29.200  1.00  0.00     0.059 A 
ATOM     79  F   UNL A   1      38.149  34.237  29.439  1.00  0.00    -0.206 F 
ATOM     80  C   UNL A   1      34.541  34.381  29.602  1.00  0.00     0.060 A 
BRANCH  80  81
ATOM     81  S   UNL A   1      33.158  35.234  28.812  1.00  0.00     0.124 S 
ATOM     82  O   UNL A   1      32.351  35.614  29.965  1.00  0.00    -0.237 OA
ATOM     83  O   UNL A   1      33.830  36.326  28.114  1.00  0.00    -0.237 OA
ATOM     84  O   UNL A   1      32.583  34.208  27.947  1.00  0.00    -0.744 OA
ENDBRANCH  80  81
ENDBRANCH  48  73
BRANCH  60  85
ATOM     85  C   UNL A   1      39.940  34.075  36.958  1.00  0.00     0.058 A 
ATOM     86  C   UNL A   1      40.635  35.293  36.906  1.00  0.00     0.135 A 
ATOM     87  C   UNL A   1      39.062  33.863  38.032  1.00  0.00     0.135 A 
ATOM     88  F   UNL A   1      41.489  35.542  35.901  1.00  0.00    -0.206 F 
ATOM     89  C   UNL A   1      40.491  36.251  37.902  1.00  0.00     0.059 A 
ATOM     90  C   UNL A   1      38.880  34.819  39.024  1.00  0.00     0.059 A 
ATOM     91  F   UNL A   1      38.363  32.720  38.120  1.00  0.00    -0.206 F 
ATOM     92  C   UNL A   1      39.612  36.004  38.960  1.00  0.00     0.060 A 
BRANCH  92  93
ATOM     93  S   UNL A   1      39.425  37.260  40.242  1.00  0.00     0.124 S 
ATOM     94  O   UNL A   1      38.670  36.532  41.257  1.00  0.00    -0.237 OA
ATOM     95  O   UNL A   1      40.810  37.570  40.583  1.00  0.00    -0.237 OA
ATOM     96  O   UNL A   1      38.699  38.329  39.565  1.00  0.00    -0.744 OA
ENDBRANCH  92  93
ENDBRANCH  60  85
ENDBRANCH  34  35
ENDBRANCH  26  29
ENDBRANCH  24  25
ENDBRANCH  23  24
ENDBRANCH   1  23
TORSDOF 18
ENDMDL
