MODEL 1
REMARK VINA RESULT:      -8.8      0.000      0.000
REMARK SMILES CC[NH2+][C@]1(C(=O)NCCCCNC(=O)c2ccc(-c3c4nc(c(-c5c(F)cc(S(=O)(=O)[O-])cc5F)c5ccc([nH]5)c(-c5c(F)cc(S(=O)(=O)[O-])cc5F)c5nc(c(-c6c(F)cc(S(=O)(=O)[O-])cc6F)c6ccc3[nH]6)C=C5)C=C4)cc2)CCC[C@@H]1CC[N@H+]1C[C@H](C)OC[C@@H]1C
REMARK SMILES IDX 9 1 8 2 7 3 5 4 6 5 4 7 81 8 84 9 82 10 83 11 3 12 2 15 1 16
REMARK SMILES IDX 85 17 86 18 87 19 88 20 93 21 89 23 92 24 94 25 91 26 90 27
REMARK SMILES IDX 10 28 11 29 12 30 13 31 14 33 15 34 16 35 80 36 17 37 79 38
REMARK SMILES IDX 18 39 19 40 20 41 73 42 21 43 78 44 72 45 74 46 22 47 77 48
REMARK SMILES IDX 71 49 70 50 23 52 57 53 36 54 56 55 37 56 40 57 55 58 75 59
REMARK SMILES IDX 38 60 39 61 54 63 76 64 41 65 24 66 25 67 34 68 26 69 27 70
REMARK SMILES IDX 33 71 35 72 28 73 29 74 30 75 31 76 32 77 58 78 59 79 68 80
REMARK SMILES IDX 60 81 61 82 67 83 69 84 62 85 63 86 64 87 65 88 66 89 42 90
REMARK SMILES IDX 43 91 52 92 44 93 45 94 51 95 53 96 46 97 47 98 48 99 49 100
REMARK SMILES IDX 50 101
REMARK H PARENT 7 6 3 13 3 14 87 22 12 32 74 51 40 62
REMARK Flexibility Score: inf
ROOT
ATOM      1  C   UNL A   1      34.827  32.529  31.737  1.00  0.00     0.023 C 
ENDROOT
BRANCH   1   2
ATOM      2  C   UNL A   1      35.770  33.203  32.738  1.00  0.00     0.116 C 
BRANCH   2   3
ATOM      3  N   UNL A   1      37.140  33.150  32.272  1.00  0.00    -0.351 N 
ATOM      4  C   UNL A   1      38.229  32.716  32.969  1.00  0.00     0.281 C 
ATOM      5  O   UNL A   1      39.195  33.492  32.955  1.00  0.00    -0.268 OA
ATOM      6  H   UNL A   1      37.303  33.462  31.353  1.00  0.00     0.163 HD
BRANCH   4   7
ATOM      7  C   UNL A   1      38.350  31.276  33.597  1.00  0.00     0.178 C 
ATOM      8  C   UNL A   1      37.397  30.398  32.733  1.00  0.00     0.079 C 
ATOM      9  C   UNL A   1      39.676  30.462  33.462  1.00  0.00     0.066 C 
ATOM     10  C   UNL A   1      37.796  28.958  32.997  1.00  0.00     0.008 C 
ATOM     11  C   UNL A   1      39.306  29.004  33.110  1.00  0.00     0.011 C 
BRANCH   7  12
ATOM     12  N   UNL A   1      37.777  31.252  34.973  1.00  0.00    -0.334 N 
ATOM     13  H   UNL A   1      36.788  31.014  34.896  1.00  0.00     0.347 HD
ATOM     14  H   UNL A   1      38.330  30.569  35.491  1.00  0.00     0.347 HD
BRANCH  12  15
ATOM     15  C   UNL A   1      37.879  32.500  35.728  1.00  0.00     0.257 C 
ATOM     16  C   UNL A   1      38.738  32.365  36.978  1.00  0.00     0.071 C 
ENDBRANCH  12  15
ENDBRANCH   7  12
BRANCH   9  17
ATOM     17  C   UNL A   1      40.808  30.596  34.523  1.00  0.00     0.072 C 
BRANCH  17  18
ATOM     18  C   UNL A   1      41.036  29.518  35.613  1.00  0.00     0.263 C 
BRANCH  18  19
ATOM     19  N   UNL A   1      42.355  28.889  35.549  1.00  0.00    -0.329 N 
ATOM     20  C   UNL A   1      42.351  27.481  36.013  1.00  0.00     0.294 C 
ATOM     21  C   UNL A   1      43.040  29.010  34.243  1.00  0.00     0.207 C 
ATOM     22  H   UNL A   1      42.907  29.438  36.207  1.00  0.00     0.348 HD
ATOM     23  C   UNL A   1      42.083  26.412  34.929  1.00  0.00     0.170 C 
ATOM     24  C   UNL A   1      42.699  27.904  33.232  1.00  0.00     0.225 C 
ATOM     25  C   UNL A   1      44.552  29.076  34.496  1.00  0.00     0.078 C 
ATOM     26  O   UNL A   1      42.925  26.607  33.785  1.00  0.00    -0.366 OA
ATOM     27  C   UNL A   1      42.375  25.016  35.465  1.00  0.00     0.045 C 
ENDBRANCH  18  19
ENDBRANCH  17  18
ENDBRANCH   9  17
ENDBRANCH   4   7
ENDBRANCH   2   3
ENDBRANCH   1   2
BRANCH   1  28
ATOM     28  C   UNL A   1      34.599  33.347  30.459  1.00  0.00     0.023 C 
BRANCH  28  29
ATOM     29  C   UNL A   1      35.186  32.725  29.196  1.00  0.00     0.116 C 
BRANCH  29  30
ATOM     30  N   UNL A   1      34.272  31.808  28.532  1.00  0.00    -0.352 N 
ATOM     31  C   UNL A   1      34.542  30.553  28.039  1.00  0.00     0.251 C 
ATOM     32  H   UNL A   1      33.346  32.125  28.422  1.00  0.00     0.163 HD
ATOM     33  O   UNL A   1      33.699  29.931  27.416  1.00  0.00    -0.269 OA
BRANCH  31  34
ATOM     34  C   UNL A   1      35.894  30.002  28.249  1.00  0.00     0.039 A 
ATOM     35  C   UNL A   1      36.855  30.188  27.254  1.00  0.00     0.014 A 
ATOM     36  C   UNL A   1      36.219  29.380  29.457  1.00  0.00     0.014 A 
ATOM     37  C   UNL A   1      38.172  29.802  27.501  1.00  0.00     0.010 A 
ATOM     38  C   UNL A   1      37.543  29.059  29.724  1.00  0.00     0.010 A 
ATOM     39  C   UNL A   1      38.532  29.268  28.749  1.00  0.00    -0.014 A 
BRANCH  39  40
ATOM     40  C   UNL A   1      39.939  28.921  29.056  1.00  0.00     0.031 A 
ATOM     41  C   UNL A   1      40.838  29.942  29.695  1.00  0.00     0.074 A 
ATOM     42  C   UNL A   1      40.420  27.715  28.694  1.00  0.00     0.049 A 
ATOM     43  N   UNL A   1      42.111  29.857  29.980  1.00  0.00    -0.248 NA
ATOM     44  C   UNL A   1      40.232  31.242  30.030  1.00  0.00     0.031 C 
ATOM     45  C   UNL A   1      39.655  26.667  28.016  1.00  0.00     0.029 A 
ATOM     46  N   UNL A   1      41.670  27.171  28.838  1.00  0.00    -0.354 N 
ATOM     47  C   UNL A   1      42.461  31.091  30.512  1.00  0.00     0.074 A 
ATOM     48  C   UNL A   1      41.281  31.926  30.460  1.00  0.00     0.031 C 
ATOM     49  C   UNL A   1      40.445  25.597  27.826  1.00  0.00     0.029 A 
ATOM     50  C   UNL A   1      41.779  25.896  28.336  1.00  0.00     0.049 A 
ATOM     51  H   UNL A   1      42.421  27.649  29.261  1.00  0.00     0.167 HD
ATOM     52  C   UNL A   1      43.652  31.484  31.022  1.00  0.00     0.037 A 
ATOM     53  C   UNL A   1      42.838  25.064  28.290  1.00  0.00     0.037 A 
ATOM     54  C   UNL A   1      44.812  30.635  31.098  1.00  0.00     0.049 A 
ATOM     55  C   UNL A   1      44.147  25.518  28.877  1.00  0.00     0.074 A 
ATOM     56  C   UNL A   1      46.048  30.913  31.652  1.00  0.00     0.029 A 
ATOM     57  N   UNL A   1      44.876  29.338  30.606  1.00  0.00    -0.354 N 
ATOM     58  N   UNL A   1      44.444  26.667  29.436  1.00  0.00    -0.248 NA
ATOM     59  C   UNL A   1      45.262  24.563  28.831  1.00  0.00     0.031 C 
ATOM     60  C   UNL A   1      46.872  29.798  31.462  1.00  0.00     0.029 A 
ATOM     61  C   UNL A   1      46.135  28.809  30.829  1.00  0.00     0.049 A 
ATOM     62  H   UNL A   1      44.134  28.865  30.163  1.00  0.00     0.167 HD
ATOM     63  C   UNL A   1      45.773  26.563  29.835  1.00  0.00     0.074 A 
ATOM     64  C   UNL A   1      46.217  25.235  29.461  1.00  0.00     0.031 C 
ATOM     65  C   UNL A   1      46.554  27.481  30.455  1.00  0.00     0.037 A 
BRANCH  52  66
ATOM     66  C   UNL A   1      43.754  32.890  31.543  1.00  0.00     0.058 A 
ATOM     67  C   UNL A   1      43.702  33.170  32.919  1.00  0.00     0.135 A 
ATOM     68  C   UNL A   1      43.923  33.970  30.663  1.00  0.00     0.135 A 
ATOM     69  F   UNL A   1      43.524  32.176  33.804  1.00  0.00    -0.206 F 
ATOM     70  C   UNL A   1      43.780  34.472  33.401  1.00  0.00     0.059 A 
ATOM     71  C   UNL A   1      44.031  35.278  31.124  1.00  0.00     0.059 A 
ATOM     72  F   UNL A   1      43.978  33.760  29.338  1.00  0.00    -0.206 F 
ATOM     73  C   UNL A   1      43.942  35.520  32.495  1.00  0.00     0.060 A 
BRANCH  73  74
ATOM     74  S   UNL A   1      44.037  37.205  33.135  1.00  0.00     0.124 S 
ATOM     75  O   UNL A   1      44.192  37.975  31.903  1.00  0.00    -0.237 OA
ATOM     76  O   UNL A   1      42.756  37.355  33.817  1.00  0.00    -0.237 OA
ATOM     77  O   UNL A   1      45.208  37.172  34.005  1.00  0.00    -0.744 OA
ENDBRANCH  73  74
ENDBRANCH  52  66
BRANCH  53  78
ATOM     78  C   UNL A   1      42.694  23.707  27.700  1.00  0.00     0.058 A 
ATOM     79  C   UNL A   1      42.812  23.509  26.316  1.00  0.00     0.135 A 
ATOM     80  C   UNL A   1      42.451  22.582  28.503  1.00  0.00     0.135 A 
ATOM     81  F   UNL A   1      43.039  24.555  25.507  1.00  0.00    -0.206 F 
ATOM     82  C   UNL A   1      42.676  22.248  25.746  1.00  0.00     0.059 A 
ATOM     83  C   UNL A   1      42.335  21.307  27.958  1.00  0.00     0.059 A 
ATOM     84  F   UNL A   1      42.350  22.716  29.834  1.00  0.00    -0.206 F 
ATOM     85  C   UNL A   1      42.439  21.151  26.577  1.00  0.00     0.060 A 
BRANCH  85  86
ATOM     86  S   UNL A   1      42.312  19.512  25.830  1.00  0.00     0.124 S 
ATOM     87  O   UNL A   1      40.912  19.484  25.422  1.00  0.00    -0.237 OA
ATOM     88  O   UNL A   1      43.291  19.589  24.750  1.00  0.00    -0.237 OA
ATOM     89  O   UNL A   1      42.669  18.617  26.927  1.00  0.00    -0.744 OA
ENDBRANCH  85  86
ENDBRANCH  53  78
BRANCH  65  90
ATOM     90  C   UNL A   1      47.958  27.072  30.799  1.00  0.00     0.058 A 
ATOM     91  C   UNL A   1      49.045  27.411  29.980  1.00  0.00     0.135 A 
ATOM     92  C   UNL A   1      48.223  26.381  31.993  1.00  0.00     0.135 A 
ATOM     93  F   UNL A   1      48.843  28.066  28.825  1.00  0.00    -0.206 F 
ATOM     94  C   UNL A   1      50.346  27.062  30.321  1.00  0.00     0.059 A 
ATOM     95  C   UNL A   1      49.520  26.044  32.366  1.00  0.00     0.059 A 
ATOM     96  F   UNL A   1      47.218  26.043  32.816  1.00  0.00    -0.206 F 
ATOM     97  C   UNL A   1      50.574  26.379  31.518  1.00  0.00     0.060 A 
BRANCH  97  98
ATOM     98  S   UNL A   1      52.272  25.965  31.970  1.00  0.00     0.124 S 
ATOM     99  O   UNL A   1      52.948  26.052  30.680  1.00  0.00    -0.237 OA
ATOM    100  O   UNL A   1      52.605  27.010  32.932  1.00  0.00    -0.237 OA
ATOM    101  O   UNL A   1      52.156  24.622  32.529  1.00  0.00    -0.744 OA
ENDBRANCH  97  98
ENDBRANCH  65  90
ENDBRANCH  39  40
ENDBRANCH  31  34
ENDBRANCH  29  30
ENDBRANCH  28  29
ENDBRANCH   1  28
TORSDOF 19
ENDMDL
MODEL 2
REMARK VINA RESULT:      -8.6      4.926      8.952
REMARK SMILES CC[NH2+][C@]1(C(=O)NCCCCNC(=O)c2ccc(-c3c4nc(c(-c5c(F)cc(S(=O)(=O)[O-])cc5F)c5ccc([nH]5)c(-c5c(F)cc(S(=O)(=O)[O-])cc5F)c5nc(c(-c6c(F)cc(S(=O)(=O)[O-])cc6F)c6ccc3[nH]6)C=C5)C=C4)cc2)CCC[C@@H]1CC[N@H+]1C[C@H](C)OC[C@@H]1C
REMARK SMILES IDX 9 1 8 2 7 3 5 4 6 5 4 7 81 8 84 9 82 10 83 11 3 12 2 15 1 16
REMARK SMILES IDX 85 17 86 18 87 19 88 20 93 21 89 23 92 24 94 25 91 26 90 27
REMARK SMILES IDX 10 28 11 29 12 30 13 31 14 33 15 34 16 35 80 36 17 37 79 38
REMARK SMILES IDX 18 39 19 40 20 41 73 42 21 43 78 44 72 45 74 46 22 47 77 48
REMARK SMILES IDX 71 49 70 50 23 52 57 53 36 54 56 55 37 56 40 57 55 58 75 59
REMARK SMILES IDX 38 60 39 61 54 63 76 64 41 65 24 66 25 67 34 68 26 69 27 70
REMARK SMILES IDX 33 71 35 72 28 73 29 74 30 75 31 76 32 77 58 78 59 79 68 80
REMARK SMILES IDX 60 81 61 82 67 83 69 84 62 85 63 86 64 87 65 88 66 89 42 90
REMARK SMILES IDX 43 91 52 92 44 93 45 94 51 95 53 96 46 97 47 98 48 99 49 100
REMARK SMILES IDX 50 101
REMARK H PARENT 7 6 3 13 3 14 87 22 12 32 74 51 40 62
REMARK Flexibility Score: inf
ROOT
ATOM      1  C   UNL A   1      32.480  30.535  26.700  1.00  0.00     0.023 C 
ENDROOT
BRANCH   1   2
ATOM      2  C   UNL A   1      31.594  29.861  25.648  1.00  0.00     0.116 C 
BRANCH   2   3
ATOM      3  N   UNL A   1      31.553  28.428  25.849  1.00  0.00    -0.351 N 
ATOM      4  C   UNL A   1      31.096  27.487  24.974  1.00  0.00     0.281 C 
ATOM      5  O   UNL A   1      30.291  26.679  25.457  1.00  0.00    -0.268 OA
ATOM      6  H   UNL A   1      31.892  28.097  26.712  1.00  0.00     0.163 HD
BRANCH   4   7
ATOM      7  C   UNL A   1      31.660  27.301  23.515  1.00  0.00     0.178 C 
ATOM      8  C   UNL A   1      32.769  28.388  23.389  1.00  0.00     0.079 C 
ATOM      9  C   UNL A   1      32.478  26.025  23.138  1.00  0.00     0.066 C 
ATOM     10  C   UNL A   1      33.626  27.980  22.204  1.00  0.00     0.008 C 
ATOM     11  C   UNL A   1      33.693  26.470  22.295  1.00  0.00     0.011 C 
BRANCH   7  12
ATOM     12  N   UNL A   1      30.630  27.666  22.501  1.00  0.00    -0.334 N 
ATOM     13  H   UNL A   1      31.017  27.473  21.577  1.00  0.00     0.347 HD
ATOM     14  H   UNL A   1      29.806  27.110  22.731  1.00  0.00     0.347 HD
BRANCH  12  15
ATOM     15  C   UNL A   1      30.185  29.058  22.517  1.00  0.00     0.257 C 
ATOM     16  C   UNL A   1      28.678  29.195  22.684  1.00  0.00     0.071 C 
ENDBRANCH  12  15
ENDBRANCH   7  12
BRANCH   9  17
ATOM     17  C   UNL A   1      31.765  24.747  22.607  1.00  0.00     0.072 C 
BRANCH  17  18
ATOM     18  C   UNL A   1      31.433  23.551  23.536  1.00  0.00     0.263 C 
BRANCH  18  19
ATOM     19  N   UNL A   1      32.249  22.365  23.279  1.00  0.00    -0.329 N 
ATOM     20  C   UNL A   1      33.615  22.690  22.804  1.00  0.00     0.294 C 
ATOM     21  C   UNL A   1      32.297  21.389  24.390  1.00  0.00     0.207 C 
ATOM     22  H   UNL A   1      31.752  21.901  22.520  1.00  0.00     0.348 HD
ATOM     23  C   UNL A   1      34.690  22.864  23.902  1.00  0.00     0.170 C 
ATOM     24  C   UNL A   1      33.394  21.655  25.433  1.00  0.00     0.225 C 
ATOM     25  C   UNL A   1      32.438  19.983  23.790  1.00  0.00     0.078 C 
ATOM     26  O   UNL A   1      34.680  21.762  24.820  1.00  0.00    -0.366 OA
ATOM     27  C   UNL A   1      36.084  22.919  23.288  1.00  0.00     0.045 C 
ENDBRANCH  18  19
ENDBRANCH  17  18
ENDBRANCH   9  17
ENDBRANCH   4   7
ENDBRANCH   2   3
ENDBRANCH   1   2
BRANCH   1  28
ATOM     28  C   UNL A   1      32.036  31.958  27.060  1.00  0.00     0.023 C 
BRANCH  28  29
ATOM     29  C   UNL A   1      33.173  32.898  27.447  1.00  0.00     0.116 C 
BRANCH  29  30
ATOM     30  N   UNL A   1      32.713  34.224  27.833  1.00  0.00    -0.352 N 
ATOM     31  C   UNL A   1      33.159  35.005  28.874  1.00  0.00     0.251 C 
ATOM     32  H   UNL A   1      31.994  34.609  27.281  1.00  0.00     0.163 HD
ATOM     33  O   UNL A   1      32.612  36.062  29.141  1.00  0.00    -0.269 OA
BRANCH  31  34
ATOM     34  C   UNL A   1      34.286  34.504  29.682  1.00  0.00     0.039 A 
ATOM     35  C   UNL A   1      34.012  33.876  30.898  1.00  0.00     0.014 A 
ATOM     36  C   UNL A   1      35.592  34.589  29.193  1.00  0.00     0.014 A 
ATOM     37  C   UNL A   1      35.054  33.271  31.600  1.00  0.00     0.010 A 
ATOM     38  C   UNL A   1      36.614  33.928  29.861  1.00  0.00     0.010 A 
ATOM     39  C   UNL A   1      36.354  33.262  31.070  1.00  0.00    -0.014 A 
BRANCH  39  40
ATOM     40  C   UNL A   1      37.459  32.560  31.764  1.00  0.00     0.031 A 
ATOM     41  C   UNL A   1      37.957  33.074  33.086  1.00  0.00     0.074 A 
ATOM     42  C   UNL A   1      38.054  31.508  31.169  1.00  0.00     0.049 A 
ATOM     43  N   UNL A   1      38.953  32.644  33.815  1.00  0.00    -0.248 NA
ATOM     44  C   UNL A   1      37.263  34.245  33.645  1.00  0.00     0.031 C 
ATOM     45  C   UNL A   1      37.692  30.957  29.861  1.00  0.00     0.029 A 
ATOM     46  N   UNL A   1      39.096  30.718  31.583  1.00  0.00    -0.354 N 
ATOM     47  C   UNL A   1      39.014  33.497  34.909  1.00  0.00     0.074 A 
ATOM     48  C   UNL A   1      37.992  34.503  34.721  1.00  0.00     0.031 C 
ATOM     49  C   UNL A   1      38.483  29.905  29.591  1.00  0.00     0.029 A 
ATOM     50  C   UNL A   1      39.427  29.728  30.689  1.00  0.00     0.049 A 
ATOM     51  H   UNL A   1      39.564  30.849  32.440  1.00  0.00     0.167 HD
ATOM     52  C   UNL A   1      39.832  33.433  35.986  1.00  0.00     0.037 A 
ATOM     53  C   UNL A   1      40.388  28.784  30.749  1.00  0.00     0.037 A 
ATOM     54  C   UNL A   1      40.826  32.409  36.179  1.00  0.00     0.049 A 
ATOM     55  C   UNL A   1      41.275  28.724  31.963  1.00  0.00     0.074 A 
ATOM     56  C   UNL A   1      41.663  32.215  37.262  1.00  0.00     0.029 A 
ATOM     57  N   UNL A   1      41.112  31.403  35.265  1.00  0.00    -0.354 N 
ATOM     58  N   UNL A   1      41.277  29.500  33.021  1.00  0.00    -0.248 NA
ATOM     59  C   UNL A   1      42.285  27.658  31.994  1.00  0.00     0.031 C 
ATOM     60  C   UNL A   1      42.483  31.115  36.988  1.00  0.00     0.029 A 
ATOM     61  C   UNL A   1      42.125  30.596  35.753  1.00  0.00     0.049 A 
ATOM     62  H   UNL A   1      40.661  31.283  34.398  1.00  0.00     0.167 HD
ATOM     63  C   UNL A   1      42.269  28.999  33.857  1.00  0.00     0.074 A 
ATOM     64  C   UNL A   1      42.838  27.848  33.185  1.00  0.00     0.031 C 
ATOM     65  C   UNL A   1      42.672  29.449  35.071  1.00  0.00     0.037 A 
BRANCH  52  66
ATOM     66  C   UNL A   1      39.679  34.494  37.039  1.00  0.00     0.058 A 
ATOM     67  C   UNL A   1      40.189  35.791  36.857  1.00  0.00     0.135 A 
ATOM     68  C   UNL A   1      39.000  34.221  38.236  1.00  0.00     0.135 A 
ATOM     69  F   UNL A   1      40.863  36.100  35.738  1.00  0.00    -0.206 F 
ATOM     70  C   UNL A   1      40.061  36.767  37.838  1.00  0.00     0.059 A 
ATOM     71  C   UNL A   1      38.835  35.192  39.221  1.00  0.00     0.059 A 
ATOM     72  F   UNL A   1      38.494  32.999  38.464  1.00  0.00    -0.206 F 
ATOM     73  C   UNL A   1      39.385  36.457  39.019  1.00  0.00     0.060 A 
BRANCH  73  74
ATOM     74  S   UNL A   1      39.230  37.735  40.284  1.00  0.00     0.124 S 
ATOM     75  O   UNL A   1      38.246  38.626  39.677  1.00  0.00    -0.237 OA
ATOM     76  O   UNL A   1      38.766  36.976  41.441  1.00  0.00    -0.237 OA
ATOM     77  O   UNL A   1      40.583  38.272  40.392  1.00  0.00    -0.744 OA
ENDBRANCH  73  74
ENDBRANCH  52  66
BRANCH  53  78
ATOM     78  C   UNL A   1      40.536  27.802  29.643  1.00  0.00     0.058 A 
ATOM     79  C   UNL A   1      39.654  26.718  29.521  1.00  0.00     0.135 A 
ATOM     80  C   UNL A   1      41.549  27.932  28.679  1.00  0.00     0.135 A 
ATOM     81  F   UNL A   1      38.673  26.550  30.421  1.00  0.00    -0.206 F 
ATOM     82  C   UNL A   1      39.778  25.787  28.496  1.00  0.00     0.059 A 
ATOM     83  C   UNL A   1      41.679  27.027  27.631  1.00  0.00     0.059 A 
ATOM     84  F   UNL A   1      42.406  28.962  28.740  1.00  0.00    -0.206 F 
ATOM     85  C   UNL A   1      40.796  25.951  27.553  1.00  0.00     0.060 A 
BRANCH  85  86
ATOM     86  S   UNL A   1      40.919  24.763  26.199  1.00  0.00     0.124 S 
ATOM     87  O   UNL A   1      42.004  23.904  26.661  1.00  0.00    -0.237 OA
ATOM     88  O   UNL A   1      39.588  24.164  26.192  1.00  0.00    -0.237 OA
ATOM     89  O   UNL A   1      41.227  25.603  25.045  1.00  0.00    -0.744 OA
ENDBRANCH  85  86
ENDBRANCH  53  78
BRANCH  65  90
ATOM     90  C   UNL A   1      43.757  28.678  35.767  1.00  0.00     0.058 A 
ATOM     91  C   UNL A   1      43.465  27.617  36.636  1.00  0.00     0.135 A 
ATOM     92  C   UNL A   1      45.108  28.972  35.517  1.00  0.00     0.135 A 
ATOM     93  F   UNL A   1      42.189  27.301  36.913  1.00  0.00    -0.206 F 
ATOM     94  C   UNL A   1      44.474  26.884  37.250  1.00  0.00     0.059 A 
ATOM     95  C   UNL A   1      46.133  28.235  36.100  1.00  0.00     0.059 A 
ATOM     96  F   UNL A   1      45.439  29.972  34.685  1.00  0.00    -0.206 F 
ATOM     97  C   UNL A   1      45.806  27.200  36.974  1.00  0.00     0.060 A 
BRANCH  97  98
ATOM     98  S   UNL A   1      47.108  26.216  37.746  1.00  0.00     0.124 S 
ATOM     99  O   UNL A   1      46.334  25.332  38.610  1.00  0.00    -0.237 OA
ATOM    100  O   UNL A   1      47.745  25.581  36.597  1.00  0.00    -0.237 OA
ATOM    101  O   UNL A   1      47.922  27.212  38.435  1.00  0.00    -0.744 OA
ENDBRANCH  97  98
ENDBRANCH  65  90
ENDBRANCH  39  40
ENDBRANCH  31  34
ENDBRANCH  29  30
ENDBRANCH  28  29
ENDBRANCH   1  28
TORSDOF 19
ENDMDL
MODEL 3
REMARK VINA RESULT:      -8.5      4.555      8.528
REMARK SMILES CC[NH2+][C@]1(C(=O)NCCCCNC(=O)c2ccc(-c3c4nc(c(-c5c(F)cc(S(=O)(=O)[O-])cc5F)c5ccc([nH]5)c(-c5c(F)cc(S(=O)(=O)[O-])cc5F)c5nc(c(-c6c(F)cc(S(=O)(=O)[O-])cc6F)c6ccc3[nH]6)C=C5)C=C4)cc2)CCC[C@@H]1CC[N@H+]1C[C@H](C)OC[C@@H]1C
REMARK SMILES IDX 9 1 8 2 7 3 5 4 6 5 4 7 81 8 84 9 82 10 83 11 3 12 2 15 1 16
REMARK SMILES IDX 85 17 86 18 87 19 88 20 93 21 89 23 92 24 94 25 91 26 90 27
REMARK SMILES IDX 10 28 11 29 12 30 13 31 14 33 15 34 16 35 80 36 17 37 79 38
REMARK SMILES IDX 18 39 19 40 20 41 73 42 21 43 78 44 72 45 74 46 22 47 77 48
REMARK SMILES IDX 71 49 70 50 23 52 57 53 36 54 56 55 37 56 40 57 55 58 75 59
REMARK SMILES IDX 38 60 39 61 54 63 76 64 41 65 24 66 25 67 34 68 26 69 27 70
REMARK SMILES IDX 33 71 35 72 28 73 29 74 30 75 31 76 32 77 58 78 59 79 68 80
REMARK SMILES IDX 60 81 61 82 67 83 69 84 62 85 63 86 64 87 65 88 66 89 42 90
REMARK SMILES IDX 43 91 52 92 44 93 45 94 51 95 53 96 46 97 47 98 48 99 49 100
REMARK SMILES IDX 50 101
REMARK H PARENT 7 6 3 13 3 14 87 22 12 32 74 51 40 62
REMARK Flexibility Score: inf
ROOT
ATOM      1  C   UNL A   1      34.070  28.314  26.539  1.00  0.00     0.023 C 
ENDROOT
BRANCH   1   2
ATOM      2  C   UNL A   1      33.735  28.538  25.061  1.00  0.00     0.116 C 
BRANCH   2   3
ATOM      3  N   UNL A   1      34.155  27.407  24.261  1.00  0.00    -0.351 N 
ATOM      4  C   UNL A   1      33.636  26.145  24.284  1.00  0.00     0.281 C 
ATOM      5  O   UNL A   1      34.478  25.242  24.392  1.00  0.00    -0.268 OA
ATOM      6  H   UNL A   1      34.895  27.565  23.632  1.00  0.00     0.163 HD
BRANCH   4   7
ATOM      7  C   UNL A   1      32.119  25.817  24.016  1.00  0.00     0.178 C 
ATOM      8  C   UNL A   1      31.709  24.895  25.203  1.00  0.00     0.079 C 
ATOM      9  C   UNL A   1      31.033  26.932  24.141  1.00  0.00     0.066 C 
ATOM     10  C   UNL A   1      30.191  24.908  25.240  1.00  0.00     0.008 C 
ATOM     11  C   UNL A   1      29.822  26.334  24.890  1.00  0.00     0.011 C 
BRANCH   7  12
ATOM     12  N   UNL A   1      31.970  24.979  22.792  1.00  0.00    -0.334 N 
ATOM     13  H   UNL A   1      31.964  24.001  23.081  1.00  0.00     0.347 HD
ATOM     14  H   UNL A   1      31.105  25.287  22.349  1.00  0.00     0.347 HD
BRANCH  12  15
ATOM     15  C   UNL A   1      33.013  25.140  21.779  1.00  0.00     0.257 C 
ATOM     16  C   UNL A   1      32.470  25.639  20.447  1.00  0.00     0.071 C 
ENDBRANCH  12  15
ENDBRANCH   7  12
BRANCH   9  17
ATOM     17  C   UNL A   1      30.655  27.820  22.919  1.00  0.00     0.072 C 
BRANCH  17  18
ATOM     18  C   UNL A   1      29.374  28.694  22.910  1.00  0.00     0.263 C 
BRANCH  18  19
ATOM     19  N   UNL A   1      29.645  30.131  22.890  1.00  0.00    -0.329 N 
ATOM     20  C   UNL A   1      29.408  30.748  21.564  1.00  0.00     0.294 C 
ATOM     21  C   UNL A   1      28.978  30.906  23.959  1.00  0.00     0.207 C 
ATOM     22  H   UNL A   1      30.644  30.182  23.088  1.00  0.00     0.348 HD
ATOM     23  C   UNL A   1      27.979  31.285  21.314  1.00  0.00     0.170 C 
ATOM     24  C   UNL A   1      27.559  31.386  23.615  1.00  0.00     0.225 C 
ATOM     25  C   UNL A   1      29.883  32.089  24.333  1.00  0.00     0.078 C 
ATOM     26  O   UNL A   1      27.541  32.122  22.392  1.00  0.00    -0.366 OA
ATOM     27  C   UNL A   1      27.934  32.130  20.046  1.00  0.00     0.045 C 
ENDBRANCH  18  19
ENDBRANCH  17  18
ENDBRANCH   9  17
ENDBRANCH   4   7
ENDBRANCH   2   3
ENDBRANCH   1   2
BRANCH   1  28
ATOM     28  C   UNL A   1      34.056  29.600  27.376  1.00  0.00     0.023 C 
BRANCH  28  29
ATOM     29  C   UNL A   1      35.426  30.048  27.871  1.00  0.00     0.116 C 
BRANCH  29  30
ATOM     30  N   UNL A   1      35.415  30.501  29.255  1.00  0.00    -0.352 N 
ATOM     31  C   UNL A   1      36.418  30.389  30.189  1.00  0.00     0.251 C 
ATOM     32  H   UNL A   1      34.588  30.941  29.558  1.00  0.00     0.163 HD
ATOM     33  O   UNL A   1      36.234  30.728  31.346  1.00  0.00    -0.269 OA
BRANCH  31  34
ATOM     34  C   UNL A   1      37.703  29.806  29.761  1.00  0.00     0.039 A 
ATOM     35  C   UNL A   1      38.085  29.934  28.425  1.00  0.00     0.014 A 
ATOM     36  C   UNL A   1      38.551  29.213  30.699  1.00  0.00     0.014 A 
ATOM     37  C   UNL A   1      39.358  29.518  28.039  1.00  0.00     0.010 A 
ATOM     38  C   UNL A   1      39.842  28.863  30.326  1.00  0.00     0.010 A 
ATOM     39  C   UNL A   1      40.257  29.013  28.992  1.00  0.00    -0.014 A 
BRANCH  39  40
ATOM     40  C   UNL A   1      41.640  28.635  28.616  1.00  0.00     0.031 A 
ATOM     41  C   UNL A   1      42.716  29.684  28.575  1.00  0.00     0.074 A 
ATOM     42  C   UNL A   1      41.904  27.367  28.245  1.00  0.00     0.049 A 
ATOM     43  N   UNL A   1      43.965  29.569  28.208  1.00  0.00    -0.248 NA
ATOM     44  C   UNL A   1      42.327  31.048  28.971  1.00  0.00     0.031 C 
ATOM     45  C   UNL A   1      40.926  26.279  28.191  1.00  0.00     0.029 A 
ATOM     46  N   UNL A   1      43.073  26.780  27.834  1.00  0.00    -0.354 N 
ATOM     47  C   UNL A   1      44.506  30.844  28.313  1.00  0.00     0.074 A 
ATOM     48  C   UNL A   1      43.438  31.727  28.726  1.00  0.00     0.031 C 
ATOM     49  C   UNL A   1      41.541  25.152  27.795  1.00  0.00     0.029 A 
ATOM     50  C   UNL A   1      42.946  25.445  27.535  1.00  0.00     0.049 A 
ATOM     51  H   UNL A   1      43.925  27.270  27.759  1.00  0.00     0.167 HD
ATOM     52  C   UNL A   1      45.786  31.237  28.109  1.00  0.00     0.037 A 
ATOM     53  C   UNL A   1      43.862  24.558  27.097  1.00  0.00     0.037 A 
ATOM     54  C   UNL A   1      46.849  30.345  27.729  1.00  0.00     0.049 A 
ATOM     55  C   UNL A   1      45.280  25.016  26.892  1.00  0.00     0.074 A 
ATOM     56  C   UNL A   1      48.192  30.629  27.558  1.00  0.00     0.029 A 
ATOM     57  N   UNL A   1      46.688  28.991  27.464  1.00  0.00    -0.354 N 
ATOM     58  N   UNL A   1      45.791  26.213  27.060  1.00  0.00    -0.248 NA
ATOM     59  C   UNL A   1      46.246  24.005  26.445  1.00  0.00     0.031 C 
ATOM     60  C   UNL A   1      48.837  29.455  27.153  1.00  0.00     0.029 A 
ATOM     61  C   UNL A   1      47.904  28.430  27.114  1.00  0.00     0.049 A 
ATOM     62  H   UNL A   1      45.834  28.503  27.516  1.00  0.00     0.167 HD
ATOM     63  C   UNL A   1      47.145  26.092  26.765  1.00  0.00     0.074 A 
ATOM     64  C   UNL A   1      47.374  24.704  26.419  1.00  0.00     0.031 C 
ATOM     65  C   UNL A   1      48.112  27.043  26.781  1.00  0.00     0.037 A 
BRANCH  52  66
ATOM     66  C   UNL A   1      46.103  32.694  28.302  1.00  0.00     0.058 A 
ATOM     67  C   UNL A   1      45.981  33.619  27.252  1.00  0.00     0.135 A 
ATOM     68  C   UNL A   1      46.517  33.176  29.553  1.00  0.00     0.135 A 
ATOM     69  F   UNL A   1      45.606  33.208  26.030  1.00  0.00    -0.206 F 
ATOM     70  C   UNL A   1      46.290  34.964  27.426  1.00  0.00     0.059 A 
ATOM     71  C   UNL A   1      46.806  34.523  29.758  1.00  0.00     0.059 A 
ATOM     72  F   UNL A   1      46.653  32.336  30.591  1.00  0.00    -0.206 F 
ATOM     73  C   UNL A   1      46.705  35.405  28.683  1.00  0.00     0.060 A 
BRANCH  73  74
ATOM     74  S   UNL A   1      47.106  37.153  28.893  1.00  0.00     0.124 S 
ATOM     75  O   UNL A   1      48.557  37.100  29.048  1.00  0.00    -0.237 OA
ATOM     76  O   UNL A   1      46.624  37.737  27.646  1.00  0.00    -0.237 OA
ATOM     77  O   UNL A   1      46.360  37.531  30.089  1.00  0.00    -0.744 OA
ENDBRANCH  73  74
ENDBRANCH  52  66
BRANCH  53  78
ATOM     78  C   UNL A   1      43.472  23.143  26.858  1.00  0.00     0.058 A 
ATOM     79  C   UNL A   1      43.412  22.624  25.557  1.00  0.00     0.135 A 
ATOM     80  C   UNL A   1      43.169  22.279  27.922  1.00  0.00     0.135 A 
ATOM     81  F   UNL A   1      43.689  23.413  24.508  1.00  0.00    -0.206 F 
ATOM     82  C   UNL A   1      43.047  21.304  25.314  1.00  0.00     0.059 A 
ATOM     83  C   UNL A   1      42.824  20.948  27.706  1.00  0.00     0.059 A 
ATOM     84  F   UNL A   1      43.232  22.721  29.187  1.00  0.00    -0.206 F 
ATOM     85  C   UNL A   1      42.755  20.472  26.397  1.00  0.00     0.060 A 
BRANCH  85  86
ATOM     86  S   UNL A   1      42.328  18.749  26.073  1.00  0.00     0.124 S 
ATOM     87  O   UNL A   1      43.240  18.421  24.982  1.00  0.00    -0.237 OA
ATOM     88  O   UNL A   1      42.612  18.114  27.356  1.00  0.00    -0.237 OA
ATOM     89  O   UNL A   1      40.914  18.817  25.716  1.00  0.00    -0.744 OA
ENDBRANCH  85  86
ENDBRANCH  53  78
BRANCH  65  90
ATOM     90  C   UNL A   1      49.511  26.610  26.447  1.00  0.00     0.058 A 
ATOM     91  C   UNL A   1      50.338  25.995  27.398  1.00  0.00     0.135 A 
ATOM     92  C   UNL A   1      50.007  26.762  25.142  1.00  0.00     0.135 A 
ATOM     93  F   UNL A   1      49.912  25.832  28.661  1.00  0.00    -0.206 F 
ATOM     94  C   UNL A   1      51.619  25.564  27.073  1.00  0.00     0.059 A 
ATOM     95  C   UNL A   1      51.276  26.315  24.788  1.00  0.00     0.059 A 
ATOM     96  F   UNL A   1      49.250  27.335  24.193  1.00  0.00    -0.206 F 
ATOM     97  C   UNL A   1      52.079  25.727  25.764  1.00  0.00     0.060 A 
BRANCH  97  98
ATOM     98  S   UNL A   1      53.729  25.128  25.344  1.00  0.00     0.124 S 
ATOM     99  O   UNL A   1      54.529  25.689  26.427  1.00  0.00    -0.237 OA
ATOM    100  O   UNL A   1      53.554  23.679  25.371  1.00  0.00    -0.237 OA
ATOM    101  O   UNL A   1      53.972  25.699  24.024  1.00  0.00    -0.744 OA
ENDBRANCH  97  98
ENDBRANCH  65  90
ENDBRANCH  39  40
ENDBRANCH  31  34
ENDBRANCH  29  30
ENDBRANCH  28  29
ENDBRANCH   1  28
TORSDOF 19
ENDMDL
