MODEL 1
REMARK VINA RESULT:     -10.8      0.000      0.000
REMARK SMILES C[C@@H](Sc1nc2c(cc1C#N)CCC2)C(=O)NCCCCNC(=O)c1ccc(-c2c3nc(c(-c4c(F)cc(S(=O)(=O)[O-])cc4F)c4ccc([nH]4)c(-c4c(F)cc(S(=O)(=O)[O-])cc4F)c4nc(c(-c5c(F)cc(S(=O)(=O)[O-])cc5F)c5ccc2[nH]5)C=C4)C=C3)cc1
REMARK SMILES IDX 19 1 18 2 17 3 15 4 16 5 2 7 1 8 3 9 4 10 5 11 9 12 6 13
REMARK SMILES IDX 8 14 7 15 14 16 12 17 13 18 10 19 11 20 20 21 21 22 22 23
REMARK SMILES IDX 23 24 24 26 25 27 26 28 90 29 27 30 89 31 28 32 29 33 30 34
REMARK SMILES IDX 83 35 31 36 88 37 82 38 84 39 32 40 87 41 81 42 80 43 33 45
REMARK SMILES IDX 67 46 46 47 66 48 47 49 50 50 65 51 85 52 48 53 49 54 64 56
REMARK SMILES IDX 86 57 51 58 34 59 35 60 44 61 36 62 37 63 43 64 45 65 38 66
REMARK SMILES IDX 39 67 40 68 41 69 42 70 68 71 69 72 78 73 70 74 71 75 77 76
REMARK SMILES IDX 79 77 72 78 73 79 74 80 75 81 76 82 52 83 53 84 62 85 54 86
REMARK SMILES IDX 55 87 61 88 63 89 56 90 57 91 58 92 59 93 60 94
REMARK H PARENT 17 6 22 25 84 44 50 55
REMARK Flexibility Score: inf
ROOT
ATOM      1  C   UNL A   1      34.126  28.481  24.526  1.00  0.00     0.023 C 
ENDROOT
BRANCH   1   2
ATOM      2  C   UNL A   1      33.488  28.917  23.213  1.00  0.00     0.116 C 
BRANCH   2   3
ATOM      3  N   UNL A   1      33.628  27.898  22.186  1.00  0.00    -0.355 N 
ATOM      4  C   UNL A   1      32.919  26.748  21.994  1.00  0.00     0.233 C 
ATOM      5  O   UNL A   1      33.220  26.039  21.029  1.00  0.00    -0.274 OA
ATOM      6  H   UNL A   1      34.343  28.062  21.530  1.00  0.00     0.163 HD
BRANCH   4   7
ATOM      7  C   UNL A   1      31.800  26.326  22.951  1.00  0.00     0.139 C 
ATOM      8  C   UNL A   1      30.506  27.075  22.646  1.00  0.00     0.030 C 
BRANCH   7   9
ATOM      9  S   UNL A   1      31.737  24.486  22.974  1.00  0.00    -0.092 SA
BRANCH   9  10
ATOM     10  C   UNL A   1      33.131  24.095  23.999  1.00  0.00     0.115 A 
ATOM     11  N   UNL A   1      34.216  23.633  23.320  1.00  0.00    -0.245 NA
ATOM     12  C   UNL A   1      33.147  24.374  25.374  1.00  0.00     0.085 A 
ATOM     13  C   UNL A   1      35.331  23.455  24.042  1.00  0.00     0.045 A 
ATOM     14  C   UNL A   1      34.334  24.176  26.090  1.00  0.00     0.028 A 
ATOM     15  C   UNL A   1      35.437  23.712  25.401  1.00  0.00    -0.025 A 
ATOM     16  C   UNL A   1      36.657  23.042  23.468  1.00  0.00     0.057 C 
ATOM     17  C   UNL A   1      36.831  23.497  25.885  1.00  0.00     0.038 C 
ATOM     18  C   UNL A   1      37.418  22.652  24.744  1.00  0.00     0.011 C 
BRANCH  12  19
ATOM     19  C   UNL A   1      31.999  24.878  26.061  1.00  0.00     0.102 C 
ATOM     20  N   UNL A   1      31.048  25.301  26.579  1.00  0.00    -0.192 NA
ENDBRANCH  12  19
ENDBRANCH   9  10
ENDBRANCH   7   9
ENDBRANCH   4   7
ENDBRANCH   2   3
ENDBRANCH   1   2
BRANCH   1  21
ATOM     21  C   UNL A   1      33.122  28.225  25.645  1.00  0.00     0.023 C 
BRANCH  21  22
ATOM     22  C   UNL A   1      33.670  28.445  27.050  1.00  0.00     0.116 C 
BRANCH  22  23
ATOM     23  N   UNL A   1      33.556  29.830  27.489  1.00  0.00    -0.352 N 
ATOM     24  C   UNL A   1      34.489  30.603  28.136  1.00  0.00     0.251 C 
ATOM     25  H   UNL A   1      32.697  30.269  27.295  1.00  0.00     0.163 HD
ATOM     26  O   UNL A   1      34.182  31.705  28.581  1.00  0.00    -0.269 OA
BRANCH  24  27
ATOM     27  C   UNL A   1      35.855  30.072  28.316  1.00  0.00     0.039 A 
ATOM     28  C   UNL A   1      36.760  30.161  27.259  1.00  0.00     0.014 A 
ATOM     29  C   UNL A   1      36.249  29.544  29.550  1.00  0.00     0.014 A 
ATOM     30  C   UNL A   1      38.087  29.781  27.463  1.00  0.00     0.010 A 
ATOM     31  C   UNL A   1      37.590  29.255  29.776  1.00  0.00     0.010 A 
ATOM     32  C   UNL A   1      38.521  29.362  28.732  1.00  0.00    -0.014 A 
BRANCH  32  33
ATOM     33  C   UNL A   1      39.941  29.008  28.977  1.00  0.00     0.031 A 
ATOM     34  C   UNL A   1      40.870  30.026  29.580  1.00  0.00     0.074 A 
ATOM     35  C   UNL A   1      40.398  27.786  28.635  1.00  0.00     0.049 A 
ATOM     36  N   UNL A   1      42.145  29.921  29.846  1.00  0.00    -0.248 NA
ATOM     37  C   UNL A   1      40.296  31.342  29.910  1.00  0.00     0.031 C 
ATOM     38  C   UNL A   1      39.597  26.726  28.016  1.00  0.00     0.029 A 
ATOM     39  N   UNL A   1      41.643  27.225  28.762  1.00  0.00    -0.354 N 
ATOM     40  C   UNL A   1      42.522  31.147  30.380  1.00  0.00     0.074 A 
ATOM     41  C   UNL A   1      41.362  32.007  30.332  1.00  0.00     0.031 C 
ATOM     42  C   UNL A   1      40.360  25.634  27.855  1.00  0.00     0.029 A 
ATOM     43  C   UNL A   1      41.715  25.926  28.314  1.00  0.00     0.049 A 
ATOM     44  H   UNL A   1      42.415  27.707  29.139  1.00  0.00     0.167 HD
ATOM     45  C   UNL A   1      43.718  31.512  30.896  1.00  0.00     0.037 A 
ATOM     46  C   UNL A   1      42.755  25.069  28.273  1.00  0.00     0.037 A 
ATOM     47  C   UNL A   1      44.865  30.644  30.953  1.00  0.00     0.049 A 
ATOM     48  C   UNL A   1      44.091  25.522  28.802  1.00  0.00     0.074 A 
ATOM     49  C   UNL A   1      46.115  30.911  31.483  1.00  0.00     0.029 A 
ATOM     50  N   UNL A   1      44.905  29.346  30.465  1.00  0.00    -0.354 N 
ATOM     51  N   UNL A   1      44.415  26.668  29.353  1.00  0.00    -0.248 NA
ATOM     52  C   UNL A   1      45.204  24.565  28.709  1.00  0.00     0.031 C 
ATOM     53  C   UNL A   1      46.928  29.798  31.262  1.00  0.00     0.029 A 
ATOM     54  C   UNL A   1      46.167  28.810  30.656  1.00  0.00     0.049 A 
ATOM     55  H   UNL A   1      44.149  28.875  30.046  1.00  0.00     0.167 HD
ATOM     56  C   UNL A   1      45.760  26.559  29.695  1.00  0.00     0.074 A 
ATOM     57  C   UNL A   1      46.182  25.230  29.309  1.00  0.00     0.031 C 
ATOM     58  C   UNL A   1      46.571  27.480  30.274  1.00  0.00     0.037 A 
BRANCH  45  59
ATOM     59  C   UNL A   1      43.851  32.899  31.460  1.00  0.00     0.058 A 
ATOM     60  C   UNL A   1      43.583  33.170  32.811  1.00  0.00     0.135 A 
ATOM     61  C   UNL A   1      44.330  33.953  30.665  1.00  0.00     0.135 A 
ATOM     62  F   UNL A   1      43.104  32.204  33.612  1.00  0.00    -0.206 F 
ATOM     63  C   UNL A   1      43.774  34.436  33.352  1.00  0.00     0.059 A 
ATOM     64  C   UNL A   1      44.560  35.221  31.192  1.00  0.00     0.059 A 
ATOM     65  F   UNL A   1      44.598  33.752  29.364  1.00  0.00    -0.206 F 
ATOM     66  C   UNL A   1      44.275  35.452  32.537  1.00  0.00     0.060 A 
BRANCH  66  67
ATOM     67  S   UNL A   1      44.557  37.077  33.271  1.00  0.00     0.124 S 
ATOM     68  O   UNL A   1      46.011  37.098  33.389  1.00  0.00    -0.237 OA
ATOM     69  O   UNL A   1      43.988  37.970  32.268  1.00  0.00    -0.237 OA
ATOM     70  O   UNL A   1      43.829  37.011  34.535  1.00  0.00    -0.744 OA
ENDBRANCH  66  67
ENDBRANCH  45  59
BRANCH  46  71
ATOM     71  C   UNL A   1      42.574  23.692  27.733  1.00  0.00     0.058 A 
ATOM     72  C   UNL A   1      42.493  23.465  26.352  1.00  0.00     0.135 A 
ATOM     73  C   UNL A   1      42.479  22.579  28.583  1.00  0.00     0.135 A 
ATOM     74  F   UNL A   1      42.570  24.495  25.496  1.00  0.00    -0.206 F 
ATOM     75  C   UNL A   1      42.304  22.187  25.831  1.00  0.00     0.059 A 
ATOM     76  C   UNL A   1      42.322  21.288  28.085  1.00  0.00     0.059 A 
ATOM     77  F   UNL A   1      42.562  22.736  29.913  1.00  0.00    -0.206 F 
ATOM     78  C   UNL A   1      42.225  21.104  26.707  1.00  0.00     0.060 A 
BRANCH  78  79
ATOM     79  S   UNL A   1      42.015  19.449  26.016  1.00  0.00     0.124 S 
ATOM     80  O   UNL A   1      40.574  19.401  25.797  1.00  0.00    -0.237 OA
ATOM     81  O   UNL A   1      42.842  19.516  24.815  1.00  0.00    -0.237 OA
ATOM     82  O   UNL A   1      42.522  18.576  27.070  1.00  0.00    -0.744 OA
ENDBRANCH  78  79
ENDBRANCH  46  71
BRANCH  58  83
ATOM     83  C   UNL A   1      47.997  27.084  30.552  1.00  0.00     0.058 A 
ATOM     84  C   UNL A   1      49.023  27.325  29.626  1.00  0.00     0.135 A 
ATOM     85  C   UNL A   1      48.353  26.536  31.798  1.00  0.00     0.135 A 
ATOM     86  F   UNL A   1      48.737  27.843  28.421  1.00  0.00    -0.206 F 
ATOM     87  C   UNL A   1      50.348  27.020  29.915  1.00  0.00     0.059 A 
ATOM     88  C   UNL A   1      49.677  26.258  32.121  1.00  0.00     0.059 A 
ATOM     89  F   UNL A   1      47.414  26.297  32.726  1.00  0.00    -0.206 F 
ATOM     90  C   UNL A   1      50.668  26.495  31.169  1.00  0.00     0.060 A 
BRANCH  90  91
ATOM     91  S   UNL A   1      52.399  26.148  31.541  1.00  0.00     0.124 S 
ATOM     92  O   UNL A   1      52.325  24.777  32.038  1.00  0.00    -0.237 OA
ATOM     93  O   UNL A   1      53.033  26.316  30.237  1.00  0.00    -0.237 OA
ATOM     94  O   UNL A   1      52.745  27.156  32.537  1.00  0.00    -0.744 OA
ENDBRANCH  90  91
ENDBRANCH  58  83
ENDBRANCH  32  33
ENDBRANCH  24  27
ENDBRANCH  22  23
ENDBRANCH  21  22
ENDBRANCH   1  21
TORSDOF 17
ENDMDL
MODEL 2
REMARK VINA RESULT:     -10.8      0.980      1.853
REMARK SMILES C[C@@H](Sc1nc2c(cc1C#N)CCC2)C(=O)NCCCCNC(=O)c1ccc(-c2c3nc(c(-c4c(F)cc(S(=O)(=O)[O-])cc4F)c4ccc([nH]4)c(-c4c(F)cc(S(=O)(=O)[O-])cc4F)c4nc(c(-c5c(F)cc(S(=O)(=O)[O-])cc5F)c5ccc2[nH]5)C=C4)C=C3)cc1
REMARK SMILES IDX 19 1 18 2 17 3 15 4 16 5 2 7 1 8 3 9 4 10 5 11 9 12 6 13
REMARK SMILES IDX 8 14 7 15 14 16 12 17 13 18 10 19 11 20 20 21 21 22 22 23
REMARK SMILES IDX 23 24 24 26 25 27 26 28 90 29 27 30 89 31 28 32 29 33 30 34
REMARK SMILES IDX 83 35 31 36 88 37 82 38 84 39 32 40 87 41 81 42 80 43 33 45
REMARK SMILES IDX 67 46 46 47 66 48 47 49 50 50 65 51 85 52 48 53 49 54 64 56
REMARK SMILES IDX 86 57 51 58 34 59 35 60 44 61 36 62 37 63 43 64 45 65 38 66
REMARK SMILES IDX 39 67 40 68 41 69 42 70 68 71 69 72 78 73 70 74 71 75 77 76
REMARK SMILES IDX 79 77 72 78 73 79 74 80 75 81 76 82 52 83 53 84 62 85 54 86
REMARK SMILES IDX 55 87 61 88 63 89 56 90 57 91 58 92 59 93 60 94
REMARK H PARENT 17 6 22 25 84 44 50 55
REMARK Flexibility Score: inf
ROOT
ATOM      1  C   UNL A   1      33.223  29.346  24.897  1.00  0.00     0.023 C 
ENDROOT
BRANCH   1   2
ATOM      2  C   UNL A   1      31.731  29.053  24.985  1.00  0.00     0.116 C 
BRANCH   2   3
ATOM      3  N   UNL A   1      31.092  29.129  23.682  1.00  0.00    -0.355 N 
ATOM      4  C   UNL A   1      30.264  28.238  23.062  1.00  0.00     0.233 C 
ATOM      5  O   UNL A   1      29.831  28.536  21.945  1.00  0.00    -0.274 OA
ATOM      6  H   UNL A   1      31.286  29.946  23.170  1.00  0.00     0.163 HD
BRANCH   4   7
ATOM      7  C   UNL A   1      29.897  26.899  23.708  1.00  0.00     0.139 C 
ATOM      8  C   UNL A   1      28.390  26.790  23.924  1.00  0.00     0.030 C 
BRANCH   7   9
ATOM      9  S   UNL A   1      30.721  25.561  22.750  1.00  0.00    -0.092 SA
BRANCH   9  10
ATOM     10  C   UNL A   1      32.067  25.132  23.823  1.00  0.00     0.115 A 
ATOM     11  N   UNL A   1      31.749  24.227  24.788  1.00  0.00    -0.245 NA
ATOM     12  C   UNL A   1      33.374  25.588  23.599  1.00  0.00     0.085 A 
ATOM     13  C   UNL A   1      32.769  23.777  25.533  1.00  0.00     0.045 A 
ATOM     14  C   UNL A   1      34.411  25.091  24.398  1.00  0.00     0.028 A 
ATOM     15  C   UNL A   1      34.091  24.168  25.374  1.00  0.00    -0.025 A 
ATOM     16  C   UNL A   1      32.647  22.711  26.584  1.00  0.00     0.057 C 
ATOM     17  C   UNL A   1      34.991  23.420  26.298  1.00  0.00     0.038 C 
ATOM     18  C   UNL A   1      33.984  22.875  27.322  1.00  0.00     0.011 C 
BRANCH  12  19
ATOM     19  C   UNL A   1      33.686  26.525  22.564  1.00  0.00     0.102 C 
ATOM     20  N   UNL A   1      33.931  27.321  21.754  1.00  0.00    -0.192 NA
ENDBRANCH  12  19
ENDBRANCH   9  10
ENDBRANCH   7   9
ENDBRANCH   4   7
ENDBRANCH   2   3
ENDBRANCH   1   2
BRANCH   1  21
ATOM     21  C   UNL A   1      34.081  28.458  25.791  1.00  0.00     0.023 C 
BRANCH  21  22
ATOM     22  C   UNL A   1      33.763  28.562  27.278  1.00  0.00     0.116 C 
BRANCH  22  23
ATOM     23  N   UNL A   1      33.665  29.940  27.740  1.00  0.00    -0.352 N 
ATOM     24  C   UNL A   1      34.614  30.700  28.378  1.00  0.00     0.251 C 
ATOM     25  H   UNL A   1      32.803  30.385  27.571  1.00  0.00     0.163 HD
ATOM     26  O   UNL A   1      34.322  31.797  28.845  1.00  0.00    -0.269 OA
BRANCH  24  27
ATOM     27  C   UNL A   1      35.981  30.161  28.520  1.00  0.00     0.039 A 
ATOM     28  C   UNL A   1      36.852  30.227  27.432  1.00  0.00     0.014 A 
ATOM     29  C   UNL A   1      36.414  29.649  29.748  1.00  0.00     0.014 A 
ATOM     30  C   UNL A   1      38.182  29.839  27.597  1.00  0.00     0.010 A 
ATOM     31  C   UNL A   1      37.758  29.354  29.933  1.00  0.00     0.010 A 
ATOM     32  C   UNL A   1      38.655  29.436  28.857  1.00  0.00    -0.014 A 
BRANCH  32  33
ATOM     33  C   UNL A   1      40.080  29.076  29.060  1.00  0.00     0.031 A 
ATOM     34  C   UNL A   1      41.029  30.085  29.646  1.00  0.00     0.074 A 
ATOM     35  C   UNL A   1      40.522  27.855  28.695  1.00  0.00     0.049 A 
ATOM     36  N   UNL A   1      42.311  29.973  29.876  1.00  0.00    -0.248 NA
ATOM     37  C   UNL A   1      40.470  31.401  30.003  1.00  0.00     0.031 C 
ATOM     38  C   UNL A   1      39.700  26.804  28.089  1.00  0.00     0.029 A 
ATOM     39  N   UNL A   1      41.768  27.288  28.783  1.00  0.00    -0.354 N 
ATOM     40  C   UNL A   1      42.707  31.193  30.409  1.00  0.00     0.074 A 
ATOM     41  C   UNL A   1      41.549  32.057  30.401  1.00  0.00     0.031 C 
ATOM     42  C   UNL A   1      40.454  25.710  27.898  1.00  0.00     0.029 A 
ATOM     43  C   UNL A   1      41.823  25.993  28.322  1.00  0.00     0.049 A 
ATOM     44  H   UNL A   1      42.552  27.764  29.143  1.00  0.00     0.167 HD
ATOM     45  C   UNL A   1      43.918  31.549  30.895  1.00  0.00     0.037 A 
ATOM     46  C   UNL A   1      42.858  25.132  28.246  1.00  0.00     0.037 A 
ATOM     47  C   UNL A   1      45.063  30.676  30.913  1.00  0.00     0.049 A 
ATOM     48  C   UNL A   1      44.210  25.576  28.742  1.00  0.00     0.074 A 
ATOM     49  C   UNL A   1      46.328  30.934  31.411  1.00  0.00     0.029 A 
ATOM     50  N   UNL A   1      45.084  29.383  30.414  1.00  0.00    -0.354 N 
ATOM     51  N   UNL A   1      44.554  26.716  29.293  1.00  0.00    -0.248 NA
ATOM     52  C   UNL A   1      45.316  24.616  28.610  1.00  0.00     0.031 C 
ATOM     53  C   UNL A   1      47.130  29.820  31.159  1.00  0.00     0.029 A 
ATOM     54  C   UNL A   1      46.349  28.840  30.565  1.00  0.00     0.049 A 
ATOM     55  H   UNL A   1      44.315  28.918  30.012  1.00  0.00     0.167 HD
ATOM     56  C   UNL A   1      45.907  26.599  29.597  1.00  0.00     0.074 A 
ATOM     57  C   UNL A   1      46.313  25.272  29.188  1.00  0.00     0.031 C 
ATOM     58  C   UNL A   1      46.737  27.511  30.161  1.00  0.00     0.037 A 
BRANCH  45  59
ATOM     59  C   UNL A   1      44.072  32.931  31.467  1.00  0.00     0.058 A 
ATOM     60  C   UNL A   1      43.853  33.189  32.830  1.00  0.00     0.135 A 
ATOM     61  C   UNL A   1      44.522  33.993  30.665  1.00  0.00     0.135 A 
ATOM     62  F   UNL A   1      43.403  32.216  33.639  1.00  0.00    -0.206 F 
ATOM     63  C   UNL A   1      44.065  34.450  33.375  1.00  0.00     0.059 A 
ATOM     64  C   UNL A   1      44.771  35.255  31.196  1.00  0.00     0.059 A 
ATOM     65  F   UNL A   1      44.742  33.804  29.354  1.00  0.00    -0.206 F 
ATOM     66  C   UNL A   1      44.536  35.474  32.552  1.00  0.00     0.060 A 
BRANCH  66  67
ATOM     67  S   UNL A   1      44.845  37.091  33.291  1.00  0.00     0.124 S 
ATOM     68  O   UNL A   1      45.433  36.720  34.574  1.00  0.00    -0.237 OA
ATOM     69  O   UNL A   1      45.756  37.700  32.328  1.00  0.00    -0.237 OA
ATOM     70  O   UNL A   1      43.517  37.693  33.363  1.00  0.00    -0.744 OA
ENDBRANCH  66  67
ENDBRANCH  45  59
BRANCH  46  71
ATOM     71  C   UNL A   1      42.656  23.761  27.700  1.00  0.00     0.058 A 
ATOM     72  C   UNL A   1      42.449  22.668  28.553  1.00  0.00     0.135 A 
ATOM     73  C   UNL A   1      42.664  23.515  26.318  1.00  0.00     0.135 A 
ATOM     74  F   UNL A   1      42.440  22.847  29.883  1.00  0.00    -0.206 F 
ATOM     75  C   UNL A   1      42.278  21.377  28.060  1.00  0.00     0.059 A 
ATOM     76  C   UNL A   1      42.463  22.238  25.799  1.00  0.00     0.059 A 
ATOM     77  F   UNL A   1      42.845  24.526  25.453  1.00  0.00    -0.206 F 
ATOM     78  C   UNL A   1      42.282  21.174  26.680  1.00  0.00     0.060 A 
BRANCH  78  79
ATOM     79  S   UNL A   1      42.024  19.500  26.054  1.00  0.00     0.124 S 
ATOM     80  O   UNL A   1      42.511  18.690  27.164  1.00  0.00    -0.237 OA
ATOM     81  O   UNL A   1      40.581  19.479  25.833  1.00  0.00    -0.237 OA
ATOM     82  O   UNL A   1      42.837  19.463  24.842  1.00  0.00    -0.744 OA
ENDBRANCH  78  79
ENDBRANCH  46  71
BRANCH  58  83
ATOM     83  C   UNL A   1      48.168  27.108  30.397  1.00  0.00     0.058 A 
ATOM     84  C   UNL A   1      49.157  27.294  29.419  1.00  0.00     0.135 A 
ATOM     85  C   UNL A   1      48.570  26.610  31.649  1.00  0.00     0.135 A 
ATOM     86  F   UNL A   1      48.827  27.763  28.205  1.00  0.00    -0.206 F 
ATOM     87  C   UNL A   1      50.489  26.984  29.665  1.00  0.00     0.059 A 
ATOM     88  C   UNL A   1      49.903  26.327  31.929  1.00  0.00     0.059 A 
ATOM     89  F   UNL A   1      47.669  26.425  32.625  1.00  0.00    -0.206 F 
ATOM     90  C   UNL A   1      50.855  26.509  30.927  1.00  0.00     0.060 A 
BRANCH  90  91
ATOM     91  S   UNL A   1      52.596  26.154  31.240  1.00  0.00     0.124 S 
ATOM     92  O   UNL A   1      52.983  27.285  32.078  1.00  0.00    -0.237 OA
ATOM     93  O   UNL A   1      52.530  24.860  31.913  1.00  0.00    -0.237 OA
ATOM     94  O   UNL A   1      53.187  26.133  29.906  1.00  0.00    -0.744 OA
ENDBRANCH  90  91
ENDBRANCH  58  83
ENDBRANCH  32  33
ENDBRANCH  24  27
ENDBRANCH  22  23
ENDBRANCH  21  22
ENDBRANCH   1  21
TORSDOF 17
ENDMDL
MODEL 3
REMARK VINA RESULT:     -10.7      1.343      2.491
REMARK SMILES C[C@@H](Sc1nc2c(cc1C#N)CCC2)C(=O)NCCCCNC(=O)c1ccc(-c2c3nc(c(-c4c(F)cc(S(=O)(=O)[O-])cc4F)c4ccc([nH]4)c(-c4c(F)cc(S(=O)(=O)[O-])cc4F)c4nc(c(-c5c(F)cc(S(=O)(=O)[O-])cc5F)c5ccc2[nH]5)C=C4)C=C3)cc1
REMARK SMILES IDX 19 1 18 2 17 3 15 4 16 5 2 7 1 8 3 9 4 10 5 11 9 12 6 13
REMARK SMILES IDX 8 14 7 15 14 16 12 17 13 18 10 19 11 20 20 21 21 22 22 23
REMARK SMILES IDX 23 24 24 26 25 27 26 28 90 29 27 30 89 31 28 32 29 33 30 34
REMARK SMILES IDX 83 35 31 36 88 37 82 38 84 39 32 40 87 41 81 42 80 43 33 45
REMARK SMILES IDX 67 46 46 47 66 48 47 49 50 50 65 51 85 52 48 53 49 54 64 56
REMARK SMILES IDX 86 57 51 58 34 59 35 60 44 61 36 62 37 63 43 64 45 65 38 66
REMARK SMILES IDX 39 67 40 68 41 69 42 70 68 71 69 72 78 73 70 74 71 75 77 76
REMARK SMILES IDX 79 77 72 78 73 79 74 80 75 81 76 82 52 83 53 84 62 85 54 86
REMARK SMILES IDX 55 87 61 88 63 89 56 90 57 91 58 92 59 93 60 94
REMARK H PARENT 17 6 22 25 84 44 50 55
REMARK Flexibility Score: inf
ROOT
ATOM      1  C   UNL A   1      31.874  27.324  25.465  1.00  0.00     0.023 C 
ENDROOT
BRANCH   1   2
ATOM      2  C   UNL A   1      32.677  26.173  24.873  1.00  0.00     0.116 C 
BRANCH   2   3
ATOM      3  N   UNL A   1      31.841  25.292  24.075  1.00  0.00    -0.355 N 
ATOM      4  C   UNL A   1      31.413  24.022  24.335  1.00  0.00     0.233 C 
ATOM      5  O   UNL A   1      30.689  23.475  23.498  1.00  0.00    -0.274 OA
ATOM      6  H   UNL A   1      31.537  25.668  23.219  1.00  0.00     0.163 HD
BRANCH   4   7
ATOM      7  C   UNL A   1      31.832  23.278  25.606  1.00  0.00     0.139 C 
ATOM      8  C   UNL A   1      30.826  23.505  26.731  1.00  0.00     0.030 C 
BRANCH   7   9
ATOM      9  S   UNL A   1      32.220  21.538  25.145  1.00  0.00    -0.092 SA
BRANCH   9  10
ATOM     10  C   UNL A   1      33.994  21.558  25.140  1.00  0.00     0.115 A 
ATOM     11  N   UNL A   1      34.543  22.746  25.514  1.00  0.00    -0.245 NA
ATOM     12  C   UNL A   1      34.752  20.402  24.905  1.00  0.00     0.085 A 
ATOM     13  C   UNL A   1      35.877  22.761  25.653  1.00  0.00     0.045 A 
ATOM     14  C   UNL A   1      36.142  20.461  25.063  1.00  0.00     0.028 A 
ATOM     15  C   UNL A   1      36.700  21.664  25.447  1.00  0.00    -0.025 A 
ATOM     16  C   UNL A   1      36.666  23.941  26.144  1.00  0.00     0.057 C 
ATOM     17  C   UNL A   1      38.120  21.986  25.769  1.00  0.00     0.038 C 
ATOM     18  C   UNL A   1      38.090  23.522  25.753  1.00  0.00     0.011 C 
BRANCH  12  19
ATOM     19  C   UNL A   1      34.149  19.160  24.532  1.00  0.00     0.102 C 
ATOM     20  N   UNL A   1      33.692  18.129  24.253  1.00  0.00    -0.192 NA
ENDBRANCH  12  19
ENDBRANCH   9  10
ENDBRANCH   7   9
ENDBRANCH   4   7
ENDBRANCH   2   3
ENDBRANCH   1   2
BRANCH   1  21
ATOM     21  C   UNL A   1      32.242  27.656  26.907  1.00  0.00     0.023 C 
BRANCH  21  22
ATOM     22  C   UNL A   1      33.599  28.330  27.075  1.00  0.00     0.116 C 
BRANCH  22  23
ATOM     23  N   UNL A   1      33.489  29.736  27.441  1.00  0.00    -0.352 N 
ATOM     24  C   UNL A   1      34.416  30.535  28.065  1.00  0.00     0.251 C 
ATOM     25  H   UNL A   1      32.637  30.171  27.209  1.00  0.00     0.163 HD
ATOM     26  O   UNL A   1      34.111  31.660  28.447  1.00  0.00    -0.269 OA
BRANCH  24  27
ATOM     27  C   UNL A   1      35.774  30.003  28.297  1.00  0.00     0.039 A 
ATOM     28  C   UNL A   1      36.718  30.086  27.274  1.00  0.00     0.014 A 
ATOM     29  C   UNL A   1      36.123  29.481  29.547  1.00  0.00     0.014 A 
ATOM     30  C   UNL A   1      38.035  29.705  27.528  1.00  0.00     0.010 A 
ATOM     31  C   UNL A   1      37.453  29.193  29.824  1.00  0.00     0.010 A 
ATOM     32  C   UNL A   1      38.422  29.292  28.814  1.00  0.00    -0.014 A 
BRANCH  32  33
ATOM     33  C   UNL A   1      39.832  28.938  29.112  1.00  0.00     0.031 A 
ATOM     34  C   UNL A   1      40.723  29.939  29.797  1.00  0.00     0.074 A 
ATOM     35  C   UNL A   1      40.314  27.734  28.745  1.00  0.00     0.049 A 
ATOM     36  N   UNL A   1      41.985  29.831  30.120  1.00  0.00    -0.248 NA
ATOM     37  C   UNL A   1      40.124  31.237  30.150  1.00  0.00     0.031 C 
ATOM     38  C   UNL A   1      39.552  26.694  28.048  1.00  0.00     0.029 A 
ATOM     39  N   UNL A   1      41.557  27.176  28.910  1.00  0.00    -0.354 N 
ATOM     40  C   UNL A   1      42.326  31.038  30.717  1.00  0.00     0.074 A 
ATOM     41  C   UNL A   1      41.162  31.891  30.648  1.00  0.00     0.031 C 
ATOM     42  C   UNL A   1      40.331  25.613  27.882  1.00  0.00     0.029 A 
ATOM     43  C   UNL A   1      41.660  25.896  28.416  1.00  0.00     0.049 A 
ATOM     44  H   UNL A   1      42.306  27.648  29.342  1.00  0.00     0.167 HD
ATOM     45  C   UNL A   1      43.494  31.390  31.303  1.00  0.00     0.037 A 
ATOM     46  C   UNL A   1      42.709  25.048  28.392  1.00  0.00     0.037 A 
ATOM     47  C   UNL A   1      44.643  30.527  31.382  1.00  0.00     0.049 A 
ATOM     48  C   UNL A   1      44.014  25.488  29.001  1.00  0.00     0.074 A 
ATOM     49  C   UNL A   1      45.864  30.782  31.981  1.00  0.00     0.029 A 
ATOM     50  N   UNL A   1      44.717  29.250  30.847  1.00  0.00    -0.354 N 
ATOM     51  N   UNL A   1      44.303  26.614  29.610  1.00  0.00    -0.248 NA
ATOM     52  C   UNL A   1      45.138  24.543  28.924  1.00  0.00     0.031 C 
ATOM     53  C   UNL A   1      46.696  29.683  31.756  1.00  0.00     0.029 A 
ATOM     54  C   UNL A   1      45.973  28.715  31.077  1.00  0.00     0.049 A 
ATOM     55  H   UNL A   1      43.985  28.791  30.374  1.00  0.00     0.167 HD
ATOM     56  C   UNL A   1      45.630  26.501  30.012  1.00  0.00     0.074 A 
ATOM     57  C   UNL A   1      46.081  25.191  29.595  1.00  0.00     0.031 C 
ATOM     58  C   UNL A   1      46.406  27.403  30.663  1.00  0.00     0.037 A 
BRANCH  45  59
ATOM     59  C   UNL A   1      43.588  32.755  31.926  1.00  0.00     0.058 A 
ATOM     60  C   UNL A   1      43.937  33.884  31.168  1.00  0.00     0.135 A 
ATOM     61  C   UNL A   1      43.248  32.953  33.274  1.00  0.00     0.135 A 
ATOM     62  F   UNL A   1      44.292  33.750  29.879  1.00  0.00    -0.206 F 
ATOM     63  C   UNL A   1      43.955  35.158  31.724  1.00  0.00     0.059 A 
ATOM     64  C   UNL A   1      43.226  34.223  33.844  1.00  0.00     0.059 A 
ATOM     65  F   UNL A   1      42.911  31.909  34.047  1.00  0.00    -0.206 F 
ATOM     66  C   UNL A   1      43.585  35.319  33.061  1.00  0.00     0.060 A 
BRANCH  66  67
ATOM     67  S   UNL A   1      43.574  36.987  33.749  1.00  0.00     0.124 S 
ATOM     68  O   UNL A   1      43.715  37.802  32.547  1.00  0.00    -0.237 OA
ATOM     69  O   UNL A   1      42.270  37.041  34.402  1.00  0.00    -0.237 OA
ATOM     70  O   UNL A   1      44.724  36.993  34.648  1.00  0.00    -0.744 OA
ENDBRANCH  66  67
ENDBRANCH  45  59
BRANCH  46  71
ATOM     71  C   UNL A   1      42.564  23.692  27.792  1.00  0.00     0.058 A 
ATOM     72  C   UNL A   1      42.346  22.565  28.598  1.00  0.00     0.135 A 
ATOM     73  C   UNL A   1      42.639  23.494  26.404  1.00  0.00     0.135 A 
ATOM     74  F   UNL A   1      42.274  22.698  29.932  1.00  0.00    -0.206 F 
ATOM     75  C   UNL A   1      42.228  21.289  28.055  1.00  0.00     0.059 A 
ATOM     76  C   UNL A   1      42.492  22.232  25.834  1.00  0.00     0.059 A 
ATOM     77  F   UNL A   1      42.834  24.538  25.583  1.00  0.00    -0.206 F 
ATOM     78  C   UNL A   1      42.297  21.134  26.670  1.00  0.00     0.060 A 
BRANCH  78  79
ATOM     79  S   UNL A   1      42.107  19.477  25.977  1.00  0.00     0.124 S 
ATOM     80  O   UNL A   1      42.940  19.559  24.783  1.00  0.00    -0.237 OA
ATOM     81  O   UNL A   1      42.618  18.638  27.056  1.00  0.00    -0.237 OA
ATOM     82  O   UNL A   1      40.671  19.373  25.737  1.00  0.00    -0.744 OA
ENDBRANCH  78  79
ENDBRANCH  46  71
BRANCH  58  83
ATOM     83  C   UNL A   1      47.819  27.006  30.994  1.00  0.00     0.058 A 
ATOM     84  C   UNL A   1      48.153  26.424  32.226  1.00  0.00     0.135 A 
ATOM     85  C   UNL A   1      48.837  27.130  30.031  1.00  0.00     0.135 A 
ATOM     86  F   UNL A   1      47.220  26.286  33.182  1.00  0.00    -0.206 F 
ATOM     87  C   UNL A   1      49.447  25.996  32.501  1.00  0.00     0.059 A 
ATOM     88  C   UNL A   1      50.130  26.676  30.272  1.00  0.00     0.059 A 
ATOM     89  F   UNL A   1      48.572  27.667  28.831  1.00  0.00    -0.206 F 
ATOM     90  C   UNL A   1      50.427  26.117  31.514  1.00  0.00     0.060 A 
BRANCH  90  91
ATOM     91  S   UNL A   1      52.090  25.516  31.875  1.00  0.00     0.124 S 
ATOM     92  O   UNL A   1      51.861  24.082  32.017  1.00  0.00    -0.237 OA
ATOM     93  O   UNL A   1      52.830  25.926  30.686  1.00  0.00    -0.237 OA
ATOM     94  O   UNL A   1      52.448  26.217  33.104  1.00  0.00    -0.744 OA
ENDBRANCH  90  91
ENDBRANCH  58  83
ENDBRANCH  32  33
ENDBRANCH  24  27
ENDBRANCH  22  23
ENDBRANCH  21  22
ENDBRANCH   1  21
TORSDOF 17
ENDMDL
