MODEL 1
REMARK VINA RESULT:     -14.9      0.000      0.000
REMARK SMILES Cc1ccc(C(=O)NC2(CC(=O)NCCCCNC(=O)c3ccc(-c4c5nc(c(-c6c(F)cc(S(=O)(=O)[O-])cc6F)c6ccc([nH]6)c(-c6c(F)cc(S(=O)(=O)[O-])cc6F)c6nc(c(-c7c(F)cc(S(=O)(=O)[O-])cc7F)c7ccc4[nH]7)C=C6)C=C5)cc3)CCC2)cc1
REMARK SMILES IDX 15 1 14 2 13 3 11 4 12 5 10 7 9 8 87 9 89 10 88 11 8 12 6 13
REMARK SMILES IDX 7 14 5 16 1 17 2 18 3 19 91 20 4 21 90 22 16 23 17 24 18 25
REMARK SMILES IDX 19 26 20 28 21 29 22 30 86 31 23 32 85 33 24 34 25 35 26 36
REMARK SMILES IDX 79 37 27 38 84 39 78 40 80 41 28 42 83 43 77 44 76 45 29 47
REMARK SMILES IDX 63 48 42 49 62 50 43 51 46 52 61 53 81 54 44 55 45 56 60 58
REMARK SMILES IDX 82 59 47 60 30 61 31 62 40 63 32 64 33 65 39 66 41 67 34 68
REMARK SMILES IDX 35 69 36 70 37 71 38 72 64 73 65 74 74 75 66 76 67 77 73 78
REMARK SMILES IDX 75 79 68 80 69 81 70 82 71 83 72 84 48 85 49 86 58 87 50 88
REMARK SMILES IDX 51 89 57 90 59 91 52 92 53 93 54 94 55 95 56 96
REMARK H PARENT 13 6 8 15 18 27 80 46 46 57
REMARK Flexibility Score: inf
ROOT
ATOM      1  C   UNL A   1      32.529  28.297  27.165  1.00  0.00     0.023 C 
ENDROOT
BRANCH   1   2
ATOM      2  C   UNL A   1      31.576  27.633  26.170  1.00  0.00     0.116 C 
BRANCH   2   3
ATOM      3  N   UNL A   1      30.752  26.272  26.802  1.00  0.00    -0.356 N 
ATOM      4  C   UNL A   1      30.786  24.314  26.640  1.00  0.00     0.222 C 
ATOM      5  O   UNL A   1      30.354  23.400  27.410  1.00  0.00    -0.275 OA
ATOM      6  H   UNL A   1      30.055  26.554  27.437  1.00  0.00     0.163 HD
BRANCH   4   7
ATOM      7  C   UNL A   1      31.472  23.394  25.128  1.00  0.00     0.128 C 
BRANCH   7   8
ATOM      8  C   UNL A   1      31.691  24.072  23.606  1.00  0.00     0.049 C 
ATOM      9  C   UNL A   1      33.007  24.892  23.358  1.00  0.00     0.029 C 
ATOM     10  C   UNL A   1      31.032  25.369  22.740  1.00  0.00     0.029 C 
ATOM     11  C   UNL A   1      32.173  26.209  23.271  1.00  0.00     0.005 C 
BRANCH   8  12
ATOM     12  N   UNL A   1      31.347  22.996  22.693  1.00  0.00    -0.346 N 
ATOM     13  C   UNL A   1      32.227  21.951  22.704  1.00  0.00     0.251 C 
ATOM     14  O   UNL A   1      32.031  20.913  22.092  1.00  0.00    -0.269 OA
ATOM     15  H   UNL A   1      30.549  23.018  22.117  1.00  0.00     0.164 HD
BRANCH  13  16
ATOM     16  C   UNL A   1      33.544  22.300  23.351  1.00  0.00     0.039 A 
ATOM     17  C   UNL A   1      38.096  21.665  25.471  1.00  0.00     0.044 C 
ATOM     18  C   UNL A   1      36.900  21.593  24.561  1.00  0.00    -0.051 A 
ATOM     19  C   UNL A   1      35.485  20.681  25.209  1.00  0.00     0.004 A 
ATOM     20  C   UNL A   1      36.719  22.826  23.262  1.00  0.00     0.004 A 
ATOM     21  C   UNL A   1      33.835  21.028  24.610  1.00  0.00     0.014 A 
ATOM     22  C   UNL A   1      35.036  23.239  22.654  1.00  0.00     0.014 A 
ENDBRANCH  13  16
ENDBRANCH   8  12
ENDBRANCH   7   8
ENDBRANCH   4   7
ENDBRANCH   2   3
ENDBRANCH   1   2
BRANCH   1  23
ATOM     23  C   UNL A   1      33.845  28.752  26.560  1.00  0.00     0.023 C 
BRANCH  23  24
ATOM     24  C   UNL A   1      34.808  29.267  27.600  1.00  0.00     0.116 C 
BRANCH  24  25
ATOM     25  N   UNL A   1      35.903  30.058  27.064  1.00  0.00    -0.352 N 
ATOM     26  C   UNL A   1      36.985  30.409  27.865  1.00  0.00     0.251 C 
ATOM     27  H   UNL A   1      35.878  30.351  26.125  1.00  0.00     0.163 HD
ATOM     28  O   UNL A   1      37.193  31.530  28.301  1.00  0.00    -0.269 OA
BRANCH  26  29
ATOM     29  C   UNL A   1      37.893  29.283  28.161  1.00  0.00     0.039 A 
ATOM     30  C   UNL A   1      37.816  28.590  29.372  1.00  0.00     0.014 A 
ATOM     31  C   UNL A   1      38.986  29.138  27.320  1.00  0.00     0.014 A 
ATOM     32  C   UNL A   1      38.948  27.930  29.832  1.00  0.00     0.010 A 
ATOM     33  C   UNL A   1      40.151  28.713  27.863  1.00  0.00     0.010 A 
ATOM     34  C   UNL A   1      40.125  28.120  29.120  1.00  0.00    -0.014 A 
BRANCH  34  35
ATOM     35  C   UNL A   1      41.402  27.526  29.408  1.00  0.00     0.031 A 
ATOM     36  C   UNL A   1      41.506  26.132  28.927  1.00  0.00     0.074 A 
ATOM     37  C   UNL A   1      42.378  28.401  29.748  1.00  0.00     0.049 A 
ATOM     38  N   UNL A   1      42.386  25.299  29.315  1.00  0.00    -0.248 NA
ATOM     39  C   UNL A   1      40.569  25.521  27.965  1.00  0.00     0.031 C 
ATOM     40  C   UNL A   1      43.829  28.278  29.748  1.00  0.00     0.029 A 
ATOM     41  N   UNL A   1      42.165  29.635  30.383  1.00  0.00    -0.354 N 
ATOM     42  C   UNL A   1      42.397  24.254  28.407  1.00  0.00     0.074 A 
ATOM     43  C   UNL A   1      41.159  24.352  27.691  1.00  0.00     0.031 C 
ATOM     44  C   UNL A   1      44.336  29.140  30.654  1.00  0.00     0.029 A 
ATOM     45  C   UNL A   1      43.209  29.778  31.318  1.00  0.00     0.049 A 
ATOM     46  H   UNL A   1      41.436  30.273  30.208  1.00  0.00     0.167 HD
ATOM     47  C   UNL A   1      43.563  23.564  28.275  1.00  0.00     0.037 A 
ATOM     48  C   UNL A   1      42.897  29.640  32.643  1.00  0.00     0.037 A 
ATOM     49  C   UNL A   1      44.528  24.149  29.203  1.00  0.00     0.049 A 
ATOM     50  C   UNL A   1      43.441  28.333  33.182  1.00  0.00     0.074 A 
ATOM     51  C   UNL A   1      45.480  25.144  29.047  1.00  0.00     0.029 A 
ATOM     52  N   UNL A   1      44.252  24.075  30.558  1.00  0.00    -0.354 N 
ATOM     53  N   UNL A   1      43.622  27.252  32.465  1.00  0.00    -0.248 NA
ATOM     54  C   UNL A   1      43.984  28.213  34.530  1.00  0.00     0.031 C 
ATOM     55  C   UNL A   1      45.741  25.692  30.335  1.00  0.00     0.029 A 
ATOM     56  C   UNL A   1      44.930  25.049  31.258  1.00  0.00     0.049 A 
ATOM     57  H   UNL A   1      43.649  23.412  30.967  1.00  0.00     0.167 HD
ATOM     58  C   UNL A   1      44.345  26.338  33.193  1.00  0.00     0.074 A 
ATOM     59  C   UNL A   1      44.554  26.998  34.470  1.00  0.00     0.031 C 
ATOM     60  C   UNL A   1      44.772  25.130  32.701  1.00  0.00     0.037 A 
BRANCH  47  61
ATOM     61  C   UNL A   1      43.954  22.562  27.216  1.00  0.00     0.058 A 
ATOM     62  C   UNL A   1      43.180  21.387  27.069  1.00  0.00     0.135 A 
ATOM     63  C   UNL A   1      45.024  22.679  26.305  1.00  0.00     0.135 A 
ATOM     64  F   UNL A   1      42.129  21.131  27.860  1.00  0.00    -0.206 F 
ATOM     65  C   UNL A   1      43.437  20.412  26.111  1.00  0.00     0.059 A 
ATOM     66  C   UNL A   1      45.314  21.698  25.341  1.00  0.00     0.059 A 
ATOM     67  F   UNL A   1      45.812  23.760  26.281  1.00  0.00    -0.206 F 
ATOM     68  C   UNL A   1      44.507  20.571  25.247  1.00  0.00     0.060 A 
BRANCH  68  69
ATOM     69  S   UNL A   1      44.779  19.294  24.006  1.00  0.00     0.124 S 
ATOM     70  O   UNL A   1      44.536  20.023  22.763  1.00  0.00    -0.237 OA
ATOM     71  O   UNL A   1      46.165  18.915  24.256  1.00  0.00    -0.237 OA
ATOM     72  O   UNL A   1      43.783  18.280  24.335  1.00  0.00    -0.744 OA
ENDBRANCH  68  69
ENDBRANCH  47  61
BRANCH  48  73
ATOM     73  C   UNL A   1      41.588  30.312  32.949  1.00  0.00     0.058 A 
ATOM     74  C   UNL A   1      40.511  29.451  33.273  1.00  0.00     0.135 A 
ATOM     75  C   UNL A   1      41.522  31.620  33.448  1.00  0.00     0.135 A 
ATOM     76  F   UNL A   1      40.499  28.192  32.802  1.00  0.00    -0.206 F 
ATOM     77  C   UNL A   1      39.546  29.793  34.217  1.00  0.00     0.059 A 
ATOM     78  C   UNL A   1      40.538  31.995  34.374  1.00  0.00     0.059 A 
ATOM     79  F   UNL A   1      42.497  32.499  33.174  1.00  0.00    -0.206 F 
ATOM     80  C   UNL A   1      39.608  31.049  34.811  1.00  0.00     0.060 A 
BRANCH  80  81
ATOM     81  S   UNL A   1      38.549  31.362  36.245  1.00  0.00     0.124 S 
ATOM     82  O   UNL A   1      38.178  30.009  36.641  1.00  0.00    -0.237 OA
ATOM     83  O   UNL A   1      39.463  32.068  37.150  1.00  0.00    -0.237 OA
ATOM     84  O   UNL A   1      37.474  32.177  35.697  1.00  0.00    -0.744 OA
ENDBRANCH  80  81
ENDBRANCH  48  73
BRANCH  60  85
ATOM     85  C   UNL A   1      45.155  23.911  33.531  1.00  0.00     0.058 A 
ATOM     86  C   UNL A   1      46.462  23.622  33.952  1.00  0.00     0.135 A 
ATOM     87  C   UNL A   1      44.160  23.043  34.070  1.00  0.00     0.135 A 
ATOM     88  F   UNL A   1      47.495  24.428  33.685  1.00  0.00    -0.206 F 
ATOM     89  C   UNL A   1      46.773  22.508  34.726  1.00  0.00     0.059 A 
ATOM     90  C   UNL A   1      44.438  21.997  34.940  1.00  0.00     0.059 A 
ATOM     91  F   UNL A   1      42.856  23.175  33.796  1.00  0.00    -0.206 F 
ATOM     92  C   UNL A   1      45.755  21.704  35.220  1.00  0.00     0.060 A 
BRANCH  92  93
ATOM     93  S   UNL A   1      46.180  20.294  36.241  1.00  0.00     0.124 S 
ATOM     94  O   UNL A   1      45.673  20.721  37.541  1.00  0.00    -0.237 OA
ATOM     95  O   UNL A   1      45.440  19.214  35.596  1.00  0.00    -0.237 OA
ATOM     96  O   UNL A   1      47.632  20.211  36.124  1.00  0.00    -0.744 OA
ENDBRANCH  92  93
ENDBRANCH  60  85
ENDBRANCH  34  35
ENDBRANCH  26  29
ENDBRANCH  24  25
ENDBRANCH  23  24
ENDBRANCH   1  23
TORSDOF 17
ENDMDL
MODEL 2
REMARK VINA RESULT:     -14.7      2.456      3.840
REMARK SMILES Cc1ccc(C(=O)NC2(CC(=O)NCCCCNC(=O)c3ccc(-c4c5nc(c(-c6c(F)cc(S(=O)(=O)[O-])cc6F)c6ccc([nH]6)c(-c6c(F)cc(S(=O)(=O)[O-])cc6F)c6nc(c(-c7c(F)cc(S(=O)(=O)[O-])cc7F)c7ccc4[nH]7)C=C6)C=C5)cc3)CCC2)cc1
REMARK SMILES IDX 15 1 14 2 13 3 11 4 12 5 10 7 9 8 87 9 89 10 88 11 8 12 6 13
REMARK SMILES IDX 7 14 5 16 1 17 2 18 3 19 91 20 4 21 90 22 16 23 17 24 18 25
REMARK SMILES IDX 19 26 20 28 21 29 22 30 86 31 23 32 85 33 24 34 25 35 26 36
REMARK SMILES IDX 79 37 27 38 84 39 78 40 80 41 28 42 83 43 77 44 76 45 29 47
REMARK SMILES IDX 63 48 42 49 62 50 43 51 46 52 61 53 81 54 44 55 45 56 60 58
REMARK SMILES IDX 82 59 47 60 30 61 31 62 40 63 32 64 33 65 39 66 41 67 34 68
REMARK SMILES IDX 35 69 36 70 37 71 38 72 64 73 65 74 74 75 66 76 67 77 73 78
REMARK SMILES IDX 75 79 68 80 69 81 70 82 71 83 72 84 48 85 49 86 58 87 50 88
REMARK SMILES IDX 51 89 57 90 59 91 52 92 53 93 54 94 55 95 56 96
REMARK H PARENT 13 6 8 15 18 27 80 46 46 57
REMARK Flexibility Score: inf
ROOT
ATOM      1  C   UNL A   1      33.284  27.126  26.110  1.00  0.00     0.023 C 
ENDROOT
BRANCH   1   2
ATOM      2  C   UNL A   1      31.771  27.200  26.326  1.00  0.00     0.116 C 
BRANCH   2   3
ATOM      3  N   UNL A   1      31.078  25.734  26.877  1.00  0.00    -0.356 N 
ATOM      4  C   UNL A   1      31.280  23.801  26.589  1.00  0.00     0.222 C 
ATOM      5  O   UNL A   1      30.940  22.806  27.303  1.00  0.00    -0.275 OA
ATOM      6  H   UNL A   1      30.367  25.913  27.534  1.00  0.00     0.163 HD
BRANCH   4   7
ATOM      7  C   UNL A   1      32.024  23.042  25.017  1.00  0.00     0.128 C 
BRANCH   7   8
ATOM      8  C   UNL A   1      33.648  23.110  24.590  1.00  0.00     0.049 C 
ATOM      9  C   UNL A   1      34.694  22.542  25.614  1.00  0.00     0.029 C 
ATOM     10  C   UNL A   1      34.827  24.318  24.458  1.00  0.00     0.029 C 
ATOM     11  C   UNL A   1      35.222  23.986  25.880  1.00  0.00     0.005 C 
BRANCH   8  12
ATOM     12  N   UNL A   1      33.668  22.628  23.220  1.00  0.00    -0.346 N 
ATOM     13  C   UNL A   1      33.275  23.555  22.296  1.00  0.00     0.251 C 
ATOM     14  O   UNL A   1      33.346  23.363  21.092  1.00  0.00    -0.269 OA
ATOM     15  H   UNL A   1      33.940  21.713  22.978  1.00  0.00     0.164 HD
BRANCH  13  16
ATOM     16  C   UNL A   1      32.547  24.725  22.911  1.00  0.00     0.039 A 
ATOM     17  C   UNL A   1      30.671  29.397  23.425  1.00  0.00     0.044 C 
ATOM     18  C   UNL A   1      31.055  28.041  22.899  1.00  0.00    -0.051 A 
ATOM     19  C   UNL A   1      32.804  27.826  22.513  1.00  0.00     0.004 A 
ATOM     20  C   UNL A   1      29.979  26.638  23.236  1.00  0.00     0.004 A 
ATOM     21  C   UNL A   1      33.536  26.193  22.516  1.00  0.00     0.014 A 
ATOM     22  C   UNL A   1      30.704  24.952  23.291  1.00  0.00     0.014 A 
ENDBRANCH  13  16
ENDBRANCH   8  12
ENDBRANCH   7   8
ENDBRANCH   4   7
ENDBRANCH   2   3
ENDBRANCH   1   2
BRANCH   1  23
ATOM     23  C   UNL A   1      33.947  28.471  25.872  1.00  0.00     0.023 C 
BRANCH  23  24
ATOM     24  C   UNL A   1      33.286  29.583  26.646  1.00  0.00     0.116 C 
BRANCH  24  25
ATOM     25  N   UNL A   1      34.103  30.774  26.801  1.00  0.00    -0.352 N 
ATOM     26  C   UNL A   1      34.647  31.108  28.038  1.00  0.00     0.251 C 
ATOM     27  H   UNL A   1      34.274  31.352  26.023  1.00  0.00     0.163 HD
ATOM     28  O   UNL A   1      34.256  32.023  28.744  1.00  0.00    -0.269 OA
BRANCH  26  29
ATOM     29  C   UNL A   1      35.768  30.238  28.447  1.00  0.00     0.039 A 
ATOM     30  C   UNL A   1      35.840  29.711  29.739  1.00  0.00     0.014 A 
ATOM     31  C   UNL A   1      36.863  30.208  27.597  1.00  0.00     0.014 A 
ATOM     32  C   UNL A   1      37.086  29.361  30.244  1.00  0.00     0.010 A 
ATOM     33  C   UNL A   1      38.093  30.104  28.152  1.00  0.00     0.010 A 
ATOM     34  C   UNL A   1      38.195  29.689  29.476  1.00  0.00    -0.014 A 
BRANCH  34  35
ATOM     35  C   UNL A   1      39.569  29.410  29.796  1.00  0.00     0.031 A 
ATOM     36  C   UNL A   1      40.010  28.084  29.313  1.00  0.00     0.074 A 
ATOM     37  C   UNL A   1      40.302  30.487  30.166  1.00  0.00     0.049 A 
ATOM     38  N   UNL A   1      41.052  27.479  29.723  1.00  0.00    -0.248 NA
ATOM     39  C   UNL A   1      39.269  27.279  28.324  1.00  0.00     0.031 C 
ATOM     40  C   UNL A   1      41.740  30.709  30.205  1.00  0.00     0.029 A 
ATOM     41  N   UNL A   1      39.788  31.630  30.799  1.00  0.00    -0.354 N 
ATOM     42  C   UNL A   1      41.332  26.475  28.812  1.00  0.00     0.074 A 
ATOM     43  C   UNL A   1      40.124  26.285  28.063  1.00  0.00     0.031 C 
ATOM     44  C   UNL A   1      42.007  31.657  31.128  1.00  0.00     0.029 A 
ATOM     45  C   UNL A   1      40.744  32.005  31.763  1.00  0.00     0.049 A 
ATOM     46  H   UNL A   1      38.934  32.080  30.607  1.00  0.00     0.167 HD
ATOM     47  C   UNL A   1      42.630  26.080  28.710  1.00  0.00     0.037 A 
ATOM     48  C   UNL A   1      40.439  31.785  33.078  1.00  0.00     0.037 A 
ATOM     49  C   UNL A   1      43.406  26.867  29.666  1.00  0.00     0.049 A 
ATOM     50  C   UNL A   1      41.261  30.638  33.628  1.00  0.00     0.074 A 
ATOM     51  C   UNL A   1      44.101  28.059  29.539  1.00  0.00     0.029 A 
ATOM     52  N   UNL A   1      43.120  26.716  31.012  1.00  0.00    -0.354 N 
ATOM     53  N   UNL A   1      41.711  29.637  32.913  1.00  0.00    -0.248 NA
ATOM     54  C   UNL A   1      41.782  30.636  34.990  1.00  0.00     0.031 C 
ATOM     55  C   UNL A   1      44.192  28.641  30.836  1.00  0.00     0.029 A 
ATOM     56  C   UNL A   1      43.532  27.816  31.734  1.00  0.00     0.049 A 
ATOM     57  H   UNL A   1      42.680  25.926  31.403  1.00  0.00     0.167 HD
ATOM     58  C   UNL A   1      42.610  28.912  33.657  1.00  0.00     0.074 A 
ATOM     59  C   UNL A   1      42.624  29.590  34.941  1.00  0.00     0.031 C 
ATOM     60  C   UNL A   1      43.322  27.844  33.173  1.00  0.00     0.037 A 
BRANCH  47  61
ATOM     61  C   UNL A   1      43.274  25.208  27.659  1.00  0.00     0.058 A 
ATOM     62  C   UNL A   1      43.799  23.951  28.042  1.00  0.00     0.135 A 
ATOM     63  C   UNL A   1      43.392  25.499  26.284  1.00  0.00     0.135 A 
ATOM     64  F   UNL A   1      43.762  23.530  29.314  1.00  0.00    -0.206 F 
ATOM     65  C   UNL A   1      44.389  23.061  27.152  1.00  0.00     0.059 A 
ATOM     66  C   UNL A   1      44.001  24.623  25.369  1.00  0.00     0.059 A 
ATOM     67  F   UNL A   1      42.893  26.624  25.759  1.00  0.00    -0.206 F 
ATOM     68  C   UNL A   1      44.489  23.401  25.814  1.00  0.00     0.060 A 
BRANCH  68  69
ATOM     69  S   UNL A   1      45.235  22.200  24.698  1.00  0.00     0.124 S 
ATOM     70  O   UNL A   1      44.124  21.284  24.451  1.00  0.00    -0.237 OA
ATOM     71  O   UNL A   1      45.629  23.035  23.569  1.00  0.00    -0.237 OA
ATOM     72  O   UNL A   1      46.336  21.644  25.479  1.00  0.00    -0.744 OA
ENDBRANCH  68  69
ENDBRANCH  47  61
BRANCH  48  73
ATOM     73  C   UNL A   1      39.002  32.127  33.351  1.00  0.00     0.058 A 
ATOM     74  C   UNL A   1      38.696  33.508  33.420  1.00  0.00     0.135 A 
ATOM     75  C   UNL A   1      37.952  31.265  33.002  1.00  0.00     0.135 A 
ATOM     76  F   UNL A   1      39.649  34.385  33.777  1.00  0.00    -0.206 F 
ATOM     77  C   UNL A   1      37.490  34.025  32.952  1.00  0.00     0.059 A 
ATOM     78  C   UNL A   1      36.719  31.764  32.562  1.00  0.00     0.059 A 
ATOM     79  F   UNL A   1      38.159  29.942  32.930  1.00  0.00    -0.206 F 
ATOM     80  C   UNL A   1      36.530  33.145  32.463  1.00  0.00     0.060 A 
BRANCH  80  81
ATOM     81  S   UNL A   1      35.112  33.841  31.580  1.00  0.00     0.124 S 
ATOM     82  O   UNL A   1      34.146  32.752  31.666  1.00  0.00    -0.237 OA
ATOM     83  O   UNL A   1      34.810  35.032  32.380  1.00  0.00    -0.237 OA
ATOM     84  O   UNL A   1      35.644  34.110  30.251  1.00  0.00    -0.744 OA
ENDBRANCH  80  81
ENDBRANCH  48  73
BRANCH  60  85
ATOM     85  C   UNL A   1      43.959  26.741  34.009  1.00  0.00     0.058 A 
ATOM     86  C   UNL A   1      45.342  26.583  34.183  1.00  0.00     0.135 A 
ATOM     87  C   UNL A   1      43.164  25.866  34.807  1.00  0.00     0.135 A 
ATOM     88  F   UNL A   1      46.233  27.426  33.649  1.00  0.00    -0.206 F 
ATOM     89  C   UNL A   1      45.890  25.573  34.970  1.00  0.00     0.059 A 
ATOM     90  C   UNL A   1      43.692  24.931  35.688  1.00  0.00     0.059 A 
ATOM     91  F   UNL A   1      41.825  25.882  34.788  1.00  0.00    -0.206 F 
ATOM     92  C   UNL A   1      45.059  24.756  35.723  1.00  0.00     0.060 A 
BRANCH  92  93
ATOM     93  S   UNL A   1      45.791  23.485  36.753  1.00  0.00     0.124 S 
ATOM     94  O   UNL A   1      45.310  23.878  38.074  1.00  0.00    -0.237 OA
ATOM     95  O   UNL A   1      45.205  22.268  36.201  1.00  0.00    -0.237 OA
ATOM     96  O   UNL A   1      47.224  23.645  36.528  1.00  0.00    -0.744 OA
ENDBRANCH  92  93
ENDBRANCH  60  85
ENDBRANCH  34  35
ENDBRANCH  26  29
ENDBRANCH  24  25
ENDBRANCH  23  24
ENDBRANCH   1  23
TORSDOF 17
ENDMDL
MODEL 3
REMARK VINA RESULT:     -14.5      5.056     11.466
REMARK SMILES Cc1ccc(C(=O)NC2(CC(=O)NCCCCNC(=O)c3ccc(-c4c5nc(c(-c6c(F)cc(S(=O)(=O)[O-])cc6F)c6ccc([nH]6)c(-c6c(F)cc(S(=O)(=O)[O-])cc6F)c6nc(c(-c7c(F)cc(S(=O)(=O)[O-])cc7F)c7ccc4[nH]7)C=C6)C=C5)cc3)CCC2)cc1
REMARK SMILES IDX 15 1 14 2 13 3 11 4 12 5 10 7 9 8 87 9 89 10 88 11 8 12 6 13
REMARK SMILES IDX 7 14 5 16 1 17 2 18 3 19 91 20 4 21 90 22 16 23 17 24 18 25
REMARK SMILES IDX 19 26 20 28 21 29 22 30 86 31 23 32 85 33 24 34 25 35 26 36
REMARK SMILES IDX 79 37 27 38 84 39 78 40 80 41 28 42 83 43 77 44 76 45 29 47
REMARK SMILES IDX 63 48 42 49 62 50 43 51 46 52 61 53 81 54 44 55 45 56 60 58
REMARK SMILES IDX 82 59 47 60 30 61 31 62 40 63 32 64 33 65 39 66 41 67 34 68
REMARK SMILES IDX 35 69 36 70 37 71 38 72 64 73 65 74 74 75 66 76 67 77 73 78
REMARK SMILES IDX 75 79 68 80 69 81 70 82 71 83 72 84 48 85 49 86 58 87 50 88
REMARK SMILES IDX 51 89 57 90 59 91 52 92 53 93 54 94 55 95 56 96
REMARK H PARENT 13 6 8 15 18 27 80 46 46 57
REMARK Flexibility Score: inf
ROOT
ATOM      1  C   UNL A   1      36.673  22.228  24.724  1.00  0.00     0.023 C 
ENDROOT
BRANCH   1   2
ATOM      2  C   UNL A   1      36.294  20.892  25.366  1.00  0.00     0.116 C 
BRANCH   2   3
ATOM      3  N   UNL A   1      34.877  20.187  24.714  1.00  0.00    -0.356 N 
ATOM      4  C   UNL A   1      33.061  20.727  24.191  1.00  0.00     0.222 C 
ATOM      5  O   UNL A   1      32.217  20.187  23.409  1.00  0.00    -0.275 OA
ATOM      6  H   UNL A   1      35.012  19.226  24.550  1.00  0.00     0.163 HD
BRANCH   4   7
ATOM      7  C   UNL A   1      32.171  22.249  24.895  1.00  0.00     0.128 C 
BRANCH   7   8
ATOM      8  C   UNL A   1      32.460  22.919  26.409  1.00  0.00     0.049 C 
ATOM      9  C   UNL A   1      33.682  23.894  26.552  1.00  0.00     0.029 C 
ATOM     10  C   UNL A   1      33.061  22.370  27.893  1.00  0.00     0.029 C 
ATOM     11  C   UNL A   1      34.424  22.840  27.432  1.00  0.00     0.005 C 
BRANCH   8  12
ATOM     12  N   UNL A   1      31.149  23.361  26.849  1.00  0.00    -0.346 N 
ATOM     13  C   UNL A   1      30.739  24.539  26.291  1.00  0.00     0.251 C 
ATOM     14  O   UNL A   1      29.618  24.996  26.453  1.00  0.00    -0.269 OA
ATOM     15  H   UNL A   1      30.602  22.856  27.495  1.00  0.00     0.164 HD
BRANCH  13  16
ATOM     16  C   UNL A   1      31.869  25.311  25.655  1.00  0.00     0.039 A 
ATOM     17  C   UNL A   1      34.269  28.467  22.510  1.00  0.00     0.044 C 
ATOM     18  C   UNL A   1      33.298  27.850  23.479  1.00  0.00    -0.051 A 
ATOM     19  C   UNL A   1      32.239  26.557  22.800  1.00  0.00     0.004 A 
ATOM     20  C   UNL A   1      33.631  27.973  25.244  1.00  0.00     0.004 A 
ATOM     21  C   UNL A   1      31.534  25.310  23.872  1.00  0.00     0.014 A 
ATOM     22  C   UNL A   1      32.961  26.685  26.369  1.00  0.00     0.014 A 
ENDBRANCH  13  16
ENDBRANCH   8  12
ENDBRANCH   7   8
ENDBRANCH   4   7
ENDBRANCH   2   3
ENDBRANCH   1   2
BRANCH   1  23
ATOM     23  C   UNL A   1      37.985  22.809  25.221  1.00  0.00     0.023 C 
BRANCH  23  24
ATOM     24  C   UNL A   1      37.782  24.002  26.121  1.00  0.00     0.116 C 
BRANCH  24  25
ATOM     25  N   UNL A   1      38.363  23.861  27.445  1.00  0.00    -0.352 N 
ATOM     26  C   UNL A   1      39.548  24.512  27.775  1.00  0.00     0.251 C 
ATOM     27  H   UNL A   1      37.914  23.297  28.117  1.00  0.00     0.163 HD
ATOM     28  O   UNL A   1      40.629  23.961  27.905  1.00  0.00    -0.269 OA
BRANCH  26  29
ATOM     29  C   UNL A   1      39.393  25.969  27.955  1.00  0.00     0.039 A 
ATOM     30  C   UNL A   1      39.905  26.872  27.020  1.00  0.00     0.014 A 
ATOM     31  C   UNL A   1      38.980  26.391  29.210  1.00  0.00     0.014 A 
ATOM     32  C   UNL A   1      40.208  28.161  27.440  1.00  0.00     0.010 A 
ATOM     33  C   UNL A   1      39.491  27.550  29.688  1.00  0.00     0.010 A 
ATOM     34  C   UNL A   1      40.109  28.424  28.801  1.00  0.00    -0.014 A 
BRANCH  34  35
ATOM     35  C   UNL A   1      40.359  29.683  29.448  1.00  0.00     0.031 A 
ATOM     36  C   UNL A   1      39.231  30.628  29.314  1.00  0.00     0.074 A 
ATOM     37  C   UNL A   1      41.392  29.682  30.324  1.00  0.00     0.049 A 
ATOM     38  N   UNL A   1      39.312  31.882  29.518  1.00  0.00    -0.248 NA
ATOM     39  C   UNL A   1      37.875  30.237  28.884  1.00  0.00     0.031 C 
ATOM     40  C   UNL A   1      41.732  30.583  31.416  1.00  0.00     0.029 A 
ATOM     41  N   UNL A   1      42.519  28.850  30.238  1.00  0.00    -0.354 N 
ATOM     42  C   UNL A   1      38.023  32.364  29.654  1.00  0.00     0.074 A 
ATOM     43  C   UNL A   1      37.171  31.354  29.097  1.00  0.00     0.031 C 
ATOM     44  C   UNL A   1      43.064  30.527  31.625  1.00  0.00     0.029 A 
ATOM     45  C   UNL A   1      43.620  29.646  30.609  1.00  0.00     0.049 A 
ATOM     46  H   UNL A   1      42.536  27.902  29.974  1.00  0.00     0.167 HD
ATOM     47  C   UNL A   1      37.860  33.489  30.403  1.00  0.00     0.037 A 
ATOM     48  C   UNL A   1      44.485  30.033  29.620  1.00  0.00     0.037 A 
ATOM     49  C   UNL A   1      39.183  33.905  30.865  1.00  0.00     0.049 A 
ATOM     50  C   UNL A   1      44.322  31.509  29.323  1.00  0.00     0.074 A 
ATOM     51  C   UNL A   1      39.890  33.629  32.024  1.00  0.00     0.029 A 
ATOM     52  N   UNL A   1      40.116  34.274  29.910  1.00  0.00    -0.354 N 
ATOM     53  N   UNL A   1      43.208  32.180  29.479  1.00  0.00    -0.248 NA
ATOM     54  C   UNL A   1      45.455  32.367  28.997  1.00  0.00     0.031 C 
ATOM     55  C   UNL A   1      41.274  33.805  31.734  1.00  0.00     0.029 A 
ATOM     56  C   UNL A   1      41.400  34.157  30.398  1.00  0.00     0.049 A 
ATOM     57  H   UNL A   1      39.891  34.580  29.002  1.00  0.00     0.167 HD
ATOM     58  C   UNL A   1      43.464  33.524  29.354  1.00  0.00     0.074 A 
ATOM     59  C   UNL A   1      44.886  33.581  29.066  1.00  0.00     0.031 C 
ATOM     60  C   UNL A   1      42.523  34.505  29.542  1.00  0.00     0.037 A 
BRANCH  47  61
ATOM     61  C   UNL A   1      36.585  34.100  30.930  1.00  0.00     0.058 A 
ATOM     62  C   UNL A   1      35.587  34.499  30.009  1.00  0.00     0.135 A 
ATOM     63  C   UNL A   1      36.247  34.299  32.284  1.00  0.00     0.135 A 
ATOM     64  F   UNL A   1      35.759  34.373  28.685  1.00  0.00    -0.206 F 
ATOM     65  C   UNL A   1      34.367  35.048  30.387  1.00  0.00     0.059 A 
ATOM     66  C   UNL A   1      35.028  34.869  32.690  1.00  0.00     0.059 A 
ATOM     67  F   UNL A   1      37.063  33.920  33.275  1.00  0.00    -0.206 F 
ATOM     68  C   UNL A   1      34.090  35.232  31.731  1.00  0.00     0.060 A 
BRANCH  68  69
ATOM     69  S   UNL A   1      32.484  35.919  32.169  1.00  0.00     0.124 S 
ATOM     70  O   UNL A   1      32.020  36.446  30.888  1.00  0.00    -0.237 OA
ATOM     71  O   UNL A   1      31.774  34.746  32.665  1.00  0.00    -0.237 OA
ATOM     72  O   UNL A   1      32.806  36.927  33.175  1.00  0.00    -0.744 OA
ENDBRANCH  68  69
ENDBRANCH  47  61
BRANCH  48  73
ATOM     73  C   UNL A   1      44.731  28.902  28.662  1.00  0.00     0.058 A 
ATOM     74  C   UNL A   1      44.154  29.043  27.376  1.00  0.00     0.135 A 
ATOM     75  C   UNL A   1      45.860  28.076  28.760  1.00  0.00     0.135 A 
ATOM     76  F   UNL A   1      43.053  29.798  27.219  1.00  0.00    -0.206 F 
ATOM     77  C   UNL A   1      44.786  28.581  26.225  1.00  0.00     0.059 A 
ATOM     78  C   UNL A   1      46.491  27.571  27.615  1.00  0.00     0.059 A 
ATOM     79  F   UNL A   1      46.454  27.881  29.946  1.00  0.00    -0.206 F 
ATOM     80  C   UNL A   1      45.992  27.900  26.352  1.00  0.00     0.060 A 
BRANCH  80  81
ATOM     81  S   UNL A   1      46.950  27.582  24.850  1.00  0.00     0.124 S 
ATOM     82  O   UNL A   1      46.650  28.765  24.051  1.00  0.00    -0.237 OA
ATOM     83  O   UNL A   1      48.317  27.492  25.373  1.00  0.00    -0.237 OA
ATOM     84  O   UNL A   1      46.396  26.329  24.357  1.00  0.00    -0.744 OA
ENDBRANCH  80  81
ENDBRANCH  48  73
BRANCH  60  85
ATOM     85  C   UNL A   1      42.590  35.925  28.995  1.00  0.00     0.058 A 
ATOM     86  C   UNL A   1      43.287  36.976  29.610  1.00  0.00     0.135 A 
ATOM     87  C   UNL A   1      42.056  36.249  27.712  1.00  0.00     0.135 A 
ATOM     88  F   UNL A   1      43.996  36.805  30.732  1.00  0.00    -0.206 F 
ATOM     89  C   UNL A   1      43.343  38.258  29.072  1.00  0.00     0.059 A 
ATOM     90  C   UNL A   1      42.203  37.489  27.105  1.00  0.00     0.059 A 
ATOM     91  F   UNL A   1      41.376  35.369  26.967  1.00  0.00    -0.206 F 
ATOM     92  C   UNL A   1      42.803  38.505  27.817  1.00  0.00     0.060 A 
BRANCH  92  93
ATOM     93  S   UNL A   1      42.917  40.157  27.133  1.00  0.00     0.124 S 
ATOM     94  O   UNL A   1      41.582  40.322  26.566  1.00  0.00    -0.237 OA
ATOM     95  O   UNL A   1      43.207  40.960  28.317  1.00  0.00    -0.237 OA
ATOM     96  O   UNL A   1      44.006  40.054  26.168  1.00  0.00    -0.744 OA
ENDBRANCH  92  93
ENDBRANCH  60  85
ENDBRANCH  34  35
ENDBRANCH  26  29
ENDBRANCH  24  25
ENDBRANCH  23  24
ENDBRANCH   1  23
TORSDOF 17
ENDMDL
