MODEL 1
REMARK VINA RESULT:     -12.6      0.000      0.000
REMARK SMILES O=C(NCCCCNC(=O)c1nc2c(F)cccc2s1)c1ccc(-c2c3nc(c(-c4c(F)cc(S(=O)(=O)[O-])cc4F)c4ccc([nH]4)c(-c4c(F)cc(S(=O)(=O)[O-])cc4F)c4nc(c(-c5c(F)cc(S(=O)(=O)[O-])cc5F)c5ccc2[nH]5)C=C4)C=C3)cc1
REMARK SMILES IDX 4 1 3 2 1 3 2 4 21 6 22 7 86 8 23 9 85 10 24 11 25 12 26 13
REMARK SMILES IDX 79 14 27 15 84 16 78 17 80 18 28 19 83 20 77 21 76 22 29 24
REMARK SMILES IDX 63 25 42 26 62 27 43 28 46 29 61 30 81 31 44 32 45 33 60 35
REMARK SMILES IDX 82 36 47 37 30 38 31 39 40 40 32 41 33 42 39 43 41 44 34 45
REMARK SMILES IDX 35 46 36 47 37 48 38 49 64 50 65 51 74 52 66 53 67 54 73 55
REMARK SMILES IDX 75 56 68 57 69 58 70 59 71 60 72 61 48 62 49 63 58 64 50 65
REMARK SMILES IDX 51 66 57 67 59 68 52 69 53 70 54 71 55 72 56 73 5 74 6 75
REMARK SMILES IDX 7 76 8 77 9 78 10 80 11 81 12 82 20 83 13 84 19 85 14 86
REMARK SMILES IDX 18 87 15 88 16 89 17 90
REMARK H PARENT 3 5 80 23 46 34 8 79
REMARK Flexibility Score: inf
ROOT
ATOM      1  C   UNL A   1      37.725  22.192  25.884  1.00  0.00     0.116 C 
ENDROOT
BRANCH   1   2
ATOM      2  N   UNL A   1      39.155  22.023  25.714  1.00  0.00    -0.352 N 
ATOM      3  O   UNL A   1      41.349  22.090  26.044  1.00  0.00    -0.269 OA
ATOM      4  C   UNL A   1      40.255  22.604  26.292  1.00  0.00     0.251 C 
ATOM      5  H   UNL A   1      39.387  21.346  25.037  1.00  0.00     0.163 HD
BRANCH   4   6
ATOM      6  C   UNL A   1      40.211  23.854  27.092  1.00  0.00     0.039 A 
ATOM      7  C   UNL A   1      39.226  24.834  26.993  1.00  0.00     0.014 A 
ATOM      8  C   UNL A   1      41.291  24.063  27.970  1.00  0.00     0.014 A 
ATOM      9  C   UNL A   1      39.399  26.062  27.618  1.00  0.00     0.010 A 
ATOM     10  C   UNL A   1      41.453  25.277  28.627  1.00  0.00     0.010 A 
ATOM     11  C   UNL A   1      40.537  26.296  28.396  1.00  0.00    -0.014 A 
BRANCH  11  12
ATOM     12  C   UNL A   1      40.670  27.607  29.019  1.00  0.00     0.031 A 
ATOM     13  C   UNL A   1      41.781  28.448  28.483  1.00  0.00     0.074 A 
ATOM     14  C   UNL A   1      39.825  28.069  29.961  1.00  0.00     0.049 A 
ATOM     15  N   UNL A   1      42.848  28.849  29.093  1.00  0.00    -0.248 NA
ATOM     16  C   UNL A   1      41.750  28.784  27.052  1.00  0.00     0.031 C 
ATOM     17  C   UNL A   1      38.556  27.503  30.423  1.00  0.00     0.029 A 
ATOM     18  N   UNL A   1      39.920  29.224  30.675  1.00  0.00    -0.354 N 
ATOM     19  C   UNL A   1      43.554  29.630  28.177  1.00  0.00     0.074 A 
ATOM     20  C   UNL A   1      42.893  29.456  26.908  1.00  0.00     0.031 C 
ATOM     21  C   UNL A   1      37.906  28.418  31.182  1.00  0.00     0.029 A 
ATOM     22  C   UNL A   1      38.774  29.569  31.377  1.00  0.00     0.049 A 
ATOM     23  H   UNL A   1      40.737  29.772  30.690  1.00  0.00     0.167 HD
ATOM     24  C   UNL A   1      44.546  30.484  28.557  1.00  0.00     0.037 A 
ATOM     25  C   UNL A   1      38.551  30.738  32.030  1.00  0.00     0.037 A 
ATOM     26  C   UNL A   1      45.019  30.187  29.884  1.00  0.00     0.049 A 
ATOM     27  C   UNL A   1      39.883  31.330  32.324  1.00  0.00     0.074 A 
ATOM     28  C   UNL A   1      45.687  29.125  30.459  1.00  0.00     0.029 A 
ATOM     29  N   UNL A   1      44.509  30.913  30.932  1.00  0.00    -0.354 N 
ATOM     30  N   UNL A   1      40.746  30.798  33.146  1.00  0.00    -0.248 NA
ATOM     31  C   UNL A   1      40.440  32.261  31.355  1.00  0.00     0.031 C 
ATOM     32  C   UNL A   1      45.123  28.996  31.763  1.00  0.00     0.029 A 
ATOM     33  C   UNL A   1      44.183  30.017  31.920  1.00  0.00     0.049 A 
ATOM     34  H   UNL A   1      44.398  31.891  30.969  1.00  0.00     0.167 HD
ATOM     35  C   UNL A   1      41.982  30.992  32.545  1.00  0.00     0.074 A 
ATOM     36  C   UNL A   1      41.736  31.963  31.481  1.00  0.00     0.031 C 
ATOM     37  C   UNL A   1      43.034  30.153  32.788  1.00  0.00     0.037 A 
BRANCH  24  38
ATOM     38  C   UNL A   1      44.910  31.761  27.839  1.00  0.00     0.058 A 
ATOM     39  C   UNL A   1      46.137  31.859  27.150  1.00  0.00     0.135 A 
ATOM     40  C   UNL A   1      44.222  32.980  28.030  1.00  0.00     0.135 A 
ATOM     41  F   UNL A   1      46.878  30.764  26.912  1.00  0.00    -0.206 F 
ATOM     42  C   UNL A   1      46.676  33.083  26.749  1.00  0.00     0.059 A 
ATOM     43  C   UNL A   1      44.716  34.205  27.593  1.00  0.00     0.059 A 
ATOM     44  F   UNL A   1      43.085  33.049  28.735  1.00  0.00    -0.206 F 
ATOM     45  C   UNL A   1      45.963  34.254  26.992  1.00  0.00     0.060 A 
BRANCH  45  46
ATOM     46  S   UNL A   1      46.714  35.844  26.594  1.00  0.00     0.124 S 
ATOM     47  O   UNL A   1      47.628  36.025  27.716  1.00  0.00    -0.237 OA
ATOM     48  O   UNL A   1      47.335  35.569  25.302  1.00  0.00    -0.237 OA
ATOM     49  O   UNL A   1      45.576  36.755  26.554  1.00  0.00    -0.744 OA
ENDBRANCH  45  46
ENDBRANCH  24  38
BRANCH  25  50
ATOM     50  C   UNL A   1      37.302  31.549  32.023  1.00  0.00     0.058 A 
ATOM     51  C   UNL A   1      36.725  32.016  33.219  1.00  0.00     0.135 A 
ATOM     52  C   UNL A   1      36.822  32.134  30.834  1.00  0.00     0.135 A 
ATOM     53  F   UNL A   1      37.139  31.534  34.400  1.00  0.00    -0.206 F 
ATOM     54  C   UNL A   1      35.764  33.035  33.236  1.00  0.00     0.059 A 
ATOM     55  C   UNL A   1      35.863  33.145  30.826  1.00  0.00     0.059 A 
ATOM     56  F   UNL A   1      37.343  31.803  29.642  1.00  0.00    -0.206 F 
ATOM     57  C   UNL A   1      35.356  33.610  32.033  1.00  0.00     0.060 A 
BRANCH  57  58
ATOM     58  S   UNL A   1      34.251  35.042  32.060  1.00  0.00     0.124 S 
ATOM     59  O   UNL A   1      35.012  35.998  32.857  1.00  0.00    -0.237 OA
ATOM     60  O   UNL A   1      34.119  35.356  30.641  1.00  0.00    -0.237 OA
ATOM     61  O   UNL A   1      33.041  34.525  32.696  1.00  0.00    -0.744 OA
ENDBRANCH  57  58
ENDBRANCH  25  50
BRANCH  37  62
ATOM     62  C   UNL A   1      42.883  29.137  33.896  1.00  0.00     0.058 A 
ATOM     63  C   UNL A   1      43.101  29.421  35.257  1.00  0.00     0.135 A 
ATOM     64  C   UNL A   1      42.371  27.869  33.586  1.00  0.00     0.135 A 
ATOM     65  F   UNL A   1      43.477  30.642  35.654  1.00  0.00    -0.206 F 
ATOM     66  C   UNL A   1      42.875  28.471  36.256  1.00  0.00     0.059 A 
ATOM     67  C   UNL A   1      42.107  26.917  34.570  1.00  0.00     0.059 A 
ATOM     68  F   UNL A   1      42.073  27.558  32.315  1.00  0.00    -0.206 F 
ATOM     69  C   UNL A   1      42.379  27.219  35.902  1.00  0.00     0.060 A 
BRANCH  69  70
ATOM     70  S   UNL A   1      42.037  26.014  37.203  1.00  0.00     0.124 S 
ATOM     71  O   UNL A   1      42.971  26.417  38.249  1.00  0.00    -0.237 OA
ATOM     72  O   UNL A   1      40.625  26.251  37.489  1.00  0.00    -0.237 OA
ATOM     73  O   UNL A   1      42.329  24.732  36.566  1.00  0.00    -0.744 OA
ENDBRANCH  69  70
ENDBRANCH  37  62
ENDBRANCH  11  12
ENDBRANCH   4   6
ENDBRANCH   1   2
BRANCH   1  74
ATOM     74  C   UNL A   1      37.002  22.861  24.716  1.00  0.00     0.023 C 
BRANCH  74  75
ATOM     75  C   UNL A   1      36.161  24.085  25.085  1.00  0.00     0.023 C 
BRANCH  75  76
ATOM     76  C   UNL A   1      34.651  23.870  25.126  1.00  0.00     0.116 C 
BRANCH  76  77
ATOM     77  N   UNL A   1      34.155  23.445  26.425  1.00  0.00    -0.350 N 
ATOM     78  C   UNL A   1      33.634  22.210  26.783  1.00  0.00     0.280 C 
ATOM     79  H   UNL A   1      34.196  24.118  27.142  1.00  0.00     0.163 HD
ATOM     80  O   UNL A   1      33.246  22.072  27.941  1.00  0.00    -0.267 OA
BRANCH  78  81
ATOM     81  C   UNL A   1      33.568  21.156  25.778  1.00  0.00     0.182 A 
ATOM     82  N   UNL A   1      34.516  20.258  25.610  1.00  0.00    -0.228 NA
ATOM     83  S   UNL A   1      32.237  21.041  24.701  1.00  0.00    -0.109 S 
ATOM     84  C   UNL A   1      34.094  19.295  24.702  1.00  0.00     0.118 A 
ATOM     85  C   UNL A   1      32.833  19.526  24.144  1.00  0.00     0.058 A 
ATOM     86  C   UNL A   1      34.778  18.123  24.318  1.00  0.00     0.150 A 
ATOM     87  C   UNL A   1      32.222  18.612  23.268  1.00  0.00     0.021 A 
ATOM     88  F   UNL A   1      36.003  17.857  24.795  1.00  0.00    -0.205 F 
ATOM     89  C   UNL A   1      34.186  17.205  23.448  1.00  0.00     0.041 A 
ATOM     90  C   UNL A   1      32.914  17.442  22.940  1.00  0.00     0.005 A 
ENDBRANCH  78  81
ENDBRANCH  76  77
ENDBRANCH  75  76
ENDBRANCH  74  75
ENDBRANCH   1  74
TORSDOF 14
ENDMDL
MODEL 2
REMARK VINA RESULT:     -12.6      3.343      5.307
REMARK SMILES O=C(NCCCCNC(=O)c1nc2c(F)cccc2s1)c1ccc(-c2c3nc(c(-c4c(F)cc(S(=O)(=O)[O-])cc4F)c4ccc([nH]4)c(-c4c(F)cc(S(=O)(=O)[O-])cc4F)c4nc(c(-c5c(F)cc(S(=O)(=O)[O-])cc5F)c5ccc2[nH]5)C=C4)C=C3)cc1
REMARK SMILES IDX 4 1 3 2 1 3 2 4 21 6 22 7 86 8 23 9 85 10 24 11 25 12 26 13
REMARK SMILES IDX 79 14 27 15 84 16 78 17 80 18 28 19 83 20 77 21 76 22 29 24
REMARK SMILES IDX 63 25 42 26 62 27 43 28 46 29 61 30 81 31 44 32 45 33 60 35
REMARK SMILES IDX 82 36 47 37 30 38 31 39 40 40 32 41 33 42 39 43 41 44 34 45
REMARK SMILES IDX 35 46 36 47 37 48 38 49 64 50 65 51 74 52 66 53 67 54 73 55
REMARK SMILES IDX 75 56 68 57 69 58 70 59 71 60 72 61 48 62 49 63 58 64 50 65
REMARK SMILES IDX 51 66 57 67 59 68 52 69 53 70 54 71 55 72 56 73 5 74 6 75
REMARK SMILES IDX 7 76 8 77 9 78 10 80 11 81 12 82 20 83 13 84 19 85 14 86
REMARK SMILES IDX 18 87 15 88 16 89 17 90
REMARK H PARENT 3 5 80 23 46 34 8 79
REMARK Flexibility Score: inf
ROOT
ATOM      1  C   UNL A   1      41.984  20.972  27.176  1.00  0.00     0.116 C 
ENDROOT
BRANCH   1   2
ATOM      2  N   UNL A   1      40.600  21.195  26.807  1.00  0.00    -0.352 N 
ATOM      3  O   UNL A   1      38.715  22.160  26.142  1.00  0.00    -0.269 OA
ATOM      4  C   UNL A   1      39.828  22.317  26.651  1.00  0.00     0.251 C 
ATOM      5  H   UNL A   1      40.108  20.360  26.630  1.00  0.00     0.163 HD
BRANCH   4   6
ATOM      6  C   UNL A   1      40.206  23.664  27.151  1.00  0.00     0.039 A 
ATOM      7  C   UNL A   1      41.195  23.916  28.099  1.00  0.00     0.014 A 
ATOM      8  C   UNL A   1      39.453  24.742  26.651  1.00  0.00     0.014 A 
ATOM      9  C   UNL A   1      41.313  25.180  28.662  1.00  0.00     0.010 A 
ATOM     10  C   UNL A   1      39.590  26.017  27.185  1.00  0.00     0.010 A 
ATOM     11  C   UNL A   1      40.478  26.216  28.235  1.00  0.00    -0.014 A 
BRANCH  11  12
ATOM     12  C   UNL A   1      40.640  27.518  28.870  1.00  0.00     0.031 A 
ATOM     13  C   UNL A   1      41.757  28.348  28.330  1.00  0.00     0.074 A 
ATOM     14  C   UNL A   1      39.815  27.984  29.829  1.00  0.00     0.049 A 
ATOM     15  N   UNL A   1      42.839  28.725  28.930  1.00  0.00    -0.248 NA
ATOM     16  C   UNL A   1      41.714  28.700  26.903  1.00  0.00     0.031 C 
ATOM     17  C   UNL A   1      38.543  27.433  30.301  1.00  0.00     0.029 A 
ATOM     18  N   UNL A   1      39.937  29.129  30.554  1.00  0.00    -0.354 N 
ATOM     19  C   UNL A   1      43.545  29.504  28.013  1.00  0.00     0.074 A 
ATOM     20  C   UNL A   1      42.866  29.355  26.751  1.00  0.00     0.031 C 
ATOM     21  C   UNL A   1      37.918  28.350  31.079  1.00  0.00     0.029 A 
ATOM     22  C   UNL A   1      38.806  29.484  31.275  1.00  0.00     0.049 A 
ATOM     23  H   UNL A   1      40.763  29.664  30.565  1.00  0.00     0.167 HD
ATOM     24  C   UNL A   1      44.556  30.337  28.390  1.00  0.00     0.037 A 
ATOM     25  C   UNL A   1      38.611  30.649  31.943  1.00  0.00     0.037 A 
ATOM     26  C   UNL A   1      45.041  30.019  29.707  1.00  0.00     0.049 A 
ATOM     27  C   UNL A   1      39.956  31.217  32.226  1.00  0.00     0.074 A 
ATOM     28  C   UNL A   1      45.699  28.939  30.262  1.00  0.00     0.029 A 
ATOM     29  N   UNL A   1      44.556  30.740  30.770  1.00  0.00    -0.354 N 
ATOM     30  N   UNL A   1      40.821  30.662  33.031  1.00  0.00    -0.248 NA
ATOM     31  C   UNL A   1      40.515  32.149  31.260  1.00  0.00     0.031 C 
ATOM     32  C   UNL A   1      45.150  28.805  31.572  1.00  0.00     0.029 A 
ATOM     33  C   UNL A   1      44.229  29.839  31.752  1.00  0.00     0.049 A 
ATOM     34  H   UNL A   1      44.462  31.720  30.818  1.00  0.00     0.167 HD
ATOM     35  C   UNL A   1      42.052  30.843  32.417  1.00  0.00     0.074 A 
ATOM     36  C   UNL A   1      41.808  31.829  31.366  1.00  0.00     0.031 C 
ATOM     37  C   UNL A   1      43.093  29.984  32.636  1.00  0.00     0.037 A 
BRANCH  24  38
ATOM     38  C   UNL A   1      44.931  31.617  27.681  1.00  0.00     0.058 A 
ATOM     39  C   UNL A   1      46.136  31.692  26.950  1.00  0.00     0.135 A 
ATOM     40  C   UNL A   1      44.287  32.851  27.918  1.00  0.00     0.135 A 
ATOM     41  F   UNL A   1      46.834  30.580  26.666  1.00  0.00    -0.206 F 
ATOM     42  C   UNL A   1      46.695  32.907  26.550  1.00  0.00     0.059 A 
ATOM     43  C   UNL A   1      44.801  34.070  27.485  1.00  0.00     0.059 A 
ATOM     44  F   UNL A   1      43.179  32.940  28.665  1.00  0.00    -0.206 F 
ATOM     45  C   UNL A   1      46.026  34.093  26.840  1.00  0.00     0.060 A 
BRANCH  45  46
ATOM     46  S   UNL A   1      46.809  35.668  26.442  1.00  0.00     0.124 S 
ATOM     47  O   UNL A   1      47.546  35.330  25.229  1.00  0.00    -0.237 OA
ATOM     48  O   UNL A   1      45.655  36.543  26.265  1.00  0.00    -0.237 OA
ATOM     49  O   UNL A   1      47.626  35.946  27.618  1.00  0.00    -0.744 OA
ENDBRANCH  45  46
ENDBRANCH  24  38
BRANCH  25  50
ATOM     50  C   UNL A   1      37.376  31.480  31.961  1.00  0.00     0.058 A 
ATOM     51  C   UNL A   1      36.785  31.889  33.172  1.00  0.00     0.135 A 
ATOM     52  C   UNL A   1      36.925  32.139  30.799  1.00  0.00     0.135 A 
ATOM     53  F   UNL A   1      37.171  31.334  34.331  1.00  0.00    -0.206 F 
ATOM     54  C   UNL A   1      35.840  32.921  33.231  1.00  0.00     0.059 A 
ATOM     55  C   UNL A   1      35.982  33.165  30.833  1.00  0.00     0.059 A 
ATOM     56  F   UNL A   1      37.462  31.867  29.599  1.00  0.00    -0.206 F 
ATOM     57  C   UNL A   1      35.463  33.570  32.055  1.00  0.00     0.060 A 
BRANCH  57  58
ATOM     58  S   UNL A   1      34.380  35.017  32.144  1.00  0.00     0.124 S 
ATOM     59  O   UNL A   1      34.215  35.359  30.735  1.00  0.00    -0.237 OA
ATOM     60  O   UNL A   1      33.201  34.477  32.812  1.00  0.00    -0.237 OA
ATOM     61  O   UNL A   1      35.155  35.973  32.930  1.00  0.00    -0.744 OA
ENDBRANCH  57  58
ENDBRANCH  25  50
BRANCH  37  62
ATOM     62  C   UNL A   1      42.941  28.958  33.735  1.00  0.00     0.058 A 
ATOM     63  C   UNL A   1      43.248  29.202  35.086  1.00  0.00     0.135 A 
ATOM     64  C   UNL A   1      42.335  27.730  33.434  1.00  0.00     0.135 A 
ATOM     65  F   UNL A   1      43.719  30.392  35.481  1.00  0.00    -0.206 F 
ATOM     66  C   UNL A   1      43.018  28.250  36.081  1.00  0.00     0.059 A 
ATOM     67  C   UNL A   1      42.067  26.776  34.415  1.00  0.00     0.059 A 
ATOM     68  F   UNL A   1      41.951  27.460  32.176  1.00  0.00    -0.206 F 
ATOM     69  C   UNL A   1      42.428  27.036  35.735  1.00  0.00     0.060 A 
BRANCH  69  70
ATOM     70  S   UNL A   1      42.083  25.830  37.034  1.00  0.00     0.124 S 
ATOM     71  O   UNL A   1      42.936  26.297  38.122  1.00  0.00    -0.237 OA
ATOM     72  O   UNL A   1      40.647  25.991  37.241  1.00  0.00    -0.237 OA
ATOM     73  O   UNL A   1      42.479  24.559  36.433  1.00  0.00    -0.744 OA
ENDBRANCH  69  70
ENDBRANCH  37  62
ENDBRANCH  11  12
ENDBRANCH   4   6
ENDBRANCH   1   2
BRANCH   1  74
ATOM     74  C   UNL A   1      42.328  19.544  27.591  1.00  0.00     0.023 C 
BRANCH  74  75
ATOM     75  C   UNL A   1      42.872  18.652  26.472  1.00  0.00     0.023 C 
BRANCH  75  76
ATOM     76  C   UNL A   1      43.321  19.371  25.204  1.00  0.00     0.116 C 
BRANCH  76  77
ATOM     77  N   UNL A   1      44.752  19.291  24.961  1.00  0.00    -0.350 N 
ATOM     78  C   UNL A   1      45.690  20.311  25.013  1.00  0.00     0.280 C 
ATOM     79  H   UNL A   1      45.100  18.399  24.730  1.00  0.00     0.163 HD
ATOM     80  O   UNL A   1      46.855  20.025  24.744  1.00  0.00    -0.267 OA
BRANCH  78  81
ATOM     81  C   UNL A   1      45.251  21.653  25.374  1.00  0.00     0.182 A 
ATOM     82  N   UNL A   1      45.319  22.131  26.599  1.00  0.00    -0.228 NA
ATOM     83  S   UNL A   1      44.567  22.706  24.204  1.00  0.00    -0.109 S 
ATOM     84  C   UNL A   1      44.988  23.480  26.596  1.00  0.00     0.118 A 
ATOM     85  C   UNL A   1      44.607  23.989  25.350  1.00  0.00     0.058 A 
ATOM     86  C   UNL A   1      45.024  24.373  27.687  1.00  0.00     0.150 A 
ATOM     87  C   UNL A   1      44.317  25.350  25.154  1.00  0.00     0.021 A 
ATOM     88  F   UNL A   1      45.352  23.942  28.914  1.00  0.00    -0.205 F 
ATOM     89  C   UNL A   1      44.736  25.728  27.510  1.00  0.00     0.041 A 
ATOM     90  C   UNL A   1      44.401  26.213  26.251  1.00  0.00     0.005 A 
ENDBRANCH  78  81
ENDBRANCH  76  77
ENDBRANCH  75  76
ENDBRANCH  74  75
ENDBRANCH   1  74
TORSDOF 14
ENDMDL
MODEL 3
REMARK VINA RESULT:     -12.4      4.708     11.589
REMARK SMILES O=C(NCCCCNC(=O)c1nc2c(F)cccc2s1)c1ccc(-c2c3nc(c(-c4c(F)cc(S(=O)(=O)[O-])cc4F)c4ccc([nH]4)c(-c4c(F)cc(S(=O)(=O)[O-])cc4F)c4nc(c(-c5c(F)cc(S(=O)(=O)[O-])cc5F)c5ccc2[nH]5)C=C4)C=C3)cc1
REMARK SMILES IDX 4 1 3 2 1 3 2 4 21 6 22 7 86 8 23 9 85 10 24 11 25 12 26 13
REMARK SMILES IDX 79 14 27 15 84 16 78 17 80 18 28 19 83 20 77 21 76 22 29 24
REMARK SMILES IDX 63 25 42 26 62 27 43 28 46 29 61 30 81 31 44 32 45 33 60 35
REMARK SMILES IDX 82 36 47 37 30 38 31 39 40 40 32 41 33 42 39 43 41 44 34 45
REMARK SMILES IDX 35 46 36 47 37 48 38 49 64 50 65 51 74 52 66 53 67 54 73 55
REMARK SMILES IDX 75 56 68 57 69 58 70 59 71 60 72 61 48 62 49 63 58 64 50 65
REMARK SMILES IDX 51 66 57 67 59 68 52 69 53 70 54 71 55 72 56 73 5 74 6 75
REMARK SMILES IDX 7 76 8 77 9 78 10 80 11 81 12 82 20 83 13 84 19 85 14 86
REMARK SMILES IDX 18 87 15 88 16 89 17 90
REMARK H PARENT 3 5 80 23 46 34 8 79
REMARK Flexibility Score: inf
ROOT
ATOM      1  C   UNL A   1      34.848  34.139  29.114  1.00  0.00     0.116 C 
ENDROOT
BRANCH   1   2
ATOM      2  N   UNL A   1      34.319  33.045  28.324  1.00  0.00    -0.352 N 
ATOM      3  O   UNL A   1      33.880  31.012  27.549  1.00  0.00    -0.269 OA
ATOM      4  C   UNL A   1      34.668  31.728  28.173  1.00  0.00     0.251 C 
ATOM      5  H   UNL A   1      33.541  33.303  27.778  1.00  0.00     0.163 HD
BRANCH   4   6
ATOM      6  C   UNL A   1      35.965  31.154  28.616  1.00  0.00     0.039 A 
ATOM      7  C   UNL A   1      37.117  31.892  28.877  1.00  0.00     0.014 A 
ATOM      8  C   UNL A   1      36.018  29.752  28.716  1.00  0.00     0.014 A 
ATOM      9  C   UNL A   1      38.332  31.243  29.063  1.00  0.00     0.010 A 
ATOM     10  C   UNL A   1      37.223  29.097  28.936  1.00  0.00     0.010 A 
ATOM     11  C   UNL A   1      38.388  29.847  29.046  1.00  0.00    -0.014 A 
BRANCH  11  12
ATOM     12  C   UNL A   1      39.691  29.223  29.235  1.00  0.00     0.031 A 
ATOM     13  C   UNL A   1      40.099  29.033  30.658  1.00  0.00     0.074 A 
ATOM     14  C   UNL A   1      40.457  28.782  28.217  1.00  0.00     0.049 A 
ATOM     15  N   UNL A   1      41.077  29.591  31.293  1.00  0.00    -0.248 NA
ATOM     16  C   UNL A   1      39.230  28.206  31.509  1.00  0.00     0.031 C 
ATOM     17  C   UNL A   1      40.123  28.654  26.797  1.00  0.00     0.029 A 
ATOM     18  N   UNL A   1      41.723  28.285  28.277  1.00  0.00    -0.354 N 
ATOM     19  C   UNL A   1      41.057  29.064  32.585  1.00  0.00     0.074 A 
ATOM     20  C   UNL A   1      39.833  28.313  32.695  1.00  0.00     0.031 C 
ATOM     21  C   UNL A   1      41.081  27.926  26.174  1.00  0.00     0.029 A 
ATOM     22  C   UNL A   1      42.159  27.665  27.115  1.00  0.00     0.049 A 
ATOM     23  H   UNL A   1      42.284  28.359  29.082  1.00  0.00     0.167 HD
ATOM     24  C   UNL A   1      42.123  29.161  33.430  1.00  0.00     0.037 A 
ATOM     25  C   UNL A   1      43.305  26.952  26.964  1.00  0.00     0.037 A 
ATOM     26  C   UNL A   1      43.053  30.169  32.992  1.00  0.00     0.049 A 
ATOM     27  C   UNL A   1      44.235  27.397  28.037  1.00  0.00     0.074 A 
ATOM     28  C   UNL A   1      43.005  31.543  32.866  1.00  0.00     0.029 A 
ATOM     29  N   UNL A   1      44.147  29.771  32.263  1.00  0.00    -0.354 N 
ATOM     30  N   UNL A   1      44.746  28.596  28.100  1.00  0.00    -0.248 NA
ATOM     31  C   UNL A   1      44.229  26.657  29.289  1.00  0.00     0.031 C 
ATOM     32  C   UNL A   1      43.750  31.833  31.685  1.00  0.00     0.029 A 
ATOM     33  C   UNL A   1      44.248  30.625  31.193  1.00  0.00     0.049 A 
ATOM     34  H   UNL A   1      44.746  29.017  32.470  1.00  0.00     0.167 HD
ATOM     35  C   UNL A   1      44.739  28.920  29.450  1.00  0.00     0.074 A 
ATOM     36  C   UNL A   1      44.478  27.658  30.138  1.00  0.00     0.031 C 
ATOM     37  C   UNL A   1      44.679  30.218  29.873  1.00  0.00     0.037 A 
BRANCH  24  38
ATOM     38  C   UNL A   1      42.467  28.160  34.507  1.00  0.00     0.058 A 
ATOM     39  C   UNL A   1      42.321  28.510  35.866  1.00  0.00     0.135 A 
ATOM     40  C   UNL A   1      43.189  26.973  34.259  1.00  0.00     0.135 A 
ATOM     41  F   UNL A   1      41.654  29.620  36.220  1.00  0.00    -0.206 F 
ATOM     42  C   UNL A   1      42.912  27.774  36.896  1.00  0.00     0.059 A 
ATOM     43  C   UNL A   1      43.744  26.197  35.272  1.00  0.00     0.059 A 
ATOM     44  F   UNL A   1      43.473  26.562  33.016  1.00  0.00    -0.206 F 
ATOM     45  C   UNL A   1      43.638  26.627  36.585  1.00  0.00     0.060 A 
BRANCH  45  46
ATOM     46  S   UNL A   1      44.510  25.751  37.898  1.00  0.00     0.124 S 
ATOM     47  O   UNL A   1      44.245  24.361  37.548  1.00  0.00    -0.237 OA
ATOM     48  O   UNL A   1      45.882  26.209  37.706  1.00  0.00    -0.237 OA
ATOM     49  O   UNL A   1      43.860  26.231  39.113  1.00  0.00    -0.744 OA
ENDBRANCH  45  46
ENDBRANCH  24  38
BRANCH  25  50
ATOM     50  C   UNL A   1      43.472  25.656  26.252  1.00  0.00     0.058 A 
ATOM     51  C   UNL A   1      44.520  25.453  25.335  1.00  0.00     0.135 A 
ATOM     52  C   UNL A   1      42.791  24.498  26.680  1.00  0.00     0.135 A 
ATOM     53  F   UNL A   1      45.240  26.496  24.893  1.00  0.00    -0.206 F 
ATOM     54  C   UNL A   1      44.901  24.176  24.906  1.00  0.00     0.059 A 
ATOM     55  C   UNL A   1      43.149  23.217  26.263  1.00  0.00     0.059 A 
ATOM     56  F   UNL A   1      41.813  24.571  27.596  1.00  0.00    -0.206 F 
ATOM     57  C   UNL A   1      44.223  23.060  25.396  1.00  0.00     0.060 A 
BRANCH  57  58
ATOM     58  S   UNL A   1      44.820  21.402  24.986  1.00  0.00     0.124 S 
ATOM     59  O   UNL A   1      44.741  21.404  23.529  1.00  0.00    -0.237 OA
ATOM     60  O   UNL A   1      46.164  21.411  25.552  1.00  0.00    -0.237 OA
ATOM     61  O   UNL A   1      43.868  20.522  25.659  1.00  0.00    -0.744 OA
ENDBRANCH  57  58
ENDBRANCH  25  50
BRANCH  37  62
ATOM     62  C   UNL A   1      44.842  31.305  28.837  1.00  0.00     0.058 A 
ATOM     63  C   UNL A   1      46.087  31.775  28.380  1.00  0.00     0.135 A 
ATOM     64  C   UNL A   1      43.701  31.795  28.185  1.00  0.00     0.135 A 
ATOM     65  F   UNL A   1      47.232  31.276  28.863  1.00  0.00    -0.206 F 
ATOM     66  C   UNL A   1      46.191  32.727  27.363  1.00  0.00     0.059 A 
ATOM     67  C   UNL A   1      43.782  32.722  27.146  1.00  0.00     0.059 A 
ATOM     68  F   UNL A   1      42.486  31.336  28.523  1.00  0.00    -0.206 F 
ATOM     69  C   UNL A   1      45.031  33.198  26.753  1.00  0.00     0.060 A 
BRANCH  69  70
ATOM     70  S   UNL A   1      45.174  34.388  25.403  1.00  0.00     0.124 S 
ATOM     71  O   UNL A   1      44.548  33.674  24.295  1.00  0.00    -0.237 OA
ATOM     72  O   UNL A   1      44.433  35.538  25.915  1.00  0.00    -0.237 OA
ATOM     73  O   UNL A   1      46.615  34.592  25.278  1.00  0.00    -0.744 OA
ENDBRANCH  69  70
ENDBRANCH  37  62
ENDBRANCH  11  12
ENDBRANCH   4   6
ENDBRANCH   1   2
BRANCH   1  74
ATOM     74  C   UNL A   1      34.538  35.538  28.585  1.00  0.00     0.023 C 
BRANCH  74  75
ATOM     75  C   UNL A   1      33.453  36.299  29.350  1.00  0.00     0.023 C 
BRANCH  75  76
ATOM     76  C   UNL A   1      32.916  35.616  30.603  1.00  0.00     0.116 C 
BRANCH  76  77
ATOM     77  N   UNL A   1      33.158  36.363  31.827  1.00  0.00    -0.350 N 
ATOM     78  C   UNL A   1      34.095  36.108  32.817  1.00  0.00     0.280 C 
ATOM     79  H   UNL A   1      32.586  37.151  31.971  1.00  0.00     0.163 HD
ATOM     80  O   UNL A   1      34.113  36.859  33.790  1.00  0.00    -0.267 OA
BRANCH  78  81
ATOM     81  C   UNL A   1      34.995  34.971  32.657  1.00  0.00     0.182 A 
ATOM     82  N   UNL A   1      36.247  35.091  32.266  1.00  0.00    -0.228 NA
ATOM     83  S   UNL A   1      34.456  33.368  32.941  1.00  0.00    -0.109 S 
ATOM     84  C   UNL A   1      36.890  33.865  32.372  1.00  0.00     0.118 A 
ATOM     85  C   UNL A   1      36.077  32.808  32.791  1.00  0.00     0.058 A 
ATOM     86  C   UNL A   1      38.253  33.590  32.134  1.00  0.00     0.150 A 
ATOM     87  C   UNL A   1      36.584  31.519  33.027  1.00  0.00     0.021 A 
ATOM     88  F   UNL A   1      39.081  34.553  31.702  1.00  0.00    -0.205 F 
ATOM     89  C   UNL A   1      38.773  32.314  32.361  1.00  0.00     0.041 A 
ATOM     90  C   UNL A   1      37.949  31.293  32.817  1.00  0.00     0.005 A 
ENDBRANCH  78  81
ENDBRANCH  76  77
ENDBRANCH  75  76
ENDBRANCH  74  75
ENDBRANCH   1  74
TORSDOF 14
ENDMDL
