MODEL 1
REMARK VINA RESULT:     -11.4      0.000      0.000
REMARK SMILES [NH3+][C@@](Cc1ccc(F)cc1)(C(=O)NCCCCNC(=O)c1ccc(-c2c3nc(c(-c4c(F)cc(S(=O)(=O)[O-])cc4F)c4ccc([nH]4)c(-c4c(F)cc(S(=O)(=O)[O-])cc4F)c4nc(c(-c5c(F)cc(S(=O)(=O)[O-])cc5F)c5ccc2[nH]5)C=C4)C=C3)cc1)c1ccccc1
REMARK SMILES IDX 16 1 15 2 14 3 13 4 11 5 12 6 2 8 1 9 3 13 4 14 5 15 10 16
REMARK SMILES IDX 6 17 9 18 7 19 8 20 87 21 88 22 92 23 89 24 91 25 90 26
REMARK SMILES IDX 17 27 18 28 19 29 20 31 21 32 22 33 86 34 23 35 85 36 24 37
REMARK SMILES IDX 25 38 26 39 79 40 27 41 84 42 78 43 80 44 28 45 83 46 77 47
REMARK SMILES IDX 76 48 29 50 63 51 42 52 62 53 43 54 46 55 61 56 81 57 44 58
REMARK SMILES IDX 45 59 60 61 82 62 47 63 30 64 31 65 40 66 32 67 33 68 39 69
REMARK SMILES IDX 41 70 34 71 35 72 36 73 37 74 38 75 64 76 65 77 74 78 66 79
REMARK SMILES IDX 67 80 73 81 75 82 68 83 69 84 70 85 71 86 72 87 48 88 49 89
REMARK SMILES IDX 58 90 50 91 51 92 57 93 59 94 52 95 53 96 54 97 55 98 56 99
REMARK H PARENT 13 7 1 10 1 11 1 12 18 30 80 49 46 60
REMARK Flexibility Score: inf
ROOT
ATOM      1  C   UNL A   1      32.933  28.416  25.858  1.00  0.00     0.023 C 
ENDROOT
BRANCH   1   2
ATOM      2  C   UNL A   1      33.684  27.252  25.225  1.00  0.00     0.023 C 
BRANCH   2   3
ATOM      3  C   UNL A   1      32.811  26.195  24.568  1.00  0.00     0.116 C 
BRANCH   3   4
ATOM      4  N   UNL A   1      32.496  25.056  25.394  1.00  0.00    -0.350 N 
ATOM      5  C   UNL A   1      32.789  23.726  25.226  1.00  0.00     0.286 C 
ATOM      6  O   UNL A   1      32.770  23.060  26.271  1.00  0.00    -0.267 OA
ATOM      7  H   UNL A   1      31.987  25.265  26.210  1.00  0.00     0.163 HD
BRANCH   5   8
ATOM      8  C   UNL A   1      33.147  23.059  23.821  1.00  0.00     0.203 C 
BRANCH   8   9
ATOM      9  N   UNL A   1      32.161  23.471  22.781  1.00  0.00    -0.341 N 
ATOM     10  H   UNL A   1      32.470  23.138  21.868  1.00  0.00     0.345 HD
ATOM     11  H   UNL A   1      32.087  24.488  22.765  1.00  0.00     0.345 HD
ATOM     12  H   UNL A   1      31.248  23.067  22.998  1.00  0.00     0.345 HD
ENDBRANCH   8   9
BRANCH   8  13
ATOM     13  C   UNL A   1      34.632  23.373  23.391  1.00  0.00     0.120 C 
BRANCH  13  14
ATOM     14  C   UNL A   1      35.827  23.069  24.277  1.00  0.00    -0.041 A 
ATOM     15  C   UNL A   1      36.215  24.003  25.257  1.00  0.00     0.007 A 
ATOM     16  C   UNL A   1      36.548  21.867  24.171  1.00  0.00     0.007 A 
ATOM     17  C   UNL A   1      37.334  23.773  26.058  1.00  0.00     0.039 A 
ATOM     18  C   UNL A   1      37.692  21.659  24.947  1.00  0.00     0.039 A 
ATOM     19  C   UNL A   1      38.076  22.614  25.881  1.00  0.00     0.123 A 
ATOM     20  F   UNL A   1      39.171  22.411  26.621  1.00  0.00    -0.207 F 
ENDBRANCH  13  14
ENDBRANCH   8  13
BRANCH   8  21
ATOM     21  C   UNL A   1      32.964  21.504  23.977  1.00  0.00     0.022 A 
ATOM     22  C   UNL A   1      33.305  20.796  25.146  1.00  0.00     0.011 A 
ATOM     23  C   UNL A   1      32.387  20.761  22.924  1.00  0.00     0.011 A 
ATOM     24  C   UNL A   1      33.113  19.414  25.243  1.00  0.00     0.001 A 
ATOM     25  C   UNL A   1      32.198  19.378  23.022  1.00  0.00     0.001 A 
ATOM     26  C   UNL A   1      32.566  18.705  24.180  1.00  0.00     0.000 A 
ENDBRANCH   8  21
ENDBRANCH   5   8
ENDBRANCH   3   4
ENDBRANCH   2   3
ENDBRANCH   1   2
BRANCH   1  27
ATOM     27  C   UNL A   1      33.222  28.679  27.334  1.00  0.00     0.116 C 
BRANCH  27  28
ATOM     28  N   UNL A   1      33.302  30.089  27.696  1.00  0.00    -0.352 N 
ATOM     29  C   UNL A   1      34.396  30.794  28.160  1.00  0.00     0.251 C 
ATOM     30  H   UNL A   1      32.469  30.605  27.597  1.00  0.00     0.163 HD
ATOM     31  O   UNL A   1      34.292  31.964  28.489  1.00  0.00    -0.269 OA
BRANCH  29  32
ATOM     32  C   UNL A   1      35.685  30.082  28.308  1.00  0.00     0.039 A 
ATOM     33  C   UNL A   1      36.566  30.053  27.226  1.00  0.00     0.014 A 
ATOM     34  C   UNL A   1      36.059  29.546  29.543  1.00  0.00     0.014 A 
ATOM     35  C   UNL A   1      37.869  29.588  27.416  1.00  0.00     0.010 A 
ATOM     36  C   UNL A   1      37.379  29.164  29.751  1.00  0.00     0.010 A 
ATOM     37  C   UNL A   1      38.305  29.201  28.695  1.00  0.00    -0.014 A 
BRANCH  37  38
ATOM     38  C   UNL A   1      39.728  28.869  28.961  1.00  0.00     0.031 A 
ATOM     39  C   UNL A   1      40.647  29.905  29.545  1.00  0.00     0.074 A 
ATOM     40  C   UNL A   1      40.212  27.662  28.600  1.00  0.00     0.049 A 
ATOM     41  N   UNL A   1      41.936  29.838  29.757  1.00  0.00    -0.248 NA
ATOM     42  C   UNL A   1      40.046  31.198  29.910  1.00  0.00     0.031 C 
ATOM     43  C   UNL A   1      39.434  26.591  27.971  1.00  0.00     0.029 A 
ATOM     44  N   UNL A   1      41.475  27.133  28.704  1.00  0.00    -0.354 N 
ATOM     45  C   UNL A   1      42.301  31.078  30.265  1.00  0.00     0.074 A 
ATOM     46  C   UNL A   1      41.110  31.898  30.279  1.00  0.00     0.031 C 
ATOM     47  C   UNL A   1      40.228  25.525  27.777  1.00  0.00     0.029 A 
ATOM     48  C   UNL A   1      41.577  25.846  28.229  1.00  0.00     0.049 A 
ATOM     49  H   UNL A   1      42.235  27.629  29.083  1.00  0.00     0.167 HD
ATOM     50  C   UNL A   1      43.514  31.488  30.706  1.00  0.00     0.037 A 
ATOM     51  C   UNL A   1      42.638  25.018  28.163  1.00  0.00     0.037 A 
ATOM     52  C   UNL A   1      44.687  30.657  30.727  1.00  0.00     0.049 A 
ATOM     53  C   UNL A   1      43.972  25.490  28.674  1.00  0.00     0.074 A 
ATOM     54  C   UNL A   1      45.949  30.965  31.204  1.00  0.00     0.029 A 
ATOM     55  N   UNL A   1      44.744  29.352  30.259  1.00  0.00    -0.354 N 
ATOM     56  N   UNL A   1      44.288  26.653  29.189  1.00  0.00    -0.248 NA
ATOM     57  C   UNL A   1      45.091  24.541  28.594  1.00  0.00     0.031 C 
ATOM     58  C   UNL A   1      46.777  29.856  31.000  1.00  0.00     0.029 A 
ATOM     59  C   UNL A   1      46.021  28.844  30.429  1.00  0.00     0.049 A 
ATOM     60  H   UNL A   1      43.988  28.860  29.865  1.00  0.00     0.167 HD
ATOM     61  C   UNL A   1      45.637  26.570  29.514  1.00  0.00     0.074 A 
ATOM     62  C   UNL A   1      46.075  25.239  29.147  1.00  0.00     0.031 C 
ATOM     63  C   UNL A   1      46.439  27.514  30.064  1.00  0.00     0.037 A 
BRANCH  50  64
ATOM     64  C   UNL A   1      43.627  32.891  31.229  1.00  0.00     0.058 A 
ATOM     65  C   UNL A   1      44.014  33.943  30.385  1.00  0.00     0.135 A 
ATOM     66  C   UNL A   1      43.397  33.186  32.583  1.00  0.00     0.135 A 
ATOM     67  F   UNL A   1      44.237  33.717  29.081  1.00  0.00    -0.206 F 
ATOM     68  C   UNL A   1      44.180  35.237  30.866  1.00  0.00     0.059 A 
ATOM     69  C   UNL A   1      43.534  34.477  33.081  1.00  0.00     0.059 A 
ATOM     70  F   UNL A   1      43.002  32.220  33.427  1.00  0.00    -0.206 F 
ATOM     71  C   UNL A   1      43.939  35.494  32.218  1.00  0.00     0.060 A 
BRANCH  71  72
ATOM     72  S   UNL A   1      44.122  37.186  32.822  1.00  0.00     0.124 S 
ATOM     73  O   UNL A   1      43.887  37.964  31.611  1.00  0.00    -0.237 OA
ATOM     74  O   UNL A   1      43.080  37.262  33.842  1.00  0.00    -0.237 OA
ATOM     75  O   UNL A   1      45.489  37.214  33.335  1.00  0.00    -0.744 OA
ENDBRANCH  71  72
ENDBRANCH  50  64
BRANCH  51  76
ATOM     76  C   UNL A   1      42.468  23.642  27.625  1.00  0.00     0.058 A 
ATOM     77  C   UNL A   1      42.309  22.538  28.475  1.00  0.00     0.135 A 
ATOM     78  C   UNL A   1      42.503  23.404  26.243  1.00  0.00     0.135 A 
ATOM     79  F   UNL A   1      42.279  22.710  29.806  1.00  0.00    -0.206 F 
ATOM     80  C   UNL A   1      42.213  21.242  27.975  1.00  0.00     0.059 A 
ATOM     81  C   UNL A   1      42.389  22.120  25.718  1.00  0.00     0.059 A 
ATOM     82  F   UNL A   1      42.642  24.432  25.390  1.00  0.00    -0.206 F 
ATOM     83  C   UNL A   1      42.262  21.044  26.595  1.00  0.00     0.060 A 
BRANCH  83  84
ATOM     84  S   UNL A   1      42.160  19.354  25.965  1.00  0.00     0.124 S 
ATOM     85  O   UNL A   1      42.665  18.590  27.101  1.00  0.00    -0.237 OA
ATOM     86  O   UNL A   1      40.733  19.216  25.689  1.00  0.00    -0.237 OA
ATOM     87  O   UNL A   1      43.024  19.379  24.789  1.00  0.00    -0.744 OA
ENDBRANCH  83  84
ENDBRANCH  51  76
BRANCH  63  88
ATOM     88  C   UNL A   1      47.872  27.147  30.325  1.00  0.00     0.058 A 
ATOM     89  C   UNL A   1      48.252  26.598  31.559  1.00  0.00     0.135 A 
ATOM     90  C   UNL A   1      48.880  27.423  29.388  1.00  0.00     0.135 A 
ATOM     91  F   UNL A   1      47.326  26.320  32.490  1.00  0.00    -0.206 F 
ATOM     92  C   UNL A   1      49.586  26.355  31.866  1.00  0.00     0.059 A 
ATOM     93  C   UNL A   1      50.220  27.168  29.665  1.00  0.00     0.059 A 
ATOM     94  F   UNL A   1      48.564  27.937  28.189  1.00  0.00    -0.206 F 
ATOM     95  C   UNL A   1      50.564  26.651  30.915  1.00  0.00     0.060 A 
BRANCH  95  96
ATOM     96  S   UNL A   1      52.292  26.336  31.329  1.00  0.00     0.124 S 
ATOM     97  O   UNL A   1      52.572  27.407  32.280  1.00  0.00    -0.237 OA
ATOM     98  O   UNL A   1      52.235  24.989  31.890  1.00  0.00    -0.237 OA
ATOM     99  O   UNL A   1      52.974  26.442  30.043  1.00  0.00    -0.744 OA
ENDBRANCH  95  96
ENDBRANCH  63  88
ENDBRANCH  37  38
ENDBRANCH  29  32
ENDBRANCH  27  28
ENDBRANCH   1  27
TORSDOF 18
ENDMDL
MODEL 2
REMARK VINA RESULT:     -11.1      1.217      2.363
REMARK SMILES [NH3+][C@@](Cc1ccc(F)cc1)(C(=O)NCCCCNC(=O)c1ccc(-c2c3nc(c(-c4c(F)cc(S(=O)(=O)[O-])cc4F)c4ccc([nH]4)c(-c4c(F)cc(S(=O)(=O)[O-])cc4F)c4nc(c(-c5c(F)cc(S(=O)(=O)[O-])cc5F)c5ccc2[nH]5)C=C4)C=C3)cc1)c1ccccc1
REMARK SMILES IDX 16 1 15 2 14 3 13 4 11 5 12 6 2 8 1 9 3 13 4 14 5 15 10 16
REMARK SMILES IDX 6 17 9 18 7 19 8 20 87 21 88 22 92 23 89 24 91 25 90 26
REMARK SMILES IDX 17 27 18 28 19 29 20 31 21 32 22 33 86 34 23 35 85 36 24 37
REMARK SMILES IDX 25 38 26 39 79 40 27 41 84 42 78 43 80 44 28 45 83 46 77 47
REMARK SMILES IDX 76 48 29 50 63 51 42 52 62 53 43 54 46 55 61 56 81 57 44 58
REMARK SMILES IDX 45 59 60 61 82 62 47 63 30 64 31 65 40 66 32 67 33 68 39 69
REMARK SMILES IDX 41 70 34 71 35 72 36 73 37 74 38 75 64 76 65 77 74 78 66 79
REMARK SMILES IDX 67 80 73 81 75 82 68 83 69 84 70 85 71 86 72 87 48 88 49 89
REMARK SMILES IDX 58 90 50 91 51 92 57 93 59 94 52 95 53 96 54 97 55 98 56 99
REMARK H PARENT 13 7 1 10 1 11 1 12 18 30 80 49 46 60
REMARK Flexibility Score: inf
ROOT
ATOM      1  C   UNL A   1      32.706  28.747  25.884  1.00  0.00     0.023 C 
ENDROOT
BRANCH   1   2
ATOM      2  C   UNL A   1      31.801  27.532  25.734  1.00  0.00     0.023 C 
BRANCH   2   3
ATOM      3  C   UNL A   1      32.012  26.433  26.762  1.00  0.00     0.116 C 
BRANCH   3   4
ATOM      4  N   UNL A   1      30.976  25.432  26.816  1.00  0.00    -0.350 N 
ATOM      5  C   UNL A   1      31.033  24.078  26.603  1.00  0.00     0.286 C 
ATOM      6  O   UNL A   1      30.110  23.436  27.124  1.00  0.00    -0.267 OA
ATOM      7  H   UNL A   1      30.081  25.776  27.041  1.00  0.00     0.163 HD
BRANCH   5   8
ATOM      8  C   UNL A   1      32.187  23.351  25.774  1.00  0.00     0.203 C 
BRANCH   8   9
ATOM      9  N   UNL A   1      33.483  23.428  26.507  1.00  0.00    -0.341 N 
ATOM     10  H   UNL A   1      34.019  22.576  26.340  1.00  0.00     0.345 HD
ATOM     11  H   UNL A   1      33.304  23.527  27.506  1.00  0.00     0.345 HD
ATOM     12  H   UNL A   1      34.015  24.233  26.175  1.00  0.00     0.345 HD
ENDBRANCH   8   9
BRANCH   8  13
ATOM     13  C   UNL A   1      31.794  21.867  25.412  1.00  0.00     0.120 C 
BRANCH  13  14
ATOM     14  C   UNL A   1      32.825  20.792  25.114  1.00  0.00    -0.041 A 
ATOM     15  C   UNL A   1      32.404  19.458  24.952  1.00  0.00     0.007 A 
ATOM     16  C   UNL A   1      34.191  21.088  24.968  1.00  0.00     0.007 A 
ATOM     17  C   UNL A   1      33.330  18.440  24.721  1.00  0.00     0.039 A 
ATOM     18  C   UNL A   1      35.120  20.060  24.777  1.00  0.00     0.039 A 
ATOM     19  C   UNL A   1      34.681  18.747  24.658  1.00  0.00     0.123 A 
ATOM     20  F   UNL A   1      35.574  17.767  24.476  1.00  0.00    -0.207 F 
ENDBRANCH  13  14
ENDBRANCH   8  13
BRANCH   8  21
ATOM     21  C   UNL A   1      32.407  24.173  24.451  1.00  0.00     0.022 A 
ATOM     22  C   UNL A   1      31.371  24.482  23.548  1.00  0.00     0.011 A 
ATOM     23  C   UNL A   1      33.690  24.681  24.150  1.00  0.00     0.011 A 
ATOM     24  C   UNL A   1      31.612  25.227  22.389  1.00  0.00     0.001 A 
ATOM     25  C   UNL A   1      33.930  25.424  22.990  1.00  0.00     0.001 A 
ATOM     26  C   UNL A   1      32.891  25.692  22.107  1.00  0.00     0.000 A 
ENDBRANCH   8  21
ENDBRANCH   5   8
ENDBRANCH   3   4
ENDBRANCH   2   3
ENDBRANCH   1   2
BRANCH   1  27
ATOM     27  C   UNL A   1      33.419  28.892  27.227  1.00  0.00     0.116 C 
BRANCH  27  28
ATOM     28  N   UNL A   1      33.481  30.255  27.739  1.00  0.00    -0.352 N 
ATOM     29  C   UNL A   1      34.555  30.907  28.313  1.00  0.00     0.251 C 
ATOM     30  H   UNL A   1      32.650  30.778  27.667  1.00  0.00     0.163 HD
ATOM     31  O   UNL A   1      34.436  32.035  28.761  1.00  0.00    -0.269 OA
BRANCH  29  32
ATOM     32  C   UNL A   1      35.842  30.183  28.430  1.00  0.00     0.039 A 
ATOM     33  C   UNL A   1      36.723  30.199  27.348  1.00  0.00     0.014 A 
ATOM     34  C   UNL A   1      36.212  29.591  29.640  1.00  0.00     0.014 A 
ATOM     35  C   UNL A   1      38.024  29.720  27.518  1.00  0.00     0.010 A 
ATOM     36  C   UNL A   1      37.531  29.194  29.831  1.00  0.00     0.010 A 
ATOM     37  C   UNL A   1      38.457  29.274  28.778  1.00  0.00    -0.014 A 
BRANCH  37  38
ATOM     38  C   UNL A   1      39.879  28.925  29.030  1.00  0.00     0.031 A 
ATOM     39  C   UNL A   1      40.814  29.946  29.613  1.00  0.00     0.074 A 
ATOM     40  C   UNL A   1      40.346  27.714  28.657  1.00  0.00     0.049 A 
ATOM     41  N   UNL A   1      42.105  29.863  29.814  1.00  0.00    -0.248 NA
ATOM     42  C   UNL A   1      40.231  31.243  29.992  1.00  0.00     0.031 C 
ATOM     43  C   UNL A   1      39.551  26.656  28.028  1.00  0.00     0.029 A 
ATOM     44  N   UNL A   1      41.603  27.171  28.747  1.00  0.00    -0.354 N 
ATOM     45  C   UNL A   1      42.487  31.095  30.327  1.00  0.00     0.074 A 
ATOM     46  C   UNL A   1      41.306  31.928  30.356  1.00  0.00     0.031 C 
ATOM     47  C   UNL A   1      40.330  25.583  27.820  1.00  0.00     0.029 A 
ATOM     48  C   UNL A   1      41.687  25.886  28.263  1.00  0.00     0.049 A 
ATOM     49  H   UNL A   1      42.373  27.655  29.123  1.00  0.00     0.167 HD
ATOM     50  C   UNL A   1      43.709  31.488  30.760  1.00  0.00     0.037 A 
ATOM     51  C   UNL A   1      42.738  25.046  28.182  1.00  0.00     0.037 A 
ATOM     52  C   UNL A   1      44.873  30.644  30.766  1.00  0.00     0.049 A 
ATOM     53  C   UNL A   1      44.081  25.499  28.685  1.00  0.00     0.074 A 
ATOM     54  C   UNL A   1      46.141  30.935  31.234  1.00  0.00     0.029 A 
ATOM     55  N   UNL A   1      44.910  29.342  30.289  1.00  0.00    -0.354 N 
ATOM     56  N   UNL A   1      44.415  26.655  29.205  1.00  0.00    -0.248 NA
ATOM     57  C   UNL A   1      45.189  24.538  28.590  1.00  0.00     0.031 C 
ATOM     58  C   UNL A   1      46.955  29.818  31.016  1.00  0.00     0.029 A 
ATOM     59  C   UNL A   1      46.183  28.818  30.445  1.00  0.00     0.049 A 
ATOM     60  H   UNL A   1      44.146  28.861  29.898  1.00  0.00     0.167 HD
ATOM     61  C   UNL A   1      45.766  26.555  29.518  1.00  0.00     0.074 A 
ATOM     62  C   UNL A   1      46.186  25.222  29.138  1.00  0.00     0.031 C 
ATOM     63  C   UNL A   1      46.583  27.486  30.068  1.00  0.00     0.037 A 
BRANCH  50  64
ATOM     64  C   UNL A   1      43.842  32.886  31.292  1.00  0.00     0.058 A 
ATOM     65  C   UNL A   1      43.608  33.165  32.647  1.00  0.00     0.135 A 
ATOM     66  C   UNL A   1      44.155  33.962  30.445  1.00  0.00     0.135 A 
ATOM     67  F   UNL A   1      43.314  32.172  33.501  1.00  0.00    -0.206 F 
ATOM     68  C   UNL A   1      43.670  34.463  33.143  1.00  0.00     0.059 A 
ATOM     69  C   UNL A   1      44.245  35.265  30.924  1.00  0.00     0.059 A 
ATOM     70  F   UNL A   1      44.410  33.747  29.145  1.00  0.00    -0.206 F 
ATOM     71  C   UNL A   1      43.988  35.507  32.273  1.00  0.00     0.060 A 
BRANCH  71  72
ATOM     72  S   UNL A   1      44.103  37.182  32.937  1.00  0.00     0.124 S 
ATOM     73  O   UNL A   1      44.047  37.990  31.724  1.00  0.00    -0.237 OA
ATOM     74  O   UNL A   1      42.930  37.250  33.804  1.00  0.00    -0.237 OA
ATOM     75  O   UNL A   1      45.385  37.180  33.636  1.00  0.00    -0.744 OA
ENDBRANCH  71  72
ENDBRANCH  50  64
BRANCH  51  76
ATOM     76  C   UNL A   1      42.548  23.676  27.637  1.00  0.00     0.058 A 
ATOM     77  C   UNL A   1      42.364  22.571  28.480  1.00  0.00     0.135 A 
ATOM     78  C   UNL A   1      42.588  23.444  26.254  1.00  0.00     0.135 A 
ATOM     79  F   UNL A   1      42.328  22.738  29.812  1.00  0.00    -0.206 F 
ATOM     80  C   UNL A   1      42.249  21.279  27.974  1.00  0.00     0.059 A 
ATOM     81  C   UNL A   1      42.455  22.164  25.722  1.00  0.00     0.059 A 
ATOM     82  F   UNL A   1      42.750  24.472  25.407  1.00  0.00    -0.206 F 
ATOM     83  C   UNL A   1      42.304  21.086  26.593  1.00  0.00     0.060 A 
BRANCH  83  84
ATOM     84  S   UNL A   1      42.177  19.401  25.955  1.00  0.00     0.124 S 
ATOM     85  O   UNL A   1      42.710  18.627  27.071  1.00  0.00    -0.237 OA
ATOM     86  O   UNL A   1      40.742  19.271  25.718  1.00  0.00    -0.237 OA
ATOM     87  O   UNL A   1      43.007  19.431  24.755  1.00  0.00    -0.744 OA
ENDBRANCH  83  84
ENDBRANCH  51  76
BRANCH  63  88
ATOM     88  C   UNL A   1      48.014  27.101  30.314  1.00  0.00     0.058 A 
ATOM     89  C   UNL A   1      48.421  26.650  31.579  1.00  0.00     0.135 A 
ATOM     90  C   UNL A   1      48.996  27.265  29.325  1.00  0.00     0.135 A 
ATOM     91  F   UNL A   1      47.520  26.481  32.559  1.00  0.00    -0.206 F 
ATOM     92  C   UNL A   1      49.758  26.396  31.863  1.00  0.00     0.059 A 
ATOM     93  C   UNL A   1      50.338  26.996  29.580  1.00  0.00     0.059 A 
ATOM     94  F   UNL A   1      48.653  27.683  28.096  1.00  0.00    -0.206 F 
ATOM     95  C   UNL A   1      50.711  26.580  30.860  1.00  0.00     0.060 A 
BRANCH  95  96
ATOM     96  S   UNL A   1      52.443  26.251  31.245  1.00  0.00     0.124 S 
ATOM     97  O   UNL A   1      52.375  24.902  31.797  1.00  0.00    -0.237 OA
ATOM     98  O   UNL A   1      53.079  26.369  29.936  1.00  0.00    -0.237 OA
ATOM     99  O   UNL A   1      52.784  27.304  32.196  1.00  0.00    -0.744 OA
ENDBRANCH  95  96
ENDBRANCH  63  88
ENDBRANCH  37  38
ENDBRANCH  29  32
ENDBRANCH  27  28
ENDBRANCH   1  27
TORSDOF 18
ENDMDL
MODEL 3
REMARK VINA RESULT:     -11.0      4.905     10.256
REMARK SMILES [NH3+][C@@](Cc1ccc(F)cc1)(C(=O)NCCCCNC(=O)c1ccc(-c2c3nc(c(-c4c(F)cc(S(=O)(=O)[O-])cc4F)c4ccc([nH]4)c(-c4c(F)cc(S(=O)(=O)[O-])cc4F)c4nc(c(-c5c(F)cc(S(=O)(=O)[O-])cc5F)c5ccc2[nH]5)C=C4)C=C3)cc1)c1ccccc1
REMARK SMILES IDX 16 1 15 2 14 3 13 4 11 5 12 6 2 8 1 9 3 13 4 14 5 15 10 16
REMARK SMILES IDX 6 17 9 18 7 19 8 20 87 21 88 22 92 23 89 24 91 25 90 26
REMARK SMILES IDX 17 27 18 28 19 29 20 31 21 32 22 33 86 34 23 35 85 36 24 37
REMARK SMILES IDX 25 38 26 39 79 40 27 41 84 42 78 43 80 44 28 45 83 46 77 47
REMARK SMILES IDX 76 48 29 50 63 51 42 52 62 53 43 54 46 55 61 56 81 57 44 58
REMARK SMILES IDX 45 59 60 61 82 62 47 63 30 64 31 65 40 66 32 67 33 68 39 69
REMARK SMILES IDX 41 70 34 71 35 72 36 73 37 74 38 75 64 76 65 77 74 78 66 79
REMARK SMILES IDX 67 80 73 81 75 82 68 83 69 84 70 85 71 86 72 87 48 88 49 89
REMARK SMILES IDX 58 90 50 91 51 92 57 93 59 94 52 95 53 96 54 97 55 98 56 99
REMARK H PARENT 13 7 1 10 1 11 1 12 18 30 80 49 46 60
REMARK Flexibility Score: inf
ROOT
ATOM      1  C   UNL A   1      37.641  23.435  26.141  1.00  0.00     0.023 C 
ENDROOT
BRANCH   1   2
ATOM      2  C   UNL A   1      37.850  22.009  25.650  1.00  0.00     0.023 C 
BRANCH   2   3
ATOM      3  C   UNL A   1      36.595  21.156  25.574  1.00  0.00     0.116 C 
BRANCH   3   4
ATOM      4  N   UNL A   1      35.563  21.492  26.523  1.00  0.00    -0.350 N 
ATOM      5  C   UNL A   1      34.224  21.194  26.526  1.00  0.00     0.286 C 
ATOM      6  O   UNL A   1      33.689  21.240  27.643  1.00  0.00    -0.267 OA
ATOM      7  H   UNL A   1      35.868  22.023  27.294  1.00  0.00     0.163 HD
BRANCH   5   8
ATOM      8  C   UNL A   1      33.393  20.799  25.221  1.00  0.00     0.203 C 
BRANCH   8   9
ATOM      9  N   UNL A   1      31.943  21.082  25.421  1.00  0.00    -0.341 N 
ATOM     10  H   UNL A   1      31.827  22.034  25.769  1.00  0.00     0.345 HD
ATOM     11  H   UNL A   1      31.557  20.424  26.098  1.00  0.00     0.345 HD
ATOM     12  H   UNL A   1      31.450  20.983  24.532  1.00  0.00     0.345 HD
ENDBRANCH   8   9
BRANCH   8  13
ATOM     13  C   UNL A   1      33.966  21.503  23.932  1.00  0.00     0.120 C 
BRANCH  13  14
ATOM     14  C   UNL A   1      33.725  22.969  23.620  1.00  0.00    -0.041 A 
ATOM     15  C   UNL A   1      32.918  23.317  22.520  1.00  0.00     0.007 A 
ATOM     16  C   UNL A   1      34.262  23.999  24.411  1.00  0.00     0.007 A 
ATOM     17  C   UNL A   1      32.712  24.655  22.180  1.00  0.00     0.039 A 
ATOM     18  C   UNL A   1      34.088  25.337  24.044  1.00  0.00     0.039 A 
ATOM     19  C   UNL A   1      33.317  25.652  22.932  1.00  0.00     0.123 A 
ATOM     20  F   UNL A   1      33.153  26.933  22.584  1.00  0.00    -0.207 F 
ENDBRANCH  13  14
ENDBRANCH   8  13
BRANCH   8  21
ATOM     21  C   UNL A   1      33.493  19.237  25.054  1.00  0.00     0.022 A 
ATOM     22  C   UNL A   1      34.472  18.603  24.264  1.00  0.00     0.011 A 
ATOM     23  C   UNL A   1      32.598  18.401  25.757  1.00  0.00     0.011 A 
ATOM     24  C   UNL A   1      34.530  17.209  24.155  1.00  0.00     0.001 A 
ATOM     25  C   UNL A   1      32.656  17.008  25.645  1.00  0.00     0.001 A 
ATOM     26  C   UNL A   1      33.619  16.413  24.839  1.00  0.00     0.000 A 
ENDBRANCH   8  21
ENDBRANCH   5   8
ENDBRANCH   3   4
ENDBRANCH   2   3
ENDBRANCH   1   2
BRANCH   1  27
ATOM     27  C   UNL A   1      38.847  24.105  26.794  1.00  0.00     0.116 C 
BRANCH  27  28
ATOM     28  N   UNL A   1      39.882  24.536  25.863  1.00  0.00    -0.352 N 
ATOM     29  C   UNL A   1      40.866  25.487  26.057  1.00  0.00     0.251 C 
ATOM     30  H   UNL A   1      39.881  24.093  24.985  1.00  0.00     0.163 HD
ATOM     31  O   UNL A   1      41.627  25.792  25.153  1.00  0.00    -0.269 OA
BRANCH  29  32
ATOM     32  C   UNL A   1      40.939  26.174  27.366  1.00  0.00     0.039 A 
ATOM     33  C   UNL A   1      42.025  27.009  27.628  1.00  0.00     0.014 A 
ATOM     34  C   UNL A   1      39.882  26.075  28.275  1.00  0.00     0.014 A 
ATOM     35  C   UNL A   1      41.998  27.835  28.754  1.00  0.00     0.010 A 
ATOM     36  C   UNL A   1      39.819  26.957  29.348  1.00  0.00     0.010 A 
ATOM     37  C   UNL A   1      40.866  27.862  29.587  1.00  0.00    -0.014 A 
BRANCH  37  38
ATOM     38  C   UNL A   1      40.737  28.852  30.687  1.00  0.00     0.031 A 
ATOM     39  C   UNL A   1      41.633  28.765  31.890  1.00  0.00     0.074 A 
ATOM     40  C   UNL A   1      39.757  29.780  30.639  1.00  0.00     0.049 A 
ATOM     41  N   UNL A   1      41.607  29.473  32.990  1.00  0.00    -0.248 NA
ATOM     42  C   UNL A   1      42.674  27.726  31.869  1.00  0.00     0.031 C 
ATOM     43  C   UNL A   1      38.785  29.931  29.552  1.00  0.00     0.029 A 
ATOM     44  N   UNL A   1      39.411  30.767  31.528  1.00  0.00    -0.354 N 
ATOM     45  C   UNL A   1      42.615  28.957  33.794  1.00  0.00     0.074 A 
ATOM     46  C   UNL A   1      43.198  27.843  33.082  1.00  0.00     0.031 C 
ATOM     47  C   UNL A   1      37.978  30.969  29.823  1.00  0.00     0.029 A 
ATOM     48  C   UNL A   1      38.345  31.534  31.117  1.00  0.00     0.049 A 
ATOM     49  H   UNL A   1      39.882  30.913  32.379  1.00  0.00     0.167 HD
ATOM     50  C   UNL A   1      43.035  29.392  35.006  1.00  0.00     0.037 A 
ATOM     51  C   UNL A   1      37.730  32.573  31.716  1.00  0.00     0.037 A 
ATOM     52  C   UNL A   1      42.479  30.525  35.694  1.00  0.00     0.049 A 
ATOM     53  C   UNL A   1      38.225  33.047  33.055  1.00  0.00     0.074 A 
ATOM     54  C   UNL A   1      42.872  31.075  36.901  1.00  0.00     0.029 A 
ATOM     55  N   UNL A   1      41.416  31.289  35.234  1.00  0.00    -0.354 N 
ATOM     56  N   UNL A   1      39.207  32.573  33.781  1.00  0.00    -0.248 NA
ATOM     57  C   UNL A   1      37.530  34.196  33.655  1.00  0.00     0.031 C 
ATOM     58  C   UNL A   1      42.030  32.155  37.186  1.00  0.00     0.029 A 
ATOM     59  C   UNL A   1      41.135  32.301  36.138  1.00  0.00     0.049 A 
ATOM     60  H   UNL A   1      40.933  31.135  34.390  1.00  0.00     0.167 HD
ATOM     61  C   UNL A   1      39.262  33.375  34.916  1.00  0.00     0.074 A 
ATOM     62  C   UNL A   1      38.221  34.372  34.774  1.00  0.00     0.031 C 
ATOM     63  C   UNL A   1      40.099  33.290  35.978  1.00  0.00     0.037 A 
BRANCH  50  64
ATOM     64  C   UNL A   1      44.172  28.655  35.654  1.00  0.00     0.058 A 
ATOM     65  C   UNL A   1      43.928  27.618  36.568  1.00  0.00     0.135 A 
ATOM     66  C   UNL A   1      45.508  29.010  35.405  1.00  0.00     0.135 A 
ATOM     67  F   UNL A   1      42.669  27.234  36.835  1.00  0.00    -0.206 F 
ATOM     68  C   UNL A   1      44.968  26.965  37.221  1.00  0.00     0.059 A 
ATOM     69  C   UNL A   1      46.565  28.354  36.029  1.00  0.00     0.059 A 
ATOM     70  F   UNL A   1      45.797  29.978  34.522  1.00  0.00    -0.206 F 
ATOM     71  C   UNL A   1      46.284  27.341  36.945  1.00  0.00     0.060 A 
BRANCH  71  72
ATOM     72  S   UNL A   1      47.626  26.460  37.771  1.00  0.00     0.124 S 
ATOM     73  O   UNL A   1      48.129  27.474  38.691  1.00  0.00    -0.237 OA
ATOM     74  O   UNL A   1      46.925  25.336  38.383  1.00  0.00    -0.237 OA
ATOM     75  O   UNL A   1      48.521  26.104  36.673  1.00  0.00    -0.744 OA
ENDBRANCH  71  72
ENDBRANCH  50  64
BRANCH  51  76
ATOM     76  C   UNL A   1      36.602  33.258  31.030  1.00  0.00     0.058 A 
ATOM     77  C   UNL A   1      36.817  34.106  29.934  1.00  0.00     0.135 A 
ATOM     78  C   UNL A   1      35.286  33.104  31.490  1.00  0.00     0.135 A 
ATOM     79  F   UNL A   1      38.060  34.294  29.462  1.00  0.00    -0.206 F 
ATOM     80  C   UNL A   1      35.771  34.797  29.332  1.00  0.00     0.059 A 
ATOM     81  C   UNL A   1      34.219  33.768  30.891  1.00  0.00     0.059 A 
ATOM     82  F   UNL A   1      35.030  32.293  32.528  1.00  0.00    -0.206 F 
ATOM     83  C   UNL A   1      34.475  34.627  29.823  1.00  0.00     0.060 A 
BRANCH  83  84
ATOM     84  S   UNL A   1      33.132  35.549  29.044  1.00  0.00     0.124 S 
ATOM     85  O   UNL A   1      32.395  36.028  30.209  1.00  0.00    -0.237 OA
ATOM     86  O   UNL A   1      33.857  36.566  28.288  1.00  0.00    -0.237 OA
ATOM     87  O   UNL A   1      32.451  34.540  28.239  1.00  0.00    -0.744 OA
ENDBRANCH  83  84
ENDBRANCH  51  76
BRANCH  63  88
ATOM     88  C   UNL A   1      39.946  34.308  37.071  1.00  0.00     0.058 A 
ATOM     89  C   UNL A   1      39.136  34.040  38.185  1.00  0.00     0.135 A 
ATOM     90  C   UNL A   1      40.528  35.581  36.971  1.00  0.00     0.135 A 
ATOM     91  F   UNL A   1      38.554  32.838  38.325  1.00  0.00    -0.206 F 
ATOM     92  C   UNL A   1      38.889  35.006  39.153  1.00  0.00     0.059 A 
ATOM     93  C   UNL A   1      40.312  36.558  37.940  1.00  0.00     0.059 A 
ATOM     94  F   UNL A   1      41.321  35.881  35.931  1.00  0.00    -0.206 F 
ATOM     95  C   UNL A   1      39.474  36.266  39.017  1.00  0.00     0.060 A 
BRANCH  95  96
ATOM     96  S   UNL A   1      39.139  37.512  40.279  1.00  0.00     0.124 S 
ATOM     97  O   UNL A   1      38.566  36.706  41.351  1.00  0.00    -0.237 OA
ATOM     98  O   UNL A   1      40.469  38.057  40.536  1.00  0.00    -0.237 OA
ATOM     99  O   UNL A   1      38.214  38.426  39.615  1.00  0.00    -0.744 OA
ENDBRANCH  95  96
ENDBRANCH  63  88
ENDBRANCH  37  38
ENDBRANCH  29  32
ENDBRANCH  27  28
ENDBRANCH   1  27
TORSDOF 18
ENDMDL
