MODEL 1
REMARK VINA RESULT:     -12.3      0.000      0.000
REMARK SMILES C[C@H]([C@@H]1CCCO1)n1c(SCC(=O)NCCCCNC(=O)c2ccc(-c3c4nc(c(-c5c(F)cc(S(=O)(=O)[O-])cc5F)c5ccc([nH]5)c(-c5c(F)cc(S(=O)(=O)[O-])cc5F)c5nc(c(-c6c(F)cc(S(=O)(=O)[O-])cc6F)c6ccc3[nH]6)C=C5)C=C4)cc2)nc2cnccc21
REMARK SMILES IDX 16 1 15 2 14 3 12 4 13 5 11 7 10 8 9 9 8 10 94 11 88 12
REMARK SMILES IDX 89 13 93 14 90 15 92 16 91 17 2 18 1 19 3 20 4 21 7 22 5 23
REMARK SMILES IDX 6 24 17 25 18 26 19 27 20 28 21 30 22 31 23 32 87 33 24 34
REMARK SMILES IDX 86 35 25 36 26 37 27 38 80 39 28 40 85 41 79 42 81 43 29 44
REMARK SMILES IDX 84 45 78 46 77 47 30 49 64 50 43 51 63 52 44 53 47 54 62 55
REMARK SMILES IDX 82 56 45 57 46 58 61 60 83 61 48 62 31 63 32 64 41 65 33 66
REMARK SMILES IDX 34 67 40 68 42 69 35 70 36 71 37 72 38 73 39 74 65 75 66 76
REMARK SMILES IDX 75 77 67 78 68 79 74 80 76 81 69 82 70 83 71 84 72 85 73 86
REMARK SMILES IDX 49 87 50 88 59 89 51 90 52 91 58 92 60 93 53 94 54 95 55 96
REMARK SMILES IDX 56 97 57 98
REMARK H PARENT 14 6 19 29 81 48 47 59
REMARK Flexibility Score: inf
ROOT
ATOM      1  C   UNL A   1      41.162  21.002  27.482  1.00  0.00     0.023 C 
ENDROOT
BRANCH   1   2
ATOM      2  C   UNL A   1      40.145  21.251  26.390  1.00  0.00     0.116 C 
BRANCH   2   3
ATOM      3  N   UNL A   1      39.609  22.594  26.422  1.00  0.00    -0.355 N 
ATOM      4  C   UNL A   1      38.353  22.961  26.056  1.00  0.00     0.230 C 
ATOM      5  O   UNL A   1      37.938  24.072  26.391  1.00  0.00    -0.274 OA
ATOM      6  H   UNL A   1      40.210  23.306  26.739  1.00  0.00     0.163 HD
BRANCH   4   7
ATOM      7  C   UNL A   1      37.479  21.969  25.346  1.00  0.00     0.178 C 
BRANCH   7   8
ATOM      8  S   UNL A   1      36.605  22.499  23.881  1.00  0.00    -0.078 SA
BRANCH   8   9
ATOM      9  C   UNL A   1      34.929  22.966  23.876  1.00  0.00     0.169 A 
ATOM     10  N   UNL A   1      33.713  22.443  24.316  1.00  0.00    -0.313 N 
ATOM     11  C   UNL A   1      32.710  23.315  23.838  1.00  0.00     0.072 A 
ATOM     12  N   UNL A   1      34.710  23.999  23.076  1.00  0.00    -0.221 NA
ATOM     13  C   UNL A   1      33.369  24.224  23.028  1.00  0.00     0.108 A 
ATOM     14  C   UNL A   1      31.321  23.397  24.022  1.00  0.00     0.049 A 
ATOM     15  C   UNL A   1      32.634  25.190  22.330  1.00  0.00     0.141 A 
ATOM     16  C   UNL A   1      30.675  24.396  23.305  1.00  0.00     0.113 A 
ATOM     17  N   UNL A   1      31.283  25.258  22.465  1.00  0.00    -0.262 NA
BRANCH  10  18
ATOM     18  C   UNL A   1      33.306  21.339  25.195  1.00  0.00     0.116 C 
ATOM     19  C   UNL A   1      33.612  21.670  26.655  1.00  0.00     0.034 C 
BRANCH  18  20
ATOM     20  C   UNL A   1      33.494  19.865  24.750  1.00  0.00     0.141 C 
ATOM     21  C   UNL A   1      32.610  19.399  23.644  1.00  0.00     0.036 C 
ATOM     22  O   UNL A   1      33.284  18.962  25.847  1.00  0.00    -0.376 OA
ATOM     23  C   UNL A   1      32.287  17.964  23.915  1.00  0.00     0.031 C 
ATOM     24  C   UNL A   1      32.545  17.819  25.397  1.00  0.00     0.160 C 
ENDBRANCH  18  20
ENDBRANCH  10  18
ENDBRANCH   8   9
ENDBRANCH   7   8
ENDBRANCH   4   7
ENDBRANCH   2   3
ENDBRANCH   1   2
BRANCH   1  25
ATOM     25  C   UNL A   1      42.164  19.883  27.209  1.00  0.00     0.023 C 
BRANCH  25  26
ATOM     26  C   UNL A   1      42.247  19.377  25.763  1.00  0.00     0.116 C 
BRANCH  26  27
ATOM     27  N   UNL A   1      43.507  19.609  25.082  1.00  0.00    -0.352 N 
ATOM     28  C   UNL A   1      44.382  20.646  24.969  1.00  0.00     0.251 C 
ATOM     29  H   UNL A   1      43.802  18.818  24.574  1.00  0.00     0.163 HD
ATOM     30  O   UNL A   1      45.373  20.441  24.263  1.00  0.00    -0.269 OA
BRANCH  28  31
ATOM     31  C   UNL A   1      44.202  21.972  25.599  1.00  0.00     0.039 A 
ATOM     32  C   UNL A   1      44.893  22.416  26.724  1.00  0.00     0.014 A 
ATOM     33  C   UNL A   1      43.250  22.820  25.002  1.00  0.00     0.014 A 
ATOM     34  C   UNL A   1      44.562  23.620  27.315  1.00  0.00     0.010 A 
ATOM     35  C   UNL A   1      42.952  24.052  25.559  1.00  0.00     0.010 A 
ATOM     36  C   UNL A   1      43.576  24.423  26.743  1.00  0.00    -0.014 A 
BRANCH  36  37
ATOM     37  C   UNL A   1      43.332  25.709  27.377  1.00  0.00     0.031 A 
ATOM     38  C   UNL A   1      44.377  26.725  27.081  1.00  0.00     0.074 A 
ATOM     39  C   UNL A   1      42.226  25.968  28.100  1.00  0.00     0.049 A 
ATOM     40  N   UNL A   1      45.232  27.247  27.897  1.00  0.00    -0.248 NA
ATOM     41  C   UNL A   1      44.614  27.077  25.670  1.00  0.00     0.031 C 
ATOM     42  C   UNL A   1      41.025  25.135  28.210  1.00  0.00     0.029 A 
ATOM     43  N   UNL A   1      41.893  27.084  28.807  1.00  0.00    -0.354 N 
ATOM     44  C   UNL A   1      45.946  28.180  27.148  1.00  0.00     0.074 A 
ATOM     45  C   UNL A   1      45.661  27.897  25.766  1.00  0.00     0.031 C 
ATOM     46  C   UNL A   1      40.016  25.878  28.716  1.00  0.00     0.029 A 
ATOM     47  C   UNL A   1      40.540  27.174  29.107  1.00  0.00     0.049 A 
ATOM     48  H   UNL A   1      42.551  27.764  29.078  1.00  0.00     0.167 HD
ATOM     49  C   UNL A   1      46.480  29.287  27.733  1.00  0.00     0.037 A 
ATOM     50  C   UNL A   1      39.893  28.268  29.578  1.00  0.00     0.037 A 
ATOM     51  C   UNL A   1      46.512  29.155  29.164  1.00  0.00     0.049 A 
ATOM     52  C   UNL A   1      40.904  29.121  30.254  1.00  0.00     0.074 A 
ATOM     53  C   UNL A   1      47.300  28.525  30.100  1.00  0.00     0.029 A 
ATOM     54  N   UNL A   1      45.330  29.478  29.773  1.00  0.00    -0.354 N 
ATOM     55  N   UNL A   1      41.557  28.754  31.323  1.00  0.00    -0.248 NA
ATOM     56  C   UNL A   1      41.453  30.280  29.559  1.00  0.00     0.031 C 
ATOM     57  C   UNL A   1      46.477  28.332  31.252  1.00  0.00     0.029 A 
ATOM     58  C   UNL A   1      45.221  28.880  31.000  1.00  0.00     0.049 A 
ATOM     59  H   UNL A   1      44.644  30.064  29.378  1.00  0.00     0.167 HD
ATOM     60  C   UNL A   1      42.797  29.347  31.189  1.00  0.00     0.074 A 
ATOM     61  C   UNL A   1      42.615  30.404  30.205  1.00  0.00     0.031 C 
ATOM     62  C   UNL A   1      43.927  28.725  31.631  1.00  0.00     0.037 A 
BRANCH  49  63
ATOM     63  C   UNL A   1      46.519  30.651  27.078  1.00  0.00     0.058 A 
ATOM     64  C   UNL A   1      47.735  31.360  27.004  1.00  0.00     0.135 A 
ATOM     65  C   UNL A   1      45.358  31.407  26.792  1.00  0.00     0.135 A 
ATOM     66  F   UNL A   1      48.898  30.750  27.288  1.00  0.00    -0.206 F 
ATOM     67  C   UNL A   1      47.790  32.724  26.702  1.00  0.00     0.059 A 
ATOM     68  C   UNL A   1      45.394  32.750  26.437  1.00  0.00     0.059 A 
ATOM     69  F   UNL A   1      44.127  30.903  26.942  1.00  0.00    -0.206 F 
ATOM     70  C   UNL A   1      46.611  33.410  26.423  1.00  0.00     0.060 A 
BRANCH  70  71
ATOM     71  S   UNL A   1      46.670  35.181  26.090  1.00  0.00     0.124 S 
ATOM     72  O   UNL A   1      47.910  35.299  25.334  1.00  0.00    -0.237 OA
ATOM     73  O   UNL A   1      45.438  35.385  25.333  1.00  0.00    -0.237 OA
ATOM     74  O   UNL A   1      46.681  35.774  27.424  1.00  0.00    -0.744 OA
ENDBRANCH  70  71
ENDBRANCH  49  63
BRANCH  50  75
ATOM     75  C   UNL A   1      38.573  28.794  29.135  1.00  0.00     0.058 A 
ATOM     76  C   UNL A   1      37.537  28.983  30.068  1.00  0.00     0.135 A 
ATOM     77  C   UNL A   1      38.405  29.420  27.883  1.00  0.00     0.135 A 
ATOM     78  F   UNL A   1      37.611  28.417  31.282  1.00  0.00    -0.206 F 
ATOM     79  C   UNL A   1      36.454  29.829  29.816  1.00  0.00     0.059 A 
ATOM     80  C   UNL A   1      37.326  30.256  27.604  1.00  0.00     0.059 A 
ATOM     81  F   UNL A   1      39.337  29.324  26.923  1.00  0.00    -0.206 F 
ATOM     82  C   UNL A   1      36.377  30.490  28.591  1.00  0.00     0.060 A 
BRANCH  82  83
ATOM     83  S   UNL A   1      35.118  31.765  28.354  1.00  0.00     0.124 S 
ATOM     84  O   UNL A   1      34.093  31.041  27.611  1.00  0.00    -0.237 OA
ATOM     85  O   UNL A   1      34.781  32.119  29.728  1.00  0.00    -0.237 OA
ATOM     86  O   UNL A   1      35.822  32.799  27.601  1.00  0.00    -0.744 OA
ENDBRANCH  82  83
ENDBRANCH  50  75
BRANCH  62  87
ATOM     87  C   UNL A   1      43.781  27.727  32.742  1.00  0.00     0.058 A 
ATOM     88  C   UNL A   1      43.547  28.044  34.091  1.00  0.00     0.135 A 
ATOM     89  C   UNL A   1      43.835  26.367  32.400  1.00  0.00     0.135 A 
ATOM     90  F   UNL A   1      43.396  29.317  34.484  1.00  0.00    -0.206 F 
ATOM     91  C   UNL A   1      43.425  27.050  35.063  1.00  0.00     0.059 A 
ATOM     92  C   UNL A   1      43.683  25.360  33.345  1.00  0.00     0.059 A 
ATOM     93  F   UNL A   1      44.008  26.001  31.120  1.00  0.00    -0.206 F 
ATOM     94  C   UNL A   1      43.497  25.709  34.681  1.00  0.00     0.060 A 
BRANCH  94  95
ATOM     95  S   UNL A   1      43.310  24.418  35.928  1.00  0.00     0.124 S 
ATOM     96  O   UNL A   1      42.087  23.745  35.490  1.00  0.00    -0.237 OA
ATOM     97  O   UNL A   1      44.544  23.649  35.764  1.00  0.00    -0.237 OA
ATOM     98  O   UNL A   1      43.205  25.155  37.175  1.00  0.00    -0.744 OA
ENDBRANCH  94  95
ENDBRANCH  62  87
ENDBRANCH  36  37
ENDBRANCH  28  31
ENDBRANCH  26  27
ENDBRANCH  25  26
ENDBRANCH   1  25
TORSDOF 18
ENDMDL
MODEL 2
REMARK VINA RESULT:     -12.0      1.316      2.406
REMARK SMILES C[C@H]([C@@H]1CCCO1)n1c(SCC(=O)NCCCCNC(=O)c2ccc(-c3c4nc(c(-c5c(F)cc(S(=O)(=O)[O-])cc5F)c5ccc([nH]5)c(-c5c(F)cc(S(=O)(=O)[O-])cc5F)c5nc(c(-c6c(F)cc(S(=O)(=O)[O-])cc6F)c6ccc3[nH]6)C=C5)C=C4)cc2)nc2cnccc21
REMARK SMILES IDX 16 1 15 2 14 3 12 4 13 5 11 7 10 8 9 9 8 10 94 11 88 12
REMARK SMILES IDX 89 13 93 14 90 15 92 16 91 17 2 18 1 19 3 20 4 21 7 22 5 23
REMARK SMILES IDX 6 24 17 25 18 26 19 27 20 28 21 30 22 31 23 32 87 33 24 34
REMARK SMILES IDX 86 35 25 36 26 37 27 38 80 39 28 40 85 41 79 42 81 43 29 44
REMARK SMILES IDX 84 45 78 46 77 47 30 49 64 50 43 51 63 52 44 53 47 54 62 55
REMARK SMILES IDX 82 56 45 57 46 58 61 60 83 61 48 62 31 63 32 64 41 65 33 66
REMARK SMILES IDX 34 67 40 68 42 69 35 70 36 71 37 72 38 73 39 74 65 75 66 76
REMARK SMILES IDX 75 77 67 78 68 79 74 80 76 81 69 82 70 83 71 84 72 85 73 86
REMARK SMILES IDX 49 87 50 88 59 89 51 90 52 91 58 92 60 93 53 94 54 95 55 96
REMARK SMILES IDX 56 97 57 98
REMARK H PARENT 14 6 19 29 81 48 47 59
REMARK Flexibility Score: inf
ROOT
ATOM      1  C   UNL A   1      40.822  21.059  27.403  1.00  0.00     0.023 C 
ENDROOT
BRANCH   1   2
ATOM      2  C   UNL A   1      40.086  21.448  26.139  1.00  0.00     0.116 C 
BRANCH   2   3
ATOM      3  N   UNL A   1      39.412  22.722  26.255  1.00  0.00    -0.355 N 
ATOM      4  C   UNL A   1      38.153  23.001  25.827  1.00  0.00     0.230 C 
ATOM      5  O   UNL A   1      37.601  24.025  26.231  1.00  0.00    -0.274 OA
ATOM      6  H   UNL A   1      39.911  23.453  26.684  1.00  0.00     0.163 HD
BRANCH   4   7
ATOM      7  C   UNL A   1      37.438  22.005  24.959  1.00  0.00     0.178 C 
BRANCH   7   8
ATOM      8  S   UNL A   1      36.121  22.587  23.902  1.00  0.00    -0.078 SA
BRANCH   8   9
ATOM      9  C   UNL A   1      34.504  22.898  24.461  1.00  0.00     0.169 A 
ATOM     10  N   UNL A   1      33.381  23.602  24.026  1.00  0.00    -0.313 N 
ATOM     11  C   UNL A   1      32.440  23.537  25.078  1.00  0.00     0.072 A 
ATOM     12  N   UNL A   1      34.344  22.537  25.726  1.00  0.00    -0.221 NA
ATOM     13  C   UNL A   1      33.103  22.923  26.127  1.00  0.00     0.108 A 
ATOM     14  C   UNL A   1      31.106  23.950  25.219  1.00  0.00     0.049 A 
ATOM     15  C   UNL A   1      32.460  22.778  27.362  1.00  0.00     0.141 A 
ATOM     16  C   UNL A   1      30.542  23.750  26.472  1.00  0.00     0.113 A 
ATOM     17  N   UNL A   1      31.182  23.208  27.528  1.00  0.00    -0.262 NA
BRANCH  10  18
ATOM     18  C   UNL A   1      32.967  24.236  22.768  1.00  0.00     0.116 C 
ATOM     19  C   UNL A   1      33.279  23.330  21.578  1.00  0.00     0.034 C 
BRANCH  18  20
ATOM     20  C   UNL A   1      33.142  25.763  22.559  1.00  0.00     0.141 C 
ATOM     21  C   UNL A   1      33.876  26.490  23.632  1.00  0.00     0.036 C 
ATOM     22  O   UNL A   1      31.869  26.416  22.422  1.00  0.00    -0.376 OA
ATOM     23  C   UNL A   1      33.253  27.845  23.751  1.00  0.00     0.031 C 
ATOM     24  C   UNL A   1      31.883  27.656  23.141  1.00  0.00     0.160 C 
ENDBRANCH  18  20
ENDBRANCH  10  18
ENDBRANCH   8   9
ENDBRANCH   7   8
ENDBRANCH   4   7
ENDBRANCH   2   3
ENDBRANCH   1   2
BRANCH   1  25
ATOM     25  C   UNL A   1      42.029  20.145  27.210  1.00  0.00     0.023 C 
BRANCH  25  26
ATOM     26  C   UNL A   1      42.158  19.463  25.842  1.00  0.00     0.116 C 
BRANCH  26  27
ATOM     27  N   UNL A   1      43.396  19.709  25.126  1.00  0.00    -0.352 N 
ATOM     28  C   UNL A   1      44.257  20.756  24.990  1.00  0.00     0.251 C 
ATOM     29  H   UNL A   1      43.687  18.922  24.610  1.00  0.00     0.163 HD
ATOM     30  O   UNL A   1      45.230  20.562  24.256  1.00  0.00    -0.269 OA
BRANCH  28  31
ATOM     31  C   UNL A   1      44.079  22.080  25.625  1.00  0.00     0.039 A 
ATOM     32  C   UNL A   1      44.747  22.504  26.772  1.00  0.00     0.014 A 
ATOM     33  C   UNL A   1      43.156  22.945  25.010  1.00  0.00     0.014 A 
ATOM     34  C   UNL A   1      44.418  23.708  27.363  1.00  0.00     0.010 A 
ATOM     35  C   UNL A   1      42.861  24.178  25.568  1.00  0.00     0.010 A 
ATOM     36  C   UNL A   1      43.459  24.531  26.772  1.00  0.00    -0.014 A 
BRANCH  36  37
ATOM     37  C   UNL A   1      43.217  25.815  27.409  1.00  0.00     0.031 A 
ATOM     38  C   UNL A   1      44.257  26.835  27.104  1.00  0.00     0.074 A 
ATOM     39  C   UNL A   1      42.118  26.070  28.143  1.00  0.00     0.049 A 
ATOM     40  N   UNL A   1      45.117  27.358  27.913  1.00  0.00    -0.248 NA
ATOM     41  C   UNL A   1      44.479  27.188  25.691  1.00  0.00     0.031 C 
ATOM     42  C   UNL A   1      40.920  25.234  28.263  1.00  0.00     0.029 A 
ATOM     43  N   UNL A   1      41.788  27.185  28.854  1.00  0.00    -0.354 N 
ATOM     44  C   UNL A   1      45.821  28.294  27.158  1.00  0.00     0.074 A 
ATOM     45  C   UNL A   1      45.525  28.012  25.779  1.00  0.00     0.031 C 
ATOM     46  C   UNL A   1      39.914  25.973  28.779  1.00  0.00     0.029 A 
ATOM     47  C   UNL A   1      40.437  27.270  29.166  1.00  0.00     0.049 A 
ATOM     48  H   UNL A   1      42.446  27.866  29.119  1.00  0.00     0.167 HD
ATOM     49  C   UNL A   1      46.358  29.402  27.739  1.00  0.00     0.037 A 
ATOM     50  C   UNL A   1      39.791  28.362  29.645  1.00  0.00     0.037 A 
ATOM     51  C   UNL A   1      46.404  29.269  29.170  1.00  0.00     0.049 A 
ATOM     52  C   UNL A   1      40.806  29.217  30.312  1.00  0.00     0.074 A 
ATOM     53  C   UNL A   1      47.202  28.641  30.098  1.00  0.00     0.029 A 
ATOM     54  N   UNL A   1      45.226  29.587  29.790  1.00  0.00    -0.354 N 
ATOM     55  N   UNL A   1      41.471  28.851  31.375  1.00  0.00    -0.248 NA
ATOM     56  C   UNL A   1      41.345  30.379  29.613  1.00  0.00     0.031 C 
ATOM     57  C   UNL A   1      46.390  28.444  31.257  1.00  0.00     0.029 A 
ATOM     58  C   UNL A   1      45.131  28.989  31.018  1.00  0.00     0.049 A 
ATOM     59  H   UNL A   1      44.536  30.173  29.402  1.00  0.00     0.167 HD
ATOM     60  C   UNL A   1      42.708  29.448  31.230  1.00  0.00     0.074 A 
ATOM     61  C   UNL A   1      42.513  30.505  30.248  1.00  0.00     0.031 C 
ATOM     62  C   UNL A   1      43.844  28.829  31.661  1.00  0.00     0.037 A 
BRANCH  49  63
ATOM     63  C   UNL A   1      46.386  30.767  27.085  1.00  0.00     0.058 A 
ATOM     64  C   UNL A   1      47.597  31.487  27.017  1.00  0.00     0.135 A 
ATOM     65  C   UNL A   1      45.220  31.512  26.796  1.00  0.00     0.135 A 
ATOM     66  F   UNL A   1      48.764  30.888  27.304  1.00  0.00    -0.206 F 
ATOM     67  C   UNL A   1      47.640  32.852  26.715  1.00  0.00     0.059 A 
ATOM     68  C   UNL A   1      45.245  32.856  26.441  1.00  0.00     0.059 A 
ATOM     69  F   UNL A   1      43.993  30.997  26.941  1.00  0.00    -0.206 F 
ATOM     70  C   UNL A   1      46.456  33.528  26.433  1.00  0.00     0.060 A 
BRANCH  70  71
ATOM     71  S   UNL A   1      46.499  35.299  26.100  1.00  0.00     0.124 S 
ATOM     72  O   UNL A   1      46.567  35.851  27.447  1.00  0.00    -0.237 OA
ATOM     73  O   UNL A   1      47.710  35.424  25.295  1.00  0.00    -0.237 OA
ATOM     74  O   UNL A   1      45.251  35.535  25.380  1.00  0.00    -0.744 OA
ENDBRANCH  70  71
ENDBRANCH  49  63
BRANCH  50  75
ATOM     75  C   UNL A   1      38.466  28.885  29.215  1.00  0.00     0.058 A 
ATOM     76  C   UNL A   1      37.441  29.077  30.159  1.00  0.00     0.135 A 
ATOM     77  C   UNL A   1      38.283  29.504  27.962  1.00  0.00     0.135 A 
ATOM     78  F   UNL A   1      37.530  28.517  31.375  1.00  0.00    -0.206 F 
ATOM     79  C   UNL A   1      36.354  29.921  29.915  1.00  0.00     0.059 A 
ATOM     80  C   UNL A   1      37.200  30.338  27.691  1.00  0.00     0.059 A 
ATOM     81  F   UNL A   1      39.203  29.405  26.992  1.00  0.00    -0.206 F 
ATOM     82  C   UNL A   1      36.262  30.575  28.689  1.00  0.00     0.060 A 
BRANCH  82  83
ATOM     83  S   UNL A   1      34.999  31.848  28.459  1.00  0.00     0.124 S 
ATOM     84  O   UNL A   1      35.678  32.790  27.577  1.00  0.00    -0.237 OA
ATOM     85  O   UNL A   1      33.906  31.088  27.862  1.00  0.00    -0.237 OA
ATOM     86  O   UNL A   1      34.752  32.328  29.816  1.00  0.00    -0.744 OA
ENDBRANCH  82  83
ENDBRANCH  50  75
BRANCH  62  87
ATOM     87  C   UNL A   1      43.711  27.830  32.771  1.00  0.00     0.058 A 
ATOM     88  C   UNL A   1      43.514  28.145  34.126  1.00  0.00     0.135 A 
ATOM     89  C   UNL A   1      43.738  26.470  32.425  1.00  0.00     0.135 A 
ATOM     90  F   UNL A   1      43.390  29.419  34.527  1.00  0.00    -0.206 F 
ATOM     91  C   UNL A   1      43.402  27.150  35.099  1.00  0.00     0.059 A 
ATOM     92  C   UNL A   1      43.595  25.462  33.370  1.00  0.00     0.059 A 
ATOM     93  F   UNL A   1      43.875  26.106  31.139  1.00  0.00    -0.206 F 
ATOM     94  C   UNL A   1      43.446  25.810  34.711  1.00  0.00     0.060 A 
BRANCH  94  95
ATOM     95  S   UNL A   1      43.272  24.517  35.959  1.00  0.00     0.124 S 
ATOM     96  O   UNL A   1      42.991  23.338  35.139  1.00  0.00    -0.237 OA
ATOM     97  O   UNL A   1      44.584  24.534  36.607  1.00  0.00    -0.237 OA
ATOM     98  O   UNL A   1      42.170  24.980  36.784  1.00  0.00    -0.744 OA
ENDBRANCH  94  95
ENDBRANCH  62  87
ENDBRANCH  36  37
ENDBRANCH  28  31
ENDBRANCH  26  27
ENDBRANCH  25  26
ENDBRANCH   1  25
TORSDOF 18
ENDMDL
MODEL 3
REMARK VINA RESULT:     -11.9      2.654      3.540
REMARK SMILES C[C@H]([C@@H]1CCCO1)n1c(SCC(=O)NCCCCNC(=O)c2ccc(-c3c4nc(c(-c5c(F)cc(S(=O)(=O)[O-])cc5F)c5ccc([nH]5)c(-c5c(F)cc(S(=O)(=O)[O-])cc5F)c5nc(c(-c6c(F)cc(S(=O)(=O)[O-])cc6F)c6ccc3[nH]6)C=C5)C=C4)cc2)nc2cnccc21
REMARK SMILES IDX 16 1 15 2 14 3 12 4 13 5 11 7 10 8 9 9 8 10 94 11 88 12
REMARK SMILES IDX 89 13 93 14 90 15 92 16 91 17 2 18 1 19 3 20 4 21 7 22 5 23
REMARK SMILES IDX 6 24 17 25 18 26 19 27 20 28 21 30 22 31 23 32 87 33 24 34
REMARK SMILES IDX 86 35 25 36 26 37 27 38 80 39 28 40 85 41 79 42 81 43 29 44
REMARK SMILES IDX 84 45 78 46 77 47 30 49 64 50 43 51 63 52 44 53 47 54 62 55
REMARK SMILES IDX 82 56 45 57 46 58 61 60 83 61 48 62 31 63 32 64 41 65 33 66
REMARK SMILES IDX 34 67 40 68 42 69 35 70 36 71 37 72 38 73 39 74 65 75 66 76
REMARK SMILES IDX 75 77 67 78 68 79 74 80 76 81 69 82 70 83 71 84 72 85 73 86
REMARK SMILES IDX 49 87 50 88 59 89 51 90 52 91 58 92 60 93 53 94 54 95 55 96
REMARK SMILES IDX 56 97 57 98
REMARK H PARENT 14 6 19 29 81 48 47 59
REMARK Flexibility Score: inf
ROOT
ATOM      1  C   UNL A   1      38.810  23.405  26.504  1.00  0.00     0.023 C 
ENDROOT
BRANCH   1   2
ATOM      2  C   UNL A   1      37.526  23.740  25.778  1.00  0.00     0.116 C 
BRANCH   2   3
ATOM      3  N   UNL A   1      36.349  23.310  26.498  1.00  0.00    -0.355 N 
ATOM      4  C   UNL A   1      35.062  23.593  26.166  1.00  0.00     0.230 C 
ATOM      5  O   UNL A   1      34.156  22.943  26.692  1.00  0.00    -0.274 OA
ATOM      6  H   UNL A   1      36.493  22.763  27.303  1.00  0.00     0.163 HD
BRANCH   4   7
ATOM      7  C   UNL A   1      34.789  24.612  25.098  1.00  0.00     0.178 C 
BRANCH   7   8
ATOM      8  S   UNL A   1      33.957  26.125  25.558  1.00  0.00    -0.078 SA
BRANCH   8   9
ATOM      9  C   UNL A   1      32.369  26.559  24.996  1.00  0.00     0.169 A 
ATOM     10  N   UNL A   1      31.207  25.903  24.587  1.00  0.00    -0.313 N 
ATOM     11  C   UNL A   1      30.332  26.907  24.115  1.00  0.00     0.072 A 
ATOM     12  N   UNL A   1      32.293  27.843  24.683  1.00  0.00    -0.221 NA
ATOM     13  C   UNL A   1      31.069  28.078  24.138  1.00  0.00     0.108 A 
ATOM     14  C   UNL A   1      29.000  26.909  23.673  1.00  0.00     0.049 A 
ATOM     15  C   UNL A   1      30.504  29.262  23.648  1.00  0.00     0.141 A 
ATOM     16  C   UNL A   1      28.515  28.131  23.222  1.00  0.00     0.113 A 
ATOM     17  N   UNL A   1      29.229  29.274  23.179  1.00  0.00    -0.262 NA
BRANCH  10  18
ATOM     18  C   UNL A   1      30.705  24.525  24.652  1.00  0.00     0.116 C 
ATOM     19  C   UNL A   1      30.598  24.057  26.103  1.00  0.00     0.034 C 
BRANCH  18  20
ATOM     20  C   UNL A   1      31.147  23.474  23.601  1.00  0.00     0.141 C 
ATOM     21  C   UNL A   1      31.868  22.283  24.131  1.00  0.00     0.036 C 
ATOM     22  O   UNL A   1      32.004  24.062  22.609  1.00  0.00    -0.376 OA
ATOM     23  C   UNL A   1      32.888  21.895  23.107  1.00  0.00     0.031 C 
ATOM     24  C   UNL A   1      33.074  23.159  22.300  1.00  0.00     0.160 C 
ENDBRANCH  18  20
ENDBRANCH  10  18
ENDBRANCH   8   9
ENDBRANCH   7   8
ENDBRANCH   4   7
ENDBRANCH   2   3
ENDBRANCH   1   2
BRANCH   1  25
ATOM     25  C   UNL A   1      39.425  22.049  26.168  1.00  0.00     0.023 C 
BRANCH  25  26
ATOM     26  C   UNL A   1      40.876  21.827  26.613  1.00  0.00     0.116 C 
BRANCH  26  27
ATOM     27  N   UNL A   1      41.899  22.248  25.674  1.00  0.00    -0.352 N 
ATOM     28  C   UNL A   1      42.599  23.391  25.437  1.00  0.00     0.251 C 
ATOM     29  H   UNL A   1      42.150  21.525  25.053  1.00  0.00     0.163 HD
ATOM     30  O   UNL A   1      43.406  23.346  24.504  1.00  0.00    -0.269 OA
BRANCH  28  31
ATOM     31  C   UNL A   1      42.429  24.654  26.188  1.00  0.00     0.039 A 
ATOM     32  C   UNL A   1      42.961  24.901  27.451  1.00  0.00     0.014 A 
ATOM     33  C   UNL A   1      41.661  25.652  25.561  1.00  0.00     0.014 A 
ATOM     34  C   UNL A   1      42.640  26.062  28.127  1.00  0.00     0.010 A 
ATOM     35  C   UNL A   1      41.379  26.842  26.212  1.00  0.00     0.010 A 
ATOM     36  C   UNL A   1      41.830  27.018  27.515  1.00  0.00    -0.014 A 
BRANCH  36  37
ATOM     37  C   UNL A   1      41.593  28.246  28.256  1.00  0.00     0.031 A 
ATOM     38  C   UNL A   1      42.654  29.272  28.062  1.00  0.00     0.074 A 
ATOM     39  C   UNL A   1      40.482  28.456  28.986  1.00  0.00     0.049 A 
ATOM     40  N   UNL A   1      43.504  29.709  28.930  1.00  0.00    -0.248 NA
ATOM     41  C   UNL A   1      42.912  29.742  26.689  1.00  0.00     0.031 C 
ATOM     42  C   UNL A   1      39.269  27.632  29.009  1.00  0.00     0.029 A 
ATOM     43  N   UNL A   1      40.153  29.510  29.784  1.00  0.00    -0.354 N 
ATOM     44  C   UNL A   1      44.239  30.694  28.274  1.00  0.00     0.074 A 
ATOM     45  C   UNL A   1      43.968  30.537  26.870  1.00  0.00     0.031 C 
ATOM     46  C   UNL A   1      38.263  28.340  29.566  1.00  0.00     0.029 A 
ATOM     47  C   UNL A   1      38.797  29.590  30.075  1.00  0.00     0.049 A 
ATOM     48  H   UNL A   1      40.815  30.155  30.121  1.00  0.00     0.167 HD
ATOM     49  C   UNL A   1      44.779  31.739  28.959  1.00  0.00     0.037 A 
ATOM     50  C   UNL A   1      38.158  30.647  30.633  1.00  0.00     0.037 A 
ATOM     51  C   UNL A   1      44.791  31.482  30.374  1.00  0.00     0.049 A 
ATOM     52  C   UNL A   1      39.170  31.424  31.393  1.00  0.00     0.074 A 
ATOM     53  C   UNL A   1      45.560  30.762  31.260  1.00  0.00     0.029 A 
ATOM     54  N   UNL A   1      43.606  31.765  30.996  1.00  0.00    -0.354 N 
ATOM     55  N   UNL A   1      39.806  30.957  32.433  1.00  0.00    -0.248 NA
ATOM     56  C   UNL A   1      39.741  32.633  30.808  1.00  0.00     0.031 C 
ATOM     57  C   UNL A   1      44.720  30.480  32.381  1.00  0.00     0.029 A 
ATOM     58  C   UNL A   1      43.474  31.064  32.164  1.00  0.00     0.049 A 
ATOM     59  H   UNL A   1      42.932  32.393  30.646  1.00  0.00     0.167 HD
ATOM     60  C   UNL A   1      41.054  31.543  32.366  1.00  0.00     0.074 A 
ATOM     61  C   UNL A   1      40.897  32.685  31.476  1.00  0.00     0.031 C 
ATOM     62  C   UNL A   1      42.171  30.870  32.764  1.00  0.00     0.037 A 
BRANCH  49  63
ATOM     63  C   UNL A   1      44.842  33.155  28.427  1.00  0.00     0.058 A 
ATOM     64  C   UNL A   1      46.093  33.756  28.178  1.00  0.00     0.135 A 
ATOM     65  C   UNL A   1      43.737  34.037  28.438  1.00  0.00     0.135 A 
ATOM     66  F   UNL A   1      47.215  33.019  28.177  1.00  0.00    -0.206 F 
ATOM     67  C   UNL A   1      46.236  35.133  27.987  1.00  0.00     0.059 A 
ATOM     68  C   UNL A   1      43.850  35.401  28.197  1.00  0.00     0.059 A 
ATOM     69  F   UNL A   1      42.508  33.632  28.782  1.00  0.00    -0.206 F 
ATOM     70  C   UNL A   1      45.107  35.947  28.002  1.00  0.00     0.060 A 
BRANCH  70  71
ATOM     71  S   UNL A   1      45.292  37.731  27.814  1.00  0.00     0.124 S 
ATOM     72  O   UNL A   1      45.853  38.107  29.106  1.00  0.00    -0.237 OA
ATOM     73  O   UNL A   1      46.198  37.820  26.673  1.00  0.00    -0.237 OA
ATOM     74  O   UNL A   1      43.928  38.184  27.558  1.00  0.00    -0.744 OA
ENDBRANCH  70  71
ENDBRANCH  49  63
BRANCH  50  75
ATOM     75  C   UNL A   1      36.850  31.227  30.223  1.00  0.00     0.058 A 
ATOM     76  C   UNL A   1      35.996  31.798  31.185  1.00  0.00     0.135 A 
ATOM     77  C   UNL A   1      36.559  31.527  28.877  1.00  0.00     0.135 A 
ATOM     78  F   UNL A   1      36.195  31.560  32.490  1.00  0.00    -0.206 F 
ATOM     79  C   UNL A   1      34.985  32.699  30.841  1.00  0.00     0.059 A 
ATOM     80  C   UNL A   1      35.547  32.410  28.509  1.00  0.00     0.059 A 
ATOM     81  F   UNL A   1      37.316  31.053  27.877  1.00  0.00    -0.206 F 
ATOM     82  C   UNL A   1      34.792  33.025  29.500  1.00  0.00     0.060 A 
BRANCH  82  83
ATOM     83  S   UNL A   1      33.656  34.365  29.072  1.00  0.00     0.124 S 
ATOM     84  O   UNL A   1      34.562  35.361  28.513  1.00  0.00    -0.237 OA
ATOM     85  O   UNL A   1      32.760  33.712  28.124  1.00  0.00    -0.237 OA
ATOM     86  O   UNL A   1      33.052  34.719  30.354  1.00  0.00    -0.744 OA
ENDBRANCH  82  83
ENDBRANCH  50  75
BRANCH  62  87
ATOM     87  C   UNL A   1      41.999  29.782  33.781  1.00  0.00     0.058 A 
ATOM     88  C   UNL A   1      41.902  29.977  35.170  1.00  0.00     0.135 A 
ATOM     89  C   UNL A   1      41.878  28.467  33.306  1.00  0.00     0.135 A 
ATOM     90  F   UNL A   1      41.922  31.210  35.696  1.00  0.00    -0.206 F 
ATOM     91  C   UNL A   1      41.745  28.903  36.048  1.00  0.00     0.059 A 
ATOM     92  C   UNL A   1      41.687  27.386  34.159  1.00  0.00     0.059 A 
ATOM     93  F   UNL A   1      41.915  28.222  31.986  1.00  0.00    -0.206 F 
ATOM     94  C   UNL A   1      41.641  27.610  35.533  1.00  0.00     0.060 A 
BRANCH  94  95
ATOM     95  S   UNL A   1      41.407  26.220  36.661  1.00  0.00     0.124 S 
ATOM     96  O   UNL A   1      40.821  25.208  35.781  1.00  0.00    -0.237 OA
ATOM     97  O   UNL A   1      42.774  25.950  37.107  1.00  0.00    -0.237 OA
ATOM     98  O   UNL A   1      40.518  26.749  37.681  1.00  0.00    -0.744 OA
ENDBRANCH  94  95
ENDBRANCH  62  87
ENDBRANCH  36  37
ENDBRANCH  28  31
ENDBRANCH  26  27
ENDBRANCH  25  26
ENDBRANCH   1  25
TORSDOF 18
ENDMDL
