MODEL 1
REMARK VINA RESULT:     -12.1      0.000      0.000
REMARK SMILES C[NH2+][C@]1(C(=O)NCCCCNC(=O)c2ccc(-c3c4nc(c(-c5c(F)cc(S(=O)(=O)[O-])cc5F)c5ccc([nH]5)c(-c5c(F)cc(S(=O)(=O)[O-])cc5F)c5nc(c(-c6c(F)cc(S(=O)(=O)[O-])cc6F)c6ccc3[nH]6)C=C5)C=C4)cc2)CC[C@@H](Sc2cc(F)ccc2F)C1
REMARK SMILES IDX 9 1 8 2 7 3 6 4 4 5 5 6 3 8 80 9 92 10 81 11 82 12 2 13 1 14
REMARK SMILES IDX 83 17 84 18 85 19 90 20 86 21 89 22 91 23 87 24 88 25 10 26
REMARK SMILES IDX 11 27 12 28 13 30 14 31 15 32 79 33 16 34 78 35 17 36 18 37
REMARK SMILES IDX 19 38 72 39 20 40 77 41 71 42 73 43 21 44 76 45 70 46 69 47
REMARK SMILES IDX 22 49 56 50 35 51 55 52 36 53 39 54 54 55 74 56 37 57 38 58
REMARK SMILES IDX 53 60 75 61 40 62 23 63 24 64 33 65 25 66 26 67 32 68 34 69
REMARK SMILES IDX 27 70 28 71 29 72 30 73 31 74 57 75 58 76 67 77 59 78 60 79
REMARK SMILES IDX 66 80 68 81 61 82 62 83 63 84 64 85 65 86 41 87 42 88 51 89
REMARK SMILES IDX 43 90 44 91 50 92 52 93 45 94 46 95 47 96 48 97 49 98
REMARK H PARENT 6 7 2 15 2 16 11 29 73 48 39 59
REMARK Flexibility Score: inf
ROOT
ATOM      1  C   UNL A   1      40.187  22.166  27.135  1.00  0.00     0.023 C 
ENDROOT
BRANCH   1   2
ATOM      2  C   UNL A   1      38.958  22.839  26.525  1.00  0.00     0.023 C 
BRANCH   2   3
ATOM      3  C   UNL A   1      38.008  21.914  25.771  1.00  0.00     0.116 C 
BRANCH   3   4
ATOM      4  N   UNL A   1      37.664  22.424  24.460  1.00  0.00    -0.351 N 
ATOM      5  C   UNL A   1      36.462  22.660  23.866  1.00  0.00     0.281 C 
ATOM      6  O   UNL A   1      36.511  23.013  22.679  1.00  0.00    -0.268 OA
ATOM      7  H   UNL A   1      38.441  22.639  23.895  1.00  0.00     0.163 HD
BRANCH   5   8
ATOM      8  C   UNL A   1      35.074  22.425  24.580  1.00  0.00     0.176 C 
ATOM      9  C   UNL A   1      35.093  23.088  25.972  1.00  0.00     0.080 C 
ATOM     10  C   UNL A   1      33.889  23.069  23.829  1.00  0.00     0.094 C 
ATOM     11  C   UNL A   1      33.734  23.758  26.182  1.00  0.00     0.022 C 
ATOM     12  C   UNL A   1      32.910  23.489  24.924  1.00  0.00     0.059 C 
BRANCH   8  13
ATOM     13  N   UNL A   1      34.898  20.948  24.652  1.00  0.00    -0.336 N 
ATOM     14  C   UNL A   1      33.568  20.380  24.635  1.00  0.00     0.331 C 
ATOM     15  H   UNL A   1      35.398  20.552  23.854  1.00  0.00     0.346 HD
ATOM     16  H   UNL A   1      35.244  20.714  25.582  1.00  0.00     0.346 HD
ENDBRANCH   8  13
BRANCH  12  17
ATOM     17  S   UNL A   1      31.686  24.779  24.465  1.00  0.00    -0.119 SA
BRANCH  17  18
ATOM     18  C   UNL A   1      32.225  26.228  25.356  1.00  0.00     0.046 A 
ATOM     19  C   UNL A   1      31.449  26.714  26.414  1.00  0.00     0.057 A 
ATOM     20  C   UNL A   1      33.343  26.969  24.951  1.00  0.00     0.136 A 
ATOM     21  C   UNL A   1      31.818  27.890  27.066  1.00  0.00     0.124 A 
ATOM     22  C   UNL A   1      33.703  28.151  25.601  1.00  0.00     0.043 A 
ATOM     23  F   UNL A   1      34.106  26.547  23.933  1.00  0.00    -0.206 F 
ATOM     24  F   UNL A   1      31.074  28.331  28.088  1.00  0.00    -0.207 F 
ATOM     25  C   UNL A   1      32.937  28.613  26.670  1.00  0.00     0.042 A 
ENDBRANCH  17  18
ENDBRANCH  12  17
ENDBRANCH   5   8
ENDBRANCH   3   4
ENDBRANCH   2   3
ENDBRANCH   1   2
BRANCH   1  26
ATOM     26  C   UNL A   1      41.484  22.973  27.099  1.00  0.00     0.116 C 
BRANCH  26  27
ATOM     27  N   UNL A   1      41.547  23.929  26.004  1.00  0.00    -0.352 N 
ATOM     28  C   UNL A   1      41.579  25.303  26.038  1.00  0.00     0.251 C 
ATOM     29  H   UNL A   1      41.570  23.532  25.103  1.00  0.00     0.163 HD
ATOM     30  O   UNL A   1      41.610  25.934  24.988  1.00  0.00    -0.269 OA
BRANCH  28  31
ATOM     31  C   UNL A   1      41.510  26.009  27.338  1.00  0.00     0.039 A 
ATOM     32  C   UNL A   1      42.603  26.787  27.731  1.00  0.00     0.014 A 
ATOM     33  C   UNL A   1      40.363  25.956  28.133  1.00  0.00     0.014 A 
ATOM     34  C   UNL A   1      42.505  27.594  28.867  1.00  0.00     0.010 A 
ATOM     35  C   UNL A   1      40.244  26.809  29.228  1.00  0.00     0.010 A 
ATOM     36  C   UNL A   1      41.305  27.652  29.592  1.00  0.00    -0.014 A 
BRANCH  36  37
ATOM     37  C   UNL A   1      41.122  28.624  30.699  1.00  0.00     0.031 A 
ATOM     38  C   UNL A   1      41.976  28.544  31.932  1.00  0.00     0.074 A 
ATOM     39  C   UNL A   1      40.126  29.530  30.621  1.00  0.00     0.049 A 
ATOM     40  N   UNL A   1      41.911  29.255  33.027  1.00  0.00    -0.248 NA
ATOM     41  C   UNL A   1      43.022  27.509  31.945  1.00  0.00     0.031 C 
ATOM     42  C   UNL A   1      39.189  29.665  29.501  1.00  0.00     0.029 A 
ATOM     43  N   UNL A   1      39.723  30.500  31.504  1.00  0.00    -0.354 N 
ATOM     44  C   UNL A   1      42.894  28.746  33.868  1.00  0.00     0.074 A 
ATOM     45  C   UNL A   1      43.512  27.638  33.172  1.00  0.00     0.031 C 
ATOM     46  C   UNL A   1      38.337  30.670  29.756  1.00  0.00     0.029 A 
ATOM     47  C   UNL A   1      38.644  31.233  31.067  1.00  0.00     0.049 A 
ATOM     48  H   UNL A   1      40.165  30.657  32.369  1.00  0.00     0.167 HD
ATOM     49  C   UNL A   1      43.260  29.175  35.099  1.00  0.00     0.037 A 
ATOM     50  C   UNL A   1      37.975  32.243  31.657  1.00  0.00     0.037 A 
ATOM     51  C   UNL A   1      42.659  30.296  35.775  1.00  0.00     0.049 A 
ATOM     52  C   UNL A   1      38.422  32.724  33.009  1.00  0.00     0.074 A 
ATOM     53  C   UNL A   1      42.994  30.843  37.001  1.00  0.00     0.029 A 
ATOM     54  N   UNL A   1      41.599  31.041  35.280  1.00  0.00    -0.354 N 
ATOM     55  N   UNL A   1      39.393  32.268  33.764  1.00  0.00    -0.248 NA
ATOM     56  C   UNL A   1      37.691  33.859  33.587  1.00  0.00     0.031 C 
ATOM     57  C   UNL A   1      42.120  31.907  37.258  1.00  0.00     0.029 A 
ATOM     58  C   UNL A   1      41.262  32.041  36.178  1.00  0.00     0.049 A 
ATOM     59  H   UNL A   1      41.152  30.884  34.417  1.00  0.00     0.167 HD
ATOM     60  C   UNL A   1      39.405  33.074  34.896  1.00  0.00     0.074 A 
ATOM     61  C   UNL A   1      38.350  34.053  34.722  1.00  0.00     0.031 C 
ATOM     62  C   UNL A   1      40.214  33.010  35.982  1.00  0.00     0.037 A 
BRANCH  49  63
ATOM     63  C   UNL A   1      44.370  28.432  35.787  1.00  0.00     0.058 A 
ATOM     64  C   UNL A   1      44.107  27.364  36.659  1.00  0.00     0.135 A 
ATOM     65  C   UNL A   1      45.713  28.780  35.563  1.00  0.00     0.135 A 
ATOM     66  F   UNL A   1      42.840  27.001  36.919  1.00  0.00    -0.206 F 
ATOM     67  C   UNL A   1      45.131  26.689  37.313  1.00  0.00     0.059 A 
ATOM     68  C   UNL A   1      46.755  28.102  36.188  1.00  0.00     0.059 A 
ATOM     69  F   UNL A   1      46.020  29.793  34.738  1.00  0.00    -0.206 F 
ATOM     70  C   UNL A   1      46.454  27.070  37.077  1.00  0.00     0.060 A 
BRANCH  70  71
ATOM     71  S   UNL A   1      47.774  26.195  37.942  1.00  0.00     0.124 S 
ATOM     72  O   UNL A   1      48.723  25.959  36.858  1.00  0.00    -0.237 OA
ATOM     73  O   UNL A   1      48.191  27.168  38.947  1.00  0.00    -0.237 OA
ATOM     74  O   UNL A   1      47.108  25.006  38.464  1.00  0.00    -0.744 OA
ENDBRANCH  70  71
ENDBRANCH  49  63
BRANCH  50  75
ATOM     75  C   UNL A   1      36.836  32.887  30.955  1.00  0.00     0.058 A 
ATOM     76  C   UNL A   1      35.518  32.694  31.396  1.00  0.00     0.135 A 
ATOM     77  C   UNL A   1      37.039  33.726  29.848  1.00  0.00     0.135 A 
ATOM     78  F   UNL A   1      35.275  31.898  32.448  1.00  0.00    -0.206 F 
ATOM     79  C   UNL A   1      34.439  33.297  30.757  1.00  0.00     0.059 A 
ATOM     80  C   UNL A   1      35.978  34.356  29.205  1.00  0.00     0.059 A 
ATOM     81  F   UNL A   1      38.283  33.958  29.400  1.00  0.00    -0.206 F 
ATOM     82  C   UNL A   1      34.680  34.129  29.662  1.00  0.00     0.060 A 
BRANCH  82  83
ATOM     83  S   UNL A   1      33.280  34.955  28.876  1.00  0.00     0.124 S 
ATOM     84  O   UNL A   1      32.344  35.070  29.989  1.00  0.00    -0.237 OA
ATOM     85  O   UNL A   1      33.878  36.204  28.412  1.00  0.00    -0.237 OA
ATOM     86  O   UNL A   1      32.895  34.024  27.819  1.00  0.00    -0.744 OA
ENDBRANCH  82  83
ENDBRANCH  50  75
BRANCH  62  87
ATOM     87  C   UNL A   1      40.009  34.042  37.052  1.00  0.00     0.058 A 
ATOM     88  C   UNL A   1      40.582  35.320  36.958  1.00  0.00     0.135 A 
ATOM     89  C   UNL A   1      39.192  33.767  38.159  1.00  0.00     0.135 A 
ATOM     90  F   UNL A   1      41.377  35.629  35.921  1.00  0.00    -0.206 F 
ATOM     91  C   UNL A   1      40.366  36.285  37.935  1.00  0.00     0.059 A 
ATOM     92  C   UNL A   1      38.946  34.724  39.138  1.00  0.00     0.059 A 
ATOM     93  F   UNL A   1      38.615  32.562  38.290  1.00  0.00    -0.206 F 
ATOM     94  C   UNL A   1      39.546  35.977  39.023  1.00  0.00     0.060 A 
BRANCH  94  95
ATOM     95  S   UNL A   1      39.243  37.248  40.269  1.00  0.00     0.124 S 
ATOM     96  O   UNL A   1      38.471  38.225  39.510  1.00  0.00    -0.237 OA
ATOM     97  O   UNL A   1      38.505  36.515  41.294  1.00  0.00    -0.237 OA
ATOM     98  O   UNL A   1      40.586  37.669  40.656  1.00  0.00    -0.744 OA
ENDBRANCH  94  95
ENDBRANCH  62  87
ENDBRANCH  36  37
ENDBRANCH  28  31
ENDBRANCH  26  27
ENDBRANCH   1  26
TORSDOF 17
ENDMDL
MODEL 2
REMARK VINA RESULT:     -12.0      6.826     12.163
REMARK SMILES C[NH2+][C@]1(C(=O)NCCCCNC(=O)c2ccc(-c3c4nc(c(-c5c(F)cc(S(=O)(=O)[O-])cc5F)c5ccc([nH]5)c(-c5c(F)cc(S(=O)(=O)[O-])cc5F)c5nc(c(-c6c(F)cc(S(=O)(=O)[O-])cc6F)c6ccc3[nH]6)C=C5)C=C4)cc2)CC[C@@H](Sc2cc(F)ccc2F)C1
REMARK SMILES IDX 9 1 8 2 7 3 6 4 4 5 5 6 3 8 80 9 92 10 81 11 82 12 2 13 1 14
REMARK SMILES IDX 83 17 84 18 85 19 90 20 86 21 89 22 91 23 87 24 88 25 10 26
REMARK SMILES IDX 11 27 12 28 13 30 14 31 15 32 79 33 16 34 78 35 17 36 18 37
REMARK SMILES IDX 19 38 72 39 20 40 77 41 71 42 73 43 21 44 76 45 70 46 69 47
REMARK SMILES IDX 22 49 56 50 35 51 55 52 36 53 39 54 54 55 74 56 37 57 38 58
REMARK SMILES IDX 53 60 75 61 40 62 23 63 24 64 33 65 25 66 26 67 32 68 34 69
REMARK SMILES IDX 27 70 28 71 29 72 30 73 31 74 57 75 58 76 67 77 59 78 60 79
REMARK SMILES IDX 66 80 68 81 61 82 62 83 63 84 64 85 65 86 41 87 42 88 51 89
REMARK SMILES IDX 43 90 44 91 50 92 52 93 45 94 46 95 47 96 48 97 49 98
REMARK H PARENT 6 7 2 15 2 16 11 29 73 48 39 59
REMARK Flexibility Score: inf
ROOT
ATOM      1  C   UNL A   1      34.435  28.977  27.150  1.00  0.00     0.023 C 
ENDROOT
BRANCH   1   2
ATOM      2  C   UNL A   1      33.112  29.735  27.040  1.00  0.00     0.023 C 
BRANCH   2   3
ATOM      3  C   UNL A   1      32.451  29.707  25.665  1.00  0.00     0.116 C 
BRANCH   3   4
ATOM      4  N   UNL A   1      33.413  29.580  24.591  1.00  0.00    -0.351 N 
ATOM      5  C   UNL A   1      33.379  28.881  23.422  1.00  0.00     0.281 C 
ATOM      6  O   UNL A   1      34.422  28.906  22.754  1.00  0.00    -0.268 OA
ATOM      7  H   UNL A   1      34.242  30.091  24.730  1.00  0.00     0.163 HD
BRANCH   5   8
ATOM      8  C   UNL A   1      32.146  28.012  22.959  1.00  0.00     0.176 C 
ATOM      9  C   UNL A   1      31.804  26.979  24.052  1.00  0.00     0.080 C 
ATOM     10  C   UNL A   1      30.861  28.843  22.755  1.00  0.00     0.094 C 
ATOM     11  C   UNL A   1      30.280  26.919  24.168  1.00  0.00     0.022 C 
ATOM     12  C   UNL A   1      29.720  27.905  23.145  1.00  0.00     0.059 C 
BRANCH   8  13
ATOM     13  N   UNL A   1      32.557  27.374  21.678  1.00  0.00    -0.336 N 
ATOM     14  C   UNL A   1      32.749  25.942  21.617  1.00  0.00     0.331 C 
ATOM     15  H   UNL A   1      31.839  27.605  20.989  1.00  0.00     0.346 HD
ATOM     16  H   UNL A   1      33.493  27.746  21.518  1.00  0.00     0.346 HD
ENDBRANCH   8  13
BRANCH  12  17
ATOM     17  S   UNL A   1      28.126  28.706  23.580  1.00  0.00    -0.119 SA
BRANCH  17  18
ATOM     18  C   UNL A   1      28.168  30.263  22.709  1.00  0.00     0.046 A 
ATOM     19  C   UNL A   1      27.806  30.307  21.358  1.00  0.00     0.057 A 
ATOM     20  C   UNL A   1      28.669  31.427  23.304  1.00  0.00     0.136 A 
ATOM     21  C   UNL A   1      27.910  31.501  20.647  1.00  0.00     0.124 A 
ATOM     22  C   UNL A   1      28.780  32.619  22.586  1.00  0.00     0.043 A 
ATOM     23  F   UNL A   1      29.040  31.427  24.593  1.00  0.00    -0.206 F 
ATOM     24  F   UNL A   1      27.543  31.529  19.359  1.00  0.00    -0.207 F 
ATOM     25  C   UNL A   1      28.394  32.657  21.247  1.00  0.00     0.042 A 
ENDBRANCH  17  18
ENDBRANCH  12  17
ENDBRANCH   5   8
ENDBRANCH   3   4
ENDBRANCH   2   3
ENDBRANCH   1   2
BRANCH   1  26
ATOM     26  C   UNL A   1      35.591  29.733  27.801  1.00  0.00     0.116 C 
BRANCH  26  27
ATOM     27  N   UNL A   1      35.464  29.870  29.243  1.00  0.00    -0.352 N 
ATOM     28  C   UNL A   1      36.440  29.956  30.208  1.00  0.00     0.251 C 
ATOM     29  H   UNL A   1      34.539  29.907  29.579  1.00  0.00     0.163 HD
ATOM     30  O   UNL A   1      36.118  30.047  31.387  1.00  0.00    -0.269 OA
BRANCH  28  31
ATOM     31  C   UNL A   1      37.866  29.874  29.821  1.00  0.00     0.039 A 
ATOM     32  C   UNL A   1      38.816  29.651  30.822  1.00  0.00     0.014 A 
ATOM     33  C   UNL A   1      38.261  29.955  28.483  1.00  0.00     0.014 A 
ATOM     34  C   UNL A   1      40.146  29.405  30.472  1.00  0.00     0.010 A 
ATOM     35  C   UNL A   1      39.573  29.646  28.132  1.00  0.00     0.010 A 
ATOM     36  C   UNL A   1      40.523  29.346  29.121  1.00  0.00    -0.014 A 
BRANCH  36  37
ATOM     37  C   UNL A   1      41.888  28.922  28.722  1.00  0.00     0.031 A 
ATOM     38  C   UNL A   1      43.004  29.923  28.643  1.00  0.00     0.074 A 
ATOM     39  C   UNL A   1      42.097  27.642  28.352  1.00  0.00     0.049 A 
ATOM     40  N   UNL A   1      44.238  29.754  28.243  1.00  0.00    -0.248 NA
ATOM     41  C   UNL A   1      42.683  31.304  29.039  1.00  0.00     0.031 C 
ATOM     42  C   UNL A   1      41.076  26.590  28.326  1.00  0.00     0.029 A 
ATOM     43  N   UNL A   1      43.232  27.008  27.913  1.00  0.00    -0.354 N 
ATOM     44  C   UNL A   1      44.837  31.005  28.323  1.00  0.00     0.074 A 
ATOM     45  C   UNL A   1      43.819  31.933  28.768  1.00  0.00     0.031 C 
ATOM     46  C   UNL A   1      41.635  25.441  27.914  1.00  0.00     0.029 A 
ATOM     47  C   UNL A   1      43.044  25.678  27.618  1.00  0.00     0.049 A 
ATOM     48  H   UNL A   1      44.100  27.463  27.818  1.00  0.00     0.167 HD
ATOM     49  C   UNL A   1      46.123  31.345  28.066  1.00  0.00     0.037 A 
ATOM     50  C   UNL A   1      43.910  24.753  27.157  1.00  0.00     0.037 A 
ATOM     51  C   UNL A   1      47.137  30.412  27.649  1.00  0.00     0.049 A 
ATOM     52  C   UNL A   1      45.339  25.147  26.913  1.00  0.00     0.074 A 
ATOM     53  C   UNL A   1      48.480  30.647  27.415  1.00  0.00     0.029 A 
ATOM     54  N   UNL A   1      46.918  29.064  27.405  1.00  0.00    -0.354 N 
ATOM     55  N   UNL A   1      45.902  26.323  27.051  1.00  0.00    -0.248 NA
ATOM     56  C   UNL A   1      46.253  24.090  26.459  1.00  0.00     0.031 C 
ATOM     57  C   UNL A   1      49.070  29.444  27.008  1.00  0.00     0.029 A 
ATOM     58  C   UNL A   1      48.100  28.454  27.018  1.00  0.00     0.049 A 
ATOM     59  H   UNL A   1      46.051  28.607  27.496  1.00  0.00     0.167 HD
ATOM     60  C   UNL A   1      47.241  26.145  26.722  1.00  0.00     0.074 A 
ATOM     61  C   UNL A   1      47.405  24.744  26.388  1.00  0.00     0.031 C 
ATOM     62  C   UNL A   1      48.243  27.057  26.697  1.00  0.00     0.037 A 
BRANCH  49  63
ATOM     63  C   UNL A   1      46.502  32.789  28.240  1.00  0.00     0.058 A 
ATOM     64  C   UNL A   1      46.395  33.708  27.184  1.00  0.00     0.135 A 
ATOM     65  C   UNL A   1      46.964  33.265  29.479  1.00  0.00     0.135 A 
ATOM     66  F   UNL A   1      45.973  33.301  25.976  1.00  0.00    -0.206 F 
ATOM     67  C   UNL A   1      46.766  35.039  27.338  1.00  0.00     0.059 A 
ATOM     68  C   UNL A   1      47.318  34.598  29.662  1.00  0.00     0.059 A 
ATOM     69  F   UNL A   1      47.085  32.428  30.521  1.00  0.00    -0.206 F 
ATOM     70  C   UNL A   1      47.233  35.474  28.579  1.00  0.00     0.060 A 
BRANCH  70  71
ATOM     71  S   UNL A   1      47.725  37.202  28.762  1.00  0.00     0.124 S 
ATOM     72  O   UNL A   1      49.040  37.196  28.128  1.00  0.00    -0.237 OA
ATOM     73  O   UNL A   1      46.674  37.907  28.034  1.00  0.00    -0.237 OA
ATOM     74  O   UNL A   1      47.725  37.403  30.208  1.00  0.00    -0.744 OA
ENDBRANCH  70  71
ENDBRANCH  49  63
BRANCH  50  75
ATOM     75  C   UNL A   1      43.453  23.357  26.933  1.00  0.00     0.058 A 
ATOM     76  C   UNL A   1      43.258  22.865  25.634  1.00  0.00     0.135 A 
ATOM     77  C   UNL A   1      43.224  22.481  28.006  1.00  0.00     0.135 A 
ATOM     78  F   UNL A   1      43.460  23.667  24.578  1.00  0.00    -0.206 F 
ATOM     79  C   UNL A   1      42.840  21.559  25.404  1.00  0.00     0.059 A 
ATOM     80  C   UNL A   1      42.825  21.164  27.800  1.00  0.00     0.059 A 
ATOM     81  F   UNL A   1      43.415  22.899  29.267  1.00  0.00    -0.206 F 
ATOM     82  C   UNL A   1      42.628  20.714  26.495  1.00  0.00     0.060 A 
BRANCH  82  83
ATOM     83  S   UNL A   1      42.143  19.002  26.186  1.00  0.00     0.124 S 
ATOM     84  O   UNL A   1      42.401  18.385  27.482  1.00  0.00    -0.237 OA
ATOM     85  O   UNL A   1      40.739  19.140  25.812  1.00  0.00    -0.237 OA
ATOM     86  O   UNL A   1      43.034  18.594  25.103  1.00  0.00    -0.744 OA
ENDBRANCH  82  83
ENDBRANCH  50  75
BRANCH  62  87
ATOM     87  C   UNL A   1      49.611  26.563  26.325  1.00  0.00     0.058 A 
ATOM     88  C   UNL A   1      50.088  26.646  25.008  1.00  0.00     0.135 A 
ATOM     89  C   UNL A   1      50.472  26.047  27.306  1.00  0.00     0.135 A 
ATOM     90  F   UNL A   1      49.299  27.126  24.033  1.00  0.00    -0.206 F 
ATOM     91  C   UNL A   1      51.367  26.216  24.671  1.00  0.00     0.059 A 
ATOM     92  C   UNL A   1      51.763  25.630  26.996  1.00  0.00     0.059 A 
ATOM     93  F   UNL A   1      50.066  25.955  28.582  1.00  0.00    -0.206 F 
ATOM     94  C   UNL A   1      52.197  25.709  25.673  1.00  0.00     0.060 A 
BRANCH  94  95
ATOM     95  S   UNL A   1      53.869  25.186  25.233  1.00  0.00     0.124 S 
ATOM     96  O   UNL A   1      53.649  23.797  24.848  1.00  0.00    -0.237 OA
ATOM     97  O   UNL A   1      54.209  26.100  24.147  1.00  0.00    -0.237 OA
ATOM     98  O   UNL A   1      54.620  25.386  26.469  1.00  0.00    -0.744 OA
ENDBRANCH  94  95
ENDBRANCH  62  87
ENDBRANCH  36  37
ENDBRANCH  28  31
ENDBRANCH  26  27
ENDBRANCH   1  26
TORSDOF 17
ENDMDL
MODEL 3
REMARK VINA RESULT:     -11.8      6.690     12.081
REMARK SMILES C[NH2+][C@]1(C(=O)NCCCCNC(=O)c2ccc(-c3c4nc(c(-c5c(F)cc(S(=O)(=O)[O-])cc5F)c5ccc([nH]5)c(-c5c(F)cc(S(=O)(=O)[O-])cc5F)c5nc(c(-c6c(F)cc(S(=O)(=O)[O-])cc6F)c6ccc3[nH]6)C=C5)C=C4)cc2)CC[C@@H](Sc2cc(F)ccc2F)C1
REMARK SMILES IDX 9 1 8 2 7 3 6 4 4 5 5 6 3 8 80 9 92 10 81 11 82 12 2 13 1 14
REMARK SMILES IDX 83 17 84 18 85 19 90 20 86 21 89 22 91 23 87 24 88 25 10 26
REMARK SMILES IDX 11 27 12 28 13 30 14 31 15 32 79 33 16 34 78 35 17 36 18 37
REMARK SMILES IDX 19 38 72 39 20 40 77 41 71 42 73 43 21 44 76 45 70 46 69 47
REMARK SMILES IDX 22 49 56 50 35 51 55 52 36 53 39 54 54 55 74 56 37 57 38 58
REMARK SMILES IDX 53 60 75 61 40 62 23 63 24 64 33 65 25 66 26 67 32 68 34 69
REMARK SMILES IDX 27 70 28 71 29 72 30 73 31 74 57 75 58 76 67 77 59 78 60 79
REMARK SMILES IDX 66 80 68 81 61 82 62 83 63 84 64 85 65 86 41 87 42 88 51 89
REMARK SMILES IDX 43 90 44 91 50 92 52 93 45 94 46 95 47 96 48 97 49 98
REMARK H PARENT 6 7 2 15 2 16 11 29 73 48 39 59
REMARK Flexibility Score: inf
ROOT
ATOM      1  C   UNL A   1      34.290  29.081  27.011  1.00  0.00     0.023 C 
ENDROOT
BRANCH   1   2
ATOM      2  C   UNL A   1      33.259  30.081  26.490  1.00  0.00     0.023 C 
BRANCH   2   3
ATOM      3  C   UNL A   1      32.487  29.644  25.249  1.00  0.00     0.116 C 
BRANCH   3   4
ATOM      4  N   UNL A   1      33.340  29.501  24.088  1.00  0.00    -0.351 N 
ATOM      5  C   UNL A   1      33.548  28.456  23.240  1.00  0.00     0.281 C 
ATOM      6  O   UNL A   1      34.431  28.627  22.387  1.00  0.00    -0.268 OA
ATOM      7  H   UNL A   1      33.865  30.305  23.873  1.00  0.00     0.163 HD
BRANCH   5   8
ATOM      8  C   UNL A   1      32.799  27.072  23.357  1.00  0.00     0.176 C 
ATOM      9  C   UNL A   1      33.553  26.007  22.533  1.00  0.00     0.080 C 
ATOM     10  C   UNL A   1      32.754  26.526  24.800  1.00  0.00     0.094 C 
ATOM     11  C   UNL A   1      33.562  24.714  23.351  1.00  0.00     0.022 C 
ATOM     12  C   UNL A   1      32.812  25.007  24.649  1.00  0.00     0.059 C 
BRANCH   8  13
ATOM     13  N   UNL A   1      31.419  27.313  22.853  1.00  0.00    -0.336 N 
ATOM     14  C   UNL A   1      30.293  27.188  23.753  1.00  0.00     0.331 C 
ATOM     15  H   UNL A   1      31.400  28.266  22.488  1.00  0.00     0.346 HD
ATOM     16  H   UNL A   1      31.274  26.555  22.187  1.00  0.00     0.346 HD
ENDBRANCH   8  13
BRANCH  12  17
ATOM     17  S   UNL A   1      33.356  24.065  26.129  1.00  0.00    -0.119 SA
BRANCH  17  18
ATOM     18  C   UNL A   1      33.389  22.368  25.578  1.00  0.00     0.046 A 
ATOM     19  C   UNL A   1      34.619  21.726  25.399  1.00  0.00     0.057 A 
ATOM     20  C   UNL A   1      32.221  21.692  25.203  1.00  0.00     0.136 A 
ATOM     21  C   UNL A   1      34.660  20.427  24.895  1.00  0.00     0.124 A 
ATOM     22  C   UNL A   1      32.267  20.395  24.690  1.00  0.00     0.043 A 
ATOM     23  F   UNL A   1      31.022  22.275  25.345  1.00  0.00    -0.206 F 
ATOM     24  F   UNL A   1      35.844  19.821  24.746  1.00  0.00    -0.207 F 
ATOM     25  C   UNL A   1      33.496  19.756  24.538  1.00  0.00     0.042 A 
ENDBRANCH  17  18
ENDBRANCH  12  17
ENDBRANCH   5   8
ENDBRANCH   3   4
ENDBRANCH   2   3
ENDBRANCH   1   2
BRANCH   1  26
ATOM     26  C   UNL A   1      35.520  29.677  27.693  1.00  0.00     0.116 C 
BRANCH  26  27
ATOM     27  N   UNL A   1      35.377  29.825  29.133  1.00  0.00    -0.352 N 
ATOM     28  C   UNL A   1      36.343  29.933  30.106  1.00  0.00     0.251 C 
ATOM     29  H   UNL A   1      34.448  29.851  29.460  1.00  0.00     0.163 HD
ATOM     30  O   UNL A   1      36.009  30.030  31.281  1.00  0.00    -0.269 OA
BRANCH  28  31
ATOM     31  C   UNL A   1      37.774  29.868  29.733  1.00  0.00     0.039 A 
ATOM     32  C   UNL A   1      38.718  29.675  30.746  1.00  0.00     0.014 A 
ATOM     33  C   UNL A   1      38.179  29.936  28.398  1.00  0.00     0.014 A 
ATOM     34  C   UNL A   1      40.054  29.445  30.411  1.00  0.00     0.010 A 
ATOM     35  C   UNL A   1      39.499  29.642  28.063  1.00  0.00     0.010 A 
ATOM     36  C   UNL A   1      40.444  29.372  29.065  1.00  0.00    -0.014 A 
BRANCH  36  37
ATOM     37  C   UNL A   1      41.820  28.963  28.684  1.00  0.00     0.031 A 
ATOM     38  C   UNL A   1      42.929  29.974  28.637  1.00  0.00     0.074 A 
ATOM     39  C   UNL A   1      42.045  27.690  28.302  1.00  0.00     0.049 A 
ATOM     40  N   UNL A   1      44.171  29.819  28.257  1.00  0.00    -0.248 NA
ATOM     41  C   UNL A   1      42.590  31.347  29.045  1.00  0.00     0.031 C 
ATOM     42  C   UNL A   1      41.034  26.630  28.245  1.00  0.00     0.029 A 
ATOM     43  N   UNL A   1      43.193  27.071  27.875  1.00  0.00    -0.354 N 
ATOM     44  C   UNL A   1      44.758  31.074  28.363  1.00  0.00     0.074 A 
ATOM     45  C   UNL A   1      43.726  31.988  28.802  1.00  0.00     0.031 C 
ATOM     46  C   UNL A   1      41.609  25.491  27.829  1.00  0.00     0.029 A 
ATOM     47  C   UNL A   1      43.021  25.743  27.560  1.00  0.00     0.049 A 
ATOM     48  H   UNL A   1      44.058  27.533  27.800  1.00  0.00     0.167 HD
ATOM     49  C   UNL A   1      46.046  31.428  28.133  1.00  0.00     0.037 A 
ATOM     50  C   UNL A   1      43.901  24.831  27.103  1.00  0.00     0.037 A 
ATOM     51  C   UNL A   1      47.074  30.508  27.722  1.00  0.00     0.049 A 
ATOM     52  C   UNL A   1      45.331  25.239  26.889  1.00  0.00     0.074 A 
ATOM     53  C   UNL A   1      48.419  30.756  27.514  1.00  0.00     0.029 A 
ATOM     54  N   UNL A   1      46.870  29.161  27.457  1.00  0.00    -0.354 N 
ATOM     55  N   UNL A   1      45.883  26.418  27.051  1.00  0.00    -0.248 NA
ATOM     56  C   UNL A   1      46.261  24.195  26.437  1.00  0.00     0.031 C 
ATOM     57  C   UNL A   1      49.025  29.564  27.102  1.00  0.00     0.029 A 
ATOM     58  C   UNL A   1      48.064  28.566  27.083  1.00  0.00     0.049 A 
ATOM     59  H   UNL A   1      46.006  28.697  27.527  1.00  0.00     0.167 HD
ATOM     60  C   UNL A   1      47.228  26.254  26.743  1.00  0.00     0.074 A 
ATOM     61  C   UNL A   1      47.410  24.859  26.395  1.00  0.00     0.031 C 
ATOM     62  C   UNL A   1      48.224  27.174  26.748  1.00  0.00     0.037 A 
BRANCH  49  63
ATOM     63  C   UNL A   1      46.410  32.873  28.332  1.00  0.00     0.058 A 
ATOM     64  C   UNL A   1      46.343  33.798  27.278  1.00  0.00     0.135 A 
ATOM     65  C   UNL A   1      46.818  33.342  29.591  1.00  0.00     0.135 A 
ATOM     66  F   UNL A   1      45.973  33.397  26.051  1.00  0.00    -0.206 F 
ATOM     67  C   UNL A   1      46.701  35.129  27.455  1.00  0.00     0.059 A 
ATOM     68  C   UNL A   1      47.158  34.675  29.797  1.00  0.00     0.059 A 
ATOM     69  F   UNL A   1      46.900  32.499  30.632  1.00  0.00    -0.206 F 
ATOM     70  C   UNL A   1      47.113  35.558  28.718  1.00  0.00     0.060 A 
BRANCH  70  71
ATOM     71  S   UNL A   1      47.588  37.287  28.931  1.00  0.00     0.124 S 
ATOM     72  O   UNL A   1      49.045  37.189  28.923  1.00  0.00    -0.237 OA
ATOM     73  O   UNL A   1      46.990  37.925  27.762  1.00  0.00    -0.237 OA
ATOM     74  O   UNL A   1      46.990  37.647  30.213  1.00  0.00    -0.744 OA
ENDBRANCH  70  71
ENDBRANCH  49  63
BRANCH  50  75
ATOM     75  C   UNL A   1      43.460  23.434  26.853  1.00  0.00     0.058 A 
ATOM     76  C   UNL A   1      43.287  22.958  25.545  1.00  0.00     0.135 A 
ATOM     77  C   UNL A   1      43.224  22.542  27.911  1.00  0.00     0.135 A 
ATOM     78  F   UNL A   1      43.497  23.777  24.503  1.00  0.00    -0.206 F 
ATOM     79  C   UNL A   1      42.884  21.652  25.291  1.00  0.00     0.059 A 
ATOM     80  C   UNL A   1      42.840  21.224  27.682  1.00  0.00     0.059 A 
ATOM     81  F   UNL A   1      43.394  22.943  29.180  1.00  0.00    -0.206 F 
ATOM     82  C   UNL A   1      42.664  20.790  26.368  1.00  0.00     0.060 A 
BRANCH  82  83
ATOM     83  S   UNL A   1      42.198  19.079  26.029  1.00  0.00     0.124 S 
ATOM     84  O   UNL A   1      40.756  19.198  25.844  1.00  0.00    -0.237 OA
ATOM     85  O   UNL A   1      42.973  18.779  24.829  1.00  0.00    -0.237 OA
ATOM     86  O   UNL A   1      42.626  18.372  27.233  1.00  0.00    -0.744 OA
ENDBRANCH  82  83
ENDBRANCH  50  75
BRANCH  62  87
ATOM     87  C   UNL A   1      49.602  26.696  26.393  1.00  0.00     0.058 A 
ATOM     88  C   UNL A   1      50.412  26.032  27.327  1.00  0.00     0.135 A 
ATOM     89  C   UNL A   1      50.098  26.861  25.090  1.00  0.00     0.135 A 
ATOM     90  F   UNL A   1      49.984  25.857  28.588  1.00  0.00    -0.206 F 
ATOM     91  C   UNL A   1      51.676  25.563  26.987  1.00  0.00     0.059 A 
ATOM     92  C   UNL A   1      51.351  26.381  24.722  1.00  0.00     0.059 A 
ATOM     93  F   UNL A   1      49.358  27.481  24.158  1.00  0.00    -0.206 F 
ATOM     94  C   UNL A   1      52.137  25.743  25.681  1.00  0.00     0.060 A 
BRANCH  94  95
ATOM     95  S   UNL A   1      53.765  25.100  25.238  1.00  0.00     0.124 S 
ATOM     96  O   UNL A   1      53.915  25.596  23.875  1.00  0.00    -0.237 OA
ATOM     97  O   UNL A   1      54.631  25.718  26.238  1.00  0.00    -0.237 OA
ATOM     98  O   UNL A   1      53.604  23.654  25.369  1.00  0.00    -0.744 OA
ENDBRANCH  94  95
ENDBRANCH  62  87
ENDBRANCH  36  37
ENDBRANCH  28  31
ENDBRANCH  26  27
ENDBRANCH   1  26
TORSDOF 17
ENDMDL
