MODEL 1
REMARK VINA RESULT:     -11.9      0.000      0.000
REMARK SMILES CC[C@H]1CO[C@@H](C)CN1c1cccc(F)c1C(=O)NCCCCNC(=O)c1ccc(-c2c3nc(c(-c4c(F)cc(S(=O)(=O)[O-])cc4F)c4ccc([nH]4)c(-c4c(F)cc(S(=O)(=O)[O-])cc4F)c4nc(c(-c5c(F)cc(S(=O)(=O)[O-])cc5F)c5ccc2[nH]5)C=C4)C=C3)cc1
REMARK SMILES IDX 22 1 21 2 20 3 19 4 17 5 18 6 16 8 10 9 11 10 12 11 14 12
REMARK SMILES IDX 13 13 15 14 9 15 3 16 4 17 5 18 8 19 6 20 7 21 2 22 1 23
REMARK SMILES IDX 23 24 24 25 25 26 26 28 27 29 28 30 92 31 29 32 91 33 30 34
REMARK SMILES IDX 31 35 32 36 85 37 33 38 90 39 84 40 86 41 34 42 89 43 83 44
REMARK SMILES IDX 82 45 35 47 69 48 48 49 68 50 49 51 52 52 67 53 87 54 50 55
REMARK SMILES IDX 51 56 66 58 88 59 53 60 36 61 37 62 46 63 38 64 39 65 45 66
REMARK SMILES IDX 47 67 40 68 41 69 42 70 43 71 44 72 70 73 71 74 80 75 72 76
REMARK SMILES IDX 73 77 79 78 81 79 74 80 75 81 76 82 77 83 78 84 54 85 55 86
REMARK SMILES IDX 64 87 56 88 57 89 63 90 65 91 58 92 59 93 60 94 61 95 62 96
REMARK H PARENT 19 7 24 27 86 46 52 57
REMARK Flexibility Score: inf
ROOT
ATOM      1  C   UNL A   1      39.787  22.539  26.867  1.00  0.00     0.023 C 
ENDROOT
BRANCH   1   2
ATOM      2  C   UNL A   1      38.670  23.414  26.283  1.00  0.00     0.023 C 
BRANCH   2   3
ATOM      3  C   UNL A   1      37.449  22.645  25.752  1.00  0.00     0.116 C 
BRANCH   3   4
ATOM      4  N   UNL A   1      36.656  23.463  24.853  1.00  0.00    -0.352 N 
ATOM      5  C   UNL A   1      35.717  22.942  23.986  1.00  0.00     0.256 C 
ATOM      6  O   UNL A   1      35.957  22.993  22.783  1.00  0.00    -0.269 OA
ATOM      7  H   UNL A   1      36.794  24.438  24.863  1.00  0.00     0.163 HD
BRANCH   5   8
ATOM      8  C   UNL A   1      34.437  22.370  24.473  1.00  0.00     0.098 A 
ATOM      9  C   UNL A   1      33.264  23.173  24.598  1.00  0.00     0.053 A 
ATOM     10  C   UNL A   1      32.048  22.507  24.855  1.00  0.00     0.027 A 
ATOM     11  C   UNL A   1      31.991  21.136  25.108  1.00  0.00     0.005 A 
ATOM     12  C   UNL A   1      34.354  20.991  24.702  1.00  0.00     0.138 A 
ATOM     13  C   UNL A   1      33.153  20.383  25.059  1.00  0.00     0.040 A 
ATOM     14  F   UNL A   1      35.419  20.191  24.560  1.00  0.00    -0.206 F 
BRANCH   9  15
ATOM     15  N   UNL A   1      33.280  24.565  24.554  1.00  0.00    -0.363 N 
ATOM     16  C   UNL A   1      33.462  25.368  23.310  1.00  0.00     0.108 C 
ATOM     17  C   UNL A   1      32.810  26.759  23.532  1.00  0.00     0.185 C 
ATOM     18  O   UNL A   1      33.334  27.434  24.686  1.00  0.00    -0.375 OA
ATOM     19  C   UNL A   1      33.852  25.269  25.729  1.00  0.00     0.148 C 
ATOM     20  C   UNL A   1      33.193  26.656  25.893  1.00  0.00     0.134 C 
ATOM     21  C   UNL A   1      31.733  26.601  26.337  1.00  0.00     0.040 C 
BRANCH  16  22
ATOM     22  C   UNL A   1      32.948  24.759  21.989  1.00  0.00     0.024 C 
ATOM     23  C   UNL A   1      32.545  25.728  20.887  1.00  0.00     0.006 C 
ENDBRANCH  16  22
ENDBRANCH   9  15
ENDBRANCH   5   8
ENDBRANCH   3   4
ENDBRANCH   2   3
ENDBRANCH   1   2
BRANCH   1  24
ATOM     24  C   UNL A   1      41.110  23.255  27.130  1.00  0.00     0.116 C 
BRANCH  24  25
ATOM     25  N   UNL A   1      41.544  24.091  26.022  1.00  0.00    -0.352 N 
ATOM     26  C   UNL A   1      41.767  25.449  25.994  1.00  0.00     0.251 C 
ATOM     27  H   UNL A   1      41.700  23.620  25.172  1.00  0.00     0.163 HD
ATOM     28  O   UNL A   1      42.046  26.005  24.940  1.00  0.00    -0.269 OA
BRANCH  26  29
ATOM     29  C   UNL A   1      41.631  26.232  27.240  1.00  0.00     0.039 A 
ATOM     30  C   UNL A   1      42.604  27.188  27.541  1.00  0.00     0.014 A 
ATOM     31  C   UNL A   1      40.538  26.043  28.088  1.00  0.00     0.014 A 
ATOM     32  C   UNL A   1      42.441  28.008  28.659  1.00  0.00     0.010 A 
ATOM     33  C   UNL A   1      40.343  26.904  29.163  1.00  0.00     0.010 A 
ATOM     34  C   UNL A   1      41.290  27.898  29.455  1.00  0.00    -0.014 A 
BRANCH  34  35
ATOM     35  C   UNL A   1      41.050  28.822  30.592  1.00  0.00     0.031 A 
ATOM     36  C   UNL A   1      41.885  28.719  31.837  1.00  0.00     0.074 A 
ATOM     37  C   UNL A   1      40.037  29.710  30.524  1.00  0.00     0.049 A 
ATOM     38  N   UNL A   1      41.776  29.379  32.960  1.00  0.00    -0.248 NA
ATOM     39  C   UNL A   1      42.970  27.723  31.829  1.00  0.00     0.031 C 
ATOM     40  C   UNL A   1      39.130  29.872  29.386  1.00  0.00     0.029 A 
ATOM     41  N   UNL A   1      39.595  30.638  31.433  1.00  0.00    -0.354 N 
ATOM     42  C   UNL A   1      42.766  28.873  33.794  1.00  0.00     0.074 A 
ATOM     43  C   UNL A   1      43.431  27.814  33.067  1.00  0.00     0.031 C 
ATOM     44  C   UNL A   1      38.261  30.861  29.652  1.00  0.00     0.029 A 
ATOM     45  C   UNL A   1      38.523  31.377  30.992  1.00  0.00     0.049 A 
ATOM     46  H   UNL A   1      40.008  30.764  32.318  1.00  0.00     0.167 HD
ATOM     47  C   UNL A   1      43.105  29.275  35.041  1.00  0.00     0.037 A 
ATOM     48  C   UNL A   1      37.827  32.357  31.599  1.00  0.00     0.037 A 
ATOM     49  C   UNL A   1      42.459  30.352  35.743  1.00  0.00     0.049 A 
ATOM     50  C   UNL A   1      38.223  32.787  32.985  1.00  0.00     0.074 A 
ATOM     51  C   UNL A   1      42.763  30.868  36.991  1.00  0.00     0.029 A 
ATOM     52  N   UNL A   1      41.382  31.082  35.261  1.00  0.00    -0.354 N 
ATOM     53  N   UNL A   1      39.189  32.326  33.743  1.00  0.00    -0.248 NA
ATOM     54  C   UNL A   1      37.437  33.865  33.600  1.00  0.00     0.031 C 
ATOM     55  C   UNL A   1      41.850  31.888  37.277  1.00  0.00     0.029 A 
ATOM     56  C   UNL A   1      41.001  32.034  36.190  1.00  0.00     0.049 A 
ATOM     57  H   UNL A   1      40.953  30.942  34.385  1.00  0.00     0.167 HD
ATOM     58  C   UNL A   1      39.141  33.071  34.915  1.00  0.00     0.074 A 
ATOM     59  C   UNL A   1      38.058  34.020  34.762  1.00  0.00     0.031 C 
ATOM     60  C   UNL A   1      39.923  32.976  36.018  1.00  0.00     0.037 A 
BRANCH  47  61
ATOM     61  C   UNL A   1      44.241  28.563  35.720  1.00  0.00     0.058 A 
ATOM     62  C   UNL A   1      45.570  28.951  35.491  1.00  0.00     0.135 A 
ATOM     63  C   UNL A   1      44.017  27.460  36.561  1.00  0.00     0.135 A 
ATOM     64  F   UNL A   1      45.842  30.003  34.702  1.00  0.00    -0.206 F 
ATOM     65  C   UNL A   1      46.637  28.265  36.062  1.00  0.00     0.059 A 
ATOM     66  C   UNL A   1      45.067  26.775  37.162  1.00  0.00     0.059 A 
ATOM     67  F   UNL A   1      42.763  27.062  36.831  1.00  0.00    -0.206 F 
ATOM     68  C   UNL A   1      46.375  27.176  36.895  1.00  0.00     0.060 A 
BRANCH  68  69
ATOM     69  S   UNL A   1      47.768  26.317  37.658  1.00  0.00     0.124 S 
ATOM     70  O   UNL A   1      48.906  27.042  37.106  1.00  0.00    -0.237 OA
ATOM     71  O   UNL A   1      47.512  26.519  39.081  1.00  0.00    -0.237 OA
ATOM     72  O   UNL A   1      47.611  24.941  37.194  1.00  0.00    -0.744 OA
ENDBRANCH  68  69
ENDBRANCH  47  61
BRANCH  48  73
ATOM     73  C   UNL A   1      36.710  33.024  30.878  1.00  0.00     0.058 A 
ATOM     74  C   UNL A   1      36.950  33.984  29.884  1.00  0.00     0.135 A 
ATOM     75  C   UNL A   1      35.376  32.739  31.204  1.00  0.00     0.135 A 
ATOM     76  F   UNL A   1      38.208  34.301  29.543  1.00  0.00    -0.206 F 
ATOM     77  C   UNL A   1      35.908  34.657  29.255  1.00  0.00     0.059 A 
ATOM     78  C   UNL A   1      34.315  33.383  30.573  1.00  0.00     0.059 A 
ATOM     79  F   UNL A   1      35.097  31.820  32.140  1.00  0.00    -0.206 F 
ATOM     80  C   UNL A   1      34.593  34.354  29.612  1.00  0.00     0.060 A 
BRANCH  80  81
ATOM     81  S   UNL A   1      33.253  35.252  28.799  1.00  0.00     0.124 S 
ATOM     82  O   UNL A   1      32.655  34.203  27.979  1.00  0.00    -0.237 OA
ATOM     83  O   UNL A   1      32.454  35.702  29.935  1.00  0.00    -0.237 OA
ATOM     84  O   UNL A   1      33.947  36.304  28.066  1.00  0.00    -0.744 OA
ENDBRANCH  80  81
ENDBRANCH  48  73
BRANCH  60  85
ATOM     85  C   UNL A   1      39.654  33.929  37.148  1.00  0.00     0.058 A 
ATOM     86  C   UNL A   1      40.334  35.156  37.221  1.00  0.00     0.135 A 
ATOM     87  C   UNL A   1      38.792  33.591  38.203  1.00  0.00     0.135 A 
ATOM     88  F   UNL A   1      41.173  35.524  36.240  1.00  0.00    -0.206 F 
ATOM     89  C   UNL A   1      40.186  36.003  38.312  1.00  0.00     0.059 A 
ATOM     90  C   UNL A   1      38.610  34.436  39.293  1.00  0.00     0.059 A 
ATOM     91  F   UNL A   1      38.111  32.434  38.173  1.00  0.00    -0.206 F 
ATOM     92  C   UNL A   1      39.326  35.633  39.347  1.00  0.00     0.060 A 
BRANCH  92  93
ATOM     93  S   UNL A   1      39.145  36.745  40.757  1.00  0.00     0.124 S 
ATOM     94  O   UNL A   1      38.456  35.895  41.721  1.00  0.00    -0.237 OA
ATOM     95  O   UNL A   1      40.532  37.071  41.075  1.00  0.00    -0.237 OA
ATOM     96  O   UNL A   1      38.358  37.850  40.218  1.00  0.00    -0.744 OA
ENDBRANCH  92  93
ENDBRANCH  60  85
ENDBRANCH  34  35
ENDBRANCH  26  29
ENDBRANCH  24  25
ENDBRANCH   1  24
TORSDOF 16
ENDMDL
MODEL 2
REMARK VINA RESULT:     -11.9      0.928      1.903
REMARK SMILES CC[C@H]1CO[C@@H](C)CN1c1cccc(F)c1C(=O)NCCCCNC(=O)c1ccc(-c2c3nc(c(-c4c(F)cc(S(=O)(=O)[O-])cc4F)c4ccc([nH]4)c(-c4c(F)cc(S(=O)(=O)[O-])cc4F)c4nc(c(-c5c(F)cc(S(=O)(=O)[O-])cc5F)c5ccc2[nH]5)C=C4)C=C3)cc1
REMARK SMILES IDX 22 1 21 2 20 3 19 4 17 5 18 6 16 8 10 9 11 10 12 11 14 12
REMARK SMILES IDX 13 13 15 14 9 15 3 16 4 17 5 18 8 19 6 20 7 21 2 22 1 23
REMARK SMILES IDX 23 24 24 25 25 26 26 28 27 29 28 30 92 31 29 32 91 33 30 34
REMARK SMILES IDX 31 35 32 36 85 37 33 38 90 39 84 40 86 41 34 42 89 43 83 44
REMARK SMILES IDX 82 45 35 47 69 48 48 49 68 50 49 51 52 52 67 53 87 54 50 55
REMARK SMILES IDX 51 56 66 58 88 59 53 60 36 61 37 62 46 63 38 64 39 65 45 66
REMARK SMILES IDX 47 67 40 68 41 69 42 70 43 71 44 72 70 73 71 74 80 75 72 76
REMARK SMILES IDX 73 77 79 78 81 79 74 80 75 81 76 82 77 83 78 84 54 85 55 86
REMARK SMILES IDX 64 87 56 88 57 89 63 90 65 91 58 92 59 93 60 94 61 95 62 96
REMARK H PARENT 19 7 24 27 86 46 52 57
REMARK Flexibility Score: inf
ROOT
ATOM      1  C   UNL A   1      38.780  22.693  26.273  1.00  0.00     0.023 C 
ENDROOT
BRANCH   1   2
ATOM      2  C   UNL A   1      37.849  23.832  25.838  1.00  0.00     0.023 C 
BRANCH   2   3
ATOM      3  C   UNL A   1      36.370  23.644  26.211  1.00  0.00     0.116 C 
BRANCH   3   4
ATOM      4  N   UNL A   1      35.499  23.918  25.082  1.00  0.00    -0.352 N 
ATOM      5  C   UNL A   1      35.234  22.996  24.090  1.00  0.00     0.256 C 
ATOM      6  O   UNL A   1      35.685  23.214  22.969  1.00  0.00    -0.269 OA
ATOM      7  H   UNL A   1      35.075  24.805  25.022  1.00  0.00     0.163 HD
BRANCH   5   8
ATOM      8  C   UNL A   1      34.401  21.794  24.343  1.00  0.00     0.098 A 
ATOM      9  C   UNL A   1      32.990  21.811  24.136  1.00  0.00     0.053 A 
ATOM     10  C   UNL A   1      32.313  20.575  24.188  1.00  0.00     0.027 A 
ATOM     11  C   UNL A   1      32.956  19.391  24.553  1.00  0.00     0.005 A 
ATOM     12  C   UNL A   1      35.033  20.590  24.681  1.00  0.00     0.138 A 
ATOM     13  C   UNL A   1      34.314  19.407  24.828  1.00  0.00     0.040 A 
ATOM     14  F   UNL A   1      36.360  20.517  24.848  1.00  0.00    -0.206 F 
BRANCH   9  15
ATOM     15  N   UNL A   1      32.255  22.981  23.963  1.00  0.00    -0.363 N 
ATOM     16  C   UNL A   1      31.088  23.376  24.805  1.00  0.00     0.108 C 
ATOM     17  C   UNL A   1      30.955  24.923  24.750  1.00  0.00     0.185 C 
ATOM     18  O   UNL A   1      30.838  25.417  23.407  1.00  0.00    -0.375 OA
ATOM     19  C   UNL A   1      32.101  23.479  22.573  1.00  0.00     0.148 C 
ATOM     20  C   UNL A   1      31.945  25.016  22.572  1.00  0.00     0.134 C 
ATOM     21  C   UNL A   1      33.216  25.770  22.956  1.00  0.00     0.040 C 
BRANCH  16  22
ATOM     22  C   UNL A   1      31.079  22.907  26.274  1.00  0.00     0.024 C 
ATOM     23  C   UNL A   1      32.315  23.208  27.108  1.00  0.00     0.006 C 
ENDBRANCH  16  22
ENDBRANCH   9  15
ENDBRANCH   5   8
ENDBRANCH   3   4
ENDBRANCH   2   3
ENDBRANCH   1   2
BRANCH   1  24
ATOM     24  C   UNL A   1      40.037  23.126  27.025  1.00  0.00     0.116 C 
BRANCH  24  25
ATOM     25  N   UNL A   1      41.122  23.537  26.148  1.00  0.00    -0.352 N 
ATOM     26  C   UNL A   1      41.813  24.727  26.120  1.00  0.00     0.251 C 
ATOM     27  H   UNL A   1      41.401  22.871  25.480  1.00  0.00     0.163 HD
ATOM     28  O   UNL A   1      42.644  24.935  25.246  1.00  0.00    -0.269 OA
BRANCH  26  29
ATOM     29  C   UNL A   1      41.515  25.761  27.132  1.00  0.00     0.039 A 
ATOM     30  C   UNL A   1      40.576  25.477  28.126  1.00  0.00     0.014 A 
ATOM     31  C   UNL A   1      42.179  26.990  27.116  1.00  0.00     0.014 A 
ATOM     32  C   UNL A   1      40.354  26.400  29.149  1.00  0.00     0.010 A 
ATOM     33  C   UNL A   1      42.007  27.880  28.171  1.00  0.00     0.010 A 
ATOM     34  C   UNL A   1      41.098  27.591  29.200  1.00  0.00    -0.014 A 
BRANCH  34  35
ATOM     35  C   UNL A   1      40.948  28.542  30.330  1.00  0.00     0.031 A 
ATOM     36  C   UNL A   1      41.846  28.433  31.531  1.00  0.00     0.074 A 
ATOM     37  C   UNL A   1      39.962  29.461  30.299  1.00  0.00     0.049 A 
ATOM     38  N   UNL A   1      41.818  29.116  32.646  1.00  0.00    -0.248 NA
ATOM     39  C   UNL A   1      42.896  27.402  31.485  1.00  0.00     0.031 C 
ATOM     40  C   UNL A   1      39.001  29.633  29.208  1.00  0.00     0.029 A 
ATOM     41  N   UNL A   1      39.600  30.419  31.212  1.00  0.00    -0.354 N 
ATOM     42  C   UNL A   1      42.835  28.593  33.435  1.00  0.00     0.074 A 
ATOM     43  C   UNL A   1      43.427  27.500  32.695  1.00  0.00     0.031 C 
ATOM     44  C   UNL A   1      38.180  30.654  29.501  1.00  0.00     0.029 A 
ATOM     45  C   UNL A   1      38.529  31.185  30.815  1.00  0.00     0.049 A 
ATOM     46  H   UNL A   1      40.064  30.547  32.072  1.00  0.00     0.167 HD
ATOM     47  C   UNL A   1      43.253  29.005  34.655  1.00  0.00     0.037 A 
ATOM     48  C   UNL A   1      37.898  32.198  31.440  1.00  0.00     0.037 A 
ATOM     49  C   UNL A   1      42.680  30.115  35.369  1.00  0.00     0.049 A 
ATOM     50  C   UNL A   1      38.382  32.639  32.793  1.00  0.00     0.074 A 
ATOM     51  C   UNL A   1      43.067  30.643  36.589  1.00  0.00     0.029 A 
ATOM     52  N   UNL A   1      41.603  30.871  34.930  1.00  0.00    -0.354 N 
ATOM     53  N   UNL A   1      39.372  32.159  33.508  1.00  0.00    -0.248 NA
ATOM     54  C   UNL A   1      37.665  33.752  33.428  1.00  0.00     0.031 C 
ATOM     55  C   UNL A   1      42.204  31.696  36.903  1.00  0.00     0.029 A 
ATOM     56  C   UNL A   1      41.303  31.852  35.860  1.00  0.00     0.049 A 
ATOM     57  H   UNL A   1      41.123  30.730  34.082  1.00  0.00     0.167 HD
ATOM     58  C   UNL A   1      39.411  32.926  34.667  1.00  0.00     0.074 A 
ATOM     59  C   UNL A   1      38.352  33.908  34.553  1.00  0.00     0.031 C 
ATOM     60  C   UNL A   1      40.247  32.825  35.728  1.00  0.00     0.037 A 
BRANCH  47  61
ATOM     61  C   UNL A   1      44.401  28.268  35.286  1.00  0.00     0.058 A 
ATOM     62  C   UNL A   1      45.727  28.640  35.016  1.00  0.00     0.135 A 
ATOM     63  C   UNL A   1      44.189  27.159  36.121  1.00  0.00     0.135 A 
ATOM     64  F   UNL A   1      45.988  29.697  34.231  1.00  0.00    -0.206 F 
ATOM     65  C   UNL A   1      46.803  27.931  35.542  1.00  0.00     0.059 A 
ATOM     66  C   UNL A   1      45.249  26.451  36.677  1.00  0.00     0.059 A 
ATOM     67  F   UNL A   1      42.940  26.776  36.429  1.00  0.00    -0.206 F 
ATOM     68  C   UNL A   1      46.553  26.836  36.370  1.00  0.00     0.060 A 
BRANCH  68  69
ATOM     69  S   UNL A   1      47.958  25.947  37.075  1.00  0.00     0.124 S 
ATOM     70  O   UNL A   1      48.053  26.541  38.403  1.00  0.00    -0.237 OA
ATOM     71  O   UNL A   1      47.500  24.561  37.027  1.00  0.00    -0.237 OA
ATOM     72  O   UNL A   1      49.052  26.266  36.161  1.00  0.00    -0.744 OA
ENDBRANCH  68  69
ENDBRANCH  47  61
BRANCH  48  73
ATOM     73  C   UNL A   1      36.766  32.888  30.766  1.00  0.00     0.058 A 
ATOM     74  C   UNL A   1      36.985  33.867  29.784  1.00  0.00     0.135 A 
ATOM     75  C   UNL A   1      35.440  32.608  31.127  1.00  0.00     0.135 A 
ATOM     76  F   UNL A   1      38.235  34.179  29.411  1.00  0.00    -0.206 F 
ATOM     77  C   UNL A   1      35.930  34.560  29.201  1.00  0.00     0.059 A 
ATOM     78  C   UNL A   1      34.366  33.273  30.541  1.00  0.00     0.059 A 
ATOM     79  F   UNL A   1      35.182  31.672  32.052  1.00  0.00    -0.206 F 
ATOM     80  C   UNL A   1      34.624  34.260  29.591  1.00  0.00     0.060 A 
BRANCH  80  81
ATOM     81  S   UNL A   1      33.267  35.185  28.838  1.00  0.00     0.124 S 
ATOM     82  O   UNL A   1      33.990  36.234  28.126  1.00  0.00    -0.237 OA
ATOM     83  O   UNL A   1      32.632  34.171  28.002  1.00  0.00    -0.237 OA
ATOM     84  O   UNL A   1      32.484  35.630  29.985  1.00  0.00    -0.744 OA
ENDBRANCH  80  81
ENDBRANCH  48  73
BRANCH  60  85
ATOM     85  C   UNL A   1      40.070  33.806  36.852  1.00  0.00     0.058 A 
ATOM     86  C   UNL A   1      39.151  33.550  37.882  1.00  0.00     0.135 A 
ATOM     87  C   UNL A   1      40.744  35.037  36.863  1.00  0.00     0.135 A 
ATOM     88  F   UNL A   1      38.478  32.389  37.916  1.00  0.00    -0.206 F 
ATOM     89  C   UNL A   1      38.889  34.491  38.871  1.00  0.00     0.059 A 
ATOM     90  C   UNL A   1      40.515  35.984  37.857  1.00  0.00     0.059 A 
ATOM     91  F   UNL A   1      41.641  35.323  35.906  1.00  0.00    -0.206 F 
ATOM     92  C   UNL A   1      39.571  35.708  38.847  1.00  0.00     0.060 A 
BRANCH  92  93
ATOM     93  S   UNL A   1      39.218  36.918  40.138  1.00  0.00     0.124 S 
ATOM     94  O   UNL A   1      40.552  37.194  40.661  1.00  0.00    -0.237 OA
ATOM     95  O   UNL A   1      38.595  38.002  39.385  1.00  0.00    -0.237 OA
ATOM     96  O   UNL A   1      38.325  36.200  41.042  1.00  0.00    -0.744 OA
ENDBRANCH  92  93
ENDBRANCH  60  85
ENDBRANCH  34  35
ENDBRANCH  26  29
ENDBRANCH  24  25
ENDBRANCH   1  24
TORSDOF 16
ENDMDL
MODEL 3
REMARK VINA RESULT:     -11.8      6.641     12.080
REMARK SMILES CC[C@H]1CO[C@@H](C)CN1c1cccc(F)c1C(=O)NCCCCNC(=O)c1ccc(-c2c3nc(c(-c4c(F)cc(S(=O)(=O)[O-])cc4F)c4ccc([nH]4)c(-c4c(F)cc(S(=O)(=O)[O-])cc4F)c4nc(c(-c5c(F)cc(S(=O)(=O)[O-])cc5F)c5ccc2[nH]5)C=C4)C=C3)cc1
REMARK SMILES IDX 22 1 21 2 20 3 19 4 17 5 18 6 16 8 10 9 11 10 12 11 14 12
REMARK SMILES IDX 13 13 15 14 9 15 3 16 4 17 5 18 8 19 6 20 7 21 2 22 1 23
REMARK SMILES IDX 23 24 24 25 25 26 26 28 27 29 28 30 92 31 29 32 91 33 30 34
REMARK SMILES IDX 31 35 32 36 85 37 33 38 90 39 84 40 86 41 34 42 89 43 83 44
REMARK SMILES IDX 82 45 35 47 69 48 48 49 68 50 49 51 52 52 67 53 87 54 50 55
REMARK SMILES IDX 51 56 66 58 88 59 53 60 36 61 37 62 46 63 38 64 39 65 45 66
REMARK SMILES IDX 47 67 40 68 41 69 42 70 43 71 44 72 70 73 71 74 80 75 72 76
REMARK SMILES IDX 73 77 79 78 81 79 74 80 75 81 76 82 77 83 78 84 54 85 55 86
REMARK SMILES IDX 64 87 56 88 57 89 63 90 65 91 58 92 59 93 60 94 61 95 62 96
REMARK H PARENT 19 7 24 27 86 46 52 57
REMARK Flexibility Score: inf
ROOT
ATOM      1  C   UNL A   1      34.354  29.881  27.321  1.00  0.00     0.023 C 
ENDROOT
BRANCH   1   2
ATOM      2  C   UNL A   1      32.999  30.577  27.140  1.00  0.00     0.023 C 
BRANCH   2   3
ATOM      3  C   UNL A   1      31.951  29.771  26.355  1.00  0.00     0.116 C 
BRANCH   3   4
ATOM      4  N   UNL A   1      32.000  30.076  24.937  1.00  0.00    -0.352 N 
ATOM      5  C   UNL A   1      31.813  29.126  23.953  1.00  0.00     0.256 C 
ATOM      6  O   UNL A   1      32.781  28.818  23.262  1.00  0.00    -0.269 OA
ATOM      7  H   UNL A   1      32.174  31.005  24.663  1.00  0.00     0.163 HD
BRANCH   5   8
ATOM      8  C   UNL A   1      30.484  28.516  23.699  1.00  0.00     0.098 A 
ATOM      9  C   UNL A   1      30.221  27.150  24.015  1.00  0.00     0.053 A 
ATOM     10  C   UNL A   1      28.881  26.716  23.946  1.00  0.00     0.027 A 
ATOM     11  C   UNL A   1      27.859  27.536  23.467  1.00  0.00     0.005 A 
ATOM     12  C   UNL A   1      29.439  29.331  23.247  1.00  0.00     0.138 A 
ATOM     13  C   UNL A   1      28.147  28.838  23.089  1.00  0.00     0.040 A 
ATOM     14  F   UNL A   1      29.630  30.629  22.974  1.00  0.00    -0.206 F 
BRANCH   9  15
ATOM     15  N   UNL A   1      31.220  26.225  24.310  1.00  0.00    -0.363 N 
ATOM     16  C   UNL A   1      31.693  25.167  23.371  1.00  0.00     0.108 C 
ATOM     17  C   UNL A   1      33.148  24.790  23.760  1.00  0.00     0.185 C 
ATOM     18  O   UNL A   1      33.261  24.378  25.131  1.00  0.00    -0.375 OA
ATOM     19  C   UNL A   1      31.320  25.769  25.719  1.00  0.00     0.148 C 
ATOM     20  C   UNL A   1      32.777  25.380  26.051  1.00  0.00     0.134 C 
ATOM     21  C   UNL A   1      33.738  26.566  26.116  1.00  0.00     0.040 C 
BRANCH  16  22
ATOM     22  C   UNL A   1      31.624  25.473  21.860  1.00  0.00     0.024 C 
ATOM     23  C   UNL A   1      32.907  25.930  21.184  1.00  0.00     0.006 C 
ENDBRANCH  16  22
ENDBRANCH   9  15
ENDBRANCH   5   8
ENDBRANCH   3   4
ENDBRANCH   2   3
ENDBRANCH   1   2
BRANCH   1  24
ATOM     24  C   UNL A   1      35.465  30.753  27.904  1.00  0.00     0.116 C 
BRANCH  24  25
ATOM     25  N   UNL A   1      35.397  30.885  29.351  1.00  0.00    -0.352 N 
ATOM     26  C   UNL A   1      36.318  30.509  30.301  1.00  0.00     0.251 C 
ATOM     27  H   UNL A   1      34.576  31.301  29.699  1.00  0.00     0.163 HD
ATOM     28  O   UNL A   1      36.052  30.616  31.491  1.00  0.00    -0.269 OA
BRANCH  26  29
ATOM     29  C   UNL A   1      37.613  29.942  29.872  1.00  0.00     0.039 A 
ATOM     30  C   UNL A   1      37.970  30.032  28.524  1.00  0.00     0.014 A 
ATOM     31  C   UNL A   1      38.479  29.354  30.796  1.00  0.00     0.014 A 
ATOM     32  C   UNL A   1      39.231  29.595  28.114  1.00  0.00     0.010 A 
ATOM     33  C   UNL A   1      39.759  28.981  30.399  1.00  0.00     0.010 A 
ATOM     34  C   UNL A   1      40.149  29.103  29.057  1.00  0.00    -0.014 A 
BRANCH  34  35
ATOM     35  C   UNL A   1      41.528  28.723  28.660  1.00  0.00     0.031 A 
ATOM     36  C   UNL A   1      42.615  29.760  28.625  1.00  0.00     0.074 A 
ATOM     37  C   UNL A   1      41.782  27.457  28.271  1.00  0.00     0.049 A 
ATOM     38  N   UNL A   1      43.856  29.640  28.231  1.00  0.00    -0.248 NA
ATOM     39  C   UNL A   1      42.254  31.118  29.065  1.00  0.00     0.031 C 
ATOM     40  C   UNL A   1      40.798  26.374  28.220  1.00  0.00     0.029 A 
ATOM     41  N   UNL A   1      42.944  26.868  27.838  1.00  0.00    -0.354 N 
ATOM     42  C   UNL A   1      44.419  30.904  28.365  1.00  0.00     0.074 A 
ATOM     43  C   UNL A   1      43.371  31.788  28.825  1.00  0.00     0.031 C 
ATOM     44  C   UNL A   1      41.403  25.247  27.811  1.00  0.00     0.029 A 
ATOM     45  C   UNL A   1      42.807  25.534  27.534  1.00  0.00     0.049 A 
ATOM     46  H   UNL A   1      43.796  27.355  27.753  1.00  0.00     0.167 HD
ATOM     47  C   UNL A   1      45.700  31.284  28.148  1.00  0.00     0.037 A 
ATOM     48  C   UNL A   1      43.710  24.643  27.080  1.00  0.00     0.037 A 
ATOM     49  C   UNL A   1      46.744  30.390  27.723  1.00  0.00     0.049 A 
ATOM     50  C   UNL A   1      45.127  25.089  26.848  1.00  0.00     0.074 A 
ATOM     51  C   UNL A   1      48.085  30.669  27.525  1.00  0.00     0.029 A 
ATOM     52  N   UNL A   1      46.568  29.045  27.433  1.00  0.00    -0.354 N 
ATOM     53  N   UNL A   1      45.651  26.279  27.019  1.00  0.00    -0.248 NA
ATOM     54  C   UNL A   1      46.074  24.078  26.360  1.00  0.00     0.031 C 
ATOM     55  C   UNL A   1      48.714  29.501  27.084  1.00  0.00     0.029 A 
ATOM     56  C   UNL A   1      47.773  28.483  27.046  1.00  0.00     0.049 A 
ATOM     57  H   UNL A   1      45.713  28.562  27.495  1.00  0.00     0.167 HD
ATOM     58  C   UNL A   1      46.994  26.155  26.681  1.00  0.00     0.074 A 
ATOM     59  C   UNL A   1      47.203  24.772  26.305  1.00  0.00     0.031 C 
ATOM     60  C   UNL A   1      47.964  27.102  26.680  1.00  0.00     0.037 A 
BRANCH  47  61
ATOM     61  C   UNL A   1      46.051  32.725  28.391  1.00  0.00     0.058 A 
ATOM     62  C   UNL A   1      46.448  33.162  29.664  1.00  0.00     0.135 A 
ATOM     63  C   UNL A   1      45.947  33.686  27.372  1.00  0.00     0.135 A 
ATOM     64  F   UNL A   1      46.573  32.286  30.673  1.00  0.00    -0.206 F 
ATOM     65  C   UNL A   1      46.718  34.503  29.922  1.00  0.00     0.059 A 
ATOM     66  C   UNL A   1      46.235  35.027  27.601  1.00  0.00     0.059 A 
ATOM     67  F   UNL A   1      45.593  33.317  26.131  1.00  0.00    -0.206 F 
ATOM     68  C   UNL A   1      46.606  35.429  28.883  1.00  0.00     0.060 A 
BRANCH  68  69
ATOM     69  S   UNL A   1      46.994  37.159  29.223  1.00  0.00     0.124 S 
ATOM     70  O   UNL A   1      47.472  37.095  30.598  1.00  0.00    -0.237 OA
ATOM     71  O   UNL A   1      48.003  37.453  28.209  1.00  0.00    -0.237 OA
ATOM     72  O   UNL A   1      45.713  37.836  29.031  1.00  0.00    -0.744 OA
ENDBRANCH  68  69
ENDBRANCH  47  61
BRANCH  48  73
ATOM     73  C   UNL A   1      43.302  23.230  26.856  1.00  0.00     0.058 A 
ATOM     74  C   UNL A   1      43.041  22.365  27.929  1.00  0.00     0.135 A 
ATOM     75  C   UNL A   1      43.209  22.710  25.557  1.00  0.00     0.135 A 
ATOM     76  F   UNL A   1      43.128  22.811  29.191  1.00  0.00    -0.206 F 
ATOM     77  C   UNL A   1      42.726  21.026  27.723  1.00  0.00     0.059 A 
ATOM     78  C   UNL A   1      42.872  21.379  25.324  1.00  0.00     0.059 A 
ATOM     79  F   UNL A   1      43.438  23.503  24.500  1.00  0.00    -0.206 F 
ATOM     80  C   UNL A   1      42.650  20.541  26.417  1.00  0.00     0.060 A 
BRANCH  80  81
ATOM     81  S   UNL A   1      42.258  18.795  26.169  1.00  0.00     0.124 S 
ATOM     82  O   UNL A   1      42.522  18.247  27.495  1.00  0.00    -0.237 OA
ATOM     83  O   UNL A   1      40.854  18.850  25.772  1.00  0.00    -0.237 OA
ATOM     84  O   UNL A   1      43.188  18.385  25.123  1.00  0.00    -0.744 OA
ENDBRANCH  80  81
ENDBRANCH  48  73
BRANCH  60  85
ATOM     85  C   UNL A   1      49.349  26.681  26.277  1.00  0.00     0.058 A 
ATOM     86  C   UNL A   1      50.226  26.124  27.221  1.00  0.00     0.135 A 
ATOM     87  C   UNL A   1      49.836  26.911  24.981  1.00  0.00     0.135 A 
ATOM     88  F   UNL A   1      49.811  25.888  28.476  1.00  0.00    -0.206 F 
ATOM     89  C   UNL A   1      51.546  25.830  26.900  1.00  0.00     0.059 A 
ATOM     90  C   UNL A   1      51.147  26.601  24.631  1.00  0.00     0.059 A 
ATOM     91  F   UNL A   1      49.032  27.431  24.041  1.00  0.00    -0.206 F 
ATOM     92  C   UNL A   1      52.000  26.078  25.604  1.00  0.00     0.060 A 
BRANCH  92  93
ATOM     93  S   UNL A   1      53.717  25.691  25.203  1.00  0.00     0.124 S 
ATOM     94  O   UNL A   1      53.850  24.339  25.735  1.00  0.00    -0.237 OA
ATOM     95  O   UNL A   1      53.729  25.805  23.748  1.00  0.00    -0.237 OA
ATOM     96  O   UNL A   1      54.471  26.722  25.911  1.00  0.00    -0.744 OA
ENDBRANCH  92  93
ENDBRANCH  60  85
ENDBRANCH  34  35
ENDBRANCH  26  29
ENDBRANCH  24  25
ENDBRANCH   1  24
TORSDOF 16
ENDMDL
