MODEL 1
REMARK VINA RESULT:     -12.4      0.000      0.000
REMARK SMILES O=C(NCCCCNC(=O)[C@@H]1CCCN(c2cnnc(O)c2Cl)C1)c1ccc(-c2c3nc(c(-c4c(F)cc(S(=O)(=O)[O-])cc4F)c4ccc([nH]4)c(-c4c(F)cc(S(=O)(=O)[O-])cc4F)c4nc(c(-c5c(F)cc(S(=O)(=O)[O-])cc5F)c5ccc2[nH]5)C=C4)C=C3)cc1
REMARK SMILES IDX 5 1 4 2 3 3 1 4 2 5 25 7 26 8 90 9 27 10 89 11 28 12 29 13
REMARK SMILES IDX 30 14 83 15 31 16 88 17 82 18 84 19 32 20 87 21 81 22 80 23
REMARK SMILES IDX 33 25 67 26 46 27 66 28 47 29 50 30 65 31 85 32 48 33 49 34
REMARK SMILES IDX 64 36 86 37 51 38 34 39 35 40 44 41 36 42 37 43 43 44 45 45
REMARK SMILES IDX 38 46 39 47 40 48 41 49 42 50 68 51 69 52 78 53 70 54 71 55
REMARK SMILES IDX 77 56 79 57 72 58 73 59 74 60 75 61 76 62 52 63 53 64 62 65
REMARK SMILES IDX 54 66 55 67 61 68 63 69 56 70 57 71 58 72 59 73 60 74 6 75
REMARK SMILES IDX 7 76 8 77 9 78 10 80 11 81 12 82 24 83 13 84 15 85 14 86
REMARK SMILES IDX 16 87 17 88 22 89 18 90 20 91 23 92 19 93 21 94
REMARK H PARENT 3 6 84 24 50 35 8 79 21 95
REMARK Flexibility Score: inf
ROOT
ATOM      1  C   UNL A   1      34.288  31.380  27.579  1.00  0.00     0.023 C 
ENDROOT
BRANCH   1   2
ATOM      2  C   UNL A   1      35.628  31.185  28.285  1.00  0.00     0.116 C 
BRANCH   2   3
ATOM      3  N   UNL A   1      35.473  30.985  29.717  1.00  0.00    -0.352 N 
ATOM      4  O   UNL A   1      36.020  30.211  31.763  1.00  0.00    -0.269 OA
ATOM      5  C   UNL A   1      36.372  30.462  30.613  1.00  0.00     0.251 C 
ATOM      6  H   UNL A   1      34.608  31.262  30.095  1.00  0.00     0.163 HD
BRANCH   5   7
ATOM      7  C   UNL A   1      37.754  30.179  30.176  1.00  0.00     0.039 A 
ATOM      8  C   UNL A   1      38.076  30.155  28.815  1.00  0.00     0.014 A 
ATOM      9  C   UNL A   1      38.731  29.927  31.142  1.00  0.00     0.014 A 
ATOM     10  C   UNL A   1      39.355  29.774  28.418  1.00  0.00     0.010 A 
ATOM     11  C   UNL A   1      40.025  29.588  30.741  1.00  0.00     0.010 A 
ATOM     12  C   UNL A   1      40.337  29.481  29.378  1.00  0.00    -0.014 A 
BRANCH  12  13
ATOM     13  C   UNL A   1      41.697  29.080  28.944  1.00  0.00     0.031 A 
ATOM     14  C   UNL A   1      42.830  30.067  28.973  1.00  0.00     0.074 A 
ATOM     15  C   UNL A   1      41.908  27.812  28.545  1.00  0.00     0.049 A 
ATOM     16  N   UNL A   1      44.080  29.895  28.629  1.00  0.00    -0.248 NA
ATOM     17  C   UNL A   1      42.518  31.423  29.451  1.00  0.00     0.031 C 
ATOM     18  C   UNL A   1      40.886  26.764  28.493  1.00  0.00     0.029 A 
ATOM     19  N   UNL A   1      43.050  27.186  28.115  1.00  0.00    -0.354 N 
ATOM     20  C   UNL A   1      44.708  31.113  28.857  1.00  0.00     0.074 A 
ATOM     21  C   UNL A   1      43.692  32.029  29.332  1.00  0.00     0.031 C 
ATOM     22  C   UNL A   1      41.452  25.621  28.078  1.00  0.00     0.029 A 
ATOM     23  C   UNL A   1      42.863  25.863  27.795  1.00  0.00     0.049 A 
ATOM     24  H   UNL A   1      43.920  27.641  28.044  1.00  0.00     0.167 HD
ATOM     25  C   UNL A   1      46.014  31.433  28.696  1.00  0.00     0.037 A 
ATOM     26  C   UNL A   1      43.730  24.951  27.316  1.00  0.00     0.037 A 
ATOM     27  C   UNL A   1      47.018  30.518  28.212  1.00  0.00     0.049 A 
ATOM     28  C   UNL A   1      45.159  25.351  27.079  1.00  0.00     0.074 A 
ATOM     29  C   UNL A   1      48.368  30.748  28.013  1.00  0.00     0.029 A 
ATOM     30  N   UNL A   1      46.781  29.199  27.850  1.00  0.00    -0.354 N 
ATOM     31  N   UNL A   1      45.738  26.507  27.300  1.00  0.00    -0.248 NA
ATOM     32  C   UNL A   1      46.052  24.325  26.524  1.00  0.00     0.031 C 
ATOM     33  C   UNL A   1      48.940  29.581  27.493  1.00  0.00     0.029 A 
ATOM     34  C   UNL A   1      47.956  28.610  27.410  1.00  0.00     0.049 A 
ATOM     35  H   UNL A   1      45.907  28.750  27.897  1.00  0.00     0.167 HD
ATOM     36  C   UNL A   1      47.067  26.342  26.931  1.00  0.00     0.074 A 
ATOM     37  C   UNL A   1      47.209  24.972  26.483  1.00  0.00     0.031 C 
ATOM     38  C   UNL A   1      48.079  27.245  26.962  1.00  0.00     0.037 A 
BRANCH  25  39
ATOM     39  C   UNL A   1      46.439  32.834  29.041  1.00  0.00     0.058 A 
ATOM     40  C   UNL A   1      46.397  33.866  28.091  1.00  0.00     0.135 A 
ATOM     41  C   UNL A   1      46.843  33.160  30.345  1.00  0.00     0.135 A 
ATOM     42  F   UNL A   1      46.034  33.606  26.825  1.00  0.00    -0.206 F 
ATOM     43  C   UNL A   1      46.756  35.171  28.418  1.00  0.00     0.059 A 
ATOM     44  C   UNL A   1      47.187  34.463  30.700  1.00  0.00     0.059 A 
ATOM     45  F   UNL A   1      46.904  32.210  31.292  1.00  0.00    -0.206 F 
ATOM     46  C   UNL A   1      47.150  35.459  29.725  1.00  0.00     0.060 A 
BRANCH  46  47
ATOM     47  S   UNL A   1      47.606  37.158  30.132  1.00  0.00     0.124 S 
ATOM     48  O   UNL A   1      48.992  37.203  29.677  1.00  0.00    -0.237 OA
ATOM     49  O   UNL A   1      46.654  37.934  29.344  1.00  0.00    -0.237 OA
ATOM     50  O   UNL A   1      47.420  37.224  31.579  1.00  0.00    -0.744 OA
ENDBRANCH  46  47
ENDBRANCH  25  39
BRANCH  26  51
ATOM     51  C   UNL A   1      43.263  23.568  27.043  1.00  0.00     0.058 A 
ATOM     52  C   UNL A   1      43.006  23.142  25.733  1.00  0.00     0.135 A 
ATOM     53  C   UNL A   1      43.100  22.637  28.081  1.00  0.00     0.135 A 
ATOM     54  F   UNL A   1      43.142  24.000  24.709  1.00  0.00    -0.206 F 
ATOM     55  C   UNL A   1      42.602  21.840  25.458  1.00  0.00     0.059 A 
ATOM     56  C   UNL A   1      42.720  21.323  27.829  1.00  0.00     0.059 A 
ATOM     57  F   UNL A   1      43.347  22.994  29.351  1.00  0.00    -0.206 F 
ATOM     58  C   UNL A   1      42.468  20.935  26.513  1.00  0.00     0.060 A 
BRANCH  58  59
ATOM     59  S   UNL A   1      42.007  19.231  26.137  1.00  0.00     0.124 S 
ATOM     60  O   UNL A   1      42.823  18.959  24.959  1.00  0.00    -0.237 OA
ATOM     61  O   UNL A   1      42.395  18.533  27.358  1.00  0.00    -0.237 OA
ATOM     62  O   UNL A   1      40.569  19.315  25.903  1.00  0.00    -0.744 OA
ENDBRANCH  58  59
ENDBRANCH  26  51
BRANCH  38  63
ATOM     63  C   UNL A   1      49.435  26.774  26.515  1.00  0.00     0.058 A 
ATOM     64  C   UNL A   1      50.320  26.140  27.400  1.00  0.00     0.135 A 
ATOM     65  C   UNL A   1      49.833  26.918  25.176  1.00  0.00     0.135 A 
ATOM     66  F   UNL A   1      49.990  25.986  28.691  1.00  0.00    -0.206 F 
ATOM     67  C   UNL A   1      51.564  25.683  26.977  1.00  0.00     0.059 A 
ATOM     68  C   UNL A   1      51.062  26.447  24.726  1.00  0.00     0.059 A 
ATOM     69  F   UNL A   1      49.018  27.510  24.288  1.00  0.00    -0.206 F 
ATOM     70  C   UNL A   1      51.925  25.840  25.637  1.00  0.00     0.060 A 
BRANCH  70  71
ATOM     71  S   UNL A   1      53.531  25.215  25.097  1.00  0.00     0.124 S 
ATOM     72  O   UNL A   1      53.364  23.777  25.278  1.00  0.00    -0.237 OA
ATOM     73  O   UNL A   1      53.596  25.677  23.714  1.00  0.00    -0.237 OA
ATOM     74  O   UNL A   1      54.471  25.858  26.010  1.00  0.00    -0.744 OA
ENDBRANCH  70  71
ENDBRANCH  38  63
ENDBRANCH  12  13
ENDBRANCH   5   7
ENDBRANCH   2   3
ENDBRANCH   1   2
BRANCH   1  75
ATOM     75  C   UNL A   1      33.487  30.097  27.327  1.00  0.00     0.023 C 
BRANCH  75  76
ATOM     76  C   UNL A   1      34.228  29.035  26.514  1.00  0.00     0.116 C 
BRANCH  76  77
ATOM     77  N   UNL A   1      34.057  29.262  25.091  1.00  0.00    -0.356 N 
ATOM     78  C   UNL A   1      33.788  28.399  24.076  1.00  0.00     0.224 C 
ATOM     79  H   UNL A   1      34.150  30.202  24.814  1.00  0.00     0.163 HD
ATOM     80  O   UNL A   1      33.962  28.817  22.931  1.00  0.00    -0.275 OA
BRANCH  78  81
ATOM     81  C   UNL A   1      33.239  27.009  24.363  1.00  0.00     0.098 C 
ATOM     82  C   UNL A   1      33.730  25.982  23.337  1.00  0.00     0.017 C 
ATOM     83  C   UNL A   1      31.709  27.080  24.459  1.00  0.00     0.130 C 
ATOM     84  C   UNL A   1      32.977  26.045  22.010  1.00  0.00     0.022 C 
ATOM     85  N   UNL A   1      31.059  27.041  23.148  1.00  0.00    -0.368 N 
ATOM     86  C   UNL A   1      31.465  26.000  22.211  1.00  0.00     0.116 C 
BRANCH  85  87
ATOM     87  C   UNL A   1      30.075  27.963  22.817  1.00  0.00     0.082 A 
ATOM     88  C   UNL A   1      30.390  29.138  22.132  1.00  0.00     0.163 A 
ATOM     89  C   UNL A   1      28.715  27.821  23.119  1.00  0.00     0.129 A 
ATOM     90  N   UNL A   1      29.497  30.091  21.765  1.00  0.00    -0.153 NA
ATOM     91  C   UNL A   1      27.817  28.810  22.719  1.00  0.00     0.252 A 
ATOM     92  Cl  UNL A   1      28.102  26.496  24.061  1.00  0.00    -0.076 Cl
ATOM     93  N   UNL A   1      28.190  29.920  22.060  1.00  0.00    -0.111 NA
BRANCH  91  94
ATOM     94  O   UNL A   1      26.477  28.723  22.998  1.00  0.00    -0.491 OA
ATOM     95  H   UNL A   1      26.167  28.896  23.866  1.00  0.00     0.295 HD
ENDBRANCH  91  94
ENDBRANCH  85  87
ENDBRANCH  78  81
ENDBRANCH  76  77
ENDBRANCH  75  76
ENDBRANCH   1  75
TORSDOF 16
ENDMDL
MODEL 2
REMARK VINA RESULT:     -12.2      6.974     12.282
REMARK SMILES O=C(NCCCCNC(=O)[C@@H]1CCCN(c2cnnc(O)c2Cl)C1)c1ccc(-c2c3nc(c(-c4c(F)cc(S(=O)(=O)[O-])cc4F)c4ccc([nH]4)c(-c4c(F)cc(S(=O)(=O)[O-])cc4F)c4nc(c(-c5c(F)cc(S(=O)(=O)[O-])cc5F)c5ccc2[nH]5)C=C4)C=C3)cc1
REMARK SMILES IDX 5 1 4 2 3 3 1 4 2 5 25 7 26 8 90 9 27 10 89 11 28 12 29 13
REMARK SMILES IDX 30 14 83 15 31 16 88 17 82 18 84 19 32 20 87 21 81 22 80 23
REMARK SMILES IDX 33 25 67 26 46 27 66 28 47 29 50 30 65 31 85 32 48 33 49 34
REMARK SMILES IDX 64 36 86 37 51 38 34 39 35 40 44 41 36 42 37 43 43 44 45 45
REMARK SMILES IDX 38 46 39 47 40 48 41 49 42 50 68 51 69 52 78 53 70 54 71 55
REMARK SMILES IDX 77 56 79 57 72 58 73 59 74 60 75 61 76 62 52 63 53 64 62 65
REMARK SMILES IDX 54 66 55 67 61 68 63 69 56 70 57 71 58 72 59 73 60 74 6 75
REMARK SMILES IDX 7 76 8 77 9 78 10 80 11 81 12 82 24 83 13 84 15 85 14 86
REMARK SMILES IDX 16 87 17 88 22 89 18 90 20 91 23 92 19 93 21 94
REMARK H PARENT 3 6 84 24 50 35 8 79 21 95
REMARK Flexibility Score: inf
ROOT
ATOM      1  C   UNL A   1      39.609  21.954  26.709  1.00  0.00     0.023 C 
ENDROOT
BRANCH   1   2
ATOM      2  C   UNL A   1      40.224  23.266  27.189  1.00  0.00     0.116 C 
BRANCH   2   3
ATOM      3  N   UNL A   1      40.871  23.999  26.112  1.00  0.00    -0.352 N 
ATOM      4  O   UNL A   1      41.613  25.822  25.012  1.00  0.00    -0.269 OA
ATOM      5  C   UNL A   1      41.221  25.326  26.065  1.00  0.00     0.251 C 
ATOM      6  H   UNL A   1      41.087  23.474  25.308  1.00  0.00     0.163 HD
BRANCH   5   7
ATOM      7  C   UNL A   1      41.096  26.154  27.281  1.00  0.00     0.039 A 
ATOM      8  C   UNL A   1      39.981  26.024  28.116  1.00  0.00     0.014 A 
ATOM      9  C   UNL A   1      42.103  27.076  27.578  1.00  0.00     0.014 A 
ATOM     10  C   UNL A   1      39.825  26.892  29.193  1.00  0.00     0.010 A 
ATOM     11  C   UNL A   1      41.964  27.915  28.685  1.00  0.00     0.010 A 
ATOM     12  C   UNL A   1      40.811  27.849  29.482  1.00  0.00    -0.014 A 
BRANCH  12  13
ATOM     13  C   UNL A   1      40.636  28.766  30.634  1.00  0.00     0.031 A 
ATOM     14  C   UNL A   1      41.525  28.654  31.841  1.00  0.00     0.074 A 
ATOM     15  C   UNL A   1      39.684  29.716  30.574  1.00  0.00     0.049 A 
ATOM     16  N   UNL A   1      41.515  29.365  32.938  1.00  0.00    -0.248 NA
ATOM     17  C   UNL A   1      42.559  27.608  31.810  1.00  0.00     0.031 C 
ATOM     18  C   UNL A   1      38.776  29.927  29.445  1.00  0.00     0.029 A 
ATOM     19  N   UNL A   1      39.327  30.683  31.477  1.00  0.00    -0.354 N 
ATOM     20  C   UNL A   1      42.543  28.863  33.726  1.00  0.00     0.074 A 
ATOM     21  C   UNL A   1      43.132  27.759  32.997  1.00  0.00     0.031 C 
ATOM     22  C   UNL A   1      37.981  30.975  29.714  1.00  0.00     0.029 A 
ATOM     23  C   UNL A   1      38.293  31.480  31.047  1.00  0.00     0.049 A 
ATOM     24  H   UNL A   1      39.769  30.797  32.350  1.00  0.00     0.167 HD
ATOM     25  C   UNL A   1      42.964  29.292  34.940  1.00  0.00     0.037 A 
ATOM     26  C   UNL A   1      37.661  32.497  31.663  1.00  0.00     0.037 A 
ATOM     27  C   UNL A   1      42.366  30.385  35.664  1.00  0.00     0.049 A 
ATOM     28  C   UNL A   1      38.101  32.908  33.039  1.00  0.00     0.074 A 
ATOM     29  C   UNL A   1      42.720  30.895  36.902  1.00  0.00     0.029 A 
ATOM     30  N   UNL A   1      41.287  31.136  35.218  1.00  0.00    -0.354 N 
ATOM     31  N   UNL A   1      39.076  32.423  33.771  1.00  0.00    -0.248 NA
ATOM     32  C   UNL A   1      37.354  34.000  33.676  1.00  0.00     0.031 C 
ATOM     33  C   UNL A   1      41.831  31.928  37.222  1.00  0.00     0.029 A 
ATOM     34  C   UNL A   1      40.951  32.092  36.164  1.00  0.00     0.049 A 
ATOM     35  H   UNL A   1      40.828  31.009  34.357  1.00  0.00     0.167 HD
ATOM     36  C   UNL A   1      39.074  33.165  34.946  1.00  0.00     0.074 A 
ATOM     37  C   UNL A   1      38.007  34.137  34.823  1.00  0.00     0.031 C 
ATOM     38  C   UNL A   1      39.883  33.050  36.028  1.00  0.00     0.037 A 
BRANCH  25  39
ATOM     39  C   UNL A   1      44.128  28.577  35.570  1.00  0.00     0.058 A 
ATOM     40  C   UNL A   1      45.451  28.974  35.322  1.00  0.00     0.135 A 
ATOM     41  C   UNL A   1      43.918  27.519  36.469  1.00  0.00     0.135 A 
ATOM     42  F   UNL A   1      45.709  29.969  34.459  1.00  0.00    -0.206 F 
ATOM     43  C   UNL A   1      46.528  28.336  35.932  1.00  0.00     0.059 A 
ATOM     44  C   UNL A   1      44.980  26.880  37.106  1.00  0.00     0.059 A 
ATOM     45  F   UNL A   1      42.673  27.097  36.739  1.00  0.00    -0.206 F 
ATOM     46  C   UNL A   1      46.282  27.290  36.823  1.00  0.00     0.060 A 
BRANCH  46  47
ATOM     47  S   UNL A   1      47.691  26.479  37.607  1.00  0.00     0.124 S 
ATOM     48  O   UNL A   1      48.739  26.689  36.613  1.00  0.00    -0.237 OA
ATOM     49  O   UNL A   1      47.834  27.233  38.848  1.00  0.00    -0.237 OA
ATOM     50  O   UNL A   1      47.245  25.097  37.764  1.00  0.00    -0.744 OA
ENDBRANCH  46  47
ENDBRANCH  25  39
BRANCH  26  51
ATOM     51  C   UNL A   1      36.553  33.199  30.968  1.00  0.00     0.058 A 
ATOM     52  C   UNL A   1      35.223  33.018  31.373  1.00  0.00     0.135 A 
ATOM     53  C   UNL A   1      36.803  34.091  29.913  1.00  0.00     0.135 A 
ATOM     54  F   UNL A   1      34.934  32.170  32.372  1.00  0.00    -0.206 F 
ATOM     55  C   UNL A   1      34.177  33.696  30.755  1.00  0.00     0.059 A 
ATOM     56  C   UNL A   1      35.777  34.797  29.296  1.00  0.00     0.059 A 
ATOM     57  F   UNL A   1      38.061  34.307  29.500  1.00  0.00    -0.206 F 
ATOM     58  C   UNL A   1      34.465  34.588  29.721  1.00  0.00     0.060 A 
BRANCH  58  59
ATOM     59  S   UNL A   1      33.106  35.511  28.972  1.00  0.00     0.124 S 
ATOM     60  O   UNL A   1      32.465  34.483  28.160  1.00  0.00    -0.237 OA
ATOM     61  O   UNL A   1      32.359  35.959  30.143  1.00  0.00    -0.237 OA
ATOM     62  O   UNL A   1      33.785  36.569  28.231  1.00  0.00    -0.744 OA
ENDBRANCH  58  59
ENDBRANCH  26  51
BRANCH  38  63
ATOM     63  C   UNL A   1      39.658  34.013  37.161  1.00  0.00     0.058 A 
ATOM     64  C   UNL A   1      38.921  33.650  38.299  1.00  0.00     0.135 A 
ATOM     65  C   UNL A   1      40.224  35.298  37.126  1.00  0.00     0.135 A 
ATOM     66  F   UNL A   1      38.353  32.437  38.376  1.00  0.00    -0.206 F 
ATOM     67  C   UNL A   1      38.736  34.534  39.356  1.00  0.00     0.059 A 
ATOM     68  C   UNL A   1      40.072  36.190  38.183  1.00  0.00     0.059 A 
ATOM     69  F   UNL A   1      40.945  35.691  36.064  1.00  0.00    -0.206 F 
ATOM     70  C   UNL A   1      39.317  35.803  39.289  1.00  0.00     0.060 A 
BRANCH  70  71
ATOM     71  S   UNL A   1      39.093  36.930  40.681  1.00  0.00     0.124 S 
ATOM     72  O   UNL A   1      40.472  37.284  40.999  1.00  0.00    -0.237 OA
ATOM     73  O   UNL A   1      38.284  37.994  40.095  1.00  0.00    -0.237 OA
ATOM     74  O   UNL A   1      38.410  36.109  41.677  1.00  0.00    -0.744 OA
ENDBRANCH  70  71
ENDBRANCH  38  63
ENDBRANCH  12  13
ENDBRANCH   5   7
ENDBRANCH   2   3
ENDBRANCH   1   2
BRANCH   1  75
ATOM     75  C   UNL A   1      38.610  22.083  25.553  1.00  0.00     0.023 C 
BRANCH  75  76
ATOM     76  C   UNL A   1      37.518  23.131  25.771  1.00  0.00     0.116 C 
BRANCH  76  77
ATOM     77  N   UNL A   1      36.414  22.575  26.532  1.00  0.00    -0.356 N 
ATOM     78  C   UNL A   1      35.085  22.858  26.513  1.00  0.00     0.224 C 
ATOM     79  H   UNL A   1      36.673  21.872  27.170  1.00  0.00     0.163 HD
ATOM     80  O   UNL A   1      34.412  22.430  27.450  1.00  0.00    -0.275 OA
BRANCH  78  81
ATOM     81  C   UNL A   1      34.469  23.616  25.345  1.00  0.00     0.098 C 
ATOM     82  C   UNL A   1      33.279  24.472  25.789  1.00  0.00     0.017 C 
ATOM     83  C   UNL A   1      34.115  22.624  24.230  1.00  0.00     0.130 C 
ATOM     84  C   UNL A   1      31.997  23.668  25.991  1.00  0.00     0.022 C 
ATOM     85  N   UNL A   1      32.826  21.964  24.450  1.00  0.00    -0.368 N 
ATOM     86  C   UNL A   1      31.675  22.796  24.780  1.00  0.00     0.116 C 
BRANCH  85  87
ATOM     87  C   UNL A   1      32.708  20.585  24.335  1.00  0.00     0.082 A 
ATOM     88  C   UNL A   1      33.014  19.744  25.406  1.00  0.00     0.163 A 
ATOM     89  C   UNL A   1      32.283  19.915  23.180  1.00  0.00     0.129 A 
ATOM     90  N   UNL A   1      32.923  18.390  25.386  1.00  0.00    -0.153 NA
ATOM     91  C   UNL A   1      32.189  18.523  23.191  1.00  0.00     0.252 A 
ATOM     92  Cl  UNL A   1      31.954  20.743  21.689  1.00  0.00    -0.076 Cl
ATOM     93  N   UNL A   1      32.500  17.773  24.261  1.00  0.00    -0.111 NA
BRANCH  91  94
ATOM     94  O   UNL A   1      31.788  17.820  22.084  1.00  0.00    -0.491 OA
ATOM     95  H   UNL A   1      32.203  17.008  21.869  1.00  0.00     0.295 HD
ENDBRANCH  91  94
ENDBRANCH  85  87
ENDBRANCH  78  81
ENDBRANCH  76  77
ENDBRANCH  75  76
ENDBRANCH   1  75
TORSDOF 16
ENDMDL
MODEL 3
REMARK VINA RESULT:     -12.1      3.675      8.978
REMARK SMILES O=C(NCCCCNC(=O)[C@@H]1CCCN(c2cnnc(O)c2Cl)C1)c1ccc(-c2c3nc(c(-c4c(F)cc(S(=O)(=O)[O-])cc4F)c4ccc([nH]4)c(-c4c(F)cc(S(=O)(=O)[O-])cc4F)c4nc(c(-c5c(F)cc(S(=O)(=O)[O-])cc5F)c5ccc2[nH]5)C=C4)C=C3)cc1
REMARK SMILES IDX 5 1 4 2 3 3 1 4 2 5 25 7 26 8 90 9 27 10 89 11 28 12 29 13
REMARK SMILES IDX 30 14 83 15 31 16 88 17 82 18 84 19 32 20 87 21 81 22 80 23
REMARK SMILES IDX 33 25 67 26 46 27 66 28 47 29 50 30 65 31 85 32 48 33 49 34
REMARK SMILES IDX 64 36 86 37 51 38 34 39 35 40 44 41 36 42 37 43 43 44 45 45
REMARK SMILES IDX 38 46 39 47 40 48 41 49 42 50 68 51 69 52 78 53 70 54 71 55
REMARK SMILES IDX 77 56 79 57 72 58 73 59 74 60 75 61 76 62 52 63 53 64 62 65
REMARK SMILES IDX 54 66 55 67 61 68 63 69 56 70 57 71 58 72 59 73 60 74 6 75
REMARK SMILES IDX 7 76 8 77 9 78 10 80 11 81 12 82 24 83 13 84 15 85 14 86
REMARK SMILES IDX 16 87 17 88 22 89 18 90 20 91 23 92 19 93 21 94
REMARK H PARENT 3 6 84 24 50 35 8 79 21 95
REMARK Flexibility Score: inf
ROOT
ATOM      1  C   UNL A   1      38.143  20.270  25.185  1.00  0.00     0.023 C 
ENDROOT
BRANCH   1   2
ATOM      2  C   UNL A   1      39.378  20.620  26.009  1.00  0.00     0.116 C 
BRANCH   2   3
ATOM      3  N   UNL A   1      40.337  19.528  26.059  1.00  0.00    -0.352 N 
ATOM      4  O   UNL A   1      42.378  18.570  26.018  1.00  0.00    -0.269 OA
ATOM      5  C   UNL A   1      41.706  19.589  26.154  1.00  0.00     0.251 C 
ATOM      6  H   UNL A   1      39.954  18.622  26.019  1.00  0.00     0.163 HD
BRANCH   5   7
ATOM      7  C   UNL A   1      42.360  20.891  26.393  1.00  0.00     0.039 A 
ATOM      8  C   UNL A   1      42.572  21.349  27.697  1.00  0.00     0.014 A 
ATOM      9  C   UNL A   1      42.754  21.661  25.297  1.00  0.00     0.014 A 
ATOM     10  C   UNL A   1      43.085  22.627  27.902  1.00  0.00     0.010 A 
ATOM     11  C   UNL A   1      43.309  22.925  25.506  1.00  0.00     0.010 A 
ATOM     12  C   UNL A   1      43.450  23.428  26.808  1.00  0.00    -0.014 A 
BRANCH  12  13
ATOM     13  C   UNL A   1      43.999  24.786  27.038  1.00  0.00     0.031 A 
ATOM     14  C   UNL A   1      43.105  25.902  27.501  1.00  0.00     0.074 A 
ATOM     15  C   UNL A   1      45.314  25.000  26.847  1.00  0.00     0.049 A 
ATOM     16  N   UNL A   1      43.409  27.150  27.750  1.00  0.00    -0.248 NA
ATOM     17  C   UNL A   1      41.687  25.573  27.714  1.00  0.00     0.031 C 
ATOM     18  C   UNL A   1      46.278  23.986  26.415  1.00  0.00     0.029 A 
ATOM     19  N   UNL A   1      46.068  26.136  26.998  1.00  0.00    -0.354 N 
ATOM     20  C   UNL A   1      42.226  27.755  28.157  1.00  0.00     0.074 A 
ATOM     21  C   UNL A   1      41.190  26.746  28.084  1.00  0.00     0.031 C 
ATOM     22  C   UNL A   1      47.499  24.540  26.358  1.00  0.00     0.029 A 
ATOM     23  C   UNL A   1      47.398  25.954  26.707  1.00  0.00     0.049 A 
ATOM     24  H   UNL A   1      45.692  26.998  27.287  1.00  0.00     0.167 HD
ATOM     25  C   UNL A   1      42.028  29.031  28.565  1.00  0.00     0.037 A 
ATOM     26  C   UNL A   1      48.420  26.831  26.710  1.00  0.00     0.037 A 
ATOM     27  C   UNL A   1      43.063  30.033  28.624  1.00  0.00     0.049 A 
ATOM     28  C   UNL A   1      48.159  28.259  27.099  1.00  0.00     0.074 A 
ATOM     29  C   UNL A   1      42.961  31.354  29.023  1.00  0.00     0.029 A 
ATOM     30  N   UNL A   1      44.390  29.824  28.273  1.00  0.00    -0.354 N 
ATOM     31  N   UNL A   1      47.035  28.815  27.483  1.00  0.00    -0.248 NA
ATOM     32  C   UNL A   1      49.303  29.178  27.052  1.00  0.00     0.031 C 
ATOM     33  C   UNL A   1      44.217  31.955  28.875  1.00  0.00     0.029 A 
ATOM     34  C   UNL A   1      45.111  30.997  28.428  1.00  0.00     0.049 A 
ATOM     35  H   UNL A   1      44.763  28.969  27.959  1.00  0.00     0.167 HD
ATOM     36  C   UNL A   1      47.340  30.146  27.743  1.00  0.00     0.074 A 
ATOM     37  C   UNL A   1      48.756  30.308  27.483  1.00  0.00     0.031 C 
ATOM     38  C   UNL A   1      46.520  31.142  28.160  1.00  0.00     0.037 A 
BRANCH  25  39
ATOM     39  C   UNL A   1      40.636  29.425  28.978  1.00  0.00     0.058 A 
ATOM     40  C   UNL A   1      39.612  29.591  28.032  1.00  0.00     0.135 A 
ATOM     41  C   UNL A   1      40.309  29.587  30.333  1.00  0.00     0.135 A 
ATOM     42  F   UNL A   1      39.874  29.465  26.722  1.00  0.00    -0.206 F 
ATOM     43  C   UNL A   1      38.315  29.921  28.415  1.00  0.00     0.059 A 
ATOM     44  C   UNL A   1      39.013  29.896  30.741  1.00  0.00     0.059 A 
ATOM     45  F   UNL A   1      41.251  29.442  31.279  1.00  0.00    -0.206 F 
ATOM     46  C   UNL A   1      38.025  30.071  29.773  1.00  0.00     0.060 A 
BRANCH  46  47
ATOM     47  S   UNL A   1      36.336  30.493  30.250  1.00  0.00     0.124 S 
ATOM     48  O   UNL A   1      36.131  29.617  31.399  1.00  0.00    -0.237 OA
ATOM     49  O   UNL A   1      36.443  31.917  30.549  1.00  0.00    -0.237 OA
ATOM     50  O   UNL A   1      35.554  30.162  29.063  1.00  0.00    -0.744 OA
ENDBRANCH  46  47
ENDBRANCH  25  39
BRANCH  26  51
ATOM     51  C   UNL A   1      49.783  26.370  26.343  1.00  0.00     0.058 A 
ATOM     52  C   UNL A   1      50.243  26.471  25.023  1.00  0.00     0.135 A 
ATOM     53  C   UNL A   1      50.662  25.856  27.309  1.00  0.00     0.135 A 
ATOM     54  F   UNL A   1      49.435  26.950  24.065  1.00  0.00    -0.206 F 
ATOM     55  C   UNL A   1      51.530  26.076  24.670  1.00  0.00     0.059 A 
ATOM     56  C   UNL A   1      51.960  25.477  26.985  1.00  0.00     0.059 A 
ATOM     57  F   UNL A   1      50.271  25.753  28.588  1.00  0.00    -0.206 F 
ATOM     58  C   UNL A   1      52.383  25.586  25.660  1.00  0.00     0.060 A 
BRANCH  58  59
ATOM     59  S   UNL A   1      54.071  25.140  25.202  1.00  0.00     0.124 S 
ATOM     60  O   UNL A   1      53.941  23.708  24.959  1.00  0.00    -0.237 OA
ATOM     61  O   UNL A   1      54.297  25.970  24.023  1.00  0.00    -0.237 OA
ATOM     62  O   UNL A   1      54.849  25.513  26.379  1.00  0.00    -0.744 OA
ENDBRANCH  58  59
ENDBRANCH  26  51
BRANCH  38  63
ATOM     63  C   UNL A   1      47.139  32.495  28.380  1.00  0.00     0.058 A 
ATOM     64  C   UNL A   1      47.133  33.477  27.377  1.00  0.00     0.135 A 
ATOM     65  C   UNL A   1      47.702  32.827  29.623  1.00  0.00     0.135 A 
ATOM     66  F   UNL A   1      46.615  33.206  26.170  1.00  0.00    -0.206 F 
ATOM     67  C   UNL A   1      47.683  34.736  27.592  1.00  0.00     0.059 A 
ATOM     68  C   UNL A   1      48.236  34.088  29.868  1.00  0.00     0.059 A 
ATOM     69  F   UNL A   1      47.724  31.926  30.618  1.00  0.00    -0.206 F 
ATOM     70  C   UNL A   1      48.232  35.033  28.842  1.00  0.00     0.060 A 
BRANCH  70  71
ATOM     71  S   UNL A   1      48.916  36.681  29.115  1.00  0.00     0.124 S 
ATOM     72  O   UNL A   1      50.347  36.431  28.984  1.00  0.00    -0.237 OA
ATOM     73  O   UNL A   1      48.306  37.456  28.040  1.00  0.00    -0.237 OA
ATOM     74  O   UNL A   1      48.459  37.020  30.460  1.00  0.00    -0.744 OA
ENDBRANCH  70  71
ENDBRANCH  38  63
ENDBRANCH  12  13
ENDBRANCH   5   7
ENDBRANCH   2   3
ENDBRANCH   1   2
BRANCH   1  75
ATOM     75  C   UNL A   1      37.373  21.468  24.616  1.00  0.00     0.023 C 
BRANCH  75  76
ATOM     76  C   UNL A   1      37.165  22.617  25.603  1.00  0.00     0.116 C 
BRANCH  76  77
ATOM     77  N   UNL A   1      36.124  22.292  26.560  1.00  0.00    -0.356 N 
ATOM     78  C   UNL A   1      34.869  22.789  26.717  1.00  0.00     0.224 C 
ATOM     79  H   UNL A   1      36.368  21.590  27.206  1.00  0.00     0.163 HD
ATOM     80  O   UNL A   1      34.295  22.529  27.774  1.00  0.00    -0.275 OA
BRANCH  78  81
ATOM     81  C   UNL A   1      34.200  23.576  25.598  1.00  0.00     0.098 C 
ATOM     82  C   UNL A   1      32.963  24.330  26.096  1.00  0.00     0.017 C 
ATOM     83  C   UNL A   1      33.898  22.632  24.427  1.00  0.00     0.130 C 
ATOM     84  C   UNL A   1      31.734  23.439  26.254  1.00  0.00     0.022 C 
ATOM     85  N   UNL A   1      32.654  21.882  24.612  1.00  0.00    -0.368 N 
ATOM     86  C   UNL A   1      31.457  22.623  24.995  1.00  0.00     0.116 C 
BRANCH  85  87
ATOM     87  C   UNL A   1      32.618  20.508  24.416  1.00  0.00     0.082 A 
ATOM     88  C   UNL A   1      32.962  19.625  25.441  1.00  0.00     0.163 A 
ATOM     89  C   UNL A   1      32.246  19.883  23.219  1.00  0.00     0.129 A 
ATOM     90  N   UNL A   1      32.952  18.272  25.341  1.00  0.00    -0.153 NA
ATOM     91  C   UNL A   1      32.234  18.491  23.148  1.00  0.00     0.252 A 
ATOM     92  Cl  UNL A   1      31.885  20.777  21.773  1.00  0.00    -0.076 Cl
ATOM     93  N   UNL A   1      32.577  17.698  24.177  1.00  0.00    -0.111 NA
BRANCH  91  94
ATOM     94  O   UNL A   1      31.887  17.831  21.997  1.00  0.00    -0.491 OA
ATOM     95  H   UNL A   1      30.997  17.835  21.704  1.00  0.00     0.295 HD
ENDBRANCH  91  94
ENDBRANCH  85  87
ENDBRANCH  78  81
ENDBRANCH  76  77
ENDBRANCH  75  76
ENDBRANCH   1  75
TORSDOF 16
ENDMDL
