MODEL 1
REMARK VINA RESULT:     -11.5      0.000      0.000
REMARK SMILES CCc1cc(C(=O)N2CCO[C@@H](CC(=O)NCCCCNC(=O)c3ccc(-c4c5nc(c(-c6c(F)cc(S(=O)(=O)[O-])cc6F)c6ccc([nH]6)c(-c6c(F)cc(S(=O)(=O)[O-])cc6F)c6nc(c(-c7c(F)cc(S(=O)(=O)[O-])cc7F)c7ccc4[nH]7)C=C6)C=C5)cc3)C2)sc1C
REMARK SMILES IDX 18 1 17 2 16 3 14 4 15 5 13 7 12 8 8 9 9 10 90 11 10 12
REMARK SMILES IDX 11 13 6 14 7 15 5 16 3 17 4 18 92 19 91 20 93 21 2 22 1 23
REMARK SMILES IDX 19 24 20 25 21 26 22 27 23 29 24 30 25 31 89 32 26 33 88 34
REMARK SMILES IDX 27 35 28 36 29 37 82 38 30 39 87 40 81 41 83 42 31 43 86 44
REMARK SMILES IDX 80 45 79 46 32 48 66 49 45 50 65 51 46 52 49 53 64 54 84 55
REMARK SMILES IDX 47 56 48 57 63 59 85 60 50 61 33 62 34 63 43 64 35 65 36 66
REMARK SMILES IDX 42 67 44 68 37 69 38 70 39 71 40 72 41 73 67 74 68 75 77 76
REMARK SMILES IDX 69 77 70 78 76 79 78 80 71 81 72 82 73 83 74 84 75 85 51 86
REMARK SMILES IDX 52 87 61 88 53 89 54 90 60 91 62 92 55 93 56 94 57 95 58 96
REMARK SMILES IDX 59 97
REMARK H PARENT 16 6 21 28 83 47 49 58
REMARK Flexibility Score: inf
ROOT
ATOM      1  C   UNL A   1      38.293  23.535  26.139  1.00  0.00     0.023 C 
ENDROOT
BRANCH   1   2
ATOM      2  C   UNL A   1      37.241  22.790  25.317  1.00  0.00     0.116 C 
BRANCH   2   3
ATOM      3  N   UNL A   1      36.285  22.099  26.170  1.00  0.00    -0.356 N 
ATOM      4  C   UNL A   1      35.021  21.660  25.910  1.00  0.00     0.222 C 
ATOM      5  O   UNL A   1      34.366  21.161  26.825  1.00  0.00    -0.275 OA
ATOM      6  H   UNL A   1      36.604  21.918  27.084  1.00  0.00     0.163 HD
BRANCH   4   7
ATOM      7  C   UNL A   1      34.418  21.818  24.532  1.00  0.00     0.133 C 
BRANCH   7   8
ATOM      8  C   UNL A   1      33.308  22.870  24.508  1.00  0.00     0.147 C 
ATOM      9  N   UNL A   1      32.652  25.051  23.460  1.00  0.00    -0.333 N 
ATOM     10  C   UNL A   1      31.508  24.383  22.858  1.00  0.00     0.148 C 
ATOM     11  C   UNL A   1      33.749  24.144  23.765  1.00  0.00     0.152 C 
ATOM     12  C   UNL A   1      31.087  23.184  23.704  1.00  0.00     0.182 C 
ATOM     13  O   UNL A   1      32.175  22.259  23.845  1.00  0.00    -0.374 OA
BRANCH   9  14
ATOM     14  C   UNL A   1      33.037  26.263  22.874  1.00  0.00     0.264 C 
ATOM     15  O   UNL A   1      33.865  26.277  21.966  1.00  0.00    -0.268 OA
BRANCH  14  16
ATOM     16  C   UNL A   1      32.372  27.434  23.428  1.00  0.00     0.093 A 
ATOM     17  C   UNL A   1      30.888  29.240  23.785  1.00  0.00    -0.034 A 
ATOM     18  C   UNL A   1      31.232  28.082  22.998  1.00  0.00     0.029 A 
ATOM     19  C   UNL A   1      31.781  29.388  24.837  1.00  0.00     0.005 A 
ATOM     20  S   UNL A   1      33.029  28.212  24.796  1.00  0.00    -0.135 S 
ATOM     21  C   UNL A   1      31.799  30.399  25.939  1.00  0.00     0.056 C 
BRANCH  17  22
ATOM     22  C   UNL A   1      29.679  30.088  23.467  1.00  0.00     0.033 C 
ATOM     23  C   UNL A   1      28.924  29.716  22.199  1.00  0.00     0.009 C 
ENDBRANCH  17  22
ENDBRANCH  14  16
ENDBRANCH   9  14
ENDBRANCH   7   8
ENDBRANCH   4   7
ENDBRANCH   2   3
ENDBRANCH   1   2
BRANCH   1  24
ATOM     24  C   UNL A   1      39.451  22.672  26.638  1.00  0.00     0.023 C 
BRANCH  24  25
ATOM     25  C   UNL A   1      40.729  23.435  26.975  1.00  0.00     0.116 C 
BRANCH  25  26
ATOM     26  N   UNL A   1      41.141  24.358  25.928  1.00  0.00    -0.352 N 
ATOM     27  C   UNL A   1      41.353  25.713  25.992  1.00  0.00     0.251 C 
ATOM     28  H   UNL A   1      41.290  23.951  25.044  1.00  0.00     0.163 HD
ATOM     29  O   UNL A   1      41.609  26.341  24.968  1.00  0.00    -0.269 OA
BRANCH  27  30
ATOM     30  C   UNL A   1      41.239  26.421  27.284  1.00  0.00     0.039 A 
ATOM     31  C   UNL A   1      42.170  27.421  27.584  1.00  0.00     0.014 A 
ATOM     32  C   UNL A   1      40.224  26.109  28.193  1.00  0.00     0.014 A 
ATOM     33  C   UNL A   1      42.039  28.160  28.761  1.00  0.00     0.010 A 
ATOM     34  C   UNL A   1      40.064  26.879  29.341  1.00  0.00     0.010 A 
ATOM     35  C   UNL A   1      40.964  27.917  29.630  1.00  0.00    -0.014 A 
BRANCH  35  36
ATOM     36  C   UNL A   1      40.754  28.737  30.846  1.00  0.00     0.031 A 
ATOM     37  C   UNL A   1      39.635  29.735  30.893  1.00  0.00     0.074 A 
ATOM     38  C   UNL A   1      41.626  28.648  31.868  1.00  0.00     0.049 A 
ATOM     39  N   UNL A   1      39.398  30.667  31.781  1.00  0.00    -0.248 NA
ATOM     40  C   UNL A   1      38.678  29.706  29.776  1.00  0.00     0.031 C 
ATOM     41  C   UNL A   1      42.782  27.750  31.926  1.00  0.00     0.029 A 
ATOM     42  N   UNL A   1      41.678  29.334  33.055  1.00  0.00    -0.354 N 
ATOM     43  C   UNL A   1      38.310  31.380  31.295  1.00  0.00     0.074 A 
ATOM     44  C   UNL A   1      37.919  30.759  30.047  1.00  0.00     0.031 C 
ATOM     45  C   UNL A   1      43.417  27.927  33.096  1.00  0.00     0.029 A 
ATOM     46  C   UNL A   1      42.730  28.965  33.858  1.00  0.00     0.049 A 
ATOM     47  H   UNL A   1      41.024  30.025  33.307  1.00  0.00     0.167 HD
ATOM     48  C   UNL A   1      37.704  32.465  31.834  1.00  0.00     0.037 A 
ATOM     49  C   UNL A   1      43.097  29.415  35.072  1.00  0.00     0.037 A 
ATOM     50  C   UNL A   1      38.052  33.043  33.104  1.00  0.00     0.049 A 
ATOM     51  C   UNL A   1      42.297  30.500  35.730  1.00  0.00     0.074 A 
ATOM     52  C   UNL A   1      37.501  34.143  33.738  1.00  0.00     0.029 A 
ATOM     53  N   UNL A   1      39.028  32.540  33.951  1.00  0.00    -0.354 N 
ATOM     54  N   UNL A   1      41.290  31.184  35.245  1.00  0.00    -0.248 NA
ATOM     55  C   UNL A   1      42.678  30.869  37.100  1.00  0.00     0.031 C 
ATOM     56  C   UNL A   1      38.133  34.294  34.980  1.00  0.00     0.029 A 
ATOM     57  C   UNL A   1      39.074  33.285  35.116  1.00  0.00     0.049 A 
ATOM     58  H   UNL A   1      39.603  31.767  33.753  1.00  0.00     0.167 HD
ATOM     59  C   UNL A   1      40.914  32.066  36.249  1.00  0.00     0.074 A 
ATOM     60  C   UNL A   1      41.793  31.819  37.376  1.00  0.00     0.031 C 
ATOM     61  C   UNL A   1      39.938  33.005  36.233  1.00  0.00     0.037 A 
BRANCH  48  62
ATOM     62  C   UNL A   1      36.622  33.101  31.018  1.00  0.00     0.058 A 
ATOM     63  C   UNL A   1      36.916  33.979  29.964  1.00  0.00     0.135 A 
ATOM     64  C   UNL A   1      35.272  32.866  31.328  1.00  0.00     0.135 A 
ATOM     65  F   UNL A   1      38.191  34.251  29.648  1.00  0.00    -0.206 F 
ATOM     66  C   UNL A   1      35.907  34.633  29.264  1.00  0.00     0.059 A 
ATOM     67  C   UNL A   1      34.248  33.500  30.634  1.00  0.00     0.059 A 
ATOM     68  F   UNL A   1      34.943  32.041  32.334  1.00  0.00    -0.206 F 
ATOM     69  C   UNL A   1      34.576  34.400  29.619  1.00  0.00     0.060 A 
BRANCH  69  70
ATOM     70  S   UNL A   1      33.254  35.280  28.760  1.00  0.00     0.124 S 
ATOM     71  O   UNL A   1      34.018  36.225  27.951  1.00  0.00    -0.237 OA
ATOM     72  O   UNL A   1      32.579  34.218  28.019  1.00  0.00    -0.237 OA
ATOM     73  O   UNL A   1      32.483  35.862  29.854  1.00  0.00    -0.744 OA
ENDBRANCH  69  70
ENDBRANCH  48  62
BRANCH  49  74
ATOM     74  C   UNL A   1      44.260  28.803  35.755  1.00  0.00     0.058 A 
ATOM     75  C   UNL A   1      45.550  29.315  35.554  1.00  0.00     0.135 A 
ATOM     76  C   UNL A   1      44.102  27.735  36.647  1.00  0.00     0.135 A 
ATOM     77  F   UNL A   1      45.741  30.337  34.707  1.00  0.00    -0.206 F 
ATOM     78  C   UNL A   1      46.652  28.786  36.216  1.00  0.00     0.059 A 
ATOM     79  C   UNL A   1      45.189  27.194  37.328  1.00  0.00     0.059 A 
ATOM     80  F   UNL A   1      42.883  27.227  36.880  1.00  0.00    -0.206 F 
ATOM     81  C   UNL A   1      46.460  27.723  37.102  1.00  0.00     0.060 A 
BRANCH  81  82
ATOM     82  S   UNL A   1      47.874  27.079  38.025  1.00  0.00     0.124 S 
ATOM     83  O   UNL A   1      47.833  25.665  37.672  1.00  0.00    -0.237 OA
ATOM     84  O   UNL A   1      48.991  27.840  37.472  1.00  0.00    -0.237 OA
ATOM     85  O   UNL A   1      47.534  27.400  39.407  1.00  0.00    -0.744 OA
ENDBRANCH  81  82
ENDBRANCH  49  74
BRANCH  61  86
ATOM     86  C   UNL A   1      39.756  33.813  37.480  1.00  0.00     0.058 A 
ATOM     87  C   UNL A   1      40.388  35.054  37.638  1.00  0.00     0.135 A 
ATOM     88  C   UNL A   1      38.919  33.356  38.510  1.00  0.00     0.135 A 
ATOM     89  F   UNL A   1      41.200  35.526  36.678  1.00  0.00    -0.206 F 
ATOM     90  C   UNL A   1      40.204  35.818  38.785  1.00  0.00     0.059 A 
ATOM     91  C   UNL A   1      38.719  34.105  39.664  1.00  0.00     0.059 A 
ATOM     92  F   UNL A   1      38.297  32.173  38.400  1.00  0.00    -0.206 F 
ATOM     93  C   UNL A   1      39.372  35.332  39.795  1.00  0.00     0.060 A 
BRANCH  93  94
ATOM     94  S   UNL A   1      39.103  36.331  41.277  1.00  0.00     0.124 S 
ATOM     95  O   UNL A   1      40.344  36.105  42.010  1.00  0.00    -0.237 OA
ATOM     96  O   UNL A   1      38.924  37.674  40.734  1.00  0.00    -0.237 OA
ATOM     97  O   UNL A   1      37.906  35.736  41.863  1.00  0.00    -0.744 OA
ENDBRANCH  93  94
ENDBRANCH  61  86
ENDBRANCH  35  36
ENDBRANCH  27  30
ENDBRANCH  25  26
ENDBRANCH  24  25
ENDBRANCH   1  24
TORSDOF 18
ENDMDL
MODEL 2
REMARK VINA RESULT:     -11.4      1.235      8.355
REMARK SMILES CCc1cc(C(=O)N2CCO[C@@H](CC(=O)NCCCCNC(=O)c3ccc(-c4c5nc(c(-c6c(F)cc(S(=O)(=O)[O-])cc6F)c6ccc([nH]6)c(-c6c(F)cc(S(=O)(=O)[O-])cc6F)c6nc(c(-c7c(F)cc(S(=O)(=O)[O-])cc7F)c7ccc4[nH]7)C=C6)C=C5)cc3)C2)sc1C
REMARK SMILES IDX 18 1 17 2 16 3 14 4 15 5 13 7 12 8 8 9 9 10 90 11 10 12
REMARK SMILES IDX 11 13 6 14 7 15 5 16 3 17 4 18 92 19 91 20 93 21 2 22 1 23
REMARK SMILES IDX 19 24 20 25 21 26 22 27 23 29 24 30 25 31 89 32 26 33 88 34
REMARK SMILES IDX 27 35 28 36 29 37 82 38 30 39 87 40 81 41 83 42 31 43 86 44
REMARK SMILES IDX 80 45 79 46 32 48 66 49 45 50 65 51 46 52 49 53 64 54 84 55
REMARK SMILES IDX 47 56 48 57 63 59 85 60 50 61 33 62 34 63 43 64 35 65 36 66
REMARK SMILES IDX 42 67 44 68 37 69 38 70 39 71 40 72 41 73 67 74 68 75 77 76
REMARK SMILES IDX 69 77 70 78 76 79 78 80 71 81 72 82 73 83 74 84 75 85 51 86
REMARK SMILES IDX 52 87 61 88 53 89 54 90 60 91 62 92 55 93 56 94 57 95 58 96
REMARK SMILES IDX 59 97
REMARK H PARENT 16 6 21 28 83 47 49 58
REMARK Flexibility Score: inf
ROOT
ATOM      1  C   UNL A   1      38.628  23.694  26.723  1.00  0.00     0.023 C 
ENDROOT
BRANCH   1   2
ATOM      2  C   UNL A   1      37.671  23.441  25.557  1.00  0.00     0.116 C 
BRANCH   2   3
ATOM      3  N   UNL A   1      37.245  22.050  25.507  1.00  0.00    -0.356 N 
ATOM      4  C   UNL A   1      36.260  21.451  24.779  1.00  0.00     0.222 C 
ATOM      5  O   UNL A   1      36.031  20.255  24.961  1.00  0.00    -0.275 OA
ATOM      6  H   UNL A   1      37.751  21.442  26.094  1.00  0.00     0.163 HD
BRANCH   4   7
ATOM      7  C   UNL A   1      35.437  22.247  23.792  1.00  0.00     0.133 C 
BRANCH   7   8
ATOM      8  C   UNL A   1      33.941  22.173  24.100  1.00  0.00     0.147 C 
ATOM      9  N   UNL A   1      32.082  23.390  25.262  1.00  0.00    -0.333 N 
ATOM     10  C   UNL A   1      31.421  23.547  23.976  1.00  0.00     0.148 C 
ATOM     11  C   UNL A   1      33.524  23.220  25.148  1.00  0.00     0.152 C 
ATOM     12  C   UNL A   1      31.827  22.420  23.029  1.00  0.00     0.182 C 
ATOM     13  O   UNL A   1      33.251  22.401  22.848  1.00  0.00    -0.374 OA
BRANCH   9  14
ATOM     14  C   UNL A   1      31.671  24.262  26.277  1.00  0.00     0.264 C 
ATOM     15  O   UNL A   1      31.112  23.825  27.281  1.00  0.00    -0.268 OA
BRANCH  14  16
ATOM     16  C   UNL A   1      31.973  25.663  26.023  1.00  0.00     0.093 A 
ATOM     17  C   UNL A   1      33.062  27.758  25.892  1.00  0.00    -0.034 A 
ATOM     18  C   UNL A   1      33.145  26.361  26.236  1.00  0.00     0.029 A 
ATOM     19  C   UNL A   1      31.810  28.050  25.368  1.00  0.00     0.005 A 
ATOM     20  S   UNL A   1      30.768  26.688  25.390  1.00  0.00    -0.135 S 
ATOM     21  C   UNL A   1      31.279  29.339  24.827  1.00  0.00     0.056 C 
BRANCH  17  22
ATOM     22  C   UNL A   1      34.238  28.691  26.064  1.00  0.00     0.033 C 
ATOM     23  C   UNL A   1      34.500  29.172  27.483  1.00  0.00     0.009 C 
ENDBRANCH  17  22
ENDBRANCH  14  16
ENDBRANCH   9  14
ENDBRANCH   7   8
ENDBRANCH   4   7
ENDBRANCH   2   3
ENDBRANCH   1   2
BRANCH   1  24
ATOM     24  C   UNL A   1      39.722  22.643  26.901  1.00  0.00     0.023 C 
BRANCH  24  25
ATOM     25  C   UNL A   1      41.122  23.200  27.144  1.00  0.00     0.116 C 
BRANCH  25  26
ATOM     26  N   UNL A   1      41.644  23.955  26.015  1.00  0.00    -0.352 N 
ATOM     27  C   UNL A   1      41.947  25.292  25.923  1.00  0.00     0.251 C 
ATOM     28  H   UNL A   1      41.804  23.431  25.197  1.00  0.00     0.163 HD
ATOM     29  O   UNL A   1      42.292  25.768  24.846  1.00  0.00    -0.269 OA
BRANCH  27  30
ATOM     30  C   UNL A   1      41.824  26.162  27.112  1.00  0.00     0.039 A 
ATOM     31  C   UNL A   1      42.769  27.177  27.298  1.00  0.00     0.014 A 
ATOM     32  C   UNL A   1      40.788  25.988  28.032  1.00  0.00     0.014 A 
ATOM     33  C   UNL A   1      42.632  28.064  28.367  1.00  0.00     0.010 A 
ATOM     34  C   UNL A   1      40.623  26.902  29.069  1.00  0.00     0.010 A 
ATOM     35  C   UNL A   1      41.537  27.953  29.239  1.00  0.00    -0.014 A 
BRANCH  35  36
ATOM     36  C   UNL A   1      41.323  28.926  30.335  1.00  0.00     0.031 A 
ATOM     37  C   UNL A   1      42.216  28.905  31.541  1.00  0.00     0.074 A 
ATOM     38  C   UNL A   1      40.271  29.765  30.286  1.00  0.00     0.049 A 
ATOM     39  N   UNL A   1      42.084  29.542  32.676  1.00  0.00    -0.248 NA
ATOM     40  C   UNL A   1      43.392  28.023  31.475  1.00  0.00     0.031 C 
ATOM     41  C   UNL A   1      39.301  29.852  29.192  1.00  0.00     0.029 A 
ATOM     42  N   UNL A   1      39.835  30.698  31.192  1.00  0.00    -0.354 N 
ATOM     43  C   UNL A   1      43.116  29.085  33.485  1.00  0.00     0.074 A 
ATOM     44  C   UNL A   1      43.880  28.135  32.703  1.00  0.00     0.031 C 
ATOM     45  C   UNL A   1      38.397  30.801  29.481  1.00  0.00     0.029 A 
ATOM     46  C   UNL A   1      38.707  31.371  30.788  1.00  0.00     0.049 A 
ATOM     47  H   UNL A   1      40.287  30.870  32.048  1.00  0.00     0.167 HD
ATOM     48  C   UNL A   1      43.390  29.416  34.770  1.00  0.00     0.037 A 
ATOM     49  C   UNL A   1      38.004  32.338  31.406  1.00  0.00     0.037 A 
ATOM     50  C   UNL A   1      42.670  30.405  35.525  1.00  0.00     0.049 A 
ATOM     51  C   UNL A   1      38.436  32.815  32.760  1.00  0.00     0.074 A 
ATOM     52  C   UNL A   1      42.868  30.813  36.833  1.00  0.00     0.029 A 
ATOM     53  N   UNL A   1      41.628  31.168  35.022  1.00  0.00    -0.354 N 
ATOM     54  N   UNL A   1      39.396  32.353  33.524  1.00  0.00    -0.248 NA
ATOM     55  C   UNL A   1      37.698  33.949  33.333  1.00  0.00     0.031 C 
ATOM     56  C   UNL A   1      41.955  31.838  37.114  1.00  0.00     0.029 A 
ATOM     57  C   UNL A   1      41.193  32.068  35.979  1.00  0.00     0.049 A 
ATOM     58  H   UNL A   1      41.253  31.083  34.116  1.00  0.00     0.167 HD
ATOM     59  C   UNL A   1      39.379  33.138  34.669  1.00  0.00     0.074 A 
ATOM     60  C   UNL A   1      38.323  34.116  34.492  1.00  0.00     0.031 C 
ATOM     61  C   UNL A   1      40.159  33.048  35.772  1.00  0.00     0.037 A 
BRANCH  48  62
ATOM     62  C   UNL A   1      44.505  28.666  35.430  1.00  0.00     0.058 A 
ATOM     63  C   UNL A   1      45.833  29.114  35.365  1.00  0.00     0.135 A 
ATOM     64  C   UNL A   1      44.246  27.456  36.095  1.00  0.00     0.135 A 
ATOM     65  F   UNL A   1      46.130  30.251  34.719  1.00  0.00    -0.206 F 
ATOM     66  C   UNL A   1      46.875  28.368  35.906  1.00  0.00     0.059 A 
ATOM     67  C   UNL A   1      45.270  26.701  36.653  1.00  0.00     0.059 A 
ATOM     68  F   UNL A   1      42.991  26.983  36.175  1.00  0.00    -0.206 F 
ATOM     69  C   UNL A   1      46.585  27.154  36.533  1.00  0.00     0.060 A 
BRANCH  69  70
ATOM     70  S   UNL A   1      47.929  26.146  37.194  1.00  0.00     0.124 S 
ATOM     71  O   UNL A   1      49.090  26.769  36.568  1.00  0.00    -0.237 OA
ATOM     72  O   UNL A   1      47.810  26.342  38.636  1.00  0.00    -0.237 OA
ATOM     73  O   UNL A   1      47.597  24.806  36.720  1.00  0.00    -0.744 OA
ENDBRANCH  69  70
ENDBRANCH  48  62
BRANCH  49  74
ATOM     74  C   UNL A   1      36.837  32.941  30.721  1.00  0.00     0.058 A 
ATOM     75  C   UNL A   1      35.534  32.560  31.071  1.00  0.00     0.135 A 
ATOM     76  C   UNL A   1      36.998  33.932  29.744  1.00  0.00     0.135 A 
ATOM     77  F   UNL A   1      35.339  31.614  32.002  1.00  0.00    -0.206 F 
ATOM     78  C   UNL A   1      34.422  33.142  30.473  1.00  0.00     0.059 A 
ATOM     79  C   UNL A   1      35.901  34.535  29.137  1.00  0.00     0.059 A 
ATOM     80  F   UNL A   1      38.228  34.337  29.392  1.00  0.00    -0.206 F 
ATOM     81  C   UNL A   1      34.617  34.131  29.506  1.00  0.00     0.060 A 
BRANCH  81  82
ATOM     82  S   UNL A   1      33.178  34.947  28.778  1.00  0.00     0.124 S 
ATOM     83  O   UNL A   1      32.356  35.196  29.956  1.00  0.00    -0.237 OA
ATOM     84  O   UNL A   1      33.764  36.127  28.149  1.00  0.00    -0.237 OA
ATOM     85  O   UNL A   1      32.670  33.941  27.848  1.00  0.00    -0.744 OA
ENDBRANCH  81  82
ENDBRANCH  49  74
BRANCH  61  86
ATOM     86  C   UNL A   1      39.914  34.048  36.859  1.00  0.00     0.058 A 
ATOM     87  C   UNL A   1      39.118  33.732  37.969  1.00  0.00     0.135 A 
ATOM     88  C   UNL A   1      40.503  35.320  36.803  1.00  0.00     0.135 A 
ATOM     89  F   UNL A   1      38.533  32.527  38.059  1.00  0.00    -0.206 F 
ATOM     90  C   UNL A   1      38.906  34.650  38.991  1.00  0.00     0.059 A 
ATOM     91  C   UNL A   1      40.306  36.253  37.815  1.00  0.00     0.059 A 
ATOM     92  F   UNL A   1      41.269  35.665  35.757  1.00  0.00    -0.206 F 
ATOM     93  C   UNL A   1      39.499  35.910  38.902  1.00  0.00     0.060 A 
BRANCH  93  94
ATOM     94  S   UNL A   1      39.253  37.100  40.239  1.00  0.00     0.124 S 
ATOM     95  O   UNL A   1      40.626  37.346  40.668  1.00  0.00    -0.237 OA
ATOM     96  O   UNL A   1      38.592  38.213  39.565  1.00  0.00    -0.237 OA
ATOM     97  O   UNL A   1      38.418  36.366  41.185  1.00  0.00    -0.744 OA
ENDBRANCH  93  94
ENDBRANCH  61  86
ENDBRANCH  35  36
ENDBRANCH  27  30
ENDBRANCH  25  26
ENDBRANCH  24  25
ENDBRANCH   1  24
TORSDOF 18
ENDMDL
MODEL 3
REMARK VINA RESULT:     -11.2      6.496     12.125
REMARK SMILES CCc1cc(C(=O)N2CCO[C@@H](CC(=O)NCCCCNC(=O)c3ccc(-c4c5nc(c(-c6c(F)cc(S(=O)(=O)[O-])cc6F)c6ccc([nH]6)c(-c6c(F)cc(S(=O)(=O)[O-])cc6F)c6nc(c(-c7c(F)cc(S(=O)(=O)[O-])cc7F)c7ccc4[nH]7)C=C6)C=C5)cc3)C2)sc1C
REMARK SMILES IDX 18 1 17 2 16 3 14 4 15 5 13 7 12 8 8 9 9 10 90 11 10 12
REMARK SMILES IDX 11 13 6 14 7 15 5 16 3 17 4 18 92 19 91 20 93 21 2 22 1 23
REMARK SMILES IDX 19 24 20 25 21 26 22 27 23 29 24 30 25 31 89 32 26 33 88 34
REMARK SMILES IDX 27 35 28 36 29 37 82 38 30 39 87 40 81 41 83 42 31 43 86 44
REMARK SMILES IDX 80 45 79 46 32 48 66 49 45 50 65 51 46 52 49 53 64 54 84 55
REMARK SMILES IDX 47 56 48 57 63 59 85 60 50 61 33 62 34 63 43 64 35 65 36 66
REMARK SMILES IDX 42 67 44 68 37 69 38 70 39 71 40 72 41 73 67 74 68 75 77 76
REMARK SMILES IDX 69 77 70 78 76 79 78 80 71 81 72 82 73 83 74 84 75 85 51 86
REMARK SMILES IDX 52 87 61 88 53 89 54 90 60 91 62 92 55 93 56 94 57 95 58 96
REMARK SMILES IDX 59 97
REMARK H PARENT 16 6 21 28 83 47 49 58
REMARK Flexibility Score: inf
ROOT
ATOM      1  C   UNL A   1      34.615  29.706  27.561  1.00  0.00     0.023 C 
ENDROOT
BRANCH   1   2
ATOM      2  C   UNL A   1      33.391  29.324  26.727  1.00  0.00     0.116 C 
BRANCH   2   3
ATOM      3  N   UNL A   1      33.661  29.429  25.301  1.00  0.00    -0.356 N 
ATOM      4  C   UNL A   1      32.978  28.932  24.231  1.00  0.00     0.222 C 
ATOM      5  O   UNL A   1      33.446  29.088  23.103  1.00  0.00    -0.275 OA
ATOM      6  H   UNL A   1      34.469  29.943  25.071  1.00  0.00     0.163 HD
BRANCH   4   7
ATOM      7  C   UNL A   1      31.688  28.169  24.427  1.00  0.00     0.133 C 
BRANCH   7   8
ATOM      8  C   UNL A   1      31.829  26.694  24.045  1.00  0.00     0.147 C 
ATOM      9  N   UNL A   1      31.999  24.391  25.021  1.00  0.00    -0.333 N 
ATOM     10  C   UNL A   1      30.752  24.050  24.355  1.00  0.00     0.148 C 
ATOM     11  C   UNL A   1      32.142  25.818  25.271  1.00  0.00     0.152 C 
ATOM     12  C   UNL A   1      30.563  24.907  23.106  1.00  0.00     0.182 C 
ATOM     13  O   UNL A   1      30.571  26.302  23.446  1.00  0.00    -0.374 OA
BRANCH   9  14
ATOM     14  C   UNL A   1      32.375  23.566  26.088  1.00  0.00     0.264 C 
ATOM     15  O   UNL A   1      31.943  23.780  27.218  1.00  0.00    -0.268 OA
BRANCH  14  16
ATOM     16  C   UNL A   1      33.277  22.483  25.720  1.00  0.00     0.093 A 
ATOM     17  C   UNL A   1      34.149  20.390  25.049  1.00  0.00    -0.034 A 
ATOM     18  C   UNL A   1      32.984  21.204  25.292  1.00  0.00     0.029 A 
ATOM     19  C   UNL A   1      35.304  21.130  25.261  1.00  0.00     0.005 A 
ATOM     20  S   UNL A   1      34.962  22.716  25.818  1.00  0.00    -0.135 S 
ATOM     21  C   UNL A   1      36.736  20.735  25.085  1.00  0.00     0.056 C 
BRANCH  17  22
ATOM     22  C   UNL A   1      34.035  18.957  24.585  1.00  0.00     0.033 C 
ATOM     23  C   UNL A   1      32.628  18.379  24.558  1.00  0.00     0.009 C 
ENDBRANCH  17  22
ENDBRANCH  14  16
ENDBRANCH   9  14
ENDBRANCH   7   8
ENDBRANCH   4   7
ENDBRANCH   2   3
ENDBRANCH   1   2
BRANCH   1  24
ATOM     24  C   UNL A   1      34.831  31.208  27.739  1.00  0.00     0.023 C 
BRANCH  24  25
ATOM     25  C   UNL A   1      35.864  31.594  28.793  1.00  0.00     0.116 C 
BRANCH  25  26
ATOM     26  N   UNL A   1      35.724  30.848  30.035  1.00  0.00    -0.352 N 
ATOM     27  C   UNL A   1      36.633  30.042  30.676  1.00  0.00     0.251 C 
ATOM     28  H   UNL A   1      34.851  30.933  30.480  1.00  0.00     0.163 HD
ATOM     29  O   UNL A   1      36.295  29.415  31.677  1.00  0.00    -0.269 OA
BRANCH  27  30
ATOM     30  C   UNL A   1      38.005  29.902  30.144  1.00  0.00     0.039 A 
ATOM     31  C   UNL A   1      39.062  29.755  31.049  1.00  0.00     0.014 A 
ATOM     32  C   UNL A   1      38.252  29.909  28.769  1.00  0.00     0.014 A 
ATOM     33  C   UNL A   1      40.357  29.542  30.574  1.00  0.00     0.010 A 
ATOM     34  C   UNL A   1      39.534  29.645  28.295  1.00  0.00     0.010 A 
ATOM     35  C   UNL A   1      40.594  29.449  29.194  1.00  0.00    -0.014 A 
BRANCH  35  36
ATOM     36  C   UNL A   1      41.944  29.145  28.662  1.00  0.00     0.031 A 
ATOM     37  C   UNL A   1      42.242  27.782  28.109  1.00  0.00     0.074 A 
ATOM     38  C   UNL A   1      42.923  30.064  28.762  1.00  0.00     0.049 A 
ATOM     39  N   UNL A   1      43.394  27.264  27.769  1.00  0.00    -0.248 NA
ATOM     40  C   UNL A   1      41.098  26.870  27.953  1.00  0.00     0.031 C 
ATOM     41  C   UNL A   1      42.774  31.409  29.323  1.00  0.00     0.029 A 
ATOM     42  N   UNL A   1      44.245  29.997  28.405  1.00  0.00    -0.354 N 
ATOM     43  C   UNL A   1      43.126  25.945  27.428  1.00  0.00     0.074 A 
ATOM     44  C   UNL A   1      41.699  25.749  27.578  1.00  0.00     0.031 C 
ATOM     45  C   UNL A   1      43.953  32.047  29.252  1.00  0.00     0.029 A 
ATOM     46  C   UNL A   1      44.945  31.151  28.666  1.00  0.00     0.049 A 
ATOM     47  H   UNL A   1      44.654  29.200  27.998  1.00  0.00     0.167 HD
ATOM     48  C   UNL A   1      43.995  24.981  27.039  1.00  0.00     0.037 A 
ATOM     49  C   UNL A   1      46.240  31.448  28.456  1.00  0.00     0.037 A 
ATOM     50  C   UNL A   1      45.402  25.192  26.830  1.00  0.00     0.049 A 
ATOM     51  C   UNL A   1      47.147  30.415  27.856  1.00  0.00     0.074 A 
ATOM     52  C   UNL A   1      46.368  24.282  26.438  1.00  0.00     0.029 A 
ATOM     53  N   UNL A   1      46.038  26.417  26.964  1.00  0.00    -0.354 N 
ATOM     54  N   UNL A   1      46.886  29.165  27.566  1.00  0.00    -0.248 NA
ATOM     55  C   UNL A   1      48.521  30.836  27.546  1.00  0.00     0.031 C 
ATOM     56  C   UNL A   1      47.587  24.963  26.318  1.00  0.00     0.029 A 
ATOM     57  C   UNL A   1      47.375  26.296  26.631  1.00  0.00     0.049 A 
ATOM     58  H   UNL A   1      45.601  27.251  27.252  1.00  0.00     0.167 HD
ATOM     59  C   UNL A   1      48.061  28.645  27.039  1.00  0.00     0.074 A 
ATOM     60  C   UNL A   1      49.032  29.722  27.037  1.00  0.00     0.031 C 
ATOM     61  C   UNL A   1      48.315  27.386  26.611  1.00  0.00     0.037 A 
BRANCH  48  62
ATOM     62  C   UNL A   1      43.430  23.607  26.852  1.00  0.00     0.058 A 
ATOM     63  C   UNL A   1      43.152  22.772  27.944  1.00  0.00     0.135 A 
ATOM     64  C   UNL A   1      43.210  23.104  25.559  1.00  0.00     0.135 A 
ATOM     65  F   UNL A   1      43.370  23.202  29.196  1.00  0.00    -0.206 F 
ATOM     66  C   UNL A   1      42.708  21.466  27.761  1.00  0.00     0.059 A 
ATOM     67  C   UNL A   1      42.756  21.807  25.354  1.00  0.00     0.059 A 
ATOM     68  F   UNL A   1      43.470  23.864  24.484  1.00  0.00    -0.206 F 
ATOM     69  C   UNL A   1      42.530  20.987  26.461  1.00  0.00     0.060 A 
BRANCH  69  70
ATOM     70  S   UNL A   1      42.006  19.279  26.201  1.00  0.00     0.124 S 
ATOM     71  O   UNL A   1      42.370  18.670  27.477  1.00  0.00    -0.237 OA
ATOM     72  O   UNL A   1      40.574  19.408  25.951  1.00  0.00    -0.237 OA
ATOM     73  O   UNL A   1      42.803  18.863  25.051  1.00  0.00    -0.744 OA
ENDBRANCH  69  70
ENDBRANCH  48  62
BRANCH  49  74
ATOM     74  C   UNL A   1      46.739  32.803  28.786  1.00  0.00     0.058 A 
ATOM     75  C   UNL A   1      47.318  33.061  30.037  1.00  0.00     0.135 A 
ATOM     76  C   UNL A   1      46.688  33.846  27.852  1.00  0.00     0.135 A 
ATOM     77  F   UNL A   1      47.385  32.088  30.958  1.00  0.00    -0.206 F 
ATOM     78  C   UNL A   1      47.832  34.313  30.355  1.00  0.00     0.059 A 
ATOM     79  C   UNL A   1      47.204  35.105  28.144  1.00  0.00     0.059 A 
ATOM     80  F   UNL A   1      46.157  33.636  26.638  1.00  0.00    -0.206 F 
ATOM     81  C   UNL A   1      47.770  35.330  29.399  1.00  0.00     0.060 A 
BRANCH  81  82
ATOM     82  S   UNL A   1      48.503  36.938  29.775  1.00  0.00     0.124 S 
ATOM     83  O   UNL A   1      49.693  36.549  30.522  1.00  0.00    -0.237 OA
ATOM     84  O   UNL A   1      48.739  37.500  28.449  1.00  0.00    -0.237 OA
ATOM     85  O   UNL A   1      47.456  37.600  30.547  1.00  0.00    -0.744 OA
ENDBRANCH  81  82
ENDBRANCH  49  74
BRANCH  61  86
ATOM     86  C   UNL A   1      49.689  27.117  26.080  1.00  0.00     0.058 A 
ATOM     87  C   UNL A   1      49.972  27.224  24.711  1.00  0.00     0.135 A 
ATOM     88  C   UNL A   1      50.736  26.779  26.952  1.00  0.00     0.135 A 
ATOM     89  F   UNL A   1      48.998  27.540  23.843  1.00  0.00    -0.206 F 
ATOM     90  C   UNL A   1      51.252  26.996  24.218  1.00  0.00     0.059 A 
ATOM     91  C   UNL A   1      52.024  26.550  26.480  1.00  0.00     0.059 A 
ATOM     92  F   UNL A   1      50.508  26.664  28.269  1.00  0.00    -0.206 F 
ATOM     93  C   UNL A   1      52.270  26.654  25.110  1.00  0.00     0.060 A 
BRANCH  93  94
ATOM     94  S   UNL A   1      53.942  26.385  24.482  1.00  0.00     0.124 S 
ATOM     95  O   UNL A   1      54.016  24.928  24.463  1.00  0.00    -0.237 OA
ATOM     96  O   UNL A   1      53.906  27.033  23.175  1.00  0.00    -0.237 OA
ATOM     97  O   UNL A   1      54.779  27.047  25.478  1.00  0.00    -0.744 OA
ENDBRANCH  93  94
ENDBRANCH  61  86
ENDBRANCH  35  36
ENDBRANCH  27  30
ENDBRANCH  25  26
ENDBRANCH  24  25
ENDBRANCH   1  24
TORSDOF 18
ENDMDL
