MODEL 1
REMARK VINA RESULT:     -12.9      0.000      0.000
REMARK SMILES Cc1ccccc1NC(=O)c1ccccc1NC(=O)CCC(=O)NCCCCNC(=O)c1ccc(-c2c3nc(c(-c4c(F)cc(S(=O)(=O)[O-])cc4F)c4ccc([nH]4)c(-c4c(F)cc(S(=O)(=O)[O-])cc4F)c4nc(c(-c5c(F)cc(S(=O)(=O)[O-])cc5F)c5ccc2[nH]5)C=C4)C=C3)cc1
REMARK SMILES IDX 25 1 24 2 22 3 23 4 21 6 20 7 18 8 17 9 19 11 16 12 11 13
REMARK SMILES IDX 12 14 13 15 15 16 14 17 9 18 8 19 10 21 7 22 1 23 2 24 3 25
REMARK SMILES IDX 4 26 6 27 5 28 26 29 27 30 28 31 29 32 30 33 31 35 32 36
REMARK SMILES IDX 33 37 97 38 34 39 96 40 35 41 36 42 37 43 90 44 38 45 95 46
REMARK SMILES IDX 89 47 91 48 39 49 94 50 88 51 87 52 40 54 74 55 53 56 73 57
REMARK SMILES IDX 54 58 57 59 72 60 92 61 55 62 56 63 71 65 93 66 58 67 41 68
REMARK SMILES IDX 42 69 51 70 43 71 44 72 50 73 52 74 45 75 46 76 47 77 48 78
REMARK SMILES IDX 49 79 75 80 76 81 85 82 77 83 78 84 84 85 86 86 79 87 80 88
REMARK SMILES IDX 81 89 82 90 83 91 59 92 60 93 69 94 61 95 62 96 68 97 70 98
REMARK SMILES IDX 63 99 64 100 65 101 66 102 67 103
REMARK H PARENT 24 5 17 10 8 20 29 34 91 53 57 64
REMARK Flexibility Score: inf
ROOT
ATOM      1  C   UNL A   1      38.083  22.608  25.767  1.00  0.00     0.116 C 
ENDROOT
BRANCH   1   2
ATOM      2  N   UNL A   1      37.688  22.683  24.365  1.00  0.00    -0.356 N 
ATOM      3  C   UNL A   1      36.501  22.996  23.782  1.00  0.00     0.220 C 
ATOM      4  O   UNL A   1      36.414  22.987  22.553  1.00  0.00    -0.275 OA
ATOM      5  H   UNL A   1      38.409  22.470  23.729  1.00  0.00     0.163 HD
BRANCH   3   6
ATOM      6  C   UNL A   1      35.312  23.371  24.630  1.00  0.00     0.110 C 
BRANCH   6   7
ATOM      7  C   UNL A   1      34.787  24.767  24.312  1.00  0.00     0.110 C 
BRANCH   7   8
ATOM      8  C   UNL A   1      33.703  24.718  23.264  1.00  0.00     0.224 C 
ATOM      9  N   UNL A   1      32.385  24.469  23.482  1.00  0.00    -0.325 N 
ATOM     10  H   UNL A   1      31.855  24.651  22.672  1.00  0.00     0.169 HD
ATOM     11  O   UNL A   1      34.028  25.016  22.105  1.00  0.00    -0.275 OA
BRANCH   9  12
ATOM     12  C   UNL A   1      31.556  24.026  24.537  1.00  0.00     0.054 A 
ATOM     13  C   UNL A   1      30.489  24.826  25.042  1.00  0.00     0.063 A 
ATOM     14  C   UNL A   1      29.844  24.399  26.236  1.00  0.00     0.016 A 
ATOM     15  C   UNL A   1      30.189  23.221  26.893  1.00  0.00     0.001 A 
ATOM     16  C   UNL A   1      31.792  22.791  25.158  1.00  0.00     0.027 A 
ATOM     17  C   UNL A   1      31.146  22.402  26.334  1.00  0.00     0.002 A 
BRANCH  13  18
ATOM     18  C   UNL A   1      30.034  26.210  24.626  1.00  0.00     0.257 C 
ATOM     19  N   UNL A   1      30.584  27.416  25.002  1.00  0.00    -0.322 N 
ATOM     20  H   UNL A   1      29.968  28.174  24.880  1.00  0.00     0.170 HD
ATOM     21  O   UNL A   1      28.995  26.272  23.955  1.00  0.00    -0.269 OA
BRANCH  19  22
ATOM     22  C   UNL A   1      31.828  27.796  25.519  1.00  0.00     0.044 A 
ATOM     23  C   UNL A   1      32.670  28.231  23.127  1.00  0.00     0.046 C 
ATOM     24  C   UNL A   1      32.832  28.227  24.622  1.00  0.00    -0.027 A 
ATOM     25  C   UNL A   1      34.031  28.738  25.133  1.00  0.00     0.005 A 
ATOM     26  C   UNL A   1      34.237  28.813  26.506  1.00  0.00     0.000 A 
ATOM     27  C   UNL A   1      32.062  27.829  26.894  1.00  0.00     0.026 A 
ATOM     28  C   UNL A   1      33.264  28.343  27.384  1.00  0.00     0.002 A 
ENDBRANCH  19  22
ENDBRANCH  13  18
ENDBRANCH   9  12
ENDBRANCH   7   8
ENDBRANCH   6   7
ENDBRANCH   3   6
ENDBRANCH   1   2
BRANCH   1  29
ATOM     29  C   UNL A   1      39.322  21.751  26.022  1.00  0.00     0.023 C 
BRANCH  29  30
ATOM     30  C   UNL A   1      40.065  22.076  27.315  1.00  0.00     0.023 C 
BRANCH  30  31
ATOM     31  C   UNL A   1      41.339  22.895  27.177  1.00  0.00     0.116 C 
BRANCH  31  32
ATOM     32  N   UNL A   1      41.502  23.781  28.337  1.00  0.00    -0.352 N 
ATOM     33  C   UNL A   1      41.295  25.160  28.350  1.00  0.00     0.251 C 
ATOM     34  H   UNL A   1      41.784  23.363  29.182  1.00  0.00     0.163 HD
ATOM     35  O   UNL A   1      42.150  25.936  28.768  1.00  0.00    -0.269 OA
BRANCH  33  36
ATOM     36  C   UNL A   1      39.920  25.660  28.098  1.00  0.00     0.039 A 
ATOM     37  C   UNL A   1      39.924  26.592  27.050  1.00  0.00     0.014 A 
ATOM     38  C   UNL A   1      39.146  25.863  29.232  1.00  0.00     0.014 A 
ATOM     39  C   UNL A   1      39.651  27.909  27.362  1.00  0.00     0.010 A 
ATOM     40  C   UNL A   1      38.898  27.173  29.565  1.00  0.00     0.010 A 
ATOM     41  C   UNL A   1      39.316  28.183  28.681  1.00  0.00    -0.014 A 
BRANCH  41  42
ATOM     42  C   UNL A   1      39.661  29.443  29.314  1.00  0.00     0.031 A 
ATOM     43  C   UNL A   1      38.782  30.596  29.121  1.00  0.00     0.074 A 
ATOM     44  C   UNL A   1      40.719  29.483  30.154  1.00  0.00     0.049 A 
ATOM     45  N   UNL A   1      39.047  31.780  29.543  1.00  0.00    -0.248 NA
ATOM     46  C   UNL A   1      37.548  30.512  28.346  1.00  0.00     0.031 C 
ATOM     47  C   UNL A   1      41.044  30.476  31.176  1.00  0.00     0.029 A 
ATOM     48  N   UNL A   1      41.855  28.690  30.113  1.00  0.00    -0.354 N 
ATOM     49  C   UNL A   1      37.906  32.523  29.387  1.00  0.00     0.074 A 
ATOM     50  C   UNL A   1      37.072  31.749  28.509  1.00  0.00     0.031 C 
ATOM     51  C   UNL A   1      42.352  30.377  31.482  1.00  0.00     0.029 A 
ATOM     52  C   UNL A   1      42.946  29.442  30.536  1.00  0.00     0.049 A 
ATOM     53  H   UNL A   1      41.884  27.747  29.830  1.00  0.00     0.167 HD
ATOM     54  C   UNL A   1      37.758  33.617  30.181  1.00  0.00     0.037 A 
ATOM     55  C   UNL A   1      43.913  29.793  29.637  1.00  0.00     0.037 A 
ATOM     56  C   UNL A   1      39.079  34.069  30.643  1.00  0.00     0.049 A 
ATOM     57  C   UNL A   1      43.962  31.294  29.363  1.00  0.00     0.074 A 
ATOM     58  C   UNL A   1      39.749  34.043  31.853  1.00  0.00     0.029 A 
ATOM     59  N   UNL A   1      40.053  34.345  29.674  1.00  0.00    -0.354 N 
ATOM     60  N   UNL A   1      42.990  32.129  29.629  1.00  0.00    -0.248 NA
ATOM     61  C   UNL A   1      45.125  31.967  28.794  1.00  0.00     0.031 C 
ATOM     62  C   UNL A   1      41.149  34.142  31.580  1.00  0.00     0.029 A 
ATOM     63  C   UNL A   1      41.326  34.288  30.212  1.00  0.00     0.049 A 
ATOM     64  H   UNL A   1      39.857  34.554  28.733  1.00  0.00     0.167 HD
ATOM     65  C   UNL A   1      43.349  33.400  29.255  1.00  0.00     0.074 A 
ATOM     66  C   UNL A   1      44.710  33.246  28.769  1.00  0.00     0.031 C 
ATOM     67  C   UNL A   1      42.502  34.472  29.357  1.00  0.00     0.037 A 
BRANCH  54  68
ATOM     68  C   UNL A   1      36.408  34.078  30.713  1.00  0.00     0.058 A 
ATOM     69  C   UNL A   1      35.405  34.533  29.830  1.00  0.00     0.135 A 
ATOM     70  C   UNL A   1      36.080  34.244  32.083  1.00  0.00     0.135 A 
ATOM     71  F   UNL A   1      35.578  34.477  28.502  1.00  0.00    -0.206 F 
ATOM     72  C   UNL A   1      34.199  35.106  30.268  1.00  0.00     0.059 A 
ATOM     73  C   UNL A   1      34.874  34.773  32.541  1.00  0.00     0.059 A 
ATOM     74  F   UNL A   1      36.929  33.966  33.076  1.00  0.00    -0.206 F 
ATOM     75  C   UNL A   1      33.942  35.221  31.630  1.00  0.00     0.060 A 
BRANCH  75  76
ATOM     76  S   UNL A   1      32.414  35.981  32.208  1.00  0.00     0.124 S 
ATOM     77  O   UNL A   1      31.871  36.544  30.977  1.00  0.00    -0.237 OA
ATOM     78  O   UNL A   1      31.693  34.841  32.764  1.00  0.00    -0.237 OA
ATOM     79  O   UNL A   1      32.872  36.963  33.190  1.00  0.00    -0.744 OA
ENDBRANCH  75  76
ENDBRANCH  54  68
BRANCH  55  80
ATOM     80  C   UNL A   1      44.232  28.712  28.651  1.00  0.00     0.058 A 
ATOM     81  C   UNL A   1      43.736  28.837  27.335  1.00  0.00     0.135 A 
ATOM     82  C   UNL A   1      45.245  27.765  28.856  1.00  0.00     0.135 A 
ATOM     83  F   UNL A   1      42.780  29.742  27.064  1.00  0.00    -0.206 F 
ATOM     84  C   UNL A   1      44.267  28.122  26.262  1.00  0.00     0.059 A 
ATOM     85  C   UNL A   1      45.789  27.029  27.794  1.00  0.00     0.059 A 
ATOM     86  F   UNL A   1      45.788  27.608  30.072  1.00  0.00    -0.206 F 
ATOM     87  C   UNL A   1      45.307  27.227  26.498  1.00  0.00     0.060 A 
BRANCH  87  88
ATOM     88  S   UNL A   1      46.105  26.396  25.099  1.00  0.00     0.124 S 
ATOM     89  O   UNL A   1      45.114  25.382  24.758  1.00  0.00    -0.237 OA
ATOM     90  O   UNL A   1      46.259  27.473  24.124  1.00  0.00    -0.237 OA
ATOM     91  O   UNL A   1      47.344  25.899  25.688  1.00  0.00    -0.744 OA
ENDBRANCH  87  88
ENDBRANCH  55  80
BRANCH  67  92
ATOM     92  C   UNL A   1      42.716  35.825  28.698  1.00  0.00     0.058 A 
ATOM     93  C   UNL A   1      42.287  36.155  27.398  1.00  0.00     0.135 A 
ATOM     94  C   UNL A   1      43.241  36.909  29.447  1.00  0.00     0.135 A 
ATOM     95  F   UNL A   1      41.661  35.262  26.619  1.00  0.00    -0.206 F 
ATOM     96  C   UNL A   1      42.429  37.436  26.857  1.00  0.00     0.059 A 
ATOM     97  C   UNL A   1      43.329  38.210  28.951  1.00  0.00     0.059 A 
ATOM     98  F   UNL A   1      43.671  36.747  30.707  1.00  0.00    -0.206 F 
ATOM     99  C   UNL A   1      42.946  38.460  27.643  1.00  0.00     0.060 A 
BRANCH  99 100
ATOM    100  S   UNL A   1      43.053  40.133  26.985  1.00  0.00     0.124 S 
ATOM    101  O   UNL A   1      41.812  40.227  26.222  1.00  0.00    -0.237 OA
ATOM    102  O   UNL A   1      43.115  40.955  28.190  1.00  0.00    -0.237 OA
ATOM    103  O   UNL A   1      44.281  40.101  26.197  1.00  0.00    -0.744 OA
ENDBRANCH  99 100
ENDBRANCH  67  92
ENDBRANCH  41  42
ENDBRANCH  33  36
ENDBRANCH  31  32
ENDBRANCH  30  31
ENDBRANCH  29  30
ENDBRANCH   1  29
TORSDOF 19
ENDMDL
MODEL 2
REMARK VINA RESULT:     -12.8      1.048      2.019
REMARK SMILES Cc1ccccc1NC(=O)c1ccccc1NC(=O)CCC(=O)NCCCCNC(=O)c1ccc(-c2c3nc(c(-c4c(F)cc(S(=O)(=O)[O-])cc4F)c4ccc([nH]4)c(-c4c(F)cc(S(=O)(=O)[O-])cc4F)c4nc(c(-c5c(F)cc(S(=O)(=O)[O-])cc5F)c5ccc2[nH]5)C=C4)C=C3)cc1
REMARK SMILES IDX 25 1 24 2 22 3 23 4 21 6 20 7 18 8 17 9 19 11 16 12 11 13
REMARK SMILES IDX 12 14 13 15 15 16 14 17 9 18 8 19 10 21 7 22 1 23 2 24 3 25
REMARK SMILES IDX 4 26 6 27 5 28 26 29 27 30 28 31 29 32 30 33 31 35 32 36
REMARK SMILES IDX 33 37 97 38 34 39 96 40 35 41 36 42 37 43 90 44 38 45 95 46
REMARK SMILES IDX 89 47 91 48 39 49 94 50 88 51 87 52 40 54 74 55 53 56 73 57
REMARK SMILES IDX 54 58 57 59 72 60 92 61 55 62 56 63 71 65 93 66 58 67 41 68
REMARK SMILES IDX 42 69 51 70 43 71 44 72 50 73 52 74 45 75 46 76 47 77 48 78
REMARK SMILES IDX 49 79 75 80 76 81 85 82 77 83 78 84 84 85 86 86 79 87 80 88
REMARK SMILES IDX 81 89 82 90 83 91 59 92 60 93 69 94 61 95 62 96 68 97 70 98
REMARK SMILES IDX 63 99 64 100 65 101 66 102 67 103
REMARK H PARENT 24 5 17 10 8 20 29 34 91 53 57 64
REMARK Flexibility Score: inf
ROOT
ATOM      1  C   UNL A   1      38.125  21.743  25.724  1.00  0.00     0.116 C 
ENDROOT
BRANCH   1   2
ATOM      2  N   UNL A   1      37.726  22.313  24.442  1.00  0.00    -0.356 N 
ATOM      3  C   UNL A   1      36.507  22.426  23.849  1.00  0.00     0.220 C 
ATOM      4  O   UNL A   1      36.426  22.954  22.739  1.00  0.00    -0.275 OA
ATOM      5  H   UNL A   1      38.470  22.681  23.912  1.00  0.00     0.163 HD
BRANCH   3   6
ATOM      6  C   UNL A   1      35.270  21.931  24.554  1.00  0.00     0.110 C 
BRANCH   6   7
ATOM      7  C   UNL A   1      34.247  23.038  24.781  1.00  0.00     0.110 C 
BRANCH   7   8
ATOM      8  C   UNL A   1      32.863  22.594  24.377  1.00  0.00     0.224 C 
ATOM      9  N   UNL A   1      31.940  23.341  23.717  1.00  0.00    -0.325 N 
ATOM     10  H   UNL A   1      31.181  22.785  23.424  1.00  0.00     0.169 HD
ATOM     11  O   UNL A   1      32.569  21.409  24.591  1.00  0.00    -0.275 OA
BRANCH   9  12
ATOM     12  C   UNL A   1      31.755  24.687  23.328  1.00  0.00     0.054 A 
ATOM     13  C   UNL A   1      31.322  25.684  24.251  1.00  0.00     0.063 A 
ATOM     14  C   UNL A   1      30.960  26.959  23.734  1.00  0.00     0.016 A 
ATOM     15  C   UNL A   1      31.051  27.271  22.381  1.00  0.00     0.001 A 
ATOM     16  C   UNL A   1      31.946  25.077  21.994  1.00  0.00     0.027 A 
ATOM     17  C   UNL A   1      31.574  26.335  21.515  1.00  0.00     0.002 A 
BRANCH  13  18
ATOM     18  C   UNL A   1      30.978  25.559  25.722  1.00  0.00     0.257 C 
ATOM     19  N   UNL A   1      31.510  26.283  26.766  1.00  0.00    -0.322 N 
ATOM     20  H   UNL A   1      31.388  25.845  27.639  1.00  0.00     0.170 HD
ATOM     21  O   UNL A   1      30.210  24.639  26.033  1.00  0.00    -0.269 OA
BRANCH  19  22
ATOM     22  C   UNL A   1      32.185  27.506  26.855  1.00  0.00     0.044 A 
ATOM     23  C   UNL A   1      34.304  26.386  25.923  1.00  0.00     0.046 C 
ATOM     24  C   UNL A   1      33.526  27.574  26.416  1.00  0.00    -0.027 A 
ATOM     25  C   UNL A   1      34.168  28.817  26.372  1.00  0.00     0.005 A 
ATOM     26  C   UNL A   1      33.500  29.971  26.765  1.00  0.00     0.000 A 
ATOM     27  C   UNL A   1      31.536  28.661  27.295  1.00  0.00     0.026 A 
ATOM     28  C   UNL A   1      32.193  29.891  27.243  1.00  0.00     0.002 A 
ENDBRANCH  19  22
ENDBRANCH  13  18
ENDBRANCH   9  12
ENDBRANCH   7   8
ENDBRANCH   6   7
ENDBRANCH   3   6
ENDBRANCH   1   2
BRANCH   1  29
ATOM     29  C   UNL A   1      39.636  21.715  25.951  1.00  0.00     0.023 C 
BRANCH  29  30
ATOM     30  C   UNL A   1      40.091  22.322  27.275  1.00  0.00     0.023 C 
BRANCH  30  31
ATOM     31  C   UNL A   1      41.411  23.077  27.257  1.00  0.00     0.116 C 
BRANCH  31  32
ATOM     32  N   UNL A   1      41.488  23.997  28.399  1.00  0.00    -0.352 N 
ATOM     33  C   UNL A   1      41.374  25.385  28.342  1.00  0.00     0.251 C 
ATOM     34  H   UNL A   1      41.632  23.596  29.287  1.00  0.00     0.163 HD
ATOM     35  O   UNL A   1      42.222  26.122  28.840  1.00  0.00    -0.269 OA
BRANCH  33  36
ATOM     36  C   UNL A   1      40.080  25.961  27.900  1.00  0.00     0.039 A 
ATOM     37  C   UNL A   1      40.286  26.902  26.881  1.00  0.00     0.014 A 
ATOM     38  C   UNL A   1      39.158  26.192  28.911  1.00  0.00     0.014 A 
ATOM     39  C   UNL A   1      40.037  28.228  27.175  1.00  0.00     0.010 A 
ATOM     40  C   UNL A   1      38.931  27.510  29.229  1.00  0.00     0.010 A 
ATOM     41  C   UNL A   1      39.525  28.505  28.435  1.00  0.00    -0.014 A 
BRANCH  41  42
ATOM     42  C   UNL A   1      39.837  29.739  29.135  1.00  0.00     0.031 A 
ATOM     43  C   UNL A   1      38.920  30.871  29.018  1.00  0.00     0.074 A 
ATOM     44  C   UNL A   1      40.904  29.766  29.965  1.00  0.00     0.049 A 
ATOM     45  N   UNL A   1      39.151  32.037  29.504  1.00  0.00    -0.248 NA
ATOM     46  C   UNL A   1      37.679  30.791  28.252  1.00  0.00     0.031 C 
ATOM     47  C   UNL A   1      41.210  30.710  31.038  1.00  0.00     0.029 A 
ATOM     48  N   UNL A   1      42.065  29.014  29.866  1.00  0.00    -0.354 N 
ATOM     49  C   UNL A   1      37.984  32.750  29.402  1.00  0.00     0.074 A 
ATOM     50  C   UNL A   1      37.166  31.999  28.491  1.00  0.00     0.031 C 
ATOM     51  C   UNL A   1      42.524  30.637  31.324  1.00  0.00     0.029 A 
ATOM     52  C   UNL A   1      43.136  29.777  30.320  1.00  0.00     0.049 A 
ATOM     53  H   UNL A   1      42.121  28.090  29.529  1.00  0.00     0.167 HD
ATOM     54  C   UNL A   1      37.811  33.791  30.260  1.00  0.00     0.037 A 
ATOM     55  C   UNL A   1      44.080  30.210  29.431  1.00  0.00     0.037 A 
ATOM     56  C   UNL A   1      39.123  34.259  30.732  1.00  0.00     0.049 A 
ATOM     57  C   UNL A   1      44.077  31.725  29.244  1.00  0.00     0.074 A 
ATOM     58  C   UNL A   1      39.809  34.187  31.932  1.00  0.00     0.029 A 
ATOM     59  N   UNL A   1      40.075  34.623  29.770  1.00  0.00    -0.354 N 
ATOM     60  N   UNL A   1      43.082  32.511  29.567  1.00  0.00    -0.248 NA
ATOM     61  C   UNL A   1      45.210  32.467  28.701  1.00  0.00     0.031 C 
ATOM     62  C   UNL A   1      41.201  34.348  31.649  1.00  0.00     0.029 A 
ATOM     63  C   UNL A   1      41.356  34.577  30.291  1.00  0.00     0.049 A 
ATOM     64  H   UNL A   1      39.861  34.878  28.845  1.00  0.00     0.167 HD
ATOM     65  C   UNL A   1      43.395  33.812  29.262  1.00  0.00     0.074 A 
ATOM     66  C   UNL A   1      44.754  33.731  28.754  1.00  0.00     0.031 C 
ATOM     67  C   UNL A   1      42.514  34.848  29.435  1.00  0.00     0.037 A 
BRANCH  54  68
ATOM     68  C   UNL A   1      36.454  34.177  30.832  1.00  0.00     0.058 A 
ATOM     69  C   UNL A   1      35.406  34.587  29.980  1.00  0.00     0.135 A 
ATOM     70  C   UNL A   1      36.155  34.312  32.211  1.00  0.00     0.135 A 
ATOM     71  F   UNL A   1      35.546  34.552  28.647  1.00  0.00    -0.206 F 
ATOM     72  C   UNL A   1      34.184  35.092  30.455  1.00  0.00     0.059 A 
ATOM     73  C   UNL A   1      34.936  34.774  32.706  1.00  0.00     0.059 A 
ATOM     74  F   UNL A   1      37.043  34.071  33.178  1.00  0.00    -0.206 F 
ATOM     75  C   UNL A   1      33.958  35.182  31.824  1.00  0.00     0.060 A 
BRANCH  75  76
ATOM     76  S   UNL A   1      32.408  35.855  32.451  1.00  0.00     0.124 S 
ATOM     77  O   UNL A   1      31.713  34.652  32.895  1.00  0.00    -0.237 OA
ATOM     78  O   UNL A   1      32.865  36.756  33.502  1.00  0.00    -0.237 OA
ATOM     79  O   UNL A   1      31.825  36.512  31.282  1.00  0.00    -0.744 OA
ENDBRANCH  75  76
ENDBRANCH  54  68
BRANCH  55  80
ATOM     80  C   UNL A   1      44.421  29.198  28.383  1.00  0.00     0.058 A 
ATOM     81  C   UNL A   1      45.246  28.110  28.744  1.00  0.00     0.135 A 
ATOM     82  C   UNL A   1      43.721  29.083  27.174  1.00  0.00     0.135 A 
ATOM     83  F   UNL A   1      45.929  28.144  29.901  1.00  0.00    -0.206 F 
ATOM     84  C   UNL A   1      45.316  26.939  27.991  1.00  0.00     0.059 A 
ATOM     85  C   UNL A   1      43.781  27.918  26.396  1.00  0.00     0.059 A 
ATOM     86  F   UNL A   1      42.894  30.061  26.777  1.00  0.00    -0.206 F 
ATOM     87  C   UNL A   1      44.567  26.844  26.822  1.00  0.00     0.060 A 
BRANCH  87  88
ATOM     88  S   UNL A   1      44.531  25.279  25.907  1.00  0.00     0.124 S 
ATOM     89  O   UNL A   1      43.286  25.408  25.158  1.00  0.00    -0.237 OA
ATOM     90  O   UNL A   1      45.751  25.342  25.107  1.00  0.00    -0.237 OA
ATOM     91  O   UNL A   1      44.529  24.285  26.975  1.00  0.00    -0.744 OA
ENDBRANCH  87  88
ENDBRANCH  55  80
BRANCH  67  92
ATOM     92  C   UNL A   1      42.677  36.243  28.852  1.00  0.00     0.058 A 
ATOM     93  C   UNL A   1      43.374  37.292  29.478  1.00  0.00     0.135 A 
ATOM     94  C   UNL A   1      42.248  36.517  27.527  1.00  0.00     0.135 A 
ATOM     95  F   UNL A   1      43.941  37.136  30.682  1.00  0.00    -0.206 F 
ATOM     96  C   UNL A   1      43.573  38.536  28.872  1.00  0.00     0.059 A 
ATOM     97  C   UNL A   1      42.496  37.726  26.879  1.00  0.00     0.059 A 
ATOM     98  F   UNL A   1      41.589  35.602  26.801  1.00  0.00    -0.206 F 
ATOM     99  C   UNL A   1      43.135  38.743  27.569  1.00  0.00     0.060 A 
BRANCH  99 100
ATOM    100  S   UNL A   1      43.462  40.313  26.748  1.00  0.00     0.124 S 
ATOM    101  O   UNL A   1      44.404  39.908  25.709  1.00  0.00    -0.237 OA
ATOM    102  O   UNL A   1      42.141  40.717  26.277  1.00  0.00    -0.237 OA
ATOM    103  O   UNL A   1      44.014  41.138  27.818  1.00  0.00    -0.744 OA
ENDBRANCH  99 100
ENDBRANCH  67  92
ENDBRANCH  41  42
ENDBRANCH  33  36
ENDBRANCH  31  32
ENDBRANCH  30  31
ENDBRANCH  29  30
ENDBRANCH   1  29
TORSDOF 19
ENDMDL
MODEL 3
REMARK VINA RESULT:     -12.6      1.172      2.347
REMARK SMILES Cc1ccccc1NC(=O)c1ccccc1NC(=O)CCC(=O)NCCCCNC(=O)c1ccc(-c2c3nc(c(-c4c(F)cc(S(=O)(=O)[O-])cc4F)c4ccc([nH]4)c(-c4c(F)cc(S(=O)(=O)[O-])cc4F)c4nc(c(-c5c(F)cc(S(=O)(=O)[O-])cc5F)c5ccc2[nH]5)C=C4)C=C3)cc1
REMARK SMILES IDX 25 1 24 2 22 3 23 4 21 6 20 7 18 8 17 9 19 11 16 12 11 13
REMARK SMILES IDX 12 14 13 15 15 16 14 17 9 18 8 19 10 21 7 22 1 23 2 24 3 25
REMARK SMILES IDX 4 26 6 27 5 28 26 29 27 30 28 31 29 32 30 33 31 35 32 36
REMARK SMILES IDX 33 37 97 38 34 39 96 40 35 41 36 42 37 43 90 44 38 45 95 46
REMARK SMILES IDX 89 47 91 48 39 49 94 50 88 51 87 52 40 54 74 55 53 56 73 57
REMARK SMILES IDX 54 58 57 59 72 60 92 61 55 62 56 63 71 65 93 66 58 67 41 68
REMARK SMILES IDX 42 69 51 70 43 71 44 72 50 73 52 74 45 75 46 76 47 77 48 78
REMARK SMILES IDX 49 79 75 80 76 81 85 82 77 83 78 84 84 85 86 86 79 87 80 88
REMARK SMILES IDX 81 89 82 90 83 91 59 92 60 93 69 94 61 95 62 96 68 97 70 98
REMARK SMILES IDX 63 99 64 100 65 101 66 102 67 103
REMARK H PARENT 24 5 17 10 8 20 29 34 91 53 57 64
REMARK Flexibility Score: inf
ROOT
ATOM      1  C   UNL A   1      38.304  21.257  25.732  1.00  0.00     0.116 C 
ENDROOT
BRANCH   1   2
ATOM      2  N   UNL A   1      37.921  22.058  24.575  1.00  0.00    -0.356 N 
ATOM      3  C   UNL A   1      36.773  22.728  24.287  1.00  0.00     0.220 C 
ATOM      4  O   UNL A   1      36.687  23.343  23.222  1.00  0.00    -0.275 OA
ATOM      5  H   UNL A   1      38.616  22.128  23.881  1.00  0.00     0.163 HD
BRANCH   3   6
ATOM      6  C   UNL A   1      35.630  22.736  25.268  1.00  0.00     0.110 C 
BRANCH   6   7
ATOM      7  C   UNL A   1      35.185  24.148  25.633  1.00  0.00     0.110 C 
BRANCH   7   8
ATOM      8  C   UNL A   1      33.699  24.205  25.886  1.00  0.00     0.224 C 
ATOM      9  N   UNL A   1      32.905  25.303  25.775  1.00  0.00    -0.325 N 
ATOM     10  H   UNL A   1      31.954  25.056  25.831  1.00  0.00     0.169 HD
ATOM     11  O   UNL A   1      33.130  23.132  26.136  1.00  0.00    -0.275 OA
BRANCH   9  12
ATOM     12  C   UNL A   1      33.054  26.697  25.601  1.00  0.00     0.054 A 
ATOM     13  C   UNL A   1      32.755  27.337  24.361  1.00  0.00     0.063 A 
ATOM     14  C   UNL A   1      33.131  28.700  24.208  1.00  0.00     0.016 A 
ATOM     15  C   UNL A   1      33.734  29.430  25.228  1.00  0.00     0.001 A 
ATOM     16  C   UNL A   1      33.551  27.497  26.641  1.00  0.00     0.027 A 
ATOM     17  C   UNL A   1      33.916  28.832  26.456  1.00  0.00     0.002 A 
BRANCH  13  18
ATOM     18  C   UNL A   1      32.269  26.741  23.056  1.00  0.00     0.257 C 
ATOM     19  N   UNL A   1      31.079  27.002  22.413  1.00  0.00    -0.322 N 
ATOM     20  H   UNL A   1      30.827  26.301  21.769  1.00  0.00     0.170 HD
ATOM     21  O   UNL A   1      32.968  25.845  22.562  1.00  0.00    -0.269 OA
BRANCH  19  22
ATOM     22  C   UNL A   1      30.152  28.049  22.475  1.00  0.00     0.044 A 
ATOM     23  C   UNL A   1      28.542  26.524  23.778  1.00  0.00     0.046 C 
ATOM     24  C   UNL A   1      28.937  27.839  23.165  1.00  0.00    -0.027 A 
ATOM     25  C   UNL A   1      28.062  28.915  23.351  1.00  0.00     0.005 A 
ATOM     26  C   UNL A   1      28.378  30.176  22.856  1.00  0.00     0.000 A 
ATOM     27  C   UNL A   1      30.440  29.305  21.938  1.00  0.00     0.026 A 
ATOM     28  C   UNL A   1      29.555  30.366  22.135  1.00  0.00     0.002 A 
ENDBRANCH  19  22
ENDBRANCH  13  18
ENDBRANCH   9  12
ENDBRANCH   7   8
ENDBRANCH   6   7
ENDBRANCH   3   6
ENDBRANCH   1   2
BRANCH   1  29
ATOM     29  C   UNL A   1      39.756  21.446  26.168  1.00  0.00     0.023 C 
BRANCH  29  30
ATOM     30  C   UNL A   1      39.997  22.654  27.070  1.00  0.00     0.023 C 
BRANCH  30  31
ATOM     31  C   UNL A   1      41.439  23.114  27.216  1.00  0.00     0.116 C 
BRANCH  31  32
ATOM     32  N   UNL A   1      41.580  23.981  28.392  1.00  0.00    -0.352 N 
ATOM     33  C   UNL A   1      41.361  25.358  28.426  1.00  0.00     0.251 C 
ATOM     34  H   UNL A   1      41.855  23.551  29.234  1.00  0.00     0.163 HD
ATOM     35  O   UNL A   1      42.204  26.134  28.868  1.00  0.00    -0.269 OA
BRANCH  33  36
ATOM     36  C   UNL A   1      39.985  25.851  28.165  1.00  0.00     0.039 A 
ATOM     37  C   UNL A   1      39.992  26.789  27.122  1.00  0.00     0.014 A 
ATOM     38  C   UNL A   1      39.200  26.042  29.293  1.00  0.00     0.014 A 
ATOM     39  C   UNL A   1      39.708  28.102  27.440  1.00  0.00     0.010 A 
ATOM     40  C   UNL A   1      38.941  27.349  29.632  1.00  0.00     0.010 A 
ATOM     41  C   UNL A   1      39.360  28.366  28.758  1.00  0.00    -0.014 A 
BRANCH  41  42
ATOM     42  C   UNL A   1      39.691  29.625  29.401  1.00  0.00     0.031 A 
ATOM     43  C   UNL A   1      38.796  30.767  29.224  1.00  0.00     0.074 A 
ATOM     44  C   UNL A   1      40.754  29.671  30.236  1.00  0.00     0.049 A 
ATOM     45  N   UNL A   1      39.047  31.951  29.656  1.00  0.00    -0.248 NA
ATOM     46  C   UNL A   1      37.559  30.674  28.456  1.00  0.00     0.031 C 
ATOM     47  C   UNL A   1      41.071  30.658  31.265  1.00  0.00     0.029 A 
ATOM     48  N   UNL A   1      41.900  28.894  30.180  1.00  0.00    -0.354 N 
ATOM     49  C   UNL A   1      37.895  32.680  29.514  1.00  0.00     0.074 A 
ATOM     50  C   UNL A   1      37.067  31.903  28.633  1.00  0.00     0.031 C 
ATOM     51  C   UNL A   1      42.382  30.574  31.563  1.00  0.00     0.029 A 
ATOM     52  C   UNL A   1      42.983  29.657  30.605  1.00  0.00     0.049 A 
ATOM     53  H   UNL A   1      41.940  27.954  29.887  1.00  0.00     0.167 HD
ATOM     54  C   UNL A   1      37.737  33.763  30.320  1.00  0.00     0.037 A 
ATOM     55  C   UNL A   1      43.941  30.030  29.703  1.00  0.00     0.037 A 
ATOM     56  C   UNL A   1      39.055  34.229  30.778  1.00  0.00     0.049 A 
ATOM     57  C   UNL A   1      43.967  31.534  29.444  1.00  0.00     0.074 A 
ATOM     58  C   UNL A   1      39.732  34.200  31.985  1.00  0.00     0.029 A 
ATOM     59  N   UNL A   1      40.019  34.528  29.807  1.00  0.00    -0.354 N 
ATOM     60  N   UNL A   1      42.986  32.353  29.724  1.00  0.00    -0.248 NA
ATOM     61  C   UNL A   1      45.118  32.228  28.875  1.00  0.00     0.031 C 
ATOM     62  C   UNL A   1      41.128  34.322  31.704  1.00  0.00     0.029 A 
ATOM     63  C   UNL A   1      41.296  34.483  30.337  1.00  0.00     0.049 A 
ATOM     64  H   UNL A   1      39.814  34.743  28.869  1.00  0.00     0.167 HD
ATOM     65  C   UNL A   1      43.325  33.632  29.360  1.00  0.00     0.074 A 
ATOM     66  C   UNL A   1      44.685  33.502  28.865  1.00  0.00     0.031 C 
ATOM     67  C   UNL A   1      42.463  34.691  29.478  1.00  0.00     0.037 A 
BRANCH  54  68
ATOM     68  C   UNL A   1      36.384  34.201  30.865  1.00  0.00     0.058 A 
ATOM     69  C   UNL A   1      35.356  34.612  29.988  1.00  0.00     0.135 A 
ATOM     70  C   UNL A   1      36.073  34.386  32.236  1.00  0.00     0.135 A 
ATOM     71  F   UNL A   1      35.510  34.534  28.659  1.00  0.00    -0.206 F 
ATOM     72  C   UNL A   1      34.142  35.163  30.434  1.00  0.00     0.059 A 
ATOM     73  C   UNL A   1      34.861  34.894  32.702  1.00  0.00     0.059 A 
ATOM     74  F   UNL A   1      36.944  34.150  33.220  1.00  0.00    -0.206 F 
ATOM     75  C   UNL A   1      33.904  35.300  31.797  1.00  0.00     0.060 A 
BRANCH  75  76
ATOM     76  S   UNL A   1      32.366  36.031  32.385  1.00  0.00     0.124 S 
ATOM     77  O   UNL A   1      32.828  36.853  33.498  1.00  0.00    -0.237 OA
ATOM     78  O   UNL A   1      31.897  36.753  31.208  1.00  0.00    -0.237 OA
ATOM     79  O   UNL A   1      31.559  34.872  32.763  1.00  0.00    -0.744 OA
ENDBRANCH  75  76
ENDBRANCH  54  68
BRANCH  55  80
ATOM     80  C   UNL A   1      44.268  28.963  28.705  1.00  0.00     0.058 A 
ATOM     81  C   UNL A   1      43.769  29.098  27.391  1.00  0.00     0.135 A 
ATOM     82  C   UNL A   1      45.290  28.023  28.898  1.00  0.00     0.135 A 
ATOM     83  F   UNL A   1      42.803  29.996  27.131  1.00  0.00    -0.206 F 
ATOM     84  C   UNL A   1      44.305  28.400  26.310  1.00  0.00     0.059 A 
ATOM     85  C   UNL A   1      45.840  27.304  27.827  1.00  0.00     0.059 A 
ATOM     86  F   UNL A   1      45.837  27.859  30.111  1.00  0.00    -0.206 F 
ATOM     87  C   UNL A   1      45.354  27.512  26.534  1.00  0.00     0.060 A 
BRANCH  87  88
ATOM     88  S   UNL A   1      46.158  26.705  25.124  1.00  0.00     0.124 S 
ATOM     89  O   UNL A   1      47.485  26.431  25.664  1.00  0.00    -0.237 OA
ATOM     90  O   UNL A   1      45.320  25.530  24.900  1.00  0.00    -0.237 OA
ATOM     91  O   UNL A   1      46.094  27.731  24.089  1.00  0.00    -0.744 OA
ENDBRANCH  87  88
ENDBRANCH  55  80
BRANCH  67  92
ATOM     92  C   UNL A   1      42.656  36.054  28.830  1.00  0.00     0.058 A 
ATOM     93  C   UNL A   1      42.009  36.475  27.653  1.00  0.00     0.135 A 
ATOM     94  C   UNL A   1      43.406  37.059  29.492  1.00  0.00     0.135 A 
ATOM     95  F   UNL A   1      41.170  35.669  26.988  1.00  0.00    -0.206 F 
ATOM     96  C   UNL A   1      42.147  37.765  27.134  1.00  0.00     0.059 A 
ATOM     97  C   UNL A   1      43.501  38.371  29.029  1.00  0.00     0.059 A 
ATOM     98  F   UNL A   1      44.059  36.807  30.636  1.00  0.00    -0.206 F 
ATOM     99  C   UNL A   1      42.891  38.710  27.832  1.00  0.00     0.060 A 
BRANCH  99 100
ATOM    100  S   UNL A   1      43.006  40.399  27.217  1.00  0.00     0.124 S 
ATOM    101  O   UNL A   1      44.098  40.286  26.255  1.00  0.00    -0.237 OA
ATOM    102  O   UNL A   1      41.683  40.629  26.644  1.00  0.00    -0.237 OA
ATOM    103  O   UNL A   1      43.299  41.170  28.420  1.00  0.00    -0.744 OA
ENDBRANCH  99 100
ENDBRANCH  67  92
ENDBRANCH  41  42
ENDBRANCH  33  36
ENDBRANCH  31  32
ENDBRANCH  30  31
ENDBRANCH  29  30
ENDBRANCH   1  29
TORSDOF 19
ENDMDL
