MODEL 1
REMARK VINA RESULT:      -9.8      0.000      0.000
REMARK SMILES C[C@H](CC[NH+](C)C)[NH2+][C@H](C)[C@@H](C)C(=O)NCCCCNC(=O)c1ccc(-c2c3nc(c(-c4c(F)cc(S(=O)(=O)[O-])cc4F)c4ccc([nH]4)c(-c4c(F)cc(S(=O)(=O)[O-])cc4F)c4nc(c(-c5c(F)cc(S(=O)(=O)[O-])cc5F)c5ccc2[nH]5)C=C4)C=C3)cc1
REMARK SMILES IDX 16 1 15 2 13 3 14 4 11 6 12 7 9 8 10 9 8 10 2 13 1 14 3 15
REMARK SMILES IDX 4 16 5 17 6 18 7 19 17 21 18 22 19 23 20 24 21 25 22 27
REMARK SMILES IDX 23 28 24 29 88 30 25 31 87 32 26 33 27 34 28 35 81 36 29 37
REMARK SMILES IDX 86 38 80 39 82 40 30 41 85 42 79 43 78 44 31 46 65 47 44 48
REMARK SMILES IDX 64 49 45 50 48 51 63 52 83 53 46 54 47 55 62 57 84 58 49 59
REMARK SMILES IDX 32 60 33 61 42 62 34 63 35 64 41 65 43 66 36 67 37 68 38 69
REMARK SMILES IDX 39 70 40 71 66 72 67 73 76 74 68 75 69 76 75 77 77 78 70 79
REMARK SMILES IDX 71 80 72 81 73 82 74 83 50 84 51 85 60 86 52 87 53 88 59 89
REMARK SMILES IDX 61 90 54 91 55 92 56 93 57 94 58 95
REMARK H PARENT 15 5 8 11 8 12 5 20 20 26 82 45 48 56
REMARK Flexibility Score: inf
ROOT
ATOM      1  C   UNL A   1      31.484  27.435  25.582  1.00  0.00     0.116 C 
ENDROOT
BRANCH   1   2
ATOM      2  N   UNL A   1      31.329  26.287  26.454  1.00  0.00    -0.356 N 
ATOM      3  C   UNL A   1      31.657  24.979  26.304  1.00  0.00     0.228 C 
ATOM      4  O   UNL A   1      31.637  24.282  27.325  1.00  0.00    -0.275 OA
ATOM      5  H   UNL A   1      30.906  26.496  27.319  1.00  0.00     0.163 HD
BRANCH   3   6
ATOM      6  C   UNL A   1      32.104  24.364  24.980  1.00  0.00     0.133 C 
ATOM      7  C   UNL A   1      30.889  23.633  24.389  1.00  0.00     0.024 C 
BRANCH   6   8
ATOM      8  C   UNL A   1      33.434  23.558  25.035  1.00  0.00     0.191 C 
ATOM      9  C   UNL A   1      34.646  24.476  25.258  1.00  0.00     0.076 C 
BRANCH   8  10
ATOM     10  N   UNL A   1      33.516  22.523  26.098  1.00  0.00    -0.341 N 
ATOM     11  H   UNL A   1      34.161  22.858  26.813  1.00  0.00     0.346 HD
ATOM     12  H   UNL A   1      32.561  22.391  26.433  1.00  0.00     0.346 HD
BRANCH  10  13
ATOM     13  C   UNL A   1      33.978  21.192  25.656  1.00  0.00     0.185 C 
ATOM     14  C   UNL A   1      35.506  21.108  25.581  1.00  0.00     0.075 C 
BRANCH  13  15
ATOM     15  C   UNL A   1      33.340  20.819  24.291  1.00  0.00     0.126 C 
BRANCH  15  16
ATOM     16  C   UNL A   1      33.079  19.302  24.081  1.00  0.00     0.268 C 
BRANCH  16  17
ATOM     17  N   UNL A   1      33.691  18.298  24.970  1.00  0.00    -0.340 N 
ATOM     18  C   UNL A   1      32.664  17.643  25.793  1.00  0.00     0.332 C 
ATOM     19  C   UNL A   1      34.530  17.294  24.347  1.00  0.00     0.332 C 
ATOM     20  H   UNL A   1      34.335  18.847  25.539  1.00  0.00     0.347 HD
ENDBRANCH  16  17
ENDBRANCH  15  16
ENDBRANCH  13  15
ENDBRANCH  10  13
ENDBRANCH   8  10
ENDBRANCH   6   8
ENDBRANCH   3   6
ENDBRANCH   1   2
BRANCH   1  21
ATOM     21  C   UNL A   1      32.915  27.661  25.100  1.00  0.00     0.023 C 
BRANCH  21  22
ATOM     22  C   UNL A   1      33.940  27.965  26.193  1.00  0.00     0.023 C 
BRANCH  22  23
ATOM     23  C   UNL A   1      33.354  28.452  27.507  1.00  0.00     0.116 C 
BRANCH  23  24
ATOM     24  N   UNL A   1      33.391  29.903  27.616  1.00  0.00    -0.352 N 
ATOM     25  C   UNL A   1      34.389  30.730  28.073  1.00  0.00     0.251 C 
ATOM     26  H   UNL A   1      32.575  30.363  27.315  1.00  0.00     0.163 HD
ATOM     27  O   UNL A   1      34.145  31.913  28.280  1.00  0.00    -0.269 OA
BRANCH  25  28
ATOM     28  C   UNL A   1      35.741  30.190  28.335  1.00  0.00     0.039 A 
ATOM     29  C   UNL A   1      36.677  30.174  27.296  1.00  0.00     0.014 A 
ATOM     30  C   UNL A   1      36.090  29.707  29.598  1.00  0.00     0.014 A 
ATOM     31  C   UNL A   1      37.985  29.754  27.551  1.00  0.00     0.010 A 
ATOM     32  C   UNL A   1      37.413  29.375  29.871  1.00  0.00     0.010 A 
ATOM     33  C   UNL A   1      38.375  29.402  28.852  1.00  0.00    -0.014 A 
BRANCH  33  34
ATOM     34  C   UNL A   1      39.789  29.091  29.185  1.00  0.00     0.031 A 
ATOM     35  C   UNL A   1      40.676  30.148  29.784  1.00  0.00     0.074 A 
ATOM     36  C   UNL A   1      40.294  27.884  28.861  1.00  0.00     0.049 A 
ATOM     37  N   UNL A   1      41.957  30.100  30.042  1.00  0.00    -0.248 NA
ATOM     38  C   UNL A   1      40.044  31.436  30.112  1.00  0.00     0.031 C 
ATOM     39  C   UNL A   1      39.541  26.792  28.239  1.00  0.00     0.029 A 
ATOM     40  N   UNL A   1      41.562  27.375  28.993  1.00  0.00    -0.354 N 
ATOM     41  C   UNL A   1      42.288  31.351  30.549  1.00  0.00     0.074 A 
ATOM     42  C   UNL A   1      41.084  32.153  30.511  1.00  0.00     0.031 C 
ATOM     43  C   UNL A   1      40.354  25.739  28.063  1.00  0.00     0.029 A 
ATOM     44  C   UNL A   1      41.697  26.095  28.510  1.00  0.00     0.049 A 
ATOM     45  H   UNL A   1      42.305  27.880  29.397  1.00  0.00     0.167 HD
ATOM     46  C   UNL A   1      43.480  31.784  31.024  1.00  0.00     0.037 A 
ATOM     47  C   UNL A   1      42.782  25.304  28.416  1.00  0.00     0.037 A 
ATOM     48  C   UNL A   1      44.669  30.971  31.065  1.00  0.00     0.049 A 
ATOM     49  C   UNL A   1      44.107  25.820  28.907  1.00  0.00     0.074 A 
ATOM     50  C   UNL A   1      45.912  31.292  31.582  1.00  0.00     0.029 A 
ATOM     51  N   UNL A   1      44.768  29.683  30.558  1.00  0.00    -0.354 N 
ATOM     52  N   UNL A   1      44.386  26.979  29.455  1.00  0.00    -0.248 NA
ATOM     53  C   UNL A   1      45.265  24.928  28.760  1.00  0.00     0.031 C 
ATOM     54  C   UNL A   1      46.778  30.221  31.334  1.00  0.00     0.029 A 
ATOM     55  C   UNL A   1      46.061  29.210  30.711  1.00  0.00     0.049 A 
ATOM     56  H   UNL A   1      44.028  29.179  30.149  1.00  0.00     0.167 HD
ATOM     57  C   UNL A   1      45.749  26.951  29.730  1.00  0.00     0.074 A 
ATOM     58  C   UNL A   1      46.232  25.652  29.309  1.00  0.00     0.031 C 
ATOM     59  C   UNL A   1      46.529  27.916  30.278  1.00  0.00     0.037 A 
BRANCH  46  60
ATOM     60  C   UNL A   1      43.559  33.199  31.530  1.00  0.00     0.058 A 
ATOM     61  C   UNL A   1      43.269  33.524  32.864  1.00  0.00     0.135 A 
ATOM     62  C   UNL A   1      43.954  34.243  30.676  1.00  0.00     0.135 A 
ATOM     63  F   UNL A   1      42.874  32.570  33.722  1.00  0.00    -0.206 F 
ATOM     64  C   UNL A   1      43.328  34.835  33.325  1.00  0.00     0.059 A 
ATOM     65  C   UNL A   1      44.052  35.558  31.123  1.00  0.00     0.059 A 
ATOM     66  F   UNL A   1      44.246  33.991  29.391  1.00  0.00    -0.206 F 
ATOM     67  C   UNL A   1      43.719  35.846  32.446  1.00  0.00     0.060 A 
BRANCH  67  68
ATOM     68  S   UNL A   1      43.778  37.543  33.058  1.00  0.00     0.124 S 
ATOM     69  O   UNL A   1      43.655  38.304  31.818  1.00  0.00    -0.237 OA
ATOM     70  O   UNL A   1      42.623  37.593  33.949  1.00  0.00    -0.237 OA
ATOM     71  O   UNL A   1      45.079  37.623  33.716  1.00  0.00    -0.744 OA
ENDBRANCH  67  68
ENDBRANCH  46  60
BRANCH  47  72
ATOM     72  C   UNL A   1      42.656  23.938  27.839  1.00  0.00     0.058 A 
ATOM     73  C   UNL A   1      42.535  22.815  28.670  1.00  0.00     0.135 A 
ATOM     74  C   UNL A   1      42.624  23.730  26.451  1.00  0.00     0.135 A 
ATOM     75  F   UNL A   1      42.569  22.960  30.003  1.00  0.00    -0.206 F 
ATOM     76  C   UNL A   1      42.393  21.533  28.148  1.00  0.00     0.059 A 
ATOM     77  C   UNL A   1      42.456  22.461  25.904  1.00  0.00     0.059 A 
ATOM     78  F   UNL A   1      42.721  24.773  25.612  1.00  0.00    -0.206 F 
ATOM     79  C   UNL A   1      42.347  21.368  26.761  1.00  0.00     0.060 A 
BRANCH  79  80
ATOM     80  S   UNL A   1      42.101  19.706  26.099  1.00  0.00     0.124 S 
ATOM     81  O   UNL A   1      43.018  19.702  24.965  1.00  0.00    -0.237 OA
ATOM     82  O   UNL A   1      42.480  18.867  27.232  1.00  0.00    -0.237 OA
ATOM     83  O   UNL A   1      40.680  19.687  25.762  1.00  0.00    -0.744 OA
ENDBRANCH  79  80
ENDBRANCH  47  72
BRANCH  59  84
ATOM     84  C   UNL A   1      47.991  27.609  30.454  1.00  0.00     0.058 A 
ATOM     85  C   UNL A   1      48.466  26.935  31.590  1.00  0.00     0.135 A 
ATOM     86  C   UNL A   1      48.915  27.919  29.442  1.00  0.00     0.135 A 
ATOM     87  F   UNL A   1      47.627  26.625  32.591  1.00  0.00    -0.206 F 
ATOM     88  C   UNL A   1      49.806  26.588  31.722  1.00  0.00     0.059 A 
ATOM     89  C   UNL A   1      50.254  27.557  29.540  1.00  0.00     0.059 A 
ATOM     90  F   UNL A   1      48.512  28.557  28.331  1.00  0.00    -0.206 F 
ATOM     91  C   UNL A   1      50.691  26.895  30.686  1.00  0.00     0.060 A 
BRANCH  91  92
ATOM     92  S   UNL A   1      52.414  26.378  30.846  1.00  0.00     0.124 S 
ATOM     93  O   UNL A   1      52.290  25.195  31.690  1.00  0.00    -0.237 OA
ATOM     94  O   UNL A   1      52.794  26.132  29.458  1.00  0.00    -0.237 OA
ATOM     95  O   UNL A   1      53.057  27.530  31.472  1.00  0.00    -0.744 OA
ENDBRANCH  91  92
ENDBRANCH  59  84
ENDBRANCH  33  34
ENDBRANCH  25  28
ENDBRANCH  23  24
ENDBRANCH  22  23
ENDBRANCH  21  22
ENDBRANCH   1  21
TORSDOF 20
ENDMDL
MODEL 2
REMARK VINA RESULT:      -9.8      5.047     10.357
REMARK SMILES C[C@H](CC[NH+](C)C)[NH2+][C@H](C)[C@@H](C)C(=O)NCCCCNC(=O)c1ccc(-c2c3nc(c(-c4c(F)cc(S(=O)(=O)[O-])cc4F)c4ccc([nH]4)c(-c4c(F)cc(S(=O)(=O)[O-])cc4F)c4nc(c(-c5c(F)cc(S(=O)(=O)[O-])cc5F)c5ccc2[nH]5)C=C4)C=C3)cc1
REMARK SMILES IDX 16 1 15 2 13 3 14 4 11 6 12 7 9 8 10 9 8 10 2 13 1 14 3 15
REMARK SMILES IDX 4 16 5 17 6 18 7 19 17 21 18 22 19 23 20 24 21 25 22 27
REMARK SMILES IDX 23 28 24 29 88 30 25 31 87 32 26 33 27 34 28 35 81 36 29 37
REMARK SMILES IDX 86 38 80 39 82 40 30 41 85 42 79 43 78 44 31 46 65 47 44 48
REMARK SMILES IDX 64 49 45 50 48 51 63 52 83 53 46 54 47 55 62 57 84 58 49 59
REMARK SMILES IDX 32 60 33 61 42 62 34 63 35 64 41 65 43 66 36 67 37 68 38 69
REMARK SMILES IDX 39 70 40 71 66 72 67 73 76 74 68 75 69 76 75 77 77 78 70 79
REMARK SMILES IDX 71 80 72 81 73 82 74 83 50 84 51 85 60 86 52 87 53 88 59 89
REMARK SMILES IDX 61 90 54 91 55 92 56 93 57 94 58 95
REMARK H PARENT 15 5 8 11 8 12 5 20 20 26 82 45 48 56
REMARK Flexibility Score: inf
ROOT
ATOM      1  C   UNL A   1      34.743  29.241  27.268  1.00  0.00     0.116 C 
ENDROOT
BRANCH   1   2
ATOM      2  N   UNL A   1      34.474  29.384  25.851  1.00  0.00    -0.356 N 
ATOM      3  C   UNL A   1      33.739  28.640  24.984  1.00  0.00     0.228 C 
ATOM      4  O   UNL A   1      33.485  29.157  23.890  1.00  0.00    -0.275 OA
ATOM      5  H   UNL A   1      34.905  30.167  25.438  1.00  0.00     0.163 HD
BRANCH   3   6
ATOM      6  C   UNL A   1      33.171  27.264  25.319  1.00  0.00     0.133 C 
ATOM      7  C   UNL A   1      33.897  26.247  24.426  1.00  0.00     0.024 C 
BRANCH   6   8
ATOM      8  C   UNL A   1      31.618  27.173  25.348  1.00  0.00     0.191 C 
ATOM      9  C   UNL A   1      31.067  27.309  26.776  1.00  0.00     0.076 C 
BRANCH   8  10
ATOM     10  N   UNL A   1      30.899  28.194  24.543  1.00  0.00    -0.341 N 
ATOM     11  H   UNL A   1      30.237  28.668  25.156  1.00  0.00     0.346 HD
ATOM     12  H   UNL A   1      31.620  28.808  24.161  1.00  0.00     0.346 HD
BRANCH  10  13
ATOM     13  C   UNL A   1      30.152  27.676  23.379  1.00  0.00     0.185 C 
ATOM     14  C   UNL A   1      31.084  27.198  22.261  1.00  0.00     0.075 C 
BRANCH  13  15
ATOM     15  C   UNL A   1      29.161  28.746  22.847  1.00  0.00     0.126 C 
BRANCH  15  16
ATOM     16  C   UNL A   1      29.814  29.895  22.028  1.00  0.00     0.268 C 
BRANCH  16  17
ATOM     17  N   UNL A   1      29.463  31.303  22.287  1.00  0.00    -0.340 N 
ATOM     18  C   UNL A   1      28.474  31.777  21.307  1.00  0.00     0.332 C 
ATOM     19  C   UNL A   1      29.022  31.634  23.626  1.00  0.00     0.332 C 
ATOM     20  H   UNL A   1      30.353  31.790  22.187  1.00  0.00     0.347 HD
ENDBRANCH  16  17
ENDBRANCH  15  16
ENDBRANCH  13  15
ENDBRANCH  10  13
ENDBRANCH   8  10
ENDBRANCH   6   8
ENDBRANCH   3   6
ENDBRANCH   1   2
BRANCH   1  21
ATOM     21  C   UNL A   1      34.814  30.566  28.024  1.00  0.00     0.023 C 
BRANCH  21  22
ATOM     22  C   UNL A   1      34.213  31.771  27.302  1.00  0.00     0.023 C 
BRANCH  22  23
ATOM     23  C   UNL A   1      32.831  32.184  27.777  1.00  0.00     0.116 C 
BRANCH  23  24
ATOM     24  N   UNL A   1      32.673  33.630  27.804  1.00  0.00    -0.352 N 
ATOM     25  C   UNL A   1      33.281  34.571  28.601  1.00  0.00     0.251 C 
ATOM     26  H   UNL A   1      32.032  33.991  27.150  1.00  0.00     0.163 HD
ATOM     27  O   UNL A   1      32.855  35.721  28.609  1.00  0.00    -0.269 OA
BRANCH  25  28
ATOM     28  C   UNL A   1      34.425  34.193  29.458  1.00  0.00     0.039 A 
ATOM     29  C   UNL A   1      34.185  33.461  30.625  1.00  0.00     0.014 A 
ATOM     30  C   UNL A   1      35.730  34.552  29.115  1.00  0.00     0.014 A 
ATOM     31  C   UNL A   1      35.261  33.017  31.397  1.00  0.00     0.010 A 
ATOM     32  C   UNL A   1      36.803  34.035  29.834  1.00  0.00     0.010 A 
ATOM     33  C   UNL A   1      36.579  33.256  30.978  1.00  0.00    -0.014 A 
BRANCH  33  34
ATOM     34  C   UNL A   1      37.743  32.674  31.695  1.00  0.00     0.031 A 
ATOM     35  C   UNL A   1      38.456  31.475  31.135  1.00  0.00     0.074 A 
ATOM     36  C   UNL A   1      38.096  33.176  32.896  1.00  0.00     0.049 A 
ATOM     37  N   UNL A   1      39.417  30.765  31.666  1.00  0.00    -0.248 NA
ATOM     38  C   UNL A   1      38.011  30.995  29.816  1.00  0.00     0.031 C 
ATOM     39  C   UNL A   1      37.452  34.312  33.561  1.00  0.00     0.029 A 
ATOM     40  N   UNL A   1      39.069  32.785  33.781  1.00  0.00    -0.354 N 
ATOM     41  C   UNL A   1      39.684  29.749  30.755  1.00  0.00     0.074 A 
ATOM     42  C   UNL A   1      38.746  29.903  29.664  1.00  0.00     0.031 C 
ATOM     43  C   UNL A   1      38.060  34.539  34.735  1.00  0.00     0.029 A 
ATOM     44  C   UNL A   1      39.101  33.535  34.933  1.00  0.00     0.049 A 
ATOM     45  H   UNL A   1      39.688  32.039  33.607  1.00  0.00     0.167 HD
ATOM     46  C   UNL A   1      40.639  28.790  30.814  1.00  0.00     0.037 A 
ATOM     47  C   UNL A   1      39.866  33.417  36.035  1.00  0.00     0.037 A 
ATOM     48  C   UNL A   1      41.574  28.654  31.901  1.00  0.00     0.049 A 
ATOM     49  C   UNL A   1      40.888  32.316  36.099  1.00  0.00     0.074 A 
ATOM     50  C   UNL A   1      42.619  27.756  32.029  1.00  0.00     0.029 A 
ATOM     51  N   UNL A   1      41.568  29.427  33.054  1.00  0.00    -0.354 N 
ATOM     52  N   UNL A   1      41.181  31.411  35.195  1.00  0.00    -0.248 NA
ATOM     53  C   UNL A   1      41.680  32.214  37.332  1.00  0.00     0.031 C 
ATOM     54  C   UNL A   1      43.206  27.946  33.285  1.00  0.00     0.029 A 
ATOM     55  C   UNL A   1      42.564  29.000  33.917  1.00  0.00     0.049 A 
ATOM     56  H   UNL A   1      40.947  30.170  33.233  1.00  0.00     0.167 HD
ATOM     57  C   UNL A   1      42.198  30.639  35.746  1.00  0.00     0.074 A 
ATOM     58  C   UNL A   1      42.486  31.198  37.050  1.00  0.00     0.031 C 
ATOM     59  C   UNL A   1      42.832  29.563  35.218  1.00  0.00     0.037 A 
BRANCH  46  60
ATOM     60  C   UNL A   1      40.716  27.811  29.673  1.00  0.00     0.058 A 
ATOM     61  C   UNL A   1      39.790  26.765  29.532  1.00  0.00     0.135 A 
ATOM     62  C   UNL A   1      41.715  27.933  28.692  1.00  0.00     0.135 A 
ATOM     63  F   UNL A   1      38.821  26.592  30.446  1.00  0.00    -0.206 F 
ATOM     64  C   UNL A   1      39.873  25.853  28.485  1.00  0.00     0.059 A 
ATOM     65  C   UNL A   1      41.798  27.051  27.618  1.00  0.00     0.059 A 
ATOM     66  F   UNL A   1      42.626  28.914  28.773  1.00  0.00    -0.206 F 
ATOM     67  C   UNL A   1      40.883  26.003  27.534  1.00  0.00     0.060 A 
BRANCH  67  68
ATOM     68  S   UNL A   1      40.982  24.803  26.189  1.00  0.00     0.124 S 
ATOM     69  O   UNL A   1      41.290  25.666  25.052  1.00  0.00    -0.237 OA
ATOM     70  O   UNL A   1      42.064  23.929  26.631  1.00  0.00    -0.237 OA
ATOM     71  O   UNL A   1      39.655  24.196  26.174  1.00  0.00    -0.744 OA
ENDBRANCH  67  68
ENDBRANCH  46  60
BRANCH  47  72
ATOM     72  C   UNL A   1      39.694  34.372  37.163  1.00  0.00     0.058 A 
ATOM     73  C   UNL A   1      38.947  34.019  38.297  1.00  0.00     0.135 A 
ATOM     74  C   UNL A   1      40.295  35.641  37.146  1.00  0.00     0.135 A 
ATOM     75  F   UNL A   1      38.346  32.822  38.357  1.00  0.00    -0.206 F 
ATOM     76  C   UNL A   1      38.796  34.891  39.370  1.00  0.00     0.059 A 
ATOM     77  C   UNL A   1      40.180  36.520  38.218  1.00  0.00     0.059 A 
ATOM     78  F   UNL A   1      41.032  36.022  36.091  1.00  0.00    -0.206 F 
ATOM     79  C   UNL A   1      39.423  36.138  39.324  1.00  0.00     0.060 A 
BRANCH  79  80
ATOM     80  S   UNL A   1      39.268  37.234  40.751  1.00  0.00     0.124 S 
ATOM     81  O   UNL A   1      40.665  37.528  41.050  1.00  0.00    -0.237 OA
ATOM     82  O   UNL A   1      38.486  38.338  40.203  1.00  0.00    -0.237 OA
ATOM     83  O   UNL A   1      38.572  36.409  41.734  1.00  0.00    -0.744 OA
ENDBRANCH  79  80
ENDBRANCH  47  72
BRANCH  59  84
ATOM     84  C   UNL A   1      43.902  28.912  36.051  1.00  0.00     0.058 A 
ATOM     85  C   UNL A   1      43.628  27.790  36.848  1.00  0.00     0.135 A 
ATOM     86  C   UNL A   1      45.231  29.364  35.991  1.00  0.00     0.135 A 
ATOM     87  F   UNL A   1      42.373  27.324  36.951  1.00  0.00    -0.206 F 
ATOM     88  C   UNL A   1      44.630  27.145  37.565  1.00  0.00     0.059 A 
ATOM     89  C   UNL A   1      46.255  28.717  36.676  1.00  0.00     0.059 A 
ATOM     90  F   UNL A   1      45.550  30.429  35.238  1.00  0.00    -0.206 F 
ATOM     91  C   UNL A   1      45.943  27.610  37.464  1.00  0.00     0.060 A 
BRANCH  91  92
ATOM     92  S   UNL A   1      47.242  26.720  38.348  1.00  0.00     0.124 S 
ATOM     93  O   UNL A   1      46.969  27.097  39.731  1.00  0.00    -0.237 OA
ATOM     94  O   UNL A   1      46.957  25.331  38.001  1.00  0.00    -0.237 OA
ATOM     95  O   UNL A   1      48.473  27.263  37.781  1.00  0.00    -0.744 OA
ENDBRANCH  91  92
ENDBRANCH  59  84
ENDBRANCH  33  34
ENDBRANCH  25  28
ENDBRANCH  23  24
ENDBRANCH  22  23
ENDBRANCH  21  22
ENDBRANCH   1  21
TORSDOF 20
ENDMDL
MODEL 3
REMARK VINA RESULT:      -9.4      2.939      3.724
REMARK SMILES C[C@H](CC[NH+](C)C)[NH2+][C@H](C)[C@@H](C)C(=O)NCCCCNC(=O)c1ccc(-c2c3nc(c(-c4c(F)cc(S(=O)(=O)[O-])cc4F)c4ccc([nH]4)c(-c4c(F)cc(S(=O)(=O)[O-])cc4F)c4nc(c(-c5c(F)cc(S(=O)(=O)[O-])cc5F)c5ccc2[nH]5)C=C4)C=C3)cc1
REMARK SMILES IDX 16 1 15 2 13 3 14 4 11 6 12 7 9 8 10 9 8 10 2 13 1 14 3 15
REMARK SMILES IDX 4 16 5 17 6 18 7 19 17 21 18 22 19 23 20 24 21 25 22 27
REMARK SMILES IDX 23 28 24 29 88 30 25 31 87 32 26 33 27 34 28 35 81 36 29 37
REMARK SMILES IDX 86 38 80 39 82 40 30 41 85 42 79 43 78 44 31 46 65 47 44 48
REMARK SMILES IDX 64 49 45 50 48 51 63 52 83 53 46 54 47 55 62 57 84 58 49 59
REMARK SMILES IDX 32 60 33 61 42 62 34 63 35 64 41 65 43 66 36 67 37 68 38 69
REMARK SMILES IDX 39 70 40 71 66 72 67 73 76 74 68 75 69 76 75 77 77 78 70 79
REMARK SMILES IDX 71 80 72 81 73 82 74 83 50 84 51 85 60 86 52 87 53 88 59 89
REMARK SMILES IDX 61 90 54 91 55 92 56 93 57 94 58 95
REMARK H PARENT 15 5 8 11 8 12 5 20 20 26 82 45 48 56
REMARK Flexibility Score: inf
ROOT
ATOM      1  C   UNL A   1      32.314  27.604  26.101  1.00  0.00     0.116 C 
ENDROOT
BRANCH   1   2
ATOM      2  N   UNL A   1      31.426  26.530  26.506  1.00  0.00    -0.356 N 
ATOM      3  C   UNL A   1      31.169  25.311  25.968  1.00  0.00     0.228 C 
ATOM      4  O   UNL A   1      30.555  24.510  26.682  1.00  0.00    -0.275 OA
ATOM      5  H   UNL A   1      30.914  26.722  27.325  1.00  0.00     0.163 HD
BRANCH   3   6
ATOM      6  C   UNL A   1      31.653  24.874  24.587  1.00  0.00     0.133 C 
ATOM      7  C   UNL A   1      30.437  24.914  23.650  1.00  0.00     0.024 C 
BRANCH   6   8
ATOM      8  C   UNL A   1      32.503  23.571  24.560  1.00  0.00     0.191 C 
ATOM      9  C   UNL A   1      33.172  23.358  23.194  1.00  0.00     0.076 C 
BRANCH   8  10
ATOM     10  N   UNL A   1      33.601  23.499  25.559  1.00  0.00    -0.341 N 
ATOM     11  H   UNL A   1      34.470  23.748  25.087  1.00  0.00     0.346 HD
ATOM     12  H   UNL A   1      33.340  24.141  26.308  1.00  0.00     0.346 HD
BRANCH  10  13
ATOM     13  C   UNL A   1      33.792  22.183  26.201  1.00  0.00     0.185 C 
ATOM     14  C   UNL A   1      33.793  22.282  27.730  1.00  0.00     0.075 C 
BRANCH  13  15
ATOM     15  C   UNL A   1      35.096  21.513  25.694  1.00  0.00     0.126 C 
BRANCH  15  16
ATOM     16  C   UNL A   1      36.237  22.499  25.318  1.00  0.00     0.268 C 
BRANCH  16  17
ATOM     17  N   UNL A   1      37.416  22.660  26.187  1.00  0.00    -0.340 N 
ATOM     18  C   UNL A   1      38.504  21.772  25.750  1.00  0.00     0.332 C 
ATOM     19  C   UNL A   1      37.924  24.005  26.362  1.00  0.00     0.332 C 
ATOM     20  H   UNL A   1      37.068  22.400  27.109  1.00  0.00     0.347 HD
ENDBRANCH  16  17
ENDBRANCH  15  16
ENDBRANCH  13  15
ENDBRANCH  10  13
ENDBRANCH   8  10
ENDBRANCH   6   8
ENDBRANCH   3   6
ENDBRANCH   1   2
BRANCH   1  21
ATOM     21  C   UNL A   1      33.210  28.125  27.222  1.00  0.00     0.023 C 
BRANCH  21  22
ATOM     22  C   UNL A   1      34.077  29.332  26.867  1.00  0.00     0.023 C 
BRANCH  22  23
ATOM     23  C   UNL A   1      35.414  29.399  27.586  1.00  0.00     0.116 C 
BRANCH  23  24
ATOM     24  N   UNL A   1      35.268  29.825  28.969  1.00  0.00    -0.352 N 
ATOM     25  C   UNL A   1      36.208  29.922  29.968  1.00  0.00     0.251 C 
ATOM     26  H   UNL A   1      34.355  30.086  29.230  1.00  0.00     0.163 HD
ATOM     27  O   UNL A   1      35.842  30.102  31.124  1.00  0.00    -0.269 OA
BRANCH  25  28
ATOM     28  C   UNL A   1      37.646  29.785  29.652  1.00  0.00     0.039 A 
ATOM     29  C   UNL A   1      38.556  29.614  30.699  1.00  0.00     0.014 A 
ATOM     30  C   UNL A   1      38.098  29.820  28.331  1.00  0.00     0.014 A 
ATOM     31  C   UNL A   1      39.905  29.391  30.414  1.00  0.00     0.010 A 
ATOM     32  C   UNL A   1      39.424  29.511  28.045  1.00  0.00     0.010 A 
ATOM     33  C   UNL A   1      40.339  29.286  29.083  1.00  0.00    -0.014 A 
BRANCH  33  34
ATOM     34  C   UNL A   1      41.735  28.906  28.746  1.00  0.00     0.031 A 
ATOM     35  C   UNL A   1      42.815  29.952  28.699  1.00  0.00     0.074 A 
ATOM     36  C   UNL A   1      42.007  27.633  28.396  1.00  0.00     0.049 A 
ATOM     37  N   UNL A   1      44.061  29.834  28.322  1.00  0.00    -0.248 NA
ATOM     38  C   UNL A   1      42.434  31.316  29.102  1.00  0.00     0.031 C 
ATOM     39  C   UNL A   1      41.033  26.538  28.364  1.00  0.00     0.029 A 
ATOM     40  N   UNL A   1      43.176  27.045  27.981  1.00  0.00    -0.354 N 
ATOM     41  C   UNL A   1      44.611  31.106  28.431  1.00  0.00     0.074 A 
ATOM     42  C   UNL A   1      43.547  31.991  28.856  1.00  0.00     0.031 C 
ATOM     43  C   UNL A   1      41.648  25.411  27.975  1.00  0.00     0.029 A 
ATOM     44  C   UNL A   1      43.046  25.711  27.677  1.00  0.00     0.049 A 
ATOM     45  H   UNL A   1      44.028  27.533  27.909  1.00  0.00     0.167 HD
ATOM     46  C   UNL A   1      45.890  31.496  28.218  1.00  0.00     0.037 A 
ATOM     47  C   UNL A   1      43.943  24.831  27.192  1.00  0.00     0.037 A 
ATOM     48  C   UNL A   1      46.943  30.603  27.805  1.00  0.00     0.049 A 
ATOM     49  C   UNL A   1      45.346  25.295  26.919  1.00  0.00     0.074 A 
ATOM     50  C   UNL A   1      48.285  30.883  27.620  1.00  0.00     0.029 A 
ATOM     51  N   UNL A   1      46.769  29.260  27.498  1.00  0.00    -0.354 N 
ATOM     52  N   UNL A   1      45.870  26.485  27.100  1.00  0.00    -0.248 NA
ATOM     53  C   UNL A   1      46.280  24.304  26.368  1.00  0.00     0.031 C 
ATOM     54  C   UNL A   1      48.911  29.726  27.145  1.00  0.00     0.029 A 
ATOM     55  C   UNL A   1      47.971  28.709  27.085  1.00  0.00     0.049 A 
ATOM     56  H   UNL A   1      45.917  28.771  27.563  1.00  0.00     0.167 HD
ATOM     57  C   UNL A   1      47.197  26.382  26.697  1.00  0.00     0.074 A 
ATOM     58  C   UNL A   1      47.401  25.008  26.285  1.00  0.00     0.031 C 
ATOM     59  C   UNL A   1      48.156  27.340  26.669  1.00  0.00     0.037 A 
BRANCH  46  60
ATOM     60  C   UNL A   1      46.221  32.951  28.422  1.00  0.00     0.058 A 
ATOM     61  C   UNL A   1      46.652  33.443  29.663  1.00  0.00     0.135 A 
ATOM     62  C   UNL A   1      46.129  33.861  27.355  1.00  0.00     0.135 A 
ATOM     63  F   UNL A   1      46.747  32.622  30.721  1.00  0.00    -0.206 F 
ATOM     64  C   UNL A   1      46.942  34.791  29.852  1.00  0.00     0.059 A 
ATOM     65  C   UNL A   1      46.446  35.208  27.513  1.00  0.00     0.059 A 
ATOM     66  F   UNL A   1      45.725  33.446  26.145  1.00  0.00    -0.206 F 
ATOM     67  C   UNL A   1      46.834  35.666  28.771  1.00  0.00     0.060 A 
BRANCH  67  68
ATOM     68  S   UNL A   1      47.203  37.412  29.037  1.00  0.00     0.124 S 
ATOM     69  O   UNL A   1      47.720  37.395  30.403  1.00  0.00    -0.237 OA
ATOM     70  O   UNL A   1      48.184  37.686  27.992  1.00  0.00    -0.237 OA
ATOM     71  O   UNL A   1      45.909  38.065  28.866  1.00  0.00    -0.744 OA
ENDBRANCH  67  68
ENDBRANCH  46  60
BRANCH  47  72
ATOM     72  C   UNL A   1      43.537  23.421  26.942  1.00  0.00     0.058 A 
ATOM     73  C   UNL A   1      43.351  22.527  28.006  1.00  0.00     0.135 A 
ATOM     74  C   UNL A   1      43.298  22.947  25.642  1.00  0.00     0.135 A 
ATOM     75  F   UNL A   1      43.576  22.928  29.266  1.00  0.00    -0.206 F 
ATOM     76  C   UNL A   1      42.950  21.212  27.792  1.00  0.00     0.059 A 
ATOM     77  C   UNL A   1      42.870  21.645  25.404  1.00  0.00     0.059 A 
ATOM     78  F   UNL A   1      43.447  23.767  24.589  1.00  0.00    -0.206 F 
ATOM     79  C   UNL A   1      42.705  20.782  26.486  1.00  0.00     0.060 A 
BRANCH  79  80
ATOM     80  S   UNL A   1      42.125  19.092  26.229  1.00  0.00     0.124 S 
ATOM     81  O   UNL A   1      42.361  18.497  27.540  1.00  0.00    -0.237 OA
ATOM     82  O   UNL A   1      40.728  19.301  25.864  1.00  0.00    -0.237 OA
ATOM     83  O   UNL A   1      42.981  18.604  25.151  1.00  0.00    -0.744 OA
ENDBRANCH  79  80
ENDBRANCH  47  72
BRANCH  59  84
ATOM     84  C   UNL A   1      49.519  26.941  26.172  1.00  0.00     0.058 A 
ATOM     85  C   UNL A   1      50.433  26.273  27.001  1.00  0.00     0.135 A 
ATOM     86  C   UNL A   1      49.885  27.157  24.833  1.00  0.00     0.135 A 
ATOM     87  F   UNL A   1      50.139  26.051  28.292  1.00  0.00    -0.206 F 
ATOM     88  C   UNL A   1      51.666  25.841  26.524  1.00  0.00     0.059 A 
ATOM     89  C   UNL A   1      51.101  26.709  24.327  1.00  0.00     0.059 A 
ATOM     90  F   UNL A   1      49.044  27.785  23.995  1.00  0.00    -0.206 F 
ATOM     91  C   UNL A   1      51.987  26.056  25.181  1.00  0.00     0.060 A 
BRANCH  91  92
ATOM     92  S   UNL A   1      53.564  25.431  24.563  1.00  0.00     0.124 S 
ATOM     93  O   UNL A   1      53.535  24.047  25.026  1.00  0.00    -0.237 OA
ATOM     94  O   UNL A   1      53.429  25.620  23.122  1.00  0.00    -0.237 OA
ATOM     95  O   UNL A   1      54.549  26.289  25.214  1.00  0.00    -0.744 OA
ENDBRANCH  91  92
ENDBRANCH  59  84
ENDBRANCH  33  34
ENDBRANCH  25  28
ENDBRANCH  23  24
ENDBRANCH  22  23
ENDBRANCH  21  22
ENDBRANCH   1  21
TORSDOF 20
ENDMDL
