MODEL 1
REMARK VINA RESULT:     -11.2      0.000      0.000
REMARK SMILES C[C@H](NC(=O)OC(C)(C)C)C(=O)N[C@@H](C)C(=O)N1CCC[C@H]1C(=O)NCCCCNC(=O)c1ccc(-c2c3nc(c(-c4c(F)cc(S(=O)(=O)[O-])cc4F)c4ccc([nH]4)c(-c4c(F)cc(S(=O)(=O)[O-])cc4F)c4nc(c(-c5c(F)cc(S(=O)(=O)[O-])cc5F)c5ccc2[nH]5)C=C4)C=C3)cc1
REMARK SMILES IDX 23 1 24 2 25 3 22 5 18 6 19 7 20 8 21 9 16 10 17 11 14 12
REMARK SMILES IDX 15 13 13 14 11 15 12 16 2 18 1 19 3 20 4 21 5 23 6 24 7 25
REMARK SMILES IDX 8 26 9 27 10 28 26 29 27 30 28 31 29 32 30 33 31 34 32 36
REMARK SMILES IDX 33 37 34 38 98 39 35 40 97 41 36 42 37 43 38 44 91 45 39 46
REMARK SMILES IDX 96 47 90 48 92 49 40 50 95 51 89 52 88 53 41 55 75 56 54 57
REMARK SMILES IDX 74 58 55 59 58 60 73 61 93 62 56 63 57 64 72 66 94 67 59 68
REMARK SMILES IDX 42 69 43 70 52 71 44 72 45 73 51 74 53 75 46 76 47 77 48 78
REMARK SMILES IDX 49 79 50 80 76 81 77 82 86 83 78 84 79 85 85 86 87 87 80 88
REMARK SMILES IDX 81 89 82 90 83 91 84 92 60 93 61 94 70 95 62 96 63 97 69 98
REMARK SMILES IDX 71 99 64 100 65 101 66 102 67 103 68 104
REMARK H PARENT 25 4 13 17 3 22 30 35 92 54 58 65
REMARK Flexibility Score: inf
ROOT
ATOM      1  C   UNL A   1      36.476  20.993  25.285  1.00  0.00     0.242 C 
ATOM      2  O   UNL A   1      36.062  19.865  24.983  1.00  0.00    -0.273 OA
ATOM      3  N   UNL A   1      37.825  21.128  25.345  1.00  0.00    -0.354 N 
ATOM      4  H   UNL A   1      38.326  20.380  24.949  1.00  0.00     0.163 HD
ENDROOT
BRANCH   1   5
ATOM      5  C   UNL A   1      35.452  22.136  25.526  1.00  0.00     0.174 C 
ATOM      6  N   UNL A   1      34.139  22.220  24.857  1.00  0.00    -0.329 N 
ATOM      7  C   UNL A   1      33.096  21.815  25.774  1.00  0.00     0.120 C 
ATOM      8  C   UNL A   1      33.604  22.278  27.124  1.00  0.00     0.024 C 
ATOM      9  C   UNL A   1      35.108  22.090  27.034  1.00  0.00     0.037 C 
BRANCH   6  10
ATOM     10  C   UNL A   1      34.030  22.818  23.620  1.00  0.00     0.245 C 
ATOM     11  O   UNL A   1      35.057  23.200  23.041  1.00  0.00    -0.272 OA
BRANCH  10  12
ATOM     12  C   UNL A   1      32.663  23.225  22.991  1.00  0.00     0.168 C 
ATOM     13  C   UNL A   1      32.048  21.966  22.380  1.00  0.00     0.041 C 
BRANCH  12  14
ATOM     14  N   UNL A   1      32.583  24.313  22.011  1.00  0.00    -0.343 N 
ATOM     15  C   UNL A   1      31.927  25.507  22.009  1.00  0.00     0.243 C 
ATOM     16  O   UNL A   1      32.075  26.204  21.000  1.00  0.00    -0.273 OA
ATOM     17  H   UNL A   1      33.104  24.146  21.193  1.00  0.00     0.164 HD
BRANCH  15  18
ATOM     18  C   UNL A   1      31.131  26.028  23.216  1.00  0.00     0.171 C 
ATOM     19  C   UNL A   1      29.938  25.112  23.453  1.00  0.00     0.042 C 
BRANCH  18  20
ATOM     20  N   UNL A   1      30.762  27.431  23.064  1.00  0.00    -0.310 N 
ATOM     21  C   UNL A   1      30.708  28.354  24.071  1.00  0.00     0.408 C 
ATOM     22  H   UNL A   1      30.532  27.739  22.158  1.00  0.00     0.167 HD
ATOM     23  O   UNL A   1      30.407  29.513  23.851  1.00  0.00    -0.225 OA
BRANCH  21  24
ATOM     24  O   UNL A   1      31.006  27.814  25.272  1.00  0.00    -0.444 OA
BRANCH  24  25
ATOM     25  C   UNL A   1      32.145  28.252  26.053  1.00  0.00     0.106 C 
ATOM     26  C   UNL A   1      32.718  29.568  25.519  1.00  0.00     0.056 C 
ATOM     27  C   UNL A   1      31.789  28.342  27.541  1.00  0.00     0.056 C 
ATOM     28  C   UNL A   1      33.190  27.142  25.863  1.00  0.00     0.056 C 
ENDBRANCH  24  25
ENDBRANCH  21  24
ENDBRANCH  18  20
ENDBRANCH  15  18
ENDBRANCH  12  14
ENDBRANCH  10  12
ENDBRANCH   6  10
ENDBRANCH   1   5
BRANCH   3  29
ATOM     29  C   UNL A   1      38.650  22.180  25.889  1.00  0.00     0.116 C 
BRANCH  29  30
ATOM     30  C   UNL A   1      40.026  21.637  26.274  1.00  0.00     0.023 C 
BRANCH  30  31
ATOM     31  C   UNL A   1      40.569  22.144  27.612  1.00  0.00     0.023 C 
BRANCH  31  32
ATOM     32  C   UNL A   1      41.843  22.974  27.524  1.00  0.00     0.116 C 
BRANCH  32  33
ATOM     33  N   UNL A   1      41.964  23.738  26.291  1.00  0.00    -0.352 N 
ATOM     34  C   UNL A   1      41.905  25.103  26.131  1.00  0.00     0.251 C 
ATOM     35  H   UNL A   1      42.107  23.214  25.471  1.00  0.00     0.163 HD
ATOM     36  O   UNL A   1      41.953  25.600  25.011  1.00  0.00    -0.269 OA
BRANCH  34  37
ATOM     37  C   UNL A   1      41.728  25.951  27.326  1.00  0.00     0.039 A 
ATOM     38  C   UNL A   1      42.692  26.920  27.613  1.00  0.00     0.014 A 
ATOM     39  C   UNL A   1      40.586  25.828  28.117  1.00  0.00     0.014 A 
ATOM     40  C   UNL A   1      42.478  27.807  28.669  1.00  0.00     0.010 A 
ATOM     41  C   UNL A   1      40.334  26.766  29.111  1.00  0.00     0.010 A 
ATOM     42  C   UNL A   1      41.284  27.754  29.408  1.00  0.00    -0.014 A 
BRANCH  42  43
ATOM     43  C   UNL A   1      41.029  28.690  30.530  1.00  0.00     0.031 A 
ATOM     44  C   UNL A   1      41.843  28.570  31.791  1.00  0.00     0.074 A 
ATOM     45  C   UNL A   1      40.035  29.594  30.442  1.00  0.00     0.049 A 
ATOM     46  N   UNL A   1      41.732  29.231  32.913  1.00  0.00    -0.248 NA
ATOM     47  C   UNL A   1      42.900  27.545  31.802  1.00  0.00     0.031 C 
ATOM     48  C   UNL A   1      39.142  29.765  29.292  1.00  0.00     0.029 A 
ATOM     49  N   UNL A   1      39.602  30.537  31.339  1.00  0.00    -0.354 N 
ATOM     50  C   UNL A   1      42.686  28.688  33.766  1.00  0.00     0.074 A 
ATOM     51  C   UNL A   1      43.322  27.601  33.056  1.00  0.00     0.031 C 
ATOM     52  C   UNL A   1      38.286  30.769  29.545  1.00  0.00     0.029 A 
ATOM     53  C   UNL A   1      38.546  31.292  30.883  1.00  0.00     0.049 A 
ATOM     54  H   UNL A   1      40.007  30.661  32.227  1.00  0.00     0.167 HD
ATOM     55  C   UNL A   1      43.025  29.080  35.017  1.00  0.00     0.037 A 
ATOM     56  C   UNL A   1      37.867  32.291  31.478  1.00  0.00     0.037 A 
ATOM     57  C   UNL A   1      42.414  30.190  35.699  1.00  0.00     0.049 A 
ATOM     58  C   UNL A   1      38.282  32.731  32.858  1.00  0.00     0.074 A 
ATOM     59  C   UNL A   1      42.716  30.707  36.945  1.00  0.00     0.029 A 
ATOM     60  N   UNL A   1      41.381  30.960  35.184  1.00  0.00    -0.354 N 
ATOM     61  N   UNL A   1      39.224  32.244  33.631  1.00  0.00    -0.248 NA
ATOM     62  C   UNL A   1      37.554  33.864  33.442  1.00  0.00     0.031 C 
ATOM     63  C   UNL A   1      41.843  31.770  37.199  1.00  0.00     0.029 A 
ATOM     64  C   UNL A   1      41.030  31.945  36.090  1.00  0.00     0.049 A 
ATOM     65  H   UNL A   1      40.959  30.825  34.304  1.00  0.00     0.167 HD
ATOM     66  C   UNL A   1      39.227  33.035  34.774  1.00  0.00     0.074 A 
ATOM     67  C   UNL A   1      38.196  34.035  34.589  1.00  0.00     0.031 C 
ATOM     68  C   UNL A   1      40.014  32.946  35.876  1.00  0.00     0.037 A 
BRANCH  55  69
ATOM     69  C   UNL A   1      44.111  28.311  35.717  1.00  0.00     0.058 A 
ATOM     70  C   UNL A   1      45.464  28.665  35.589  1.00  0.00     0.135 A 
ATOM     71  C   UNL A   1      43.798  27.216  36.539  1.00  0.00     0.135 A 
ATOM     72  F   UNL A   1      45.824  29.691  34.801  1.00  0.00    -0.206 F 
ATOM     73  C   UNL A   1      46.470  27.942  36.223  1.00  0.00     0.059 A 
ATOM     74  C   UNL A   1      44.784  26.498  37.207  1.00  0.00     0.059 A 
ATOM     75  F   UNL A   1      42.521  26.831  36.696  1.00  0.00    -0.206 F 
ATOM     76  C   UNL A   1      46.120  26.859  37.030  1.00  0.00     0.060 A 
BRANCH  76  77
ATOM     77  S   UNL A   1      47.435  25.932  37.847  1.00  0.00     0.124 S 
ATOM     78  O   UNL A   1      46.669  25.006  38.674  1.00  0.00    -0.237 OA
ATOM     79  O   UNL A   1      48.144  25.336  36.719  1.00  0.00    -0.237 OA
ATOM     80  O   UNL A   1      48.173  26.960  38.574  1.00  0.00    -0.744 OA
ENDBRANCH  76  77
ENDBRANCH  55  69
BRANCH  56  81
ATOM     81  C   UNL A   1      36.757  32.973  30.760  1.00  0.00     0.058 A 
ATOM     82  C   UNL A   1      35.418  32.677  31.058  1.00  0.00     0.135 A 
ATOM     83  C   UNL A   1      37.008  33.937  29.773  1.00  0.00     0.135 A 
ATOM     84  F   UNL A   1      35.125  31.761  31.993  1.00  0.00    -0.206 F 
ATOM     85  C   UNL A   1      34.367  33.293  30.385  1.00  0.00     0.059 A 
ATOM     86  C   UNL A   1      35.973  34.586  29.103  1.00  0.00     0.059 A 
ATOM     87  F   UNL A   1      38.270  34.271  29.464  1.00  0.00    -0.206 F 
ATOM     88  C   UNL A   1      34.656  34.248  29.409  1.00  0.00     0.060 A 
BRANCH  88  89
ATOM     89  S   UNL A   1      33.284  35.069  28.569  1.00  0.00     0.124 S 
ATOM     90  O   UNL A   1      33.989  36.002  27.699  1.00  0.00    -0.237 OA
ATOM     91  O   UNL A   1      32.618  33.952  27.905  1.00  0.00    -0.237 OA
ATOM     92  O   UNL A   1      32.533  35.673  29.667  1.00  0.00    -0.744 OA
ENDBRANCH  88  89
ENDBRANCH  56  81
BRANCH  68  93
ATOM     93  C   UNL A   1      39.833  33.990  36.942  1.00  0.00     0.058 A 
ATOM     94  C   UNL A   1      39.058  33.754  38.087  1.00  0.00     0.135 A 
ATOM     95  C   UNL A   1      40.492  35.225  36.836  1.00  0.00     0.135 A 
ATOM     96  F   UNL A   1      38.405  32.591  38.235  1.00  0.00    -0.206 F 
ATOM     97  C   UNL A   1      38.919  34.720  39.079  1.00  0.00     0.059 A 
ATOM     98  C   UNL A   1      40.390  36.193  37.828  1.00  0.00     0.059 A 
ATOM     99  F   UNL A   1      41.256  35.495  35.766  1.00  0.00    -0.206 F 
ATOM    100  C   UNL A   1      39.590  35.937  38.940  1.00  0.00     0.060 A 
BRANCH 100 101
ATOM    101  S   UNL A   1      39.426  37.171  40.247  1.00  0.00     0.124 S 
ATOM    102  O   UNL A   1      40.821  37.415  40.597  1.00  0.00    -0.237 OA
ATOM    103  O   UNL A   1      38.742  38.263  39.563  1.00  0.00    -0.237 OA
ATOM    104  O   UNL A   1      38.634  36.483  41.264  1.00  0.00    -0.744 OA
ENDBRANCH 100 101
ENDBRANCH  68  93
ENDBRANCH  42  43
ENDBRANCH  34  37
ENDBRANCH  32  33
ENDBRANCH  31  32
ENDBRANCH  30  31
ENDBRANCH  29  30
ENDBRANCH   3  29
TORSDOF 21
ENDMDL
MODEL 2
REMARK VINA RESULT:     -11.0      5.919     10.586
REMARK SMILES C[C@H](NC(=O)OC(C)(C)C)C(=O)N[C@@H](C)C(=O)N1CCC[C@H]1C(=O)NCCCCNC(=O)c1ccc(-c2c3nc(c(-c4c(F)cc(S(=O)(=O)[O-])cc4F)c4ccc([nH]4)c(-c4c(F)cc(S(=O)(=O)[O-])cc4F)c4nc(c(-c5c(F)cc(S(=O)(=O)[O-])cc5F)c5ccc2[nH]5)C=C4)C=C3)cc1
REMARK SMILES IDX 23 1 24 2 25 3 22 5 18 6 19 7 20 8 21 9 16 10 17 11 14 12
REMARK SMILES IDX 15 13 13 14 11 15 12 16 2 18 1 19 3 20 4 21 5 23 6 24 7 25
REMARK SMILES IDX 8 26 9 27 10 28 26 29 27 30 28 31 29 32 30 33 31 34 32 36
REMARK SMILES IDX 33 37 34 38 98 39 35 40 97 41 36 42 37 43 38 44 91 45 39 46
REMARK SMILES IDX 96 47 90 48 92 49 40 50 95 51 89 52 88 53 41 55 75 56 54 57
REMARK SMILES IDX 74 58 55 59 58 60 73 61 93 62 56 63 57 64 72 66 94 67 59 68
REMARK SMILES IDX 42 69 43 70 52 71 44 72 45 73 51 74 53 75 46 76 47 77 48 78
REMARK SMILES IDX 49 79 50 80 76 81 77 82 86 83 78 84 79 85 85 86 87 87 80 88
REMARK SMILES IDX 81 89 82 90 83 91 84 92 60 93 61 94 70 95 62 96 63 97 69 98
REMARK SMILES IDX 71 99 64 100 65 101 66 102 67 103 68 104
REMARK H PARENT 25 4 13 17 3 22 30 35 92 54 58 65
REMARK Flexibility Score: inf
ROOT
ATOM      1  C   UNL A   1      33.141  19.889  25.117  1.00  0.00     0.242 C 
ATOM      2  O   UNL A   1      32.463  18.940  25.536  1.00  0.00    -0.273 OA
ATOM      3  N   UNL A   1      34.486  19.729  25.192  1.00  0.00    -0.354 N 
ATOM      4  H   UNL A   1      34.776  18.808  25.380  1.00  0.00     0.163 HD
ENDROOT
BRANCH   1   5
ATOM      5  C   UNL A   1      32.420  21.131  24.523  1.00  0.00     0.174 C 
ATOM      6  N   UNL A   1      33.011  22.482  24.480  1.00  0.00    -0.329 N 
ATOM      7  C   UNL A   1      33.468  22.774  23.138  1.00  0.00     0.120 C 
ATOM      8  C   UNL A   1      32.475  22.046  22.255  1.00  0.00     0.024 C 
ATOM      9  C   UNL A   1      32.135  20.792  23.041  1.00  0.00     0.037 C 
BRANCH   6  10
ATOM     10  C   UNL A   1      32.887  23.327  25.563  1.00  0.00     0.245 C 
ATOM     11  O   UNL A   1      32.523  22.863  26.652  1.00  0.00    -0.272 OA
BRANCH  10  12
ATOM     12  C   UNL A   1      32.988  24.879  25.445  1.00  0.00     0.168 C 
ATOM     13  C   UNL A   1      34.473  25.238  25.403  1.00  0.00     0.041 C 
BRANCH  12  14
ATOM     14  N   UNL A   1      32.319  25.749  26.418  1.00  0.00    -0.343 N 
ATOM     15  C   UNL A   1      31.346  26.694  26.295  1.00  0.00     0.243 C 
ATOM     16  O   UNL A   1      31.002  27.257  27.338  1.00  0.00    -0.273 OA
ATOM     17  H   UNL A   1      32.636  25.626  27.341  1.00  0.00     0.164 HD
BRANCH  15  18
ATOM     18  C   UNL A   1      30.628  26.990  24.967  1.00  0.00     0.171 C 
ATOM     19  C   UNL A   1      29.893  25.735  24.514  1.00  0.00     0.042 C 
BRANCH  18  20
ATOM     20  N   UNL A   1      31.538  27.523  23.960  1.00  0.00    -0.310 N 
ATOM     21  C   UNL A   1      31.469  28.770  23.404  1.00  0.00     0.408 C 
ATOM     22  H   UNL A   1      32.265  26.934  23.654  1.00  0.00     0.167 HD
ATOM     23  O   UNL A   1      32.284  29.141  22.580  1.00  0.00    -0.225 OA
BRANCH  21  24
ATOM     24  O   UNL A   1      30.414  29.475  23.868  1.00  0.00    -0.444 OA
BRANCH  24  25
ATOM     25  C   UNL A   1      29.299  29.842  23.018  1.00  0.00     0.106 C 
ATOM     26  C   UNL A   1      29.759  30.143  21.589  1.00  0.00     0.056 C 
ATOM     27  C   UNL A   1      28.205  28.769  23.056  1.00  0.00     0.056 C 
ATOM     28  C   UNL A   1      28.747  31.130  23.644  1.00  0.00     0.056 C 
ENDBRANCH  24  25
ENDBRANCH  21  24
ENDBRANCH  18  20
ENDBRANCH  15  18
ENDBRANCH  12  14
ENDBRANCH  10  12
ENDBRANCH   6  10
ENDBRANCH   1   5
BRANCH   3  29
ATOM     29  C   UNL A   1      35.565  20.677  25.044  1.00  0.00     0.116 C 
BRANCH  29  30
ATOM     30  C   UNL A   1      36.909  19.954  24.969  1.00  0.00     0.023 C 
BRANCH  30  31
ATOM     31  C   UNL A   1      38.132  20.871  24.919  1.00  0.00     0.023 C 
BRANCH  31  32
ATOM     32  C   UNL A   1      39.088  20.744  26.099  1.00  0.00     0.116 C 
BRANCH  32  33
ATOM     33  N   UNL A   1      39.973  19.592  26.019  1.00  0.00    -0.352 N 
ATOM     34  C   UNL A   1      41.344  19.568  26.122  1.00  0.00     0.251 C 
ATOM     35  H   UNL A   1      39.536  18.722  25.873  1.00  0.00     0.163 HD
ATOM     36  O   UNL A   1      41.962  18.521  25.961  1.00  0.00    -0.269 OA
BRANCH  34  37
ATOM     37  C   UNL A   1      42.059  20.834  26.377  1.00  0.00     0.039 A 
ATOM     38  C   UNL A   1      42.422  21.634  25.291  1.00  0.00     0.014 A 
ATOM     39  C   UNL A   1      42.310  21.253  27.684  1.00  0.00     0.014 A 
ATOM     40  C   UNL A   1      42.990  22.887  25.523  1.00  0.00     0.010 A 
ATOM     41  C   UNL A   1      42.794  22.534  27.913  1.00  0.00     0.010 A 
ATOM     42  C   UNL A   1      43.154  23.358  26.837  1.00  0.00    -0.014 A 
BRANCH  42  43
ATOM     43  C   UNL A   1      43.749  24.689  27.111  1.00  0.00     0.031 A 
ATOM     44  C   UNL A   1      42.856  25.823  27.538  1.00  0.00     0.074 A 
ATOM     45  C   UNL A   1      45.066  24.892  26.917  1.00  0.00     0.049 A 
ATOM     46  N   UNL A   1      43.157  27.077  27.752  1.00  0.00    -0.248 NA
ATOM     47  C   UNL A   1      41.427  25.512  27.713  1.00  0.00     0.031 C 
ATOM     48  C   UNL A   1      46.021  23.882  26.451  1.00  0.00     0.029 A 
ATOM     49  N   UNL A   1      45.831  26.019  27.082  1.00  0.00    -0.354 N 
ATOM     50  C   UNL A   1      41.956  27.705  28.064  1.00  0.00     0.074 A 
ATOM     51  C   UNL A   1      40.914  26.709  27.947  1.00  0.00     0.031 C 
ATOM     52  C   UNL A   1      47.247  24.430  26.391  1.00  0.00     0.029 A 
ATOM     53  C   UNL A   1      47.161  25.834  26.784  1.00  0.00     0.049 A 
ATOM     54  H   UNL A   1      45.462  26.880  27.384  1.00  0.00     0.167 HD
ATOM     55  C   UNL A   1      41.744  28.987  28.445  1.00  0.00     0.037 A 
ATOM     56  C   UNL A   1      48.192  26.699  26.825  1.00  0.00     0.037 A 
ATOM     57  C   UNL A   1      42.794  29.958  28.598  1.00  0.00     0.049 A 
ATOM     58  C   UNL A   1      47.938  28.112  27.281  1.00  0.00     0.074 A 
ATOM     59  C   UNL A   1      42.700  31.268  29.030  1.00  0.00     0.029 A 
ATOM     60  N   UNL A   1      44.135  29.718  28.333  1.00  0.00    -0.354 N 
ATOM     61  N   UNL A   1      46.804  28.676  27.626  1.00  0.00    -0.248 NA
ATOM     62  C   UNL A   1      49.103  29.003  27.368  1.00  0.00     0.031 C 
ATOM     63  C   UNL A   1      43.979  31.832  28.994  1.00  0.00     0.029 A 
ATOM     64  C   UNL A   1      44.878  30.858  28.587  1.00  0.00     0.049 A 
ATOM     65  H   UNL A   1      44.504  28.864  28.012  1.00  0.00     0.167 HD
ATOM     66  C   UNL A   1      47.125  29.974  28.008  1.00  0.00     0.074 A 
ATOM     67  C   UNL A   1      48.559  30.109  27.856  1.00  0.00     0.031 C 
ATOM     68  C   UNL A   1      46.309  30.964  28.449  1.00  0.00     0.037 A 
BRANCH  55  69
ATOM     69  C   UNL A   1      40.328  29.402  28.732  1.00  0.00     0.058 A 
ATOM     70  C   UNL A   1      39.870  29.599  30.046  1.00  0.00     0.135 A 
ATOM     71  C   UNL A   1      39.419  29.622  27.685  1.00  0.00     0.135 A 
ATOM     72  F   UNL A   1      40.689  29.384  31.088  1.00  0.00    -0.206 F 
ATOM     73  C   UNL A   1      38.555  29.966  30.312  1.00  0.00     0.059 A 
ATOM     74  C   UNL A   1      38.108  30.020  27.926  1.00  0.00     0.059 A 
ATOM     75  F   UNL A   1      39.801  29.446  26.410  1.00  0.00    -0.206 F 
ATOM     76  C   UNL A   1      37.680  30.174  29.245  1.00  0.00     0.060 A 
BRANCH  76  77
ATOM     77  S   UNL A   1      35.978  30.651  29.606  1.00  0.00     0.124 S 
ATOM     78  O   UNL A   1      35.915  31.979  29.005  1.00  0.00    -0.237 OA
ATOM     79  O   UNL A   1      35.211  29.611  28.927  1.00  0.00    -0.237 OA
ATOM     80  O   UNL A   1      35.918  30.619  31.064  1.00  0.00    -0.744 OA
ENDBRANCH  76  77
ENDBRANCH  55  69
BRANCH  56  81
ATOM     81  C   UNL A   1      49.563  26.247  26.465  1.00  0.00     0.058 A 
ATOM     82  C   UNL A   1      50.073  26.450  25.174  1.00  0.00     0.135 A 
ATOM     83  C   UNL A   1      50.393  25.614  27.402  1.00  0.00     0.135 A 
ATOM     84  F   UNL A   1      49.318  27.049  24.241  1.00  0.00    -0.206 F 
ATOM     85  C   UNL A   1      51.346  26.019  24.815  1.00  0.00     0.059 A 
ATOM     86  C   UNL A   1      51.681  25.196  27.075  1.00  0.00     0.059 A 
ATOM     87  F   UNL A   1      49.961  25.413  28.657  1.00  0.00    -0.206 F 
ATOM     88  C   UNL A   1      52.144  25.393  25.775  1.00  0.00     0.060 A 
BRANCH  88  89
ATOM     89  S   UNL A   1      53.810  24.873  25.310  1.00  0.00     0.124 S 
ATOM     90  O   UNL A   1      54.037  25.659  24.104  1.00  0.00    -0.237 OA
ATOM     91  O   UNL A   1      54.590  25.260  26.482  1.00  0.00    -0.237 OA
ATOM     92  O   UNL A   1      53.667  23.433  25.110  1.00  0.00    -0.744 OA
ENDBRANCH  88  89
ENDBRANCH  56  81
BRANCH  68  93
ATOM     93  C   UNL A   1      46.951  32.261  28.855  1.00  0.00     0.058 A 
ATOM     94  C   UNL A   1      47.137  33.313  27.946  1.00  0.00     0.135 A 
ATOM     95  C   UNL A   1      47.335  32.469  30.190  1.00  0.00     0.135 A 
ATOM     96  F   UNL A   1      46.789  33.164  26.658  1.00  0.00    -0.206 F 
ATOM     97  C   UNL A   1      47.709  34.518  28.340  1.00  0.00     0.059 A 
ATOM     98  C   UNL A   1      47.882  33.675  30.611  1.00  0.00     0.059 A 
ATOM     99  F   UNL A   1      47.165  31.498  31.101  1.00  0.00    -0.206 F 
ATOM    100  C   UNL A   1      48.078  34.690  29.676  1.00  0.00     0.060 A 
BRANCH 100 101
ATOM    101  S   UNL A   1      48.792  36.268  30.182  1.00  0.00     0.124 S 
ATOM    102  O   UNL A   1      50.219  36.007  30.027  1.00  0.00    -0.237 OA
ATOM    103  O   UNL A   1      48.209  37.198  29.220  1.00  0.00    -0.237 OA
ATOM    104  O   UNL A   1      48.327  36.426  31.557  1.00  0.00    -0.744 OA
ENDBRANCH 100 101
ENDBRANCH  68  93
ENDBRANCH  42  43
ENDBRANCH  34  37
ENDBRANCH  32  33
ENDBRANCH  31  32
ENDBRANCH  30  31
ENDBRANCH  29  30
ENDBRANCH   3  29
TORSDOF 21
ENDMDL
MODEL 3
REMARK VINA RESULT:     -10.9      1.226      2.434
REMARK SMILES C[C@H](NC(=O)OC(C)(C)C)C(=O)N[C@@H](C)C(=O)N1CCC[C@H]1C(=O)NCCCCNC(=O)c1ccc(-c2c3nc(c(-c4c(F)cc(S(=O)(=O)[O-])cc4F)c4ccc([nH]4)c(-c4c(F)cc(S(=O)(=O)[O-])cc4F)c4nc(c(-c5c(F)cc(S(=O)(=O)[O-])cc5F)c5ccc2[nH]5)C=C4)C=C3)cc1
REMARK SMILES IDX 23 1 24 2 25 3 22 5 18 6 19 7 20 8 21 9 16 10 17 11 14 12
REMARK SMILES IDX 15 13 13 14 11 15 12 16 2 18 1 19 3 20 4 21 5 23 6 24 7 25
REMARK SMILES IDX 8 26 9 27 10 28 26 29 27 30 28 31 29 32 30 33 31 34 32 36
REMARK SMILES IDX 33 37 34 38 98 39 35 40 97 41 36 42 37 43 38 44 91 45 39 46
REMARK SMILES IDX 96 47 90 48 92 49 40 50 95 51 89 52 88 53 41 55 75 56 54 57
REMARK SMILES IDX 74 58 55 59 58 60 73 61 93 62 56 63 57 64 72 66 94 67 59 68
REMARK SMILES IDX 42 69 43 70 52 71 44 72 45 73 51 74 53 75 46 76 47 77 48 78
REMARK SMILES IDX 49 79 50 80 76 81 77 82 86 83 78 84 79 85 85 86 87 87 80 88
REMARK SMILES IDX 81 89 82 90 83 91 84 92 60 93 61 94 70 95 62 96 63 97 69 98
REMARK SMILES IDX 71 99 64 100 65 101 66 102 67 103 68 104
REMARK H PARENT 25 4 13 17 3 22 30 35 92 54 58 65
REMARK Flexibility Score: inf
ROOT
ATOM      1  C   UNL A   1      34.081  22.329  25.052  1.00  0.00     0.242 C 
ATOM      2  O   UNL A   1      33.468  21.311  25.404  1.00  0.00    -0.273 OA
ATOM      3  N   UNL A   1      35.410  22.169  24.832  1.00  0.00    -0.354 N 
ATOM      4  H   UNL A   1      35.703  21.232  24.778  1.00  0.00     0.163 HD
ENDROOT
BRANCH   1   5
ATOM      5  C   UNL A   1      33.296  23.657  24.861  1.00  0.00     0.174 C 
ATOM      6  N   UNL A   1      32.563  24.010  23.631  1.00  0.00    -0.329 N 
ATOM      7  C   UNL A   1      31.142  23.825  23.838  1.00  0.00     0.120 C 
ATOM      8  C   UNL A   1      30.944  24.170  25.300  1.00  0.00     0.024 C 
ATOM      9  C   UNL A   1      32.216  23.677  25.969  1.00  0.00     0.037 C 
BRANCH   6  10
ATOM     10  C   UNL A   1      33.219  24.621  22.584  1.00  0.00     0.245 C 
ATOM     11  O   UNL A   1      34.362  24.245  22.286  1.00  0.00    -0.272 OA
BRANCH  10  12
ATOM     12  C   UNL A   1      32.683  25.904  21.878  1.00  0.00     0.168 C 
ATOM     13  C   UNL A   1      32.444  25.551  20.410  1.00  0.00     0.041 C 
BRANCH  12  14
ATOM     14  N   UNL A   1      33.429  27.164  21.945  1.00  0.00    -0.343 N 
ATOM     15  C   UNL A   1      33.302  28.272  22.727  1.00  0.00     0.243 C 
ATOM     16  O   UNL A   1      34.114  29.179  22.519  1.00  0.00    -0.273 OA
ATOM     17  H   UNL A   1      34.166  27.222  21.295  1.00  0.00     0.164 HD
BRANCH  15  18
ATOM     18  C   UNL A   1      32.288  28.373  23.879  1.00  0.00     0.171 C 
ATOM     19  C   UNL A   1      33.016  28.155  25.198  1.00  0.00     0.042 C 
BRANCH  18  20
ATOM     20  N   UNL A   1      31.154  27.476  23.688  1.00  0.00    -0.310 N 
ATOM     21  C   UNL A   1      29.837  27.844  23.692  1.00  0.00     0.408 C 
ATOM     22  H   UNL A   1      31.354  26.523  23.545  1.00  0.00     0.167 HD
ATOM     23  O   UNL A   1      28.952  27.029  23.507  1.00  0.00    -0.225 OA
BRANCH  21  24
ATOM     24  O   UNL A   1      29.679  29.163  23.934  1.00  0.00    -0.444 OA
BRANCH  24  25
ATOM     25  C   UNL A   1      28.958  30.031  23.025  1.00  0.00     0.106 C 
ATOM     26  C   UNL A   1      29.662  30.132  21.670  1.00  0.00     0.056 C 
ATOM     27  C   UNL A   1      27.499  29.585  22.884  1.00  0.00     0.056 C 
ATOM     28  C   UNL A   1      28.988  31.408  23.706  1.00  0.00     0.056 C 
ENDBRANCH  24  25
ENDBRANCH  21  24
ENDBRANCH  18  20
ENDBRANCH  15  18
ENDBRANCH  12  14
ENDBRANCH  10  12
ENDBRANCH   6  10
ENDBRANCH   1   5
BRANCH   3  29
ATOM     29  C   UNL A   1      36.468  23.137  24.664  1.00  0.00     0.116 C 
BRANCH  29  30
ATOM     30  C   UNL A   1      37.646  22.809  25.579  1.00  0.00     0.023 C 
BRANCH  30  31
ATOM     31  C   UNL A   1      38.239  24.007  26.322  1.00  0.00     0.023 C 
BRANCH  31  32
ATOM     32  C   UNL A   1      39.631  23.788  26.903  1.00  0.00     0.116 C 
BRANCH  32  33
ATOM     33  N   UNL A   1      40.710  24.156  26.000  1.00  0.00    -0.352 N 
ATOM     34  C   UNL A   1      41.591  25.206  26.114  1.00  0.00     0.251 C 
ATOM     35  H   UNL A   1      40.826  23.581  25.209  1.00  0.00     0.163 HD
ATOM     36  O   UNL A   1      42.408  25.432  25.229  1.00  0.00    -0.269 OA
BRANCH  34  37
ATOM     37  C   UNL A   1      41.496  26.085  27.296  1.00  0.00     0.039 A 
ATOM     38  C   UNL A   1      42.136  27.327  27.266  1.00  0.00     0.014 A 
ATOM     39  C   UNL A   1      40.727  25.708  28.398  1.00  0.00     0.014 A 
ATOM     40  C   UNL A   1      41.955  28.216  28.326  1.00  0.00     0.010 A 
ATOM     41  C   UNL A   1      40.479  26.628  29.409  1.00  0.00     0.010 A 
ATOM     42  C   UNL A   1      41.102  27.884  29.392  1.00  0.00    -0.014 A 
BRANCH  42  43
ATOM     43  C   UNL A   1      40.888  28.814  30.527  1.00  0.00     0.031 A 
ATOM     44  C   UNL A   1      41.741  28.683  31.760  1.00  0.00     0.074 A 
ATOM     45  C   UNL A   1      39.896  29.724  30.476  1.00  0.00     0.049 A 
ATOM     46  N   UNL A   1      41.670  29.338  32.889  1.00  0.00    -0.248 NA
ATOM     47  C   UNL A   1      42.794  27.653  31.732  1.00  0.00     0.031 C 
ATOM     48  C   UNL A   1      38.968  29.906  29.356  1.00  0.00     0.029 A 
ATOM     49  N   UNL A   1      39.496  30.664  31.392  1.00  0.00    -0.354 N 
ATOM     50  C   UNL A   1      42.648  28.786  33.708  1.00  0.00     0.074 A 
ATOM     51  C   UNL A   1      43.255  27.700  32.972  1.00  0.00     0.031 C 
ATOM     52  C   UNL A   1      38.125  30.912  29.642  1.00  0.00     0.029 A 
ATOM     53  C   UNL A   1      38.430  31.426  30.974  1.00  0.00     0.049 A 
ATOM     54  H   UNL A   1      39.931  30.781  32.267  1.00  0.00     0.167 HD
ATOM     55  C   UNL A   1      43.029  29.169  34.950  1.00  0.00     0.037 A 
ATOM     56  C   UNL A   1      37.776  32.425  31.597  1.00  0.00     0.037 A 
ATOM     57  C   UNL A   1      42.446  30.278  35.657  1.00  0.00     0.049 A 
ATOM     58  C   UNL A   1      38.237  32.855  32.965  1.00  0.00     0.074 A 
ATOM     59  C   UNL A   1      42.791  30.787  36.896  1.00  0.00     0.029 A 
ATOM     60  N   UNL A   1      41.400  31.056  35.180  1.00  0.00    -0.354 N 
ATOM     61  N   UNL A   1      39.201  32.358  33.704  1.00  0.00    -0.248 NA
ATOM     62  C   UNL A   1      37.533  33.988  33.578  1.00  0.00     0.031 C 
ATOM     63  C   UNL A   1      41.931  31.852  37.184  1.00  0.00     0.029 A 
ATOM     64  C   UNL A   1      41.084  32.038  36.102  1.00  0.00     0.049 A 
ATOM     65  H   UNL A   1      40.950  30.928  34.314  1.00  0.00     0.167 HD
ATOM     66  C   UNL A   1      39.245  33.143  34.851  1.00  0.00     0.074 A 
ATOM     67  C   UNL A   1      38.213  34.150  34.705  1.00  0.00     0.031 C 
ATOM     68  C   UNL A   1      40.066  33.044  35.926  1.00  0.00     0.037 A 
BRANCH  55  69
ATOM     69  C   UNL A   1      44.133  28.391  35.610  1.00  0.00     0.058 A 
ATOM     70  C   UNL A   1      43.867  27.265  36.407  1.00  0.00     0.135 A 
ATOM     71  C   UNL A   1      45.476  28.762  35.434  1.00  0.00     0.135 A 
ATOM     72  F   UNL A   1      42.601  26.875  36.626  1.00  0.00    -0.206 F 
ATOM     73  C   UNL A   1      44.888  26.556  37.031  1.00  0.00     0.059 A 
ATOM     74  C   UNL A   1      46.515  28.050  36.024  1.00  0.00     0.059 A 
ATOM     75  F   UNL A   1      45.789  29.832  34.685  1.00  0.00    -0.206 F 
ATOM     76  C   UNL A   1      46.210  26.957  36.835  1.00  0.00     0.060 A 
BRANCH  76  77
ATOM     77  S   UNL A   1      47.523  26.027  37.651  1.00  0.00     0.124 S 
ATOM     78  O   UNL A   1      48.495  27.079  37.929  1.00  0.00    -0.237 OA
ATOM     79  O   UNL A   1      46.837  25.474  38.815  1.00  0.00    -0.237 OA
ATOM     80  O   UNL A   1      47.925  25.051  36.643  1.00  0.00    -0.744 OA
ENDBRANCH  76  77
ENDBRANCH  55  69
BRANCH  56  81
ATOM     81  C   UNL A   1      36.646  33.116  30.919  1.00  0.00     0.058 A 
ATOM     82  C   UNL A   1      36.874  33.970  29.829  1.00  0.00     0.135 A 
ATOM     83  C   UNL A   1      35.320  32.933  31.338  1.00  0.00     0.135 A 
ATOM     84  F   UNL A   1      38.125  34.180  29.392  1.00  0.00    -0.206 F 
ATOM     85  C   UNL A   1      35.832  34.637  29.194  1.00  0.00     0.059 A 
ATOM     86  C   UNL A   1      34.257  33.569  30.702  1.00  0.00     0.059 A 
ATOM     87  F   UNL A   1      35.046  32.112  32.363  1.00  0.00    -0.206 F 
ATOM     88  C   UNL A   1      34.525  34.429  29.637  1.00  0.00     0.060 A 
BRANCH  88  89
ATOM     89  S   UNL A   1      33.175  35.270  28.781  1.00  0.00     0.124 S 
ATOM     90  O   UNL A   1      33.898  36.273  28.008  1.00  0.00    -0.237 OA
ATOM     91  O   UNL A   1      32.575  34.182  28.014  1.00  0.00    -0.237 OA
ATOM     92  O   UNL A   1      32.354  35.783  29.873  1.00  0.00    -0.744 OA
ENDBRANCH  88  89
ENDBRANCH  56  81
BRANCH  68  93
ATOM     93  C   UNL A   1      39.924  34.083  37.004  1.00  0.00     0.058 A 
ATOM     94  C   UNL A   1      40.470  35.368  36.871  1.00  0.00     0.135 A 
ATOM     95  C   UNL A   1      39.184  33.798  38.163  1.00  0.00     0.135 A 
ATOM     96  F   UNL A   1      41.189  35.690  35.784  1.00  0.00    -0.206 F 
ATOM     97  C   UNL A   1      40.310  36.329  37.865  1.00  0.00     0.059 A 
ATOM     98  C   UNL A   1      38.987  34.752  39.155  1.00  0.00     0.059 A 
ATOM     99  F   UNL A   1      38.630  32.587  38.332  1.00  0.00    -0.206 F 
ATOM    100  C   UNL A   1      39.566  36.010  39.003  1.00  0.00     0.060 A 
BRANCH 100 101
ATOM    101  S   UNL A   1      39.341  37.275  40.272  1.00  0.00     0.124 S 
ATOM    102  O   UNL A   1      40.715  37.508  40.701  1.00  0.00    -0.237 OA
ATOM    103  O   UNL A   1      38.716  38.361  39.524  1.00  0.00    -0.237 OA
ATOM    104  O   UNL A   1      38.479  36.621  41.252  1.00  0.00    -0.744 OA
ENDBRANCH 100 101
ENDBRANCH  68  93
ENDBRANCH  42  43
ENDBRANCH  34  37
ENDBRANCH  32  33
ENDBRANCH  31  32
ENDBRANCH  30  31
ENDBRANCH  29  30
ENDBRANCH   3  29
TORSDOF 21
ENDMDL
