MODEL 1
REMARK VINA RESULT:     -11.9      0.000      0.000
REMARK SMILES O=C(NCCCCNC(=O)[C@H]1CCC(=O)N(C2CCCCC2)[C@H]1c1ccccc1)c1ccc(-c2c3nc(c(-c4c(F)cc(S(=O)(=O)[O-])cc4F)c4ccc([nH]4)c(-c4c(F)cc(S(=O)(=O)[O-])cc4F)c4nc(c(-c5c(F)cc(S(=O)(=O)[O-])cc5F)c5ccc2[nH]5)C=C4)C=C3)cc1
REMARK SMILES IDX 4 1 3 2 1 3 2 4 30 6 31 7 95 8 32 9 94 10 33 11 34 12 35 13
REMARK SMILES IDX 88 14 36 15 93 16 87 17 89 18 37 19 92 20 86 21 85 22 38 24
REMARK SMILES IDX 72 25 51 26 71 27 52 28 55 29 70 30 90 31 53 32 54 33 69 35
REMARK SMILES IDX 91 36 56 37 39 38 40 39 49 40 41 41 42 42 48 43 50 44 43 45
REMARK SMILES IDX 44 46 45 47 46 48 47 49 73 50 74 51 83 52 75 53 76 54 82 55
REMARK SMILES IDX 84 56 77 57 78 58 79 59 80 60 81 61 57 62 58 63 67 64 59 65
REMARK SMILES IDX 60 66 66 67 68 68 61 69 62 70 63 71 64 72 65 73 5 74 6 75
REMARK SMILES IDX 7 76 8 77 9 78 10 80 11 81 12 82 23 83 13 84 16 85 14 86
REMARK SMILES IDX 15 87 24 88 25 89 29 90 26 91 28 92 27 93 17 94 18 95 22 96
REMARK SMILES IDX 19 97 21 98 20 99
REMARK H PARENT 3 5 89 23 55 34 8 79
REMARK Flexibility Score: inf
ROOT
ATOM      1  C   UNL A   1      34.098  27.858  26.541  1.00  0.00     0.116 C 
ENDROOT
BRANCH   1   2
ATOM      2  N   UNL A   1      33.569  29.161  26.924  1.00  0.00    -0.352 N 
ATOM      3  O   UNL A   1      33.561  31.148  27.998  1.00  0.00    -0.269 OA
ATOM      4  C   UNL A   1      34.187  30.154  27.643  1.00  0.00     0.251 C 
ATOM      5  H   UNL A   1      32.650  29.355  26.629  1.00  0.00     0.163 HD
BRANCH   4   6
ATOM      6  C   UNL A   1      35.604  29.978  28.002  1.00  0.00     0.039 A 
ATOM      7  C   UNL A   1      36.583  30.084  27.011  1.00  0.00     0.014 A 
ATOM      8  C   UNL A   1      35.940  29.628  29.309  1.00  0.00     0.014 A 
ATOM      9  C   UNL A   1      37.876  29.675  27.286  1.00  0.00     0.010 A 
ATOM     10  C   UNL A   1      37.265  29.325  29.610  1.00  0.00     0.010 A 
ATOM     11  C   UNL A   1      38.233  29.318  28.593  1.00  0.00    -0.014 A 
BRANCH  11  12
ATOM     12  C   UNL A   1      39.650  29.020  28.895  1.00  0.00     0.031 A 
ATOM     13  C   UNL A   1      40.548  30.065  29.483  1.00  0.00     0.074 A 
ATOM     14  C   UNL A   1      40.106  27.784  28.619  1.00  0.00     0.049 A 
ATOM     15  N   UNL A   1      41.830  30.000  29.726  1.00  0.00    -0.248 NA
ATOM     16  C   UNL A   1      39.932  31.353  29.837  1.00  0.00     0.031 C 
ATOM     17  C   UNL A   1      39.301  26.697  28.051  1.00  0.00     0.029 A 
ATOM     18  N   UNL A   1      41.347  27.229  28.776  1.00  0.00    -0.354 N 
ATOM     19  C   UNL A   1      42.186  31.246  30.227  1.00  0.00     0.074 A 
ATOM     20  C   UNL A   1      40.983  32.052  30.246  1.00  0.00     0.031 C 
ATOM     21  C   UNL A   1      40.061  25.601  27.934  1.00  0.00     0.029 A 
ATOM     22  C   UNL A   1      41.420  25.929  28.341  1.00  0.00     0.049 A 
ATOM     23  H   UNL A   1      42.111  27.715  29.163  1.00  0.00     0.167 HD
ATOM     24  C   UNL A   1      43.408  31.671  30.626  1.00  0.00     0.037 A 
ATOM     25  C   UNL A   1      42.475  25.101  28.242  1.00  0.00     0.037 A 
ATOM     26  C   UNL A   1      44.587  30.843  30.608  1.00  0.00     0.049 A 
ATOM     27  C   UNL A   1      43.819  25.598  28.676  1.00  0.00     0.074 A 
ATOM     28  C   UNL A   1      45.873  31.162  31.008  1.00  0.00     0.029 A 
ATOM     29  N   UNL A   1      44.623  29.527  30.161  1.00  0.00    -0.354 N 
ATOM     30  N   UNL A   1      44.141  26.779  29.148  1.00  0.00    -0.248 NA
ATOM     31  C   UNL A   1      44.941  24.661  28.562  1.00  0.00     0.031 C 
ATOM     32  C   UNL A   1      46.692  30.053  30.769  1.00  0.00     0.029 A 
ATOM     33  C   UNL A   1      45.910  29.027  30.262  1.00  0.00     0.049 A 
ATOM     34  H   UNL A   1      43.847  29.026  29.821  1.00  0.00     0.167 HD
ATOM     35  C   UNL A   1      45.504  26.725  29.405  1.00  0.00     0.074 A 
ATOM     36  C   UNL A   1      45.941  25.390  29.042  1.00  0.00     0.031 C 
ATOM     37  C   UNL A   1      46.317  27.690  29.898  1.00  0.00     0.037 A 
BRANCH  24  38
ATOM     38  C   UNL A   1      43.534  33.101  31.077  1.00  0.00     0.058 A 
ATOM     39  C   UNL A   1      43.741  34.151  30.170  1.00  0.00     0.135 A 
ATOM     40  C   UNL A   1      43.442  33.424  32.441  1.00  0.00     0.135 A 
ATOM     41  F   UNL A   1      43.852  33.898  28.855  1.00  0.00    -0.206 F 
ATOM     42  C   UNL A   1      43.892  35.467  30.600  1.00  0.00     0.059 A 
ATOM     43  C   UNL A   1      43.567  34.735  32.892  1.00  0.00     0.059 A 
ATOM     44  F   UNL A   1      43.244  32.460  33.352  1.00  0.00    -0.206 F 
ATOM     45  C   UNL A   1      43.813  35.747  31.965  1.00  0.00     0.060 A 
BRANCH  45  46
ATOM     46  S   UNL A   1      44.047  37.452  32.516  1.00  0.00     0.124 S 
ATOM     47  O   UNL A   1      45.411  37.402  33.035  1.00  0.00    -0.237 OA
ATOM     48  O   UNL A   1      43.868  38.208  31.281  1.00  0.00    -0.237 OA
ATOM     49  O   UNL A   1      43.000  37.632  33.516  1.00  0.00    -0.744 OA
ENDBRANCH  45  46
ENDBRANCH  24  38
BRANCH  25  50
ATOM     50  C   UNL A   1      42.270  23.737  27.696  1.00  0.00     0.058 A 
ATOM     51  C   UNL A   1      42.231  23.513  26.314  1.00  0.00     0.135 A 
ATOM     52  C   UNL A   1      42.211  22.620  28.546  1.00  0.00     0.135 A 
ATOM     53  F   UNL A   1      42.288  24.550  25.464  1.00  0.00    -0.206 F 
ATOM     54  C   UNL A   1      42.150  22.227  25.789  1.00  0.00     0.059 A 
ATOM     55  C   UNL A   1      42.154  21.324  28.045  1.00  0.00     0.059 A 
ATOM     56  F   UNL A   1      42.271  22.784  29.876  1.00  0.00    -0.206 F 
ATOM     57  C   UNL A   1      42.122  21.138  26.664  1.00  0.00     0.060 A 
BRANCH  57  58
ATOM     58  S   UNL A   1      42.116  19.470  25.971  1.00  0.00     0.124 S 
ATOM     59  O   UNL A   1      43.017  19.623  24.836  1.00  0.00    -0.237 OA
ATOM     60  O   UNL A   1      42.620  18.673  27.086  1.00  0.00    -0.237 OA
ATOM     61  O   UNL A   1      40.711  19.252  25.641  1.00  0.00    -0.744 OA
ENDBRANCH  57  58
ENDBRANCH  25  50
BRANCH  37  62
ATOM     62  C   UNL A   1      47.756  27.326  30.108  1.00  0.00     0.058 A 
ATOM     63  C   UNL A   1      48.733  27.601  29.141  1.00  0.00     0.135 A 
ATOM     64  C   UNL A   1      48.168  26.752  31.322  1.00  0.00     0.135 A 
ATOM     65  F   UNL A   1      48.384  28.137  27.961  1.00  0.00    -0.206 F 
ATOM     66  C   UNL A   1      50.074  27.310  29.366  1.00  0.00     0.059 A 
ATOM     67  C   UNL A   1      49.506  26.473  31.575  1.00  0.00     0.059 A 
ATOM     68  F   UNL A   1      47.269  26.476  32.279  1.00  0.00    -0.206 F 
ATOM     69  C   UNL A   1      50.451  26.750  30.588  1.00  0.00     0.060 A 
BRANCH  69  70
ATOM     70  S   UNL A   1      52.201  26.428  30.891  1.00  0.00     0.124 S 
ATOM     71  O   UNL A   1      52.719  26.320  29.531  1.00  0.00    -0.237 OA
ATOM     72  O   UNL A   1      52.614  27.613  31.635  1.00  0.00    -0.237 OA
ATOM     73  O   UNL A   1      52.188  25.187  31.659  1.00  0.00    -0.744 OA
ENDBRANCH  69  70
ENDBRANCH  37  62
ENDBRANCH  11  12
ENDBRANCH   4   6
ENDBRANCH   1   2
BRANCH   1  74
ATOM     74  C   UNL A   1      34.127  27.648  25.046  1.00  0.00     0.023 C 
BRANCH  74  75
ATOM     75  C   UNL A   1      32.832  27.101  24.481  1.00  0.00     0.023 C 
BRANCH  75  76
ATOM     76  C   UNL A   1      32.935  26.314  23.165  1.00  0.00     0.116 C 
BRANCH  76  77
ATOM     77  N   UNL A   1      31.814  25.416  22.920  1.00  0.00    -0.356 N 
ATOM     78  C   UNL A   1      31.361  24.329  23.619  1.00  0.00     0.225 C 
ATOM     79  H   UNL A   1      31.291  25.627  22.113  1.00  0.00     0.163 HD
ATOM     80  O   UNL A   1      30.296  23.826  23.254  1.00  0.00    -0.275 OA
BRANCH  78  81
ATOM     81  C   UNL A   1      32.129  23.781  24.821  1.00  0.00     0.106 C 
ATOM     82  C   UNL A   1      31.238  23.319  25.971  1.00  0.00     0.026 C 
ATOM     83  C   UNL A   1      33.074  22.618  24.523  1.00  0.00     0.128 C 
ATOM     84  C   UNL A   1      32.057  22.824  27.166  1.00  0.00     0.101 C 
ATOM     85  N   UNL A   1      34.002  22.447  25.650  1.00  0.00    -0.332 N 
ATOM     86  C   UNL A   1      33.523  22.444  26.947  1.00  0.00     0.223 C 
ATOM     87  O   UNL A   1      34.243  22.216  27.920  1.00  0.00    -0.275 OA
BRANCH  83  88
ATOM     88  C   UNL A   1      32.534  21.310  23.919  1.00  0.00    -0.025 A 
ATOM     89  C   UNL A   1      32.597  20.100  24.627  1.00  0.00     0.006 A 
ATOM     90  C   UNL A   1      32.176  21.216  22.558  1.00  0.00     0.006 A 
ATOM     91  C   UNL A   1      32.430  18.863  23.992  1.00  0.00     0.000 A 
ATOM     92  C   UNL A   1      31.997  19.983  21.919  1.00  0.00     0.000 A 
ATOM     93  C   UNL A   1      32.153  18.805  22.632  1.00  0.00     0.000 A 
ENDBRANCH  83  88
BRANCH  85  94
ATOM     94  C   UNL A   1      35.457  22.489  25.344  1.00  0.00     0.085 C 
ATOM     95  C   UNL A   1      36.172  23.606  26.124  1.00  0.00     0.025 C 
ATOM     96  C   UNL A   1      36.204  21.157  25.474  1.00  0.00     0.025 C 
ATOM     97  C   UNL A   1      37.631  23.745  25.690  1.00  0.00     0.002 C 
ATOM     98  C   UNL A   1      37.652  21.313  25.002  1.00  0.00     0.002 C 
ATOM     99  C   UNL A   1      38.377  22.415  25.768  1.00  0.00     0.000 C 
ENDBRANCH  85  94
ENDBRANCH  78  81
ENDBRANCH  76  77
ENDBRANCH  75  76
ENDBRANCH  74  75
ENDBRANCH   1  74
TORSDOF 16
ENDMDL
MODEL 2
REMARK VINA RESULT:     -11.8      1.086      2.551
REMARK SMILES O=C(NCCCCNC(=O)[C@H]1CCC(=O)N(C2CCCCC2)[C@H]1c1ccccc1)c1ccc(-c2c3nc(c(-c4c(F)cc(S(=O)(=O)[O-])cc4F)c4ccc([nH]4)c(-c4c(F)cc(S(=O)(=O)[O-])cc4F)c4nc(c(-c5c(F)cc(S(=O)(=O)[O-])cc5F)c5ccc2[nH]5)C=C4)C=C3)cc1
REMARK SMILES IDX 4 1 3 2 1 3 2 4 30 6 31 7 95 8 32 9 94 10 33 11 34 12 35 13
REMARK SMILES IDX 88 14 36 15 93 16 87 17 89 18 37 19 92 20 86 21 85 22 38 24
REMARK SMILES IDX 72 25 51 26 71 27 52 28 55 29 70 30 90 31 53 32 54 33 69 35
REMARK SMILES IDX 91 36 56 37 39 38 40 39 49 40 41 41 42 42 48 43 50 44 43 45
REMARK SMILES IDX 44 46 45 47 46 48 47 49 73 50 74 51 83 52 75 53 76 54 82 55
REMARK SMILES IDX 84 56 77 57 78 58 79 59 80 60 81 61 57 62 58 63 67 64 59 65
REMARK SMILES IDX 60 66 66 67 68 68 61 69 62 70 63 71 64 72 65 73 5 74 6 75
REMARK SMILES IDX 7 76 8 77 9 78 10 80 11 81 12 82 23 83 13 84 16 85 14 86
REMARK SMILES IDX 15 87 24 88 25 89 29 90 26 91 28 92 27 93 17 94 18 95 22 96
REMARK SMILES IDX 19 97 21 98 20 99
REMARK H PARENT 3 5 89 23 55 34 8 79
REMARK Flexibility Score: inf
ROOT
ATOM      1  C   UNL A   1      34.200  27.867  26.653  1.00  0.00     0.116 C 
ENDROOT
BRANCH   1   2
ATOM      2  N   UNL A   1      33.681  29.184  27.000  1.00  0.00    -0.352 N 
ATOM      3  O   UNL A   1      33.683  31.196  28.027  1.00  0.00    -0.269 OA
ATOM      4  C   UNL A   1      34.302  30.187  27.702  1.00  0.00     0.251 C 
ATOM      5  H   UNL A   1      32.767  29.381  26.691  1.00  0.00     0.163 HD
BRANCH   4   6
ATOM      6  C   UNL A   1      35.713  30.005  28.079  1.00  0.00     0.039 A 
ATOM      7  C   UNL A   1      36.712  30.191  27.120  1.00  0.00     0.014 A 
ATOM      8  C   UNL A   1      36.026  29.570  29.367  1.00  0.00     0.014 A 
ATOM      9  C   UNL A   1      38.004  29.779  27.395  1.00  0.00     0.010 A 
ATOM     10  C   UNL A   1      37.349  29.263  29.676  1.00  0.00     0.010 A 
ATOM     11  C   UNL A   1      38.339  29.337  28.682  1.00  0.00    -0.014 A 
BRANCH  11  12
ATOM     12  C   UNL A   1      39.752  29.037  28.995  1.00  0.00     0.031 A 
ATOM     13  C   UNL A   1      40.640  30.071  29.616  1.00  0.00     0.074 A 
ATOM     14  C   UNL A   1      40.215  27.808  28.698  1.00  0.00     0.049 A 
ATOM     15  N   UNL A   1      41.920  30.005  29.873  1.00  0.00    -0.248 NA
ATOM     16  C   UNL A   1      40.016  31.350  29.991  1.00  0.00     0.031 C 
ATOM     17  C   UNL A   1      39.421  26.733  28.096  1.00  0.00     0.029 A 
ATOM     18  N   UNL A   1      41.456  27.254  28.858  1.00  0.00    -0.354 N 
ATOM     19  C   UNL A   1      42.265  31.241  30.405  1.00  0.00     0.074 A 
ATOM     20  C   UNL A   1      41.060  32.043  30.427  1.00  0.00     0.031 C 
ATOM     21  C   UNL A   1      40.186  25.641  27.965  1.00  0.00     0.029 A 
ATOM     22  C   UNL A   1      41.539  25.964  28.395  1.00  0.00     0.049 A 
ATOM     23  H   UNL A   1      42.214  27.734  29.264  1.00  0.00     0.167 HD
ATOM     24  C   UNL A   1      43.482  31.661  30.828  1.00  0.00     0.037 A 
ATOM     25  C   UNL A   1      42.597  25.141  28.291  1.00  0.00     0.037 A 
ATOM     26  C   UNL A   1      44.663  30.837  30.806  1.00  0.00     0.049 A 
ATOM     27  C   UNL A   1      43.934  25.633  28.752  1.00  0.00     0.074 A 
ATOM     28  C   UNL A   1      45.943  31.150  31.228  1.00  0.00     0.029 A 
ATOM     29  N   UNL A   1      44.709  29.531  30.331  1.00  0.00    -0.354 N 
ATOM     30  N   UNL A   1      44.247  26.804  29.254  1.00  0.00    -0.248 NA
ATOM     31  C   UNL A   1      45.060  24.702  28.632  1.00  0.00     0.031 C 
ATOM     32  C   UNL A   1      46.768  30.049  30.975  1.00  0.00     0.029 A 
ATOM     33  C   UNL A   1      45.996  29.032  30.436  1.00  0.00     0.049 A 
ATOM     34  H   UNL A   1      43.938  29.035  29.971  1.00  0.00     0.167 HD
ATOM     35  C   UNL A   1      45.606  26.748  29.525  1.00  0.00     0.074 A 
ATOM     36  C   UNL A   1      46.052  25.422  29.139  1.00  0.00     0.031 C 
ATOM     37  C   UNL A   1      46.411  27.704  30.049  1.00  0.00     0.037 A 
BRANCH  24  38
ATOM     38  C   UNL A   1      43.598  33.081  31.311  1.00  0.00     0.058 A 
ATOM     39  C   UNL A   1      43.829  34.149  30.431  1.00  0.00     0.135 A 
ATOM     40  C   UNL A   1      43.471  33.376  32.679  1.00  0.00     0.135 A 
ATOM     41  F   UNL A   1      43.973  33.923  29.115  1.00  0.00    -0.206 F 
ATOM     42  C   UNL A   1      43.971  35.455  30.892  1.00  0.00     0.059 A 
ATOM     43  C   UNL A   1      43.586  34.678  33.160  1.00  0.00     0.059 A 
ATOM     44  F   UNL A   1      43.248  32.394  33.564  1.00  0.00    -0.206 F 
ATOM     45  C   UNL A   1      43.857  35.708  32.260  1.00  0.00     0.060 A 
BRANCH  45  46
ATOM     46  S   UNL A   1      44.079  37.400  32.852  1.00  0.00     0.124 S 
ATOM     47  O   UNL A   1      43.000  37.507  33.829  1.00  0.00    -0.237 OA
ATOM     48  O   UNL A   1      45.430  37.367  33.402  1.00  0.00    -0.237 OA
ATOM     49  O   UNL A   1      43.916  38.205  31.646  1.00  0.00    -0.744 OA
ENDBRANCH  45  46
ENDBRANCH  24  38
BRANCH  25  50
ATOM     50  C   UNL A   1      42.402  23.788  27.713  1.00  0.00     0.058 A 
ATOM     51  C   UNL A   1      42.393  23.593  26.327  1.00  0.00     0.135 A 
ATOM     52  C   UNL A   1      42.324  22.654  28.539  1.00  0.00     0.135 A 
ATOM     53  F   UNL A   1      42.469  24.647  25.499  1.00  0.00    -0.206 F 
ATOM     54  C   UNL A   1      42.322  22.318  25.774  1.00  0.00     0.059 A 
ATOM     55  C   UNL A   1      42.277  21.370  28.011  1.00  0.00     0.059 A 
ATOM     56  F   UNL A   1      42.356  22.792  29.873  1.00  0.00    -0.206 F 
ATOM     57  C   UNL A   1      42.275  21.212  26.626  1.00  0.00     0.060 A 
BRANCH  57  58
ATOM     58  S   UNL A   1      42.282  19.558  25.900  1.00  0.00     0.124 S 
ATOM     59  O   UNL A   1      43.313  19.693  24.877  1.00  0.00    -0.237 OA
ATOM     60  O   UNL A   1      42.623  18.721  27.046  1.00  0.00    -0.237 OA
ATOM     61  O   UNL A   1      40.917  19.404  25.407  1.00  0.00    -0.744 OA
ENDBRANCH  57  58
ENDBRANCH  25  50
BRANCH  37  62
ATOM     62  C   UNL A   1      47.849  27.340  30.268  1.00  0.00     0.058 A 
ATOM     63  C   UNL A   1      48.828  27.595  29.298  1.00  0.00     0.135 A 
ATOM     64  C   UNL A   1      48.256  26.786  31.493  1.00  0.00     0.135 A 
ATOM     65  F   UNL A   1      48.483  28.112  28.108  1.00  0.00    -0.206 F 
ATOM     66  C   UNL A   1      50.168  27.304  29.531  1.00  0.00     0.059 A 
ATOM     67  C   UNL A   1      49.593  26.507  31.754  1.00  0.00     0.059 A 
ATOM     68  F   UNL A   1      47.354  26.529  32.453  1.00  0.00    -0.206 F 
ATOM     69  C   UNL A   1      50.541  26.765  30.764  1.00  0.00     0.060 A 
BRANCH  69  70
ATOM     70  S   UNL A   1      52.289  26.443  31.076  1.00  0.00     0.124 S 
ATOM     71  O   UNL A   1      52.226  25.215  31.861  1.00  0.00    -0.237 OA
ATOM     72  O   UNL A   1      52.828  26.307  29.727  1.00  0.00    -0.237 OA
ATOM     73  O   UNL A   1      52.727  27.632  31.802  1.00  0.00    -0.744 OA
ENDBRANCH  69  70
ENDBRANCH  37  62
ENDBRANCH  11  12
ENDBRANCH   4   6
ENDBRANCH   1   2
BRANCH   1  74
ATOM     74  C   UNL A   1      33.659  27.345  25.342  1.00  0.00     0.023 C 
BRANCH  74  75
ATOM     75  C   UNL A   1      33.627  25.834  25.252  1.00  0.00     0.023 C 
BRANCH  75  76
ATOM     76  C   UNL A   1      32.267  25.159  25.489  1.00  0.00     0.116 C 
BRANCH  76  77
ATOM     77  N   UNL A   1      32.209  24.343  26.693  1.00  0.00    -0.356 N 
ATOM     78  C   UNL A   1      32.231  22.984  26.863  1.00  0.00     0.225 C 
ATOM     79  H   UNL A   1      32.144  24.856  27.531  1.00  0.00     0.163 HD
ATOM     80  O   UNL A   1      32.304  22.559  28.018  1.00  0.00    -0.275 OA
BRANCH  78  81
ATOM     81  C   UNL A   1      32.196  22.034  25.667  1.00  0.00     0.106 C 
ATOM     82  C   UNL A   1      31.891  22.717  24.337  1.00  0.00     0.026 C 
ATOM     83  C   UNL A   1      33.466  21.215  25.440  1.00  0.00     0.128 C 
ATOM     84  C   UNL A   1      31.820  21.715  23.181  1.00  0.00     0.101 C 
ATOM     85  N   UNL A   1      33.169  20.104  24.525  1.00  0.00    -0.332 N 
ATOM     86  C   UNL A   1      32.453  20.334  23.365  1.00  0.00     0.223 C 
ATOM     87  O   UNL A   1      32.254  19.458  22.523  1.00  0.00    -0.275 OA
BRANCH  83  88
ATOM     88  C   UNL A   1      34.813  21.917  25.197  1.00  0.00    -0.025 A 
ATOM     89  C   UNL A   1      35.445  22.652  26.212  1.00  0.00     0.006 A 
ATOM     90  C   UNL A   1      35.353  22.055  23.901  1.00  0.00     0.006 A 
ATOM     91  C   UNL A   1      36.474  23.560  25.934  1.00  0.00     0.000 A 
ATOM     92  C   UNL A   1      36.389  22.953  23.619  1.00  0.00     0.000 A 
ATOM     93  C   UNL A   1      36.930  23.727  24.632  1.00  0.00     0.000 A 
ENDBRANCH  83  88
BRANCH  85  94
ATOM     94  C   UNL A   1      33.484  18.730  25.000  1.00  0.00     0.085 C 
ATOM     95  C   UNL A   1      32.225  17.849  25.076  1.00  0.00     0.025 C 
ATOM     96  C   UNL A   1      34.618  18.012  24.259  1.00  0.00     0.025 C 
ATOM     97  C   UNL A   1      32.529  16.492  25.710  1.00  0.00     0.002 C 
ATOM     98  C   UNL A   1      34.927  16.672  24.932  1.00  0.00     0.002 C 
ATOM     99  C   UNL A   1      33.689  15.785  25.013  1.00  0.00     0.000 C 
ENDBRANCH  85  94
ENDBRANCH  78  81
ENDBRANCH  76  77
ENDBRANCH  75  76
ENDBRANCH  74  75
ENDBRANCH   1  74
TORSDOF 16
ENDMDL
MODEL 3
REMARK VINA RESULT:     -11.8      3.053      9.292
REMARK SMILES O=C(NCCCCNC(=O)[C@H]1CCC(=O)N(C2CCCCC2)[C@H]1c1ccccc1)c1ccc(-c2c3nc(c(-c4c(F)cc(S(=O)(=O)[O-])cc4F)c4ccc([nH]4)c(-c4c(F)cc(S(=O)(=O)[O-])cc4F)c4nc(c(-c5c(F)cc(S(=O)(=O)[O-])cc5F)c5ccc2[nH]5)C=C4)C=C3)cc1
REMARK SMILES IDX 4 1 3 2 1 3 2 4 30 6 31 7 95 8 32 9 94 10 33 11 34 12 35 13
REMARK SMILES IDX 88 14 36 15 93 16 87 17 89 18 37 19 92 20 86 21 85 22 38 24
REMARK SMILES IDX 72 25 51 26 71 27 52 28 55 29 70 30 90 31 53 32 54 33 69 35
REMARK SMILES IDX 91 36 56 37 39 38 40 39 49 40 41 41 42 42 48 43 50 44 43 45
REMARK SMILES IDX 44 46 45 47 46 48 47 49 73 50 74 51 83 52 75 53 76 54 82 55
REMARK SMILES IDX 84 56 77 57 78 58 79 59 80 60 81 61 57 62 58 63 67 64 59 65
REMARK SMILES IDX 60 66 66 67 68 68 61 69 62 70 63 71 64 72 65 73 5 74 6 75
REMARK SMILES IDX 7 76 8 77 9 78 10 80 11 81 12 82 23 83 13 84 16 85 14 86
REMARK SMILES IDX 15 87 24 88 25 89 29 90 26 91 28 92 27 93 17 94 18 95 22 96
REMARK SMILES IDX 19 97 21 98 20 99
REMARK H PARENT 3 5 89 23 55 34 8 79
REMARK Flexibility Score: inf
ROOT
ATOM      1  C   UNL A   1      36.385  24.358  25.776  1.00  0.00     0.116 C 
ENDROOT
BRANCH   1   2
ATOM      2  N   UNL A   1      37.283  23.218  25.638  1.00  0.00    -0.352 N 
ATOM      3  O   UNL A   1      39.255  22.123  25.741  1.00  0.00    -0.269 OA
ATOM      4  C   UNL A   1      38.588  23.106  26.048  1.00  0.00     0.251 C 
ATOM      5  H   UNL A   1      36.904  22.425  25.193  1.00  0.00     0.163 HD
BRANCH   4   6
ATOM      6  C   UNL A   1      39.170  24.208  26.831  1.00  0.00     0.039 A 
ATOM      7  C   UNL A   1      38.845  24.337  28.184  1.00  0.00     0.014 A 
ATOM      8  C   UNL A   1      39.973  25.152  26.193  1.00  0.00     0.014 A 
ATOM      9  C   UNL A   1      39.180  25.499  28.857  1.00  0.00     0.010 A 
ATOM     10  C   UNL A   1      40.405  26.267  26.906  1.00  0.00     0.010 A 
ATOM     11  C   UNL A   1      39.985  26.461  28.232  1.00  0.00    -0.014 A 
BRANCH  11  12
ATOM     12  C   UNL A   1      40.450  27.627  29.013  1.00  0.00     0.031 A 
ATOM     13  C   UNL A   1      41.789  27.619  29.686  1.00  0.00     0.074 A 
ATOM     14  C   UNL A   1      39.630  28.691  29.104  1.00  0.00     0.049 A 
ATOM     15  N   UNL A   1      42.312  28.517  30.478  1.00  0.00    -0.248 NA
ATOM     16  C   UNL A   1      42.650  26.451  29.447  1.00  0.00     0.031 C 
ATOM     17  C   UNL A   1      38.309  28.791  28.476  1.00  0.00     0.029 A 
ATOM     18  N   UNL A   1      39.780  29.885  29.754  1.00  0.00    -0.354 N 
ATOM     19  C   UNL A   1      43.547  28.009  30.864  1.00  0.00     0.074 A 
ATOM     20  C   UNL A   1      43.691  26.719  30.224  1.00  0.00     0.031 C 
ATOM     21  C   UNL A   1      37.782  29.992  28.748  1.00  0.00     0.029 A 
ATOM     22  C   UNL A   1      38.688  30.710  29.632  1.00  0.00     0.049 A 
ATOM     23  H   UNL A   1      40.589  30.129  30.260  1.00  0.00     0.167 HD
ATOM     24  C   UNL A   1      44.466  28.574  31.684  1.00  0.00     0.037 A 
ATOM     25  C   UNL A   1      38.427  31.900  30.202  1.00  0.00     0.037 A 
ATOM     26  C   UNL A   1      44.301  29.866  32.299  1.00  0.00     0.049 A 
ATOM     27  C   UNL A   1      39.452  32.498  31.115  1.00  0.00     0.074 A 
ATOM     28  C   UNL A   1      45.174  30.545  33.129  1.00  0.00     0.029 A 
ATOM     29  N   UNL A   1      43.181  30.676  32.150  1.00  0.00    -0.354 N 
ATOM     30  N   UNL A   1      40.616  32.007  31.471  1.00  0.00    -0.248 NA
ATOM     31  C   UNL A   1      39.133  33.800  31.707  1.00  0.00     0.031 C 
ATOM     32  C   UNL A   1      44.568  31.747  33.512  1.00  0.00     0.029 A 
ATOM     33  C   UNL A   1      43.335  31.840  32.885  1.00  0.00     0.049 A 
ATOM     34  H   UNL A   1      42.393  30.453  31.604  1.00  0.00     0.167 HD
ATOM     35  C   UNL A   1      41.180  32.950  32.319  1.00  0.00     0.074 A 
ATOM     36  C   UNL A   1      40.230  34.042  32.414  1.00  0.00     0.031 C 
ATOM     37  C   UNL A   1      42.374  32.915  32.957  1.00  0.00     0.037 A 
BRANCH  24  38
ATOM     38  C   UNL A   1      45.707  27.780  31.988  1.00  0.00     0.058 A 
ATOM     39  C   UNL A   1      46.869  27.890  31.208  1.00  0.00     0.135 A 
ATOM     40  C   UNL A   1      45.734  26.898  33.080  1.00  0.00     0.135 A 
ATOM     41  F   UNL A   1      46.895  28.707  30.143  1.00  0.00    -0.206 F 
ATOM     42  C   UNL A   1      48.001  27.124  31.476  1.00  0.00     0.059 A 
ATOM     43  C   UNL A   1      46.862  26.140  33.381  1.00  0.00     0.059 A 
ATOM     44  F   UNL A   1      44.651  26.755  33.860  1.00  0.00    -0.206 F 
ATOM     45  C   UNL A   1      47.984  26.244  32.560  1.00  0.00     0.060 A 
BRANCH  45  46
ATOM     46  S   UNL A   1      49.444  25.229  32.876  1.00  0.00     0.124 S 
ATOM     47  O   UNL A   1      49.846  24.873  31.519  1.00  0.00    -0.237 OA
ATOM     48  O   UNL A   1      50.327  26.158  33.575  1.00  0.00    -0.237 OA
ATOM     49  O   UNL A   1      48.926  24.132  33.686  1.00  0.00    -0.744 OA
ENDBRANCH  45  46
ENDBRANCH  24  38
BRANCH  25  50
ATOM     50  C   UNL A   1      37.132  32.566  29.915  1.00  0.00     0.058 A 
ATOM     51  C   UNL A   1      35.995  32.288  30.683  1.00  0.00     0.135 A 
ATOM     52  C   UNL A   1      37.036  33.566  28.933  1.00  0.00     0.135 A 
ATOM     53  F   UNL A   1      36.042  31.343  31.635  1.00  0.00    -0.206 F 
ATOM     54  C   UNL A   1      34.805  32.985  30.496  1.00  0.00     0.059 A 
ATOM     55  C   UNL A   1      35.866  34.292  28.744  1.00  0.00     0.059 A 
ATOM     56  F   UNL A   1      38.108  33.883  28.191  1.00  0.00    -0.206 F 
ATOM     57  C   UNL A   1      34.755  33.993  29.530  1.00  0.00     0.060 A 
BRANCH  57  58
ATOM     58  S   UNL A   1      33.237  34.958  29.363  1.00  0.00     0.124 S 
ATOM     59  O   UNL A   1      32.699  34.891  30.716  1.00  0.00    -0.237 OA
ATOM     60  O   UNL A   1      33.745  36.259  28.939  1.00  0.00    -0.237 OA
ATOM     61  O   UNL A   1      32.487  34.226  28.346  1.00  0.00    -0.744 OA
ENDBRANCH  57  58
ENDBRANCH  25  50
BRANCH  37  62
ATOM     62  C   UNL A   1      42.738  34.110  33.787  1.00  0.00     0.058 A 
ATOM     63  C   UNL A   1      42.502  34.145  35.168  1.00  0.00     0.135 A 
ATOM     64  C   UNL A   1      43.389  35.206  33.197  1.00  0.00     0.135 A 
ATOM     65  F   UNL A   1      41.871  33.126  35.773  1.00  0.00    -0.206 F 
ATOM     66  C   UNL A   1      42.892  35.234  35.940  1.00  0.00     0.059 A 
ATOM     67  C   UNL A   1      43.806  36.295  33.954  1.00  0.00     0.059 A 
ATOM     68  F   UNL A   1      43.641  35.214  31.879  1.00  0.00    -0.206 F 
ATOM     69  C   UNL A   1      43.547  36.303  35.324  1.00  0.00     0.060 A 
BRANCH  69  70
ATOM     70  S   UNL A   1      44.098  37.686  36.344  1.00  0.00     0.124 S 
ATOM     71  O   UNL A   1      43.964  38.805  35.417  1.00  0.00    -0.237 OA
ATOM     72  O   UNL A   1      43.146  37.659  37.449  1.00  0.00    -0.237 OA
ATOM     73  O   UNL A   1      45.467  37.322  36.696  1.00  0.00    -0.744 OA
ENDBRANCH  69  70
ENDBRANCH  37  62
ENDBRANCH  11  12
ENDBRANCH   4   6
ENDBRANCH   1   2
BRANCH   1  74
ATOM     74  C   UNL A   1      35.017  24.109  25.185  1.00  0.00     0.023 C 
BRANCH  74  75
ATOM     75  C   UNL A   1      34.068  23.392  26.123  1.00  0.00     0.023 C 
BRANCH  75  76
ATOM     76  C   UNL A   1      32.691  24.040  26.336  1.00  0.00     0.116 C 
BRANCH  76  77
ATOM     77  N   UNL A   1      31.703  23.685  25.327  1.00  0.00    -0.356 N 
ATOM     78  C   UNL A   1      31.496  24.165  24.061  1.00  0.00     0.225 C 
ATOM     79  H   UNL A   1      31.077  22.976  25.601  1.00  0.00     0.163 HD
ATOM     80  O   UNL A   1      30.660  23.583  23.366  1.00  0.00    -0.275 OA
BRANCH  78  81
ATOM     81  C   UNL A   1      32.290  25.355  23.523  1.00  0.00     0.106 C 
ATOM     82  C   UNL A   1      32.470  25.348  22.008  1.00  0.00     0.026 C 
ATOM     83  C   UNL A   1      31.731  26.732  23.877  1.00  0.00     0.128 C 
ATOM     84  C   UNL A   1      33.311  26.534  21.526  1.00  0.00     0.101 C 
ATOM     85  N   UNL A   1      32.763  27.750  23.634  1.00  0.00    -0.332 N 
ATOM     86  C   UNL A   1      33.482  27.740  22.454  1.00  0.00     0.223 C 
ATOM     87  O   UNL A   1      34.293  28.619  22.162  1.00  0.00    -0.275 OA
BRANCH  83  88
ATOM     88  C   UNL A   1      30.308  27.131  23.448  1.00  0.00    -0.025 A 
ATOM     89  C   UNL A   1      30.074  28.282  22.681  1.00  0.00     0.006 A 
ATOM     90  C   UNL A   1      29.168  26.505  23.994  1.00  0.00     0.006 A 
ATOM     91  C   UNL A   1      28.796  28.844  22.564  1.00  0.00     0.000 A 
ATOM     92  C   UNL A   1      27.887  27.056  23.871  1.00  0.00     0.000 A 
ATOM     93  C   UNL A   1      27.706  28.242  23.179  1.00  0.00     0.000 A 
ENDBRANCH  83  88
BRANCH  85  94
ATOM     94  C   UNL A   1      33.126  28.634  24.774  1.00  0.00     0.085 C 
ATOM     95  C   UNL A   1      31.907  29.406  25.309  1.00  0.00     0.025 C 
ATOM     96  C   UNL A   1      33.902  27.964  25.914  1.00  0.00     0.025 C 
ATOM     97  C   UNL A   1      32.314  30.423  26.374  1.00  0.00     0.002 C 
ATOM     98  C   UNL A   1      34.327  29.008  26.951  1.00  0.00     0.002 C 
ATOM     99  C   UNL A   1      33.129  29.781  27.494  1.00  0.00     0.000 C 
ENDBRANCH  85  94
ENDBRANCH  78  81
ENDBRANCH  76  77
ENDBRANCH  75  76
ENDBRANCH  74  75
ENDBRANCH   1  74
TORSDOF 16
ENDMDL
