MODEL 1
REMARK VINA RESULT:     -12.7      0.000      0.000
REMARK SMILES CCN1C(=O)[C@H](CC(=O)Nc2ccc(C(=O)NCCCCNC(=O)c3ccc(-c4c5nc(c(-c6c(F)cc(S(=O)(=O)[O-])cc6F)c6ccc([nH]6)c(-c6c(F)cc(S(=O)(=O)[O-])cc6F)c6nc(c(-c7c(F)cc(S(=O)(=O)[O-])cc7F)c7ccc4[nH]7)C=C6)C=C5)cc3)cc2)S/C1=[NH+]\c1ccc(Cl)cc1
REMARK SMILES IDX 19 1 18 2 17 3 15 4 16 5 14 7 11 8 12 9 92 10 13 11 91 12
REMARK SMILES IDX 10 13 8 14 9 15 7 17 6 18 3 19 4 20 94 21 5 22 93 23 95 24
REMARK SMILES IDX 2 26 1 27 96 28 97 29 102 30 98 31 101 32 99 33 100 34 20 35
REMARK SMILES IDX 21 36 22 37 23 38 24 40 25 41 26 42 90 43 27 44 89 45 28 46
REMARK SMILES IDX 29 47 30 48 83 49 31 50 88 51 82 52 84 53 32 54 87 55 81 56
REMARK SMILES IDX 80 57 33 59 67 60 46 61 66 62 47 63 50 64 65 65 85 66 48 67
REMARK SMILES IDX 49 68 64 70 86 71 51 72 34 73 35 74 44 75 36 76 37 77 43 78
REMARK SMILES IDX 45 79 38 80 39 81 40 82 41 83 42 84 68 85 69 86 78 87 70 88
REMARK SMILES IDX 71 89 77 90 79 91 72 92 73 93 74 94 75 95 76 96 52 97 53 98
REMARK SMILES IDX 62 99 54 100 55 101 61 102 63 103 56 104 57 105 58 106
REMARK SMILES IDX 59 107 60 108
REMARK H PARENT 17 6 10 16 95 25 22 39 84 58 50 69
REMARK Flexibility Score: inf
ROOT
ATOM      1  C   UNL A   1      34.250  30.527  27.271  1.00  0.00     0.023 C 
ENDROOT
BRANCH   1   2
ATOM      2  C   UNL A   1      33.015  30.543  26.372  1.00  0.00     0.116 C 
BRANCH   2   3
ATOM      3  N   UNL A   1      33.200  30.129  24.991  1.00  0.00    -0.352 N 
ATOM      4  C   UNL A   1      32.859  28.935  24.375  1.00  0.00     0.251 C 
ATOM      5  O   UNL A   1      32.815  28.892  23.146  1.00  0.00    -0.269 OA
ATOM      6  H   UNL A   1      33.630  30.795  24.407  1.00  0.00     0.163 HD
BRANCH   4   7
ATOM      7  C   UNL A   1      32.491  27.696  25.130  1.00  0.00     0.039 A 
ATOM      8  C   UNL A   1      31.890  25.235  26.418  1.00  0.00     0.041 A 
ATOM      9  C   UNL A   1      33.217  25.628  26.240  1.00  0.00     0.027 A 
ATOM     10  C   UNL A   1      30.884  26.159  26.123  1.00  0.00     0.027 A 
ATOM     11  C   UNL A   1      33.514  26.845  25.590  1.00  0.00     0.016 A 
ATOM     12  C   UNL A   1      31.176  27.377  25.476  1.00  0.00     0.016 A 
BRANCH   8  13
ATOM     13  N   UNL A   1      31.592  23.997  27.033  1.00  0.00    -0.326 N 
ATOM     14  C   UNL A   1      30.686  23.050  26.589  1.00  0.00     0.226 C 
ATOM     15  O   UNL A   1      29.874  22.566  27.379  1.00  0.00    -0.275 OA
ATOM     16  H   UNL A   1      32.078  23.788  27.864  1.00  0.00     0.169 HD
BRANCH  14  17
ATOM     17  C   UNL A   1      30.854  22.453  25.187  1.00  0.00     0.128 C 
BRANCH  17  18
ATOM     18  C   UNL A   1      31.968  21.397  25.104  1.00  0.00     0.183 C 
ATOM     19  N   UNL A   1      33.167  22.466  23.432  1.00  0.00    -0.190 N 
ATOM     20  C   UNL A   1      32.365  21.377  23.663  1.00  0.00     0.324 C 
ATOM     21  C   UNL A   1      34.172  22.538  24.330  1.00  0.00     0.319 C 
ATOM     22  O   UNL A   1      32.029  20.524  22.858  1.00  0.00    -0.245 OA
ATOM     23  S   UNL A   1      33.607  21.914  25.857  1.00  0.00    -0.022 SA
ATOM     24  N   UNL A   1      35.297  22.994  23.929  1.00  0.00    -0.235 N 
ATOM     25  H   UNL A   1      35.293  23.370  23.020  1.00  0.00     0.313 HD
BRANCH  19  26
ATOM     26  C   UNL A   1      33.097  23.170  22.182  1.00  0.00     0.243 C 
ATOM     27  C   UNL A   1      32.639  24.616  22.144  1.00  0.00     0.054 C 
ENDBRANCH  19  26
BRANCH  24  28
ATOM     28  C   UNL A   1      36.516  23.039  24.575  1.00  0.00     0.125 A 
ATOM     29  C   UNL A   1      37.253  21.848  24.589  1.00  0.00     0.053 A 
ATOM     30  C   UNL A   1      36.863  24.065  25.455  1.00  0.00     0.053 A 
ATOM     31  C   UNL A   1      38.331  21.682  25.456  1.00  0.00     0.025 A 
ATOM     32  C   UNL A   1      37.948  23.906  26.323  1.00  0.00     0.025 A 
ATOM     33  C   UNL A   1      38.675  22.715  26.321  1.00  0.00     0.041 A 
ATOM     34  Cl  UNL A   1      39.977  22.503  27.423  1.00  0.00    -0.084 Cl
ENDBRANCH  24  28
ENDBRANCH  17  18
ENDBRANCH  14  17
ENDBRANCH   8  13
ENDBRANCH   4   7
ENDBRANCH   2   3
ENDBRANCH   1   2
BRANCH   1  35
ATOM     35  C   UNL A   1      34.740  31.873  27.811  1.00  0.00     0.023 C 
BRANCH  35  36
ATOM     36  C   UNL A   1      35.887  31.853  28.829  1.00  0.00     0.116 C 
BRANCH  36  37
ATOM     37  N   UNL A   1      35.721  30.905  29.926  1.00  0.00    -0.352 N 
ATOM     38  C   UNL A   1      36.623  30.027  30.492  1.00  0.00     0.251 C 
ATOM     39  H   UNL A   1      34.821  30.889  30.326  1.00  0.00     0.163 HD
ATOM     40  O   UNL A   1      36.254  29.272  31.389  1.00  0.00    -0.269 OA
BRANCH  38  41
ATOM     41  C   UNL A   1      38.017  29.944  29.994  1.00  0.00     0.039 A 
ATOM     42  C   UNL A   1      39.070  30.064  30.905  1.00  0.00     0.014 A 
ATOM     43  C   UNL A   1      38.295  29.723  28.643  1.00  0.00     0.014 A 
ATOM     44  C   UNL A   1      40.387  29.842  30.487  1.00  0.00     0.010 A 
ATOM     45  C   UNL A   1      39.599  29.428  28.241  1.00  0.00     0.010 A 
ATOM     46  C   UNL A   1      40.658  29.459  29.162  1.00  0.00    -0.014 A 
BRANCH  46  47
ATOM     47  C   UNL A   1      42.025  29.046  28.736  1.00  0.00     0.031 A 
ATOM     48  C   UNL A   1      43.141  30.053  28.644  1.00  0.00     0.074 A 
ATOM     49  C   UNL A   1      42.245  27.772  28.346  1.00  0.00     0.049 A 
ATOM     50  N   UNL A   1      44.366  29.892  28.217  1.00  0.00    -0.248 NA
ATOM     51  C   UNL A   1      42.826  31.429  29.058  1.00  0.00     0.031 C 
ATOM     52  C   UNL A   1      41.239  26.707  28.324  1.00  0.00     0.029 A 
ATOM     53  N   UNL A   1      43.383  27.158  27.880  1.00  0.00    -0.354 N 
ATOM     54  C   UNL A   1      44.964  31.145  28.291  1.00  0.00     0.074 A 
ATOM     55  C   UNL A   1      43.949  32.066  28.757  1.00  0.00     0.031 C 
ATOM     56  C   UNL A   1      41.809  25.569  27.893  1.00  0.00     0.029 A 
ATOM     57  C   UNL A   1      43.210  25.827  27.574  1.00  0.00     0.049 A 
ATOM     58  H   UNL A   1      44.241  27.626  27.774  1.00  0.00     0.167 HD
ATOM     59  C   UNL A   1      46.245  31.495  28.017  1.00  0.00     0.037 A 
ATOM     60  C   UNL A   1      44.076  24.916  27.089  1.00  0.00     0.037 A 
ATOM     61  C   UNL A   1      47.264  30.573  27.586  1.00  0.00     0.049 A 
ATOM     62  C   UNL A   1      45.499  25.322  26.815  1.00  0.00     0.074 A 
ATOM     63  C   UNL A   1      48.606  30.821  27.353  1.00  0.00     0.029 A 
ATOM     64  N   UNL A   1      47.056  29.227  27.325  1.00  0.00    -0.354 N 
ATOM     65  N   UNL A   1      46.061  26.498  26.959  1.00  0.00    -0.248 NA
ATOM     66  C   UNL A   1      46.407  24.277  26.322  1.00  0.00     0.031 C 
ATOM     67  C   UNL A   1      49.203  29.632  26.917  1.00  0.00     0.029 A 
ATOM     68  C   UNL A   1      48.242  28.634  26.919  1.00  0.00     0.049 A 
ATOM     69  H   UNL A   1      46.194  28.760  27.415  1.00  0.00     0.167 HD
ATOM     70  C   UNL A   1      47.395  26.327  26.602  1.00  0.00     0.074 A 
ATOM     71  C   UNL A   1      47.556  24.933  26.244  1.00  0.00     0.031 C 
ATOM     72  C   UNL A   1      48.394  27.243  26.575  1.00  0.00     0.037 A 
BRANCH  59  73
ATOM     73  C   UNL A   1      46.619  32.943  28.185  1.00  0.00     0.058 A 
ATOM     74  C   UNL A   1      46.483  33.865  27.133  1.00  0.00     0.135 A 
ATOM     75  C   UNL A   1      47.096  33.422  29.415  1.00  0.00     0.135 A 
ATOM     76  F   UNL A   1      46.042  33.458  25.932  1.00  0.00    -0.206 F 
ATOM     77  C   UNL A   1      46.845  35.199  27.284  1.00  0.00     0.059 A 
ATOM     78  C   UNL A   1      47.437  34.759  29.598  1.00  0.00     0.059 A 
ATOM     79  F   UNL A   1      47.242  32.585  30.456  1.00  0.00    -0.206 F 
ATOM     80  C   UNL A   1      47.325  35.636  28.519  1.00  0.00     0.060 A 
BRANCH  80  81
ATOM     81  S   UNL A   1      47.801  37.368  28.697  1.00  0.00     0.124 S 
ATOM     82  O   UNL A   1      48.872  37.476  27.711  1.00  0.00    -0.237 OA
ATOM     83  O   UNL A   1      46.564  38.069  28.368  1.00  0.00    -0.237 OA
ATOM     84  O   UNL A   1      48.221  37.464  30.091  1.00  0.00    -0.744 OA
ENDBRANCH  80  81
ENDBRANCH  59  73
BRANCH  60  85
ATOM     85  C   UNL A   1      43.632  23.514  26.862  1.00  0.00     0.058 A 
ATOM     86  C   UNL A   1      43.511  22.617  27.934  1.00  0.00     0.135 A 
ATOM     87  C   UNL A   1      43.315  23.044  25.578  1.00  0.00     0.135 A 
ATOM     88  F   UNL A   1      43.810  23.018  29.180  1.00  0.00    -0.206 F 
ATOM     89  C   UNL A   1      43.105  21.301  27.743  1.00  0.00     0.059 A 
ATOM     90  C   UNL A   1      42.884  21.738  25.364  1.00  0.00     0.059 A 
ATOM     91  F   UNL A   1      43.400  23.866  24.522  1.00  0.00    -0.206 F 
ATOM     92  C   UNL A   1      42.792  20.871  26.453  1.00  0.00     0.060 A 
BRANCH  92  93
ATOM     93  S   UNL A   1      42.218  19.174  26.220  1.00  0.00     0.124 S 
ATOM     94  O   UNL A   1      42.474  18.594  27.534  1.00  0.00    -0.237 OA
ATOM     95  O   UNL A   1      40.815  19.369  25.870  1.00  0.00    -0.237 OA
ATOM     96  O   UNL A   1      43.063  18.681  25.136  1.00  0.00    -0.744 OA
ENDBRANCH  92  93
ENDBRANCH  60  85
BRANCH  72  97
ATOM     97  C   UNL A   1      49.763  26.764  26.178  1.00  0.00     0.058 A 
ATOM     98  C   UNL A   1      50.255  26.927  24.874  1.00  0.00     0.135 A 
ATOM     99  C   UNL A   1      50.612  26.176  27.131  1.00  0.00     0.135 A 
ATOM    100  F   UNL A   1      49.481  27.476  23.925  1.00  0.00    -0.206 F 
ATOM    101  C   UNL A   1      51.533  26.506  24.522  1.00  0.00     0.059 A 
ATOM    102  C   UNL A   1      51.902  25.771  26.807  1.00  0.00     0.059 A 
ATOM    103  F   UNL A   1      50.194  26.005  28.395  1.00  0.00    -0.206 F 
ATOM    104  C   UNL A   1      52.351  25.929  25.496  1.00  0.00     0.060 A 
BRANCH 104 105
ATOM    105  S   UNL A   1      54.020  25.416  25.036  1.00  0.00     0.124 S 
ATOM    106  O   UNL A   1      54.156  26.010  23.711  1.00  0.00    -0.237 OA
ATOM    107  O   UNL A   1      54.834  26.019  26.087  1.00  0.00    -0.237 OA
ATOM    108  O   UNL A   1      53.948  23.959  25.068  1.00  0.00    -0.744 OA
ENDBRANCH 104 105
ENDBRANCH  72  97
ENDBRANCH  46  47
ENDBRANCH  38  41
ENDBRANCH  36  37
ENDBRANCH  35  36
ENDBRANCH   1  35
TORSDOF 19
ENDMDL
MODEL 2
REMARK VINA RESULT:     -12.5      0.389      7.881
REMARK SMILES CCN1C(=O)[C@H](CC(=O)Nc2ccc(C(=O)NCCCCNC(=O)c3ccc(-c4c5nc(c(-c6c(F)cc(S(=O)(=O)[O-])cc6F)c6ccc([nH]6)c(-c6c(F)cc(S(=O)(=O)[O-])cc6F)c6nc(c(-c7c(F)cc(S(=O)(=O)[O-])cc7F)c7ccc4[nH]7)C=C6)C=C5)cc3)cc2)S/C1=[NH+]\c1ccc(Cl)cc1
REMARK SMILES IDX 19 1 18 2 17 3 15 4 16 5 14 7 11 8 12 9 92 10 13 11 91 12
REMARK SMILES IDX 10 13 8 14 9 15 7 17 6 18 3 19 4 20 94 21 5 22 93 23 95 24
REMARK SMILES IDX 2 26 1 27 96 28 97 29 102 30 98 31 101 32 99 33 100 34 20 35
REMARK SMILES IDX 21 36 22 37 23 38 24 40 25 41 26 42 90 43 27 44 89 45 28 46
REMARK SMILES IDX 29 47 30 48 83 49 31 50 88 51 82 52 84 53 32 54 87 55 81 56
REMARK SMILES IDX 80 57 33 59 67 60 46 61 66 62 47 63 50 64 65 65 85 66 48 67
REMARK SMILES IDX 49 68 64 70 86 71 51 72 34 73 35 74 44 75 36 76 37 77 43 78
REMARK SMILES IDX 45 79 38 80 39 81 40 82 41 83 42 84 68 85 69 86 78 87 70 88
REMARK SMILES IDX 71 89 77 90 79 91 72 92 73 93 74 94 75 95 76 96 52 97 53 98
REMARK SMILES IDX 62 99 54 100 55 101 61 102 63 103 56 104 57 105 58 106
REMARK SMILES IDX 59 107 60 108
REMARK H PARENT 17 6 10 16 95 25 22 39 84 58 50 69
REMARK Flexibility Score: inf
ROOT
ATOM      1  C   UNL A   1      33.943  30.420  27.274  1.00  0.00     0.023 C 
ENDROOT
BRANCH   1   2
ATOM      2  C   UNL A   1      32.808  30.539  26.259  1.00  0.00     0.116 C 
BRANCH   2   3
ATOM      3  N   UNL A   1      33.084  30.090  24.904  1.00  0.00    -0.352 N 
ATOM      4  C   UNL A   1      32.816  28.867  24.308  1.00  0.00     0.251 C 
ATOM      5  O   UNL A   1      32.845  28.786  23.081  1.00  0.00    -0.269 OA
ATOM      6  H   UNL A   1      33.528  30.752  24.325  1.00  0.00     0.163 HD
BRANCH   4   7
ATOM      7  C   UNL A   1      32.442  27.641  25.081  1.00  0.00     0.039 A 
ATOM      8  C   UNL A   1      31.828  25.201  26.402  1.00  0.00     0.041 A 
ATOM      9  C   UNL A   1      33.157  25.582  26.213  1.00  0.00     0.027 A 
ATOM     10  C   UNL A   1      30.828  26.128  26.100  1.00  0.00     0.027 A 
ATOM     11  C   UNL A   1      33.461  26.788  25.547  1.00  0.00     0.016 A 
ATOM     12  C   UNL A   1      31.126  27.336  25.436  1.00  0.00     0.016 A 
BRANCH   8  13
ATOM     13  N   UNL A   1      31.524  23.973  27.034  1.00  0.00    -0.326 N 
ATOM     14  C   UNL A   1      30.632  23.014  26.589  1.00  0.00     0.226 C 
ATOM     15  O   UNL A   1      29.807  22.540  27.372  1.00  0.00    -0.275 OA
ATOM     16  H   UNL A   1      31.995  23.782  27.878  1.00  0.00     0.169 HD
BRANCH  14  17
ATOM     17  C   UNL A   1      30.830  22.391  25.202  1.00  0.00     0.128 C 
BRANCH  17  18
ATOM     18  C   UNL A   1      31.961  21.351  25.158  1.00  0.00     0.183 C 
ATOM     19  N   UNL A   1      33.152  22.386  23.459  1.00  0.00    -0.190 N 
ATOM     20  C   UNL A   1      32.366  21.292  23.720  1.00  0.00     0.324 C 
ATOM     21  C   UNL A   1      34.151  22.502  24.359  1.00  0.00     0.319 C 
ATOM     22  O   UNL A   1      32.047  20.411  22.939  1.00  0.00    -0.245 OA
ATOM     23  S   UNL A   1      33.587  21.916  25.902  1.00  0.00    -0.022 SA
ATOM     24  N   UNL A   1      35.271  22.962  23.950  1.00  0.00    -0.235 N 
ATOM     25  H   UNL A   1      35.267  23.310  23.030  1.00  0.00     0.313 HD
BRANCH  19  26
ATOM     26  C   UNL A   1      33.079  23.051  22.188  1.00  0.00     0.243 C 
ATOM     27  C   UNL A   1      32.774  24.535  22.117  1.00  0.00     0.054 C 
ENDBRANCH  19  26
BRANCH  24  28
ATOM     28  C   UNL A   1      36.486  23.046  24.600  1.00  0.00     0.125 A 
ATOM     29  C   UNL A   1      37.260  21.879  24.617  1.00  0.00     0.053 A 
ATOM     30  C   UNL A   1      36.797  24.083  25.482  1.00  0.00     0.053 A 
ATOM     31  C   UNL A   1      38.340  21.747  25.487  1.00  0.00     0.025 A 
ATOM     32  C   UNL A   1      37.884  23.958  26.353  1.00  0.00     0.025 A 
ATOM     33  C   UNL A   1      38.648  22.790  26.354  1.00  0.00     0.041 A 
ATOM     34  Cl  UNL A   1      39.952  22.620  27.460  1.00  0.00    -0.084 Cl
ENDBRANCH  24  28
ENDBRANCH  17  18
ENDBRANCH  14  17
ENDBRANCH   8  13
ENDBRANCH   4   7
ENDBRANCH   2   3
ENDBRANCH   1   2
BRANCH   1  35
ATOM     35  C   UNL A   1      34.541  31.722  27.813  1.00  0.00     0.023 C 
BRANCH  35  36
ATOM     36  C   UNL A   1      35.811  31.620  28.665  1.00  0.00     0.116 C 
BRANCH  36  37
ATOM     37  N   UNL A   1      35.731  30.681  29.779  1.00  0.00    -0.352 N 
ATOM     38  C   UNL A   1      36.696  29.858  30.324  1.00  0.00     0.251 C 
ATOM     39  H   UNL A   1      34.847  30.624  30.210  1.00  0.00     0.163 HD
ATOM     40  O   UNL A   1      36.398  29.098  31.243  1.00  0.00    -0.269 OA
BRANCH  38  41
ATOM     41  C   UNL A   1      38.075  29.839  29.779  1.00  0.00     0.039 A 
ATOM     42  C   UNL A   1      39.151  30.031  30.652  1.00  0.00     0.014 A 
ATOM     43  C   UNL A   1      38.318  29.610  28.423  1.00  0.00     0.014 A 
ATOM     44  C   UNL A   1      40.463  29.871  30.191  1.00  0.00     0.010 A 
ATOM     45  C   UNL A   1      39.622  29.377  27.981  1.00  0.00     0.010 A 
ATOM     46  C   UNL A   1      40.708  29.480  28.864  1.00  0.00    -0.014 A 
BRANCH  46  47
ATOM     47  C   UNL A   1      42.080  29.132  28.397  1.00  0.00     0.031 A 
ATOM     48  C   UNL A   1      42.418  27.724  27.982  1.00  0.00     0.074 A 
ATOM     49  C   UNL A   1      43.053  30.068  28.429  1.00  0.00     0.049 A 
ATOM     50  N   UNL A   1      43.573  27.222  27.629  1.00  0.00    -0.248 NA
ATOM     51  C   UNL A   1      41.319  26.748  27.997  1.00  0.00     0.031 C 
ATOM     52  C   UNL A   1      42.880  31.455  28.869  1.00  0.00     0.029 A 
ATOM     53  N   UNL A   1      44.385  29.993  28.098  1.00  0.00    -0.354 N 
ATOM     54  C   UNL A   1      43.347  25.870  27.398  1.00  0.00     0.074 A 
ATOM     55  C   UNL A   1      41.953  25.622  27.701  1.00  0.00     0.031 C 
ATOM     56  C   UNL A   1      44.051  32.104  28.757  1.00  0.00     0.029 A 
ATOM     57  C   UNL A   1      45.067  31.175  28.271  1.00  0.00     0.049 A 
ATOM     58  H   UNL A   1      44.810  29.170  27.766  1.00  0.00     0.167 HD
ATOM     59  C   UNL A   1      44.212  24.925  26.954  1.00  0.00     0.037 A 
ATOM     60  C   UNL A   1      46.364  31.481  28.067  1.00  0.00     0.037 A 
ATOM     61  C   UNL A   1      45.589  25.179  26.620  1.00  0.00     0.049 A 
ATOM     62  C   UNL A   1      47.300  30.421  27.552  1.00  0.00     0.074 A 
ATOM     63  C   UNL A   1      46.523  24.301  26.095  1.00  0.00     0.029 A 
ATOM     64  N   UNL A   1      46.231  26.398  26.774  1.00  0.00    -0.354 N 
ATOM     65  N   UNL A   1      47.048  29.165  27.274  1.00  0.00    -0.248 NA
ATOM     66  C   UNL A   1      48.694  30.822  27.314  1.00  0.00     0.031 C 
ATOM     67  C   UNL A   1      47.740  24.981  25.965  1.00  0.00     0.029 A 
ATOM     68  C   UNL A   1      47.553  26.293  26.369  1.00  0.00     0.049 A 
ATOM     69  H   UNL A   1      45.811  27.218  27.120  1.00  0.00     0.167 HD
ATOM     70  C   UNL A   1      48.244  28.634  26.801  1.00  0.00     0.074 A 
ATOM     71  C   UNL A   1      49.216  29.707  26.823  1.00  0.00     0.031 C 
ATOM     72  C   UNL A   1      48.510  27.370  26.385  1.00  0.00     0.037 A 
BRANCH  59  73
ATOM     73  C   UNL A   1      43.687  23.524  26.796  1.00  0.00     0.058 A 
ATOM     74  C   UNL A   1      43.580  22.650  27.892  1.00  0.00     0.135 A 
ATOM     75  C   UNL A   1      43.263  23.054  25.543  1.00  0.00     0.135 A 
ATOM     76  F   UNL A   1      43.982  23.044  29.111  1.00  0.00    -0.206 F 
ATOM     77  C   UNL A   1      43.111  21.350  27.742  1.00  0.00     0.059 A 
ATOM     78  C   UNL A   1      42.763  21.766  25.375  1.00  0.00     0.059 A 
ATOM     79  F   UNL A   1      43.338  23.848  24.463  1.00  0.00    -0.206 F 
ATOM     80  C   UNL A   1      42.708  20.915  26.479  1.00  0.00     0.060 A 
BRANCH  80  81
ATOM     81  S   UNL A   1      42.112  19.221  26.298  1.00  0.00     0.124 S 
ATOM     82  O   UNL A   1      42.286  18.706  27.653  1.00  0.00    -0.237 OA
ATOM     83  O   UNL A   1      40.731  19.419  25.869  1.00  0.00    -0.237 OA
ATOM     84  O   UNL A   1      43.002  18.652  25.291  1.00  0.00    -0.744 OA
ENDBRANCH  80  81
ENDBRANCH  59  73
BRANCH  60  85
ATOM     85  C   UNL A   1      46.851  32.865  28.318  1.00  0.00     0.058 A 
ATOM     86  C   UNL A   1      46.834  33.827  27.298  1.00  0.00     0.135 A 
ATOM     87  C   UNL A   1      47.335  33.254  29.577  1.00  0.00     0.135 A 
ATOM     88  F   UNL A   1      46.387  33.500  26.075  1.00  0.00    -0.206 F 
ATOM     89  C   UNL A   1      47.292  35.123  27.510  1.00  0.00     0.059 A 
ATOM     90  C   UNL A   1      47.777  34.551  29.820  1.00  0.00     0.059 A 
ATOM     91  F   UNL A   1      47.358  32.375  30.590  1.00  0.00    -0.206 F 
ATOM     92  C   UNL A   1      47.760  35.476  28.776  1.00  0.00     0.060 A 
BRANCH  92  93
ATOM     93  S   UNL A   1      48.306  37.175  29.055  1.00  0.00     0.124 S 
ATOM     94  O   UNL A   1      47.035  37.888  29.106  1.00  0.00    -0.237 OA
ATOM     95  O   UNL A   1      49.027  37.063  30.319  1.00  0.00    -0.237 OA
ATOM     96  O   UNL A   1      49.142  37.453  27.890  1.00  0.00    -0.744 OA
ENDBRANCH  92  93
ENDBRANCH  60  85
BRANCH  72  97
ATOM     97  C   UNL A   1      49.898  27.084  25.885  1.00  0.00     0.058 A 
ATOM     98  C   UNL A   1      50.901  26.583  26.730  1.00  0.00     0.135 A 
ATOM     99  C   UNL A   1      50.216  27.268  24.529  1.00  0.00     0.135 A 
ATOM    100  F   UNL A   1      50.651  26.395  28.036  1.00  0.00    -0.206 F 
ATOM    101  C   UNL A   1      52.175  26.294  26.254  1.00  0.00     0.059 A 
ATOM    102  C   UNL A   1      51.476  26.963  24.026  1.00  0.00     0.059 A 
ATOM    103  F   UNL A   1      49.291  27.737  23.676  1.00  0.00    -0.206 F 
ATOM    104  C   UNL A   1      52.454  26.486  24.899  1.00  0.00     0.060 A 
BRANCH 104 105
ATOM    105  S   UNL A   1      54.102  26.076  24.285  1.00  0.00     0.124 S 
ATOM    106  O   UNL A   1      53.878  26.043  22.843  1.00  0.00    -0.237 OA
ATOM    107  O   UNL A   1      54.906  27.190  24.777  1.00  0.00    -0.237 OA
ATOM    108  O   UNL A   1      54.383  24.786  24.907  1.00  0.00    -0.744 OA
ENDBRANCH 104 105
ENDBRANCH  72  97
ENDBRANCH  46  47
ENDBRANCH  38  41
ENDBRANCH  36  37
ENDBRANCH  35  36
ENDBRANCH   1  35
TORSDOF 19
ENDMDL
MODEL 3
REMARK VINA RESULT:     -12.3      6.433     11.868
REMARK SMILES CCN1C(=O)[C@H](CC(=O)Nc2ccc(C(=O)NCCCCNC(=O)c3ccc(-c4c5nc(c(-c6c(F)cc(S(=O)(=O)[O-])cc6F)c6ccc([nH]6)c(-c6c(F)cc(S(=O)(=O)[O-])cc6F)c6nc(c(-c7c(F)cc(S(=O)(=O)[O-])cc7F)c7ccc4[nH]7)C=C6)C=C5)cc3)cc2)S/C1=[NH+]\c1ccc(Cl)cc1
REMARK SMILES IDX 19 1 18 2 17 3 15 4 16 5 14 7 11 8 12 9 92 10 13 11 91 12
REMARK SMILES IDX 10 13 8 14 9 15 7 17 6 18 3 19 4 20 94 21 5 22 93 23 95 24
REMARK SMILES IDX 2 26 1 27 96 28 97 29 102 30 98 31 101 32 99 33 100 34 20 35
REMARK SMILES IDX 21 36 22 37 23 38 24 40 25 41 26 42 90 43 27 44 89 45 28 46
REMARK SMILES IDX 29 47 30 48 83 49 31 50 88 51 82 52 84 53 32 54 87 55 81 56
REMARK SMILES IDX 80 57 33 59 67 60 46 61 66 62 47 63 50 64 65 65 85 66 48 67
REMARK SMILES IDX 49 68 64 70 86 71 51 72 34 73 35 74 44 75 36 76 37 77 43 78
REMARK SMILES IDX 45 79 38 80 39 81 40 82 41 83 42 84 68 85 69 86 78 87 70 88
REMARK SMILES IDX 71 89 77 90 79 91 72 92 73 93 74 94 75 95 76 96 52 97 53 98
REMARK SMILES IDX 62 99 54 100 55 101 61 102 63 103 56 104 57 105 58 106
REMARK SMILES IDX 59 107 60 108
REMARK H PARENT 17 6 10 16 95 25 22 39 84 58 50 69
REMARK Flexibility Score: inf
ROOT
ATOM      1  C   UNL A   1      38.764  23.490  26.584  1.00  0.00     0.023 C 
ENDROOT
BRANCH   1   2
ATOM      2  C   UNL A   1      37.957  22.883  25.438  1.00  0.00     0.116 C 
BRANCH   2   3
ATOM      3  N   UNL A   1      37.978  21.436  25.310  1.00  0.00    -0.352 N 
ATOM      4  C   UNL A   1      36.924  20.548  25.156  1.00  0.00     0.251 C 
ATOM      5  O   UNL A   1      37.162  19.407  24.760  1.00  0.00    -0.269 OA
ATOM      6  H   UNL A   1      38.873  21.025  25.336  1.00  0.00     0.163 HD
BRANCH   4   7
ATOM      7  C   UNL A   1      35.495  20.918  25.401  1.00  0.00     0.039 A 
ATOM      8  C   UNL A   1      32.808  21.565  26.064  1.00  0.00     0.041 A 
ATOM      9  C   UNL A   1      33.864  22.237  26.681  1.00  0.00     0.027 A 
ATOM     10  C   UNL A   1      33.102  20.718  24.992  1.00  0.00     0.027 A 
ATOM     11  C   UNL A   1      35.198  21.906  26.359  1.00  0.00     0.016 A 
ATOM     12  C   UNL A   1      34.433  20.387  24.665  1.00  0.00     0.016 A 
BRANCH   8  13
ATOM     13  N   UNL A   1      31.472  21.868  26.415  1.00  0.00    -0.326 N 
ATOM     14  C   UNL A   1      30.814  23.066  26.205  1.00  0.00     0.226 C 
ATOM     15  O   UNL A   1      30.180  23.582  27.127  1.00  0.00    -0.275 OA
ATOM     16  H   UNL A   1      30.958  21.153  26.855  1.00  0.00     0.169 HD
BRANCH  14  17
ATOM     17  C   UNL A   1      30.692  23.615  24.778  1.00  0.00     0.128 C 
BRANCH  17  18
ATOM     18  C   UNL A   1      31.943  24.377  24.311  1.00  0.00     0.183 C 
ATOM     19  N   UNL A   1      30.916  26.454  24.214  1.00  0.00    -0.190 N 
ATOM     20  C   UNL A   1      31.418  25.455  23.418  1.00  0.00     0.324 C 
ATOM     21  C   UNL A   1      31.811  26.834  25.151  1.00  0.00     0.319 C 
ATOM     22  O   UNL A   1      31.450  25.431  22.199  1.00  0.00    -0.245 OA
ATOM     23  S   UNL A   1      32.755  25.446  25.621  1.00  0.00    -0.022 SA
ATOM     24  N   UNL A   1      31.831  28.066  25.490  1.00  0.00    -0.235 N 
ATOM     25  H   UNL A   1      31.100  28.611  25.121  1.00  0.00     0.313 HD
BRANCH  19  26
ATOM     26  C   UNL A   1      29.747  27.187  23.815  1.00  0.00     0.243 C 
ATOM     27  C   UNL A   1      28.390  26.510  23.800  1.00  0.00     0.054 C 
ENDBRANCH  19  26
BRANCH  24  28
ATOM     28  C   UNL A   1      32.721  28.750  26.295  1.00  0.00     0.125 A 
ATOM     29  C   UNL A   1      32.353  30.052  26.655  1.00  0.00     0.053 A 
ATOM     30  C   UNL A   1      34.045  28.343  26.466  1.00  0.00     0.053 A 
ATOM     31  C   UNL A   1      33.285  30.938  27.193  1.00  0.00     0.025 A 
ATOM     32  C   UNL A   1      34.982  29.226  27.012  1.00  0.00     0.025 A 
ATOM     33  C   UNL A   1      34.599  30.519  27.370  1.00  0.00     0.041 A 
ATOM     34  Cl  UNL A   1      35.764  31.617  27.994  1.00  0.00    -0.084 Cl
ENDBRANCH  24  28
ENDBRANCH  17  18
ENDBRANCH  14  17
ENDBRANCH   8  13
ENDBRANCH   4   7
ENDBRANCH   2   3
ENDBRANCH   1   2
BRANCH   1  35
ATOM     35  C   UNL A   1      39.970  22.693  27.089  1.00  0.00     0.023 C 
BRANCH  35  36
ATOM     36  C   UNL A   1      41.350  23.355  26.988  1.00  0.00     0.116 C 
BRANCH  36  37
ATOM     37  N   UNL A   1      41.479  24.349  25.928  1.00  0.00    -0.352 N 
ATOM     38  C   UNL A   1      41.561  25.725  26.000  1.00  0.00     0.251 C 
ATOM     39  H   UNL A   1      41.512  23.980  25.015  1.00  0.00     0.163 HD
ATOM     40  O   UNL A   1      41.617  26.385  24.965  1.00  0.00    -0.269 OA
BRANCH  38  41
ATOM     41  C   UNL A   1      41.527  26.421  27.309  1.00  0.00     0.039 A 
ATOM     42  C   UNL A   1      42.518  27.364  27.600  1.00  0.00     0.014 A 
ATOM     43  C   UNL A   1      40.516  26.172  28.239  1.00  0.00     0.014 A 
ATOM     44  C   UNL A   1      42.426  28.139  28.762  1.00  0.00     0.010 A 
ATOM     45  C   UNL A   1      40.384  26.995  29.358  1.00  0.00     0.010 A 
ATOM     46  C   UNL A   1      41.322  28.006  29.621  1.00  0.00    -0.014 A 
BRANCH  46  47
ATOM     47  C   UNL A   1      41.110  28.938  30.765  1.00  0.00     0.031 A 
ATOM     48  C   UNL A   1      41.946  28.828  32.013  1.00  0.00     0.074 A 
ATOM     49  C   UNL A   1      40.101  29.833  30.717  1.00  0.00     0.049 A 
ATOM     50  N   UNL A   1      41.849  29.495  33.134  1.00  0.00    -0.248 NA
ATOM     51  C   UNL A   1      43.010  27.813  32.010  1.00  0.00     0.031 C 
ATOM     52  C   UNL A   1      39.174  30.005  29.595  1.00  0.00     0.029 A 
ATOM     53  N   UNL A   1      39.677  30.761  31.638  1.00  0.00    -0.354 N 
ATOM     54  C   UNL A   1      42.823  28.971  33.976  1.00  0.00     0.074 A 
ATOM     55  C   UNL A   1      43.466  27.894  33.252  1.00  0.00     0.031 C 
ATOM     56  C   UNL A   1      38.308  30.992  29.884  1.00  0.00     0.029 A 
ATOM     57  C   UNL A   1      38.593  31.501  31.222  1.00  0.00     0.049 A 
ATOM     58  H   UNL A   1      40.107  30.884  32.514  1.00  0.00     0.167 HD
ATOM     59  C   UNL A   1      43.166  29.361  35.228  1.00  0.00     0.037 A 
ATOM     60  C   UNL A   1      37.903  32.477  31.844  1.00  0.00     0.037 A 
ATOM     61  C   UNL A   1      42.550  30.454  35.935  1.00  0.00     0.049 A 
ATOM     62  C   UNL A   1      38.318  32.909  33.225  1.00  0.00     0.074 A 
ATOM     63  C   UNL A   1      42.878  30.969  37.178  1.00  0.00     0.029 A 
ATOM     64  N   UNL A   1      41.482  31.202  35.463  1.00  0.00    -0.354 N 
ATOM     65  N   UNL A   1      39.287  32.446  33.976  1.00  0.00    -0.248 NA
ATOM     66  C   UNL A   1      37.551  34.002  33.839  1.00  0.00     0.031 C 
ATOM     67  C   UNL A   1      41.985  32.006  37.473  1.00  0.00     0.029 A 
ATOM     68  C   UNL A   1      41.128  32.164  36.396  1.00  0.00     0.049 A 
ATOM     69  H   UNL A   1      41.039  31.069  34.594  1.00  0.00     0.167 HD
ATOM     70  C   UNL A   1      39.265  33.210  35.139  1.00  0.00     0.074 A 
ATOM     71  C   UNL A   1      38.192  34.170  34.987  1.00  0.00     0.031 C 
ATOM     72  C   UNL A   1      40.064  33.123  36.231  1.00  0.00     0.037 A 
BRANCH  59  73
ATOM     73  C   UNL A   1      44.270  28.601  35.912  1.00  0.00     0.058 A 
ATOM     74  C   UNL A   1      44.002  27.490  36.729  1.00  0.00     0.135 A 
ATOM     75  C   UNL A   1      45.612  28.972  35.734  1.00  0.00     0.135 A 
ATOM     76  F   UNL A   1      42.735  27.099  36.943  1.00  0.00    -0.206 F 
ATOM     77  C   UNL A   1      45.021  26.799  37.375  1.00  0.00     0.059 A 
ATOM     78  C   UNL A   1      46.651  28.277  36.347  1.00  0.00     0.059 A 
ATOM     79  F   UNL A   1      45.926  30.024  34.960  1.00  0.00    -0.206 F 
ATOM     80  C   UNL A   1      46.343  27.203  37.181  1.00  0.00     0.060 A 
BRANCH  80  81
ATOM     81  S   UNL A   1      47.654  26.304  38.035  1.00  0.00     0.124 S 
ATOM     82  O   UNL A   1      47.127  24.942  38.024  1.00  0.00    -0.237 OA
ATOM     83  O   UNL A   1      48.809  26.541  37.175  1.00  0.00    -0.237 OA
ATOM     84  O   UNL A   1      47.710  26.944  39.345  1.00  0.00    -0.744 OA
ENDBRANCH  80  81
ENDBRANCH  59  73
BRANCH  60  85
ATOM     85  C   UNL A   1      36.765  33.140  31.153  1.00  0.00     0.058 A 
ATOM     86  C   UNL A   1      35.440  32.828  31.492  1.00  0.00     0.135 A 
ATOM     87  C   UNL A   1      36.975  34.099  30.151  1.00  0.00     0.135 A 
ATOM     88  F   UNL A   1      35.188  31.911  32.439  1.00  0.00    -0.206 F 
ATOM     89  C   UNL A   1      34.361  33.431  30.852  1.00  0.00     0.059 A 
ATOM     90  C   UNL A   1      35.912  34.734  29.513  1.00  0.00     0.059 A 
ATOM     91  F   UNL A   1      38.223  34.444  29.801  1.00  0.00    -0.206 F 
ATOM     92  C   UNL A   1      34.609  34.385  29.864  1.00  0.00     0.060 A 
BRANCH  92  93
ATOM     93  S   UNL A   1      33.203  35.199  29.075  1.00  0.00     0.124 S 
ATOM     94  O   UNL A   1      32.333  35.457  30.217  1.00  0.00    -0.237 OA
ATOM     95  O   UNL A   1      33.826  36.371  28.469  1.00  0.00    -0.237 OA
ATOM     96  O   UNL A   1      32.724  34.195  28.129  1.00  0.00    -0.744 OA
ENDBRANCH  92  93
ENDBRANCH  60  85
BRANCH  72  97
ATOM     97  C   UNL A   1      39.834  34.114  37.338  1.00  0.00     0.058 A 
ATOM     98  C   UNL A   1      39.067  33.796  38.469  1.00  0.00     0.135 A 
ATOM     99  C   UNL A   1      40.433  35.385  37.287  1.00  0.00     0.135 A 
ATOM    100  F   UNL A   1      38.469  32.598  38.563  1.00  0.00    -0.206 F 
ATOM    101  C   UNL A   1      38.882  34.709  39.502  1.00  0.00     0.059 A 
ATOM    102  C   UNL A   1      40.281  36.304  38.320  1.00  0.00     0.059 A 
ATOM    103  F   UNL A   1      41.184  35.737  36.232  1.00  0.00    -0.206 F 
ATOM    104  C   UNL A   1      39.494  35.962  39.419  1.00  0.00     0.060 A 
BRANCH 104 105
ATOM    105  S   UNL A   1      39.275  37.127  40.781  1.00  0.00     0.124 S 
ATOM    106  O   UNL A   1      38.615  36.292  41.779  1.00  0.00    -0.237 OA
ATOM    107  O   UNL A   1      40.648  37.514  41.086  1.00  0.00    -0.237 OA
ATOM    108  O   UNL A   1      38.449  38.180  40.196  1.00  0.00    -0.744 OA
ENDBRANCH 104 105
ENDBRANCH  72  97
ENDBRANCH  46  47
ENDBRANCH  38  41
ENDBRANCH  36  37
ENDBRANCH  35  36
ENDBRANCH   1  35
TORSDOF 19
ENDMDL
