MODEL 1
REMARK VINA RESULT:     -13.3      0.000      0.000
REMARK SMILES O=C(NCCCCNC(=O)c1ccc(-c2c3nc(c(-c4c(F)cc(S(=O)(=O)[O-])cc4F)c4ccc([nH]4)c(-c4c(F)cc(S(=O)(=O)[O-])cc4F)c4nc(c(-c5c(F)cc(S(=O)(=O)[O-])cc5F)c5ccc2[nH]5)C=C4)C=C3)cc1)C1=Cc2cc(S(F)(F)(F)(F)F)cc(Br)c2O[C@@H]1C(F)(F)F
REMARK SMILES IDX 6 1 5 2 4 3 3 4 1 5 2 6 77 8 78 9 93 10 79 11 92 12 80 13
REMARK SMILES IDX 91 14 81 15 89 16 88 17 90 18 94 19 95 20 96 21 97 22 82 23
REMARK SMILES IDX 83 24 84 25 85 26 86 27 87 28 7 29 8 30 9 31 10 33 11 34
REMARK SMILES IDX 12 35 76 36 13 37 75 38 14 39 15 40 16 41 69 42 17 43 74 44
REMARK SMILES IDX 68 45 70 46 18 47 73 48 67 49 66 50 19 52 53 53 32 54 52 55
REMARK SMILES IDX 33 56 36 57 51 58 71 59 34 60 35 61 50 63 72 64 37 65 20 66
REMARK SMILES IDX 21 67 30 68 22 69 23 70 29 71 31 72 24 73 25 74 26 75 27 76
REMARK SMILES IDX 28 77 54 78 55 79 64 80 56 81 57 82 63 83 65 84 58 85 59 86
REMARK SMILES IDX 60 87 61 88 62 89 38 90 39 91 48 92 40 93 41 94 47 95 49 96
REMARK SMILES IDX 42 97 43 98 44 99 45 100 46 101
REMARK H PARENT 3 7 8 32 70 51 36 62
REMARK Flexibility Score: inf
ROOT
ATOM      1  C   UNL A   1      33.206  27.266  26.107  1.00  0.00     0.023 C 
ENDROOT
BRANCH   1   2
ATOM      2  C   UNL A   1      33.779  26.511  24.918  1.00  0.00     0.023 C 
BRANCH   2   3
ATOM      3  C   UNL A   1      33.875  25.032  25.256  1.00  0.00     0.116 C 
BRANCH   3   4
ATOM      4  N   UNL A   1      34.089  24.260  24.023  1.00  0.00    -0.352 N 
ATOM      5  O   UNL A   1      33.355  22.502  22.604  1.00  0.00    -0.270 OA
ATOM      6  C   UNL A   1      33.170  23.169  23.670  1.00  0.00     0.251 C 
ATOM      7  H   UNL A   1      34.849  24.474  23.434  1.00  0.00     0.163 HD
BRANCH   6   8
ATOM      8  C   UNL A   1      31.996  22.839  24.579  1.00  0.00     0.067 C 
ATOM      9  C   UNL A   1      31.900  21.605  25.144  1.00  0.00     0.025 C 
ATOM     10  C   UNL A   1      30.931  23.888  24.855  1.00  0.00     0.314 C 
ATOM     11  C   UNL A   1      32.965  20.556  24.866  1.00  0.00     0.020 A 
ATOM     12  O   UNL A   1      34.545  22.318  25.098  1.00  0.00    -0.474 OA
ATOM     13  C   UNL A   1      32.624  19.253  24.546  1.00  0.00     0.036 A 
ATOM     14  C   UNL A   1      34.234  20.942  24.926  1.00  0.00     0.142 A 
ATOM     15  C   UNL A   1      33.712  18.349  24.588  1.00  0.00     0.109 A 
ATOM     16  C   UNL A   1      35.250  20.023  24.824  1.00  0.00     0.062 A 
ATOM     17  C   UNL A   1      34.984  18.707  24.566  1.00  0.00     0.044 A 
ATOM     18  Br  UNL A   1      37.108  20.606  25.048  1.00  0.00    -0.047 Br
BRANCH  10  19
ATOM     19  C   UNL A   1      30.875  24.171  26.348  1.00  0.00     0.429 C 
ATOM     20  F   UNL A   1      32.050  23.882  26.898  1.00  0.00    -0.167 F 
ATOM     21  F   UNL A   1      30.595  25.455  26.544  1.00  0.00    -0.167 F 
ATOM     22  F   UNL A   1      29.927  23.421  26.905  1.00  0.00    -0.167 F 
ENDBRANCH  10  19
BRANCH  15  23
ATOM     23  S   UNL A   1      33.336  16.581  24.676  1.00  0.00     0.310 S 
ATOM     24  F   UNL A   1      34.845  16.213  24.995  1.00  0.00    -0.094 F 
ATOM     25  F   UNL A   1      33.699  16.456  23.148  1.00  0.00    -0.094 F 
ATOM     26  F   UNL A   1      33.013  15.063  24.753  1.00  0.00    -0.094 F 
ATOM     27  F   UNL A   1      33.112  16.699  26.235  1.00  0.00    -0.094 F 
ATOM     28  F   UNL A   1      33.770  18.101  24.639  1.00  0.00    -0.094 F 
ENDBRANCH  15  23
ENDBRANCH   6   8
ENDBRANCH   3   4
ENDBRANCH   2   3
ENDBRANCH   1   2
BRANCH   1  29
ATOM     29  C   UNL A   1      34.285  28.148  26.714  1.00  0.00     0.116 C 
BRANCH  29  30
ATOM     30  N   UNL A   1      33.694  29.427  27.133  1.00  0.00    -0.352 N 
ATOM     31  C   UNL A   1      34.494  30.390  27.903  1.00  0.00     0.251 C 
ATOM     32  H   UNL A   1      32.761  29.639  26.898  1.00  0.00     0.163 HD
ATOM     33  O   UNL A   1      33.983  31.496  28.265  1.00  0.00    -0.269 OA
BRANCH  31  34
ATOM     34  C   UNL A   1      35.933  30.063  28.267  1.00  0.00     0.039 A 
ATOM     35  C   UNL A   1      36.905  30.309  27.310  1.00  0.00     0.014 A 
ATOM     36  C   UNL A   1      36.249  29.575  29.461  1.00  0.00     0.014 A 
ATOM     37  C   UNL A   1      38.162  29.732  27.609  1.00  0.00     0.010 A 
ATOM     38  C   UNL A   1      37.530  29.156  29.727  1.00  0.00     0.010 A 
ATOM     39  C   UNL A   1      38.528  29.313  28.807  1.00  0.00    -0.014 A 
BRANCH  39  40
ATOM     40  C   UNL A   1      39.982  29.023  29.143  1.00  0.00     0.031 A 
ATOM     41  C   UNL A   1      40.779  29.999  29.743  1.00  0.00     0.074 A 
ATOM     42  C   UNL A   1      40.438  27.768  28.777  1.00  0.00     0.049 A 
ATOM     43  N   UNL A   1      42.062  29.899  30.092  1.00  0.00    -0.248 NA
ATOM     44  C   UNL A   1      40.306  31.345  30.101  1.00  0.00     0.031 C 
ATOM     45  C   UNL A   1      39.638  26.775  28.179  1.00  0.00     0.029 A 
ATOM     46  N   UNL A   1      41.709  27.257  28.917  1.00  0.00    -0.354 N 
ATOM     47  C   UNL A   1      42.475  31.035  30.658  1.00  0.00     0.074 A 
ATOM     48  C   UNL A   1      41.354  31.983  30.666  1.00  0.00     0.031 C 
ATOM     49  C   UNL A   1      40.418  25.686  27.951  1.00  0.00     0.029 A 
ATOM     50  C   UNL A   1      41.719  25.980  28.402  1.00  0.00     0.049 A 
ATOM     51  H   UNL A   1      42.479  27.725  29.314  1.00  0.00     0.167 HD
ATOM     52  C   UNL A   1      43.743  31.317  31.170  1.00  0.00     0.037 A 
ATOM     53  C   UNL A   1      42.791  25.105  28.321  1.00  0.00     0.037 A 
ATOM     54  C   UNL A   1      44.804  30.425  31.128  1.00  0.00     0.049 A 
ATOM     55  C   UNL A   1      44.074  25.408  28.781  1.00  0.00     0.074 A 
ATOM     56  C   UNL A   1      46.087  30.691  31.646  1.00  0.00     0.029 A 
ATOM     57  N   UNL A   1      44.819  29.157  30.592  1.00  0.00    -0.354 N 
ATOM     58  N   UNL A   1      44.477  26.528  29.381  1.00  0.00    -0.248 NA
ATOM     59  C   UNL A   1      45.226  24.501  28.670  1.00  0.00     0.031 C 
ATOM     60  C   UNL A   1      46.867  29.602  31.417  1.00  0.00     0.029 A 
ATOM     61  C   UNL A   1      46.085  28.637  30.752  1.00  0.00     0.049 A 
ATOM     62  H   UNL A   1      44.057  28.701  30.168  1.00  0.00     0.167 HD
ATOM     63  C   UNL A   1      45.771  26.443  29.694  1.00  0.00     0.074 A 
ATOM     64  C   UNL A   1      46.274  25.141  29.235  1.00  0.00     0.031 C 
ATOM     65  C   UNL A   1      46.554  27.397  30.347  1.00  0.00     0.037 A 
BRANCH  52  66
ATOM     66  C   UNL A   1      43.973  32.677  31.809  1.00  0.00     0.058 A 
ATOM     67  C   UNL A   1      43.702  32.831  33.157  1.00  0.00     0.135 A 
ATOM     68  C   UNL A   1      44.300  33.715  31.048  1.00  0.00     0.135 A 
ATOM     69  F   UNL A   1      43.621  31.808  34.004  1.00  0.00    -0.206 F 
ATOM     70  C   UNL A   1      43.519  34.177  33.555  1.00  0.00     0.059 A 
ATOM     71  C   UNL A   1      44.229  34.995  31.543  1.00  0.00     0.059 A 
ATOM     72  F   UNL A   1      44.700  33.514  29.796  1.00  0.00    -0.206 F 
ATOM     73  C   UNL A   1      43.909  35.225  32.853  1.00  0.00     0.060 A 
BRANCH  73  74
ATOM     74  S   UNL A   1      44.014  36.877  33.584  1.00  0.00     0.124 S 
ATOM     75  O   UNL A   1      42.657  37.261  34.175  1.00  0.00    -0.237 OA
ATOM     76  O   UNL A   1      45.072  36.879  34.690  1.00  0.00    -0.237 OA
ATOM     77  O   UNL A   1      44.451  38.007  32.377  1.00  0.00    -0.744 OA
ENDBRANCH  73  74
ENDBRANCH  52  66
BRANCH  53  78
ATOM     78  C   UNL A   1      42.556  23.739  27.698  1.00  0.00     0.058 A 
ATOM     79  C   UNL A   1      42.643  23.537  26.331  1.00  0.00     0.135 A 
ATOM     80  C   UNL A   1      42.380  22.723  28.535  1.00  0.00     0.135 A 
ATOM     81  F   UNL A   1      43.067  24.471  25.485  1.00  0.00    -0.206 F 
ATOM     82  C   UNL A   1      42.239  22.246  25.915  1.00  0.00     0.059 A 
ATOM     83  C   UNL A   1      42.123  21.460  28.057  1.00  0.00     0.059 A 
ATOM     84  F   UNL A   1      42.451  22.929  29.846  1.00  0.00    -0.206 F 
ATOM     85  C   UNL A   1      42.134  21.200  26.715  1.00  0.00     0.060 A 
BRANCH  85  86
ATOM     86  S   UNL A   1      42.011  19.514  26.069  1.00  0.00     0.124 S 
ATOM     87  O   UNL A   1      42.494  18.524  27.131  1.00  0.00    -0.237 OA
ATOM     88  O   UNL A   1      40.555  19.210  25.712  1.00  0.00    -0.237 OA
ATOM     89  O   UNL A   1      42.984  19.368  24.669  1.00  0.00    -0.744 OA
ENDBRANCH  85  86
ENDBRANCH  53  78
BRANCH  65  90
ATOM     90  C   UNL A   1      48.007  27.056  30.631  1.00  0.00     0.058 A 
ATOM     91  C   UNL A   1      48.266  26.369  31.806  1.00  0.00     0.135 A 
ATOM     92  C   UNL A   1      48.984  27.372  29.789  1.00  0.00     0.135 A 
ATOM     93  F   UNL A   1      47.311  25.814  32.547  1.00  0.00    -0.206 F 
ATOM     94  C   UNL A   1      49.638  26.310  32.147  1.00  0.00     0.059 A 
ATOM     95  C   UNL A   1      50.298  27.162  30.131  1.00  0.00     0.059 A 
ATOM     96  F   UNL A   1      48.688  27.896  28.603  1.00  0.00    -0.206 F 
ATOM     97  C   UNL A   1      50.628  26.541  31.304  1.00  0.00     0.060 A 
BRANCH  97  98
ATOM     98  S   UNL A   1      52.333  26.062  31.682  1.00  0.00     0.124 S 
ATOM     99  O   UNL A   1      53.161  26.067  30.395  1.00  0.00    -0.237 OA
ATOM    100  O   UNL A   1      52.933  27.055  32.679  1.00  0.00    -0.237 OA
ATOM    101  O   UNL A   1      52.346  24.494  32.363  1.00  0.00    -0.744 OA
ENDBRANCH  97  98
ENDBRANCH  65  90
ENDBRANCH  39  40
ENDBRANCH  31  34
ENDBRANCH  29  30
ENDBRANCH   1  29
TORSDOF 16
ENDMDL
MODEL 2
REMARK VINA RESULT:     -13.0      3.691      8.776
REMARK SMILES O=C(NCCCCNC(=O)c1ccc(-c2c3nc(c(-c4c(F)cc(S(=O)(=O)[O-])cc4F)c4ccc([nH]4)c(-c4c(F)cc(S(=O)(=O)[O-])cc4F)c4nc(c(-c5c(F)cc(S(=O)(=O)[O-])cc5F)c5ccc2[nH]5)C=C4)C=C3)cc1)C1=Cc2cc(S(F)(F)(F)(F)F)cc(Br)c2O[C@@H]1C(F)(F)F
REMARK SMILES IDX 6 1 5 2 4 3 3 4 1 5 2 6 77 8 78 9 93 10 79 11 92 12 80 13
REMARK SMILES IDX 91 14 81 15 89 16 88 17 90 18 94 19 95 20 96 21 97 22 82 23
REMARK SMILES IDX 83 24 84 25 85 26 86 27 87 28 7 29 8 30 9 31 10 33 11 34
REMARK SMILES IDX 12 35 76 36 13 37 75 38 14 39 15 40 16 41 69 42 17 43 74 44
REMARK SMILES IDX 68 45 70 46 18 47 73 48 67 49 66 50 19 52 53 53 32 54 52 55
REMARK SMILES IDX 33 56 36 57 51 58 71 59 34 60 35 61 50 63 72 64 37 65 20 66
REMARK SMILES IDX 21 67 30 68 22 69 23 70 29 71 31 72 24 73 25 74 26 75 27 76
REMARK SMILES IDX 28 77 54 78 55 79 64 80 56 81 57 82 63 83 65 84 58 85 59 86
REMARK SMILES IDX 60 87 61 88 62 89 38 90 39 91 48 92 40 93 41 94 47 95 49 96
REMARK SMILES IDX 42 97 43 98 44 99 45 100 46 101
REMARK H PARENT 3 7 8 32 70 51 36 62
REMARK Flexibility Score: inf
ROOT
ATOM      1  C   UNL A   1      35.584  23.369  25.301  1.00  0.00     0.023 C 
ENDROOT
BRANCH   1   2
ATOM      2  C   UNL A   1      35.044  23.733  23.927  1.00  0.00     0.023 C 
BRANCH   2   3
ATOM      3  C   UNL A   1      34.369  25.093  23.992  1.00  0.00     0.116 C 
BRANCH   3   4
ATOM      4  N   UNL A   1      33.121  25.059  23.216  1.00  0.00    -0.352 N 
ATOM      5  O   UNL A   1      30.775  24.688  23.206  1.00  0.00    -0.270 OA
ATOM      6  C   UNL A   1      31.854  24.717  23.877  1.00  0.00     0.251 C 
ATOM      7  H   UNL A   1      33.135  25.264  22.253  1.00  0.00     0.163 HD
BRANCH   6   8
ATOM      8  C   UNL A   1      31.833  24.401  25.364  1.00  0.00     0.067 C 
ATOM      9  C   UNL A   1      32.011  25.397  26.274  1.00  0.00     0.025 C 
ATOM     10  C   UNL A   1      31.615  22.972  25.834  1.00  0.00     0.314 C 
ATOM     11  C   UNL A   1      32.231  26.826  25.804  1.00  0.00     0.020 A 
ATOM     12  O   UNL A   1      30.536  26.396  24.194  1.00  0.00    -0.474 OA
ATOM     13  C   UNL A   1      33.229  27.616  26.348  1.00  0.00     0.036 A 
ATOM     14  C   UNL A   1      31.440  27.281  24.839  1.00  0.00     0.142 A 
ATOM     15  C   UNL A   1      33.127  28.986  26.006  1.00  0.00     0.109 A 
ATOM     16  C   UNL A   1      31.488  28.601  24.461  1.00  0.00     0.062 A 
ATOM     17  C   UNL A   1      32.410  29.454  24.999  1.00  0.00     0.044 A 
ATOM     18  Br  UNL A   1      30.217  29.271  23.127  1.00  0.00    -0.047 Br
BRANCH  10  19
ATOM     19  C   UNL A   1      30.365  22.908  26.697  1.00  0.00     0.429 C 
ATOM     20  F   UNL A   1      29.688  24.046  26.580  1.00  0.00    -0.167 F 
ATOM     21  F   UNL A   1      29.603  21.895  26.299  1.00  0.00    -0.167 F 
ATOM     22  F   UNL A   1      30.713  22.728  27.968  1.00  0.00    -0.167 F 
ENDBRANCH  10  19
BRANCH  15  23
ATOM     23  S   UNL A   1      34.041  30.178  27.015  1.00  0.00     0.310 S 
ATOM     24  F   UNL A   1      34.258  29.120  28.178  1.00  0.00    -0.094 F 
ATOM     25  F   UNL A   1      32.689  30.575  27.721  1.00  0.00    -0.094 F 
ATOM     26  F   UNL A   1      34.827  31.201  27.881  1.00  0.00    -0.094 F 
ATOM     27  F   UNL A   1      35.402  29.667  26.398  1.00  0.00    -0.094 F 
ATOM     28  F   UNL A   1      33.272  29.054  26.210  1.00  0.00    -0.094 F 
ENDBRANCH  15  23
ENDBRANCH   6   8
ENDBRANCH   3   4
ENDBRANCH   2   3
ENDBRANCH   1   2
BRANCH   1  29
ATOM     29  C   UNL A   1      37.003  23.897  25.445  1.00  0.00     0.116 C 
BRANCH  29  30
ATOM     30  N   UNL A   1      37.950  22.773  25.414  1.00  0.00    -0.352 N 
ATOM     31  C   UNL A   1      39.248  22.888  26.093  1.00  0.00     0.251 C 
ATOM     32  H   UNL A   1      37.714  21.944  24.939  1.00  0.00     0.163 HD
ATOM     33  O   UNL A   1      40.067  21.916  26.067  1.00  0.00    -0.269 OA
BRANCH  31  34
ATOM     34  C   UNL A   1      39.612  24.168  26.827  1.00  0.00     0.039 A 
ATOM     35  C   UNL A   1      39.274  24.254  28.168  1.00  0.00     0.014 A 
ATOM     36  C   UNL A   1      40.244  25.160  26.210  1.00  0.00     0.014 A 
ATOM     37  C   UNL A   1      39.390  25.558  28.705  1.00  0.00     0.010 A 
ATOM     38  C   UNL A   1      40.444  26.362  26.845  1.00  0.00     0.010 A 
ATOM     39  C   UNL A   1      40.081  26.538  28.151  1.00  0.00    -0.014 A 
BRANCH  39  40
ATOM     40  C   UNL A   1      40.450  27.793  28.925  1.00  0.00     0.031 A 
ATOM     41  C   UNL A   1      39.545  28.850  29.034  1.00  0.00     0.074 A 
ATOM     42  C   UNL A   1      41.729  27.811  29.454  1.00  0.00     0.049 A 
ATOM     43  N   UNL A   1      39.721  30.009  29.670  1.00  0.00    -0.248 NA
ATOM     44  C   UNL A   1      38.198  28.847  28.443  1.00  0.00     0.031 C 
ATOM     45  C   UNL A   1      42.645  26.745  29.354  1.00  0.00     0.029 A 
ATOM     46  N   UNL A   1      42.340  28.828  30.154  1.00  0.00    -0.354 N 
ATOM     47  C   UNL A   1      38.623  30.760  29.572  1.00  0.00     0.074 A 
ATOM     48  C   UNL A   1      37.630  30.026  28.776  1.00  0.00     0.031 C 
ATOM     49  C   UNL A   1      43.795  27.119  29.975  1.00  0.00     0.029 A 
ATOM     50  C   UNL A   1      43.617  28.424  30.473  1.00  0.00     0.049 A 
ATOM     51  H   UNL A   1      41.934  29.694  30.385  1.00  0.00     0.167 HD
ATOM     52  C   UNL A   1      38.409  32.028  30.116  1.00  0.00     0.037 A 
ATOM     53  C   UNL A   1      44.588  29.139  31.158  1.00  0.00     0.037 A 
ATOM     54  C   UNL A   1      39.365  32.725  30.839  1.00  0.00     0.049 A 
ATOM     55  C   UNL A   1      44.394  30.430  31.653  1.00  0.00     0.074 A 
ATOM     56  C   UNL A   1      39.163  34.000  31.400  1.00  0.00     0.029 A 
ATOM     57  N   UNL A   1      40.650  32.330  31.137  1.00  0.00    -0.354 N 
ATOM     58  N   UNL A   1      43.283  31.164  31.588  1.00  0.00    -0.248 NA
ATOM     59  C   UNL A   1      45.425  31.209  32.351  1.00  0.00     0.031 C 
ATOM     60  C   UNL A   1      40.313  34.374  32.021  1.00  0.00     0.029 A 
ATOM     61  C   UNL A   1      41.253  33.338  31.857  1.00  0.00     0.049 A 
ATOM     62  H   UNL A   1      41.065  31.476  30.880  1.00  0.00     0.167 HD
ATOM     63  C   UNL A   1      43.473  32.341  32.189  1.00  0.00     0.074 A 
ATOM     64  C   UNL A   1      44.856  32.390  32.683  1.00  0.00     0.031 C 
ATOM     65  C   UNL A   1      42.549  33.374  32.349  1.00  0.00     0.037 A 
BRANCH  52  66
ATOM     66  C   UNL A   1      37.052  32.680  29.905  1.00  0.00     0.058 A 
ATOM     67  C   UNL A   1      36.885  33.530  28.826  1.00  0.00     0.135 A 
ATOM     68  C   UNL A   1      36.100  32.529  30.818  1.00  0.00     0.135 A 
ATOM     69  F   UNL A   1      37.688  33.525  27.765  1.00  0.00    -0.206 F 
ATOM     70  C   UNL A   1      35.782  34.407  28.953  1.00  0.00     0.059 A 
ATOM     71  C   UNL A   1      34.983  33.330  30.802  1.00  0.00     0.059 A 
ATOM     72  F   UNL A   1      36.228  31.596  31.756  1.00  0.00    -0.206 F 
ATOM     73  C   UNL A   1      34.781  34.235  29.798  1.00  0.00     0.060 A 
BRANCH  73  74
ATOM     74  S   UNL A   1      33.227  35.148  29.635  1.00  0.00     0.124 S 
ATOM     75  O   UNL A   1      32.400  34.549  28.497  1.00  0.00    -0.237 OA
ATOM     76  O   UNL A   1      32.440  35.053  30.944  1.00  0.00    -0.237 OA
ATOM     77  O   UNL A   1      33.564  36.789  29.291  1.00  0.00    -0.744 OA
ENDBRANCH  73  74
ENDBRANCH  52  66
BRANCH  53  78
ATOM     78  C   UNL A   1      45.938  28.479  31.384  1.00  0.00     0.058 A 
ATOM     79  C   UNL A   1      46.168  27.638  32.459  1.00  0.00     0.135 A 
ATOM     80  C   UNL A   1      46.854  28.654  30.438  1.00  0.00     0.135 A 
ATOM     81  F   UNL A   1      45.205  27.237  33.285  1.00  0.00    -0.206 F 
ATOM     82  C   UNL A   1      47.519  27.243  32.600  1.00  0.00     0.059 A 
ATOM     83  C   UNL A   1      48.114  28.126  30.579  1.00  0.00     0.059 A 
ATOM     84  F   UNL A   1      46.549  29.347  29.345  1.00  0.00    -0.206 F 
ATOM     85  C   UNL A   1      48.429  27.332  31.647  1.00  0.00     0.060 A 
BRANCH  85  86
ATOM     86  S   UNL A   1      50.007  26.453  31.751  1.00  0.00     0.124 S 
ATOM     87  O   UNL A   1      50.520  26.492  33.192  1.00  0.00    -0.237 OA
ATOM     88  O   UNL A   1      49.810  24.998  31.318  1.00  0.00    -0.237 OA
ATOM     89  O   UNL A   1      51.147  27.205  30.720  1.00  0.00    -0.744 OA
ENDBRANCH  85  86
ENDBRANCH  53  78
BRANCH  65  90
ATOM     90  C   UNL A   1      42.988  34.614  33.111  1.00  0.00     0.058 A 
ATOM     91  C   UNL A   1      43.563  35.630  32.365  1.00  0.00     0.135 A 
ATOM     92  C   UNL A   1      42.806  34.739  34.420  1.00  0.00     0.135 A 
ATOM     93  F   UNL A   1      43.536  35.659  31.036  1.00  0.00    -0.206 F 
ATOM     94  C   UNL A   1      44.185  36.633  33.146  1.00  0.00     0.059 A 
ATOM     95  C   UNL A   1      43.324  35.815  35.099  1.00  0.00     0.059 A 
ATOM     96  F   UNL A   1      42.116  33.813  35.081  1.00  0.00    -0.206 F 
ATOM     97  C   UNL A   1      43.958  36.827  34.433  1.00  0.00     0.060 A 
BRANCH  97  98
ATOM     98  S   UNL A   1      44.461  38.352  35.269  1.00  0.00     0.124 S 
ATOM     99  O   UNL A   1      45.959  38.580  35.057  1.00  0.00    -0.237 OA
ATOM    100  O   UNL A   1      43.677  39.533  34.693  1.00  0.00    -0.237 OA
ATOM    101  O   UNL A   1      44.137  38.217  36.943  1.00  0.00    -0.744 OA
ENDBRANCH  97  98
ENDBRANCH  65  90
ENDBRANCH  39  40
ENDBRANCH  31  34
ENDBRANCH  29  30
ENDBRANCH   1  29
TORSDOF 16
ENDMDL
MODEL 3
REMARK VINA RESULT:     -12.9      2.303      7.971
REMARK SMILES O=C(NCCCCNC(=O)c1ccc(-c2c3nc(c(-c4c(F)cc(S(=O)(=O)[O-])cc4F)c4ccc([nH]4)c(-c4c(F)cc(S(=O)(=O)[O-])cc4F)c4nc(c(-c5c(F)cc(S(=O)(=O)[O-])cc5F)c5ccc2[nH]5)C=C4)C=C3)cc1)C1=Cc2cc(S(F)(F)(F)(F)F)cc(Br)c2O[C@@H]1C(F)(F)F
REMARK SMILES IDX 6 1 5 2 4 3 3 4 1 5 2 6 77 8 78 9 93 10 79 11 92 12 80 13
REMARK SMILES IDX 91 14 81 15 89 16 88 17 90 18 94 19 95 20 96 21 97 22 82 23
REMARK SMILES IDX 83 24 84 25 85 26 86 27 87 28 7 29 8 30 9 31 10 33 11 34
REMARK SMILES IDX 12 35 76 36 13 37 75 38 14 39 15 40 16 41 69 42 17 43 74 44
REMARK SMILES IDX 68 45 70 46 18 47 73 48 67 49 66 50 19 52 53 53 32 54 52 55
REMARK SMILES IDX 33 56 36 57 51 58 71 59 34 60 35 61 50 63 72 64 37 65 20 66
REMARK SMILES IDX 21 67 30 68 22 69 23 70 29 71 31 72 24 73 25 74 26 75 27 76
REMARK SMILES IDX 28 77 54 78 55 79 64 80 56 81 57 82 63 83 65 84 58 85 59 86
REMARK SMILES IDX 60 87 61 88 62 89 38 90 39 91 48 92 40 93 41 94 47 95 49 96
REMARK SMILES IDX 42 97 43 98 44 99 45 100 46 101
REMARK H PARENT 3 7 8 32 70 51 36 62
REMARK Flexibility Score: inf
ROOT
ATOM      1  C   UNL A   1      33.373  27.729  26.184  1.00  0.00     0.023 C 
ENDROOT
BRANCH   1   2
ATOM      2  C   UNL A   1      33.518  26.894  24.922  1.00  0.00     0.023 C 
BRANCH   2   3
ATOM      3  C   UNL A   1      33.795  25.448  25.301  1.00  0.00     0.116 C 
BRANCH   3   4
ATOM      4  N   UNL A   1      34.102  24.673  24.090  1.00  0.00    -0.352 N 
ATOM      5  O   UNL A   1      33.503  22.881  22.649  1.00  0.00    -0.270 OA
ATOM      6  C   UNL A   1      33.238  23.551  23.697  1.00  0.00     0.251 C 
ATOM      7  H   UNL A   1      34.886  24.906  23.543  1.00  0.00     0.163 HD
BRANCH   6   8
ATOM      8  C   UNL A   1      32.026  23.192  24.542  1.00  0.00     0.067 C 
ATOM      9  C   UNL A   1      31.911  21.942  25.069  1.00  0.00     0.025 C 
ATOM     10  C   UNL A   1      30.943  24.227  24.797  1.00  0.00     0.314 C 
ATOM     11  C   UNL A   1      32.994  20.906  24.813  1.00  0.00     0.020 A 
ATOM     12  O   UNL A   1      34.551  22.668  25.164  1.00  0.00    -0.474 OA
ATOM     13  C   UNL A   1      32.676  19.611  24.443  1.00  0.00     0.036 A 
ATOM     14  C   UNL A   1      34.257  21.296  24.941  1.00  0.00     0.142 A 
ATOM     15  C   UNL A   1      33.766  18.711  24.511  1.00  0.00     0.109 A 
ATOM     16  C   UNL A   1      35.282  20.385  24.861  1.00  0.00     0.062 A 
ATOM     17  C   UNL A   1      35.036  19.075  24.557  1.00  0.00     0.044 A 
ATOM     18  Br  UNL A   1      37.124  20.971  25.186  1.00  0.00    -0.047 Br
BRANCH  10  19
ATOM     19  C   UNL A   1      30.817  24.470  26.292  1.00  0.00     0.429 C 
ATOM     20  F   UNL A   1      30.604  25.764  26.514  1.00  0.00    -0.167 F 
ATOM     21  F   UNL A   1      29.798  23.763  26.772  1.00  0.00    -0.167 F 
ATOM     22  F   UNL A   1      31.940  24.094  26.898  1.00  0.00    -0.167 F 
ENDBRANCH  10  19
BRANCH  15  23
ATOM     23  S   UNL A   1      33.397  16.939  24.535  1.00  0.00     0.310 S 
ATOM     24  F   UNL A   1      34.911  16.564  24.823  1.00  0.00    -0.094 F 
ATOM     25  F   UNL A   1      33.744  16.875  22.999  1.00  0.00    -0.094 F 
ATOM     26  F   UNL A   1      33.080  15.418  24.557  1.00  0.00    -0.094 F 
ATOM     27  F   UNL A   1      33.190  16.997  26.100  1.00  0.00    -0.094 F 
ATOM     28  F   UNL A   1      33.826  18.461  24.552  1.00  0.00    -0.094 F 
ENDBRANCH  15  23
ENDBRANCH   6   8
ENDBRANCH   3   4
ENDBRANCH   2   3
ENDBRANCH   1   2
BRANCH   1  29
ATOM     29  C   UNL A   1      34.421  28.830  26.186  1.00  0.00     0.116 C 
BRANCH  29  30
ATOM     30  N   UNL A   1      33.807  30.091  26.626  1.00  0.00    -0.352 N 
ATOM     31  C   UNL A   1      34.464  30.908  27.657  1.00  0.00     0.251 C 
ATOM     32  H   UNL A   1      32.956  30.388  26.230  1.00  0.00     0.163 HD
ATOM     33  O   UNL A   1      33.933  31.998  28.038  1.00  0.00    -0.269 OA
BRANCH  31  34
ATOM     34  C   UNL A   1      35.778  30.448  28.268  1.00  0.00     0.039 A 
ATOM     35  C   UNL A   1      36.948  30.879  27.665  1.00  0.00     0.014 A 
ATOM     36  C   UNL A   1      35.803  29.676  29.349  1.00  0.00     0.014 A 
ATOM     37  C   UNL A   1      38.106  30.200  28.110  1.00  0.00     0.010 A 
ATOM     38  C   UNL A   1      36.989  29.157  29.808  1.00  0.00     0.010 A 
ATOM     39  C   UNL A   1      38.178  29.492  29.223  1.00  0.00    -0.014 A 
BRANCH  39  40
ATOM     40  C   UNL A   1      39.512  29.074  29.821  1.00  0.00     0.031 A 
ATOM     41  C   UNL A   1      40.240  28.023  29.260  1.00  0.00     0.074 A 
ATOM     42  C   UNL A   1      39.903  29.772  30.950  1.00  0.00     0.049 A 
ATOM     43  N   UNL A   1      41.414  27.539  29.668  1.00  0.00    -0.248 NA
ATOM     44  C   UNL A   1      39.809  27.257  28.081  1.00  0.00     0.031 C 
ATOM     45  C   UNL A   1      39.177  30.838  31.516  1.00  0.00     0.029 A 
ATOM     46  N   UNL A   1      41.031  29.576  31.716  1.00  0.00    -0.354 N 
ATOM     47  C   UNL A   1      41.806  26.546  28.868  1.00  0.00     0.074 A 
ATOM     48  C   UNL A   1      40.777  26.346  27.839  1.00  0.00     0.031 C 
ATOM     49  C   UNL A   1      39.852  31.270  32.614  1.00  0.00     0.029 A 
ATOM     50  C   UNL A   1      41.010  30.482  32.752  1.00  0.00     0.049 A 
ATOM     51  H   UNL A   1      41.731  28.903  31.552  1.00  0.00     0.167 HD
ATOM     52  C   UNL A   1      42.983  25.800  28.954  1.00  0.00     0.037 A 
ATOM     53  C   UNL A   1      41.939  30.628  33.772  1.00  0.00     0.037 A 
ATOM     54  C   UNL A   1      43.933  25.976  29.948  1.00  0.00     0.049 A 
ATOM     55  C   UNL A   1      43.087  29.844  33.891  1.00  0.00     0.074 A 
ATOM     56  C   UNL A   1      45.128  25.237  30.045  1.00  0.00     0.029 A 
ATOM     57  N   UNL A   1      43.901  26.866  30.998  1.00  0.00    -0.354 N 
ATOM     58  N   UNL A   1      43.498  28.877  33.069  1.00  0.00    -0.248 NA
ATOM     59  C   UNL A   1      44.061  29.967  34.984  1.00  0.00     0.031 C 
ATOM     60  C   UNL A   1      45.802  25.670  31.144  1.00  0.00     0.029 A 
ATOM     61  C   UNL A   1      45.039  26.685  31.751  1.00  0.00     0.049 A 
ATOM     62  H   UNL A   1      43.186  27.519  31.179  1.00  0.00     0.167 HD
ATOM     63  C   UNL A   1      44.653  28.366  33.500  1.00  0.00     0.074 A 
ATOM     64  C   UNL A   1      45.028  29.055  34.743  1.00  0.00     0.031 C 
ATOM     65  C   UNL A   1      45.410  27.355  32.907  1.00  0.00     0.037 A 
BRANCH  52  66
ATOM     66  C   UNL A   1      43.237  24.736  27.898  1.00  0.00     0.058 A 
ATOM     67  C   UNL A   1      42.873  23.429  28.172  1.00  0.00     0.135 A 
ATOM     68  C   UNL A   1      43.913  25.048  26.799  1.00  0.00     0.135 A 
ATOM     69  F   UNL A   1      41.991  23.103  29.113  1.00  0.00    -0.206 F 
ATOM     70  C   UNL A   1      43.525  22.470  27.361  1.00  0.00     0.059 A 
ATOM     71  C   UNL A   1      44.405  24.061  25.978  1.00  0.00     0.059 A 
ATOM     72  F   UNL A   1      44.116  26.324  26.489  1.00  0.00    -0.206 F 
ATOM     73  C   UNL A   1      44.135  22.743  26.221  1.00  0.00     0.060 A 
BRANCH  73  74
ATOM     74  S   UNL A   1      44.587  21.444  25.047  1.00  0.00     0.124 S 
ATOM     75  O   UNL A   1      44.550  22.005  23.624  1.00  0.00    -0.237 OA
ATOM     76  O   UNL A   1      45.999  20.942  25.360  1.00  0.00    -0.237 OA
ATOM     77  O   UNL A   1      43.480  20.147  25.177  1.00  0.00    -0.744 OA
ENDBRANCH  73  74
ENDBRANCH  52  66
BRANCH  53  78
ATOM     78  C   UNL A   1      41.693  31.704  34.816  1.00  0.00     0.058 A 
ATOM     79  C   UNL A   1      42.152  33.000  34.650  1.00  0.00     0.135 A 
ATOM     80  C   UNL A   1      40.916  31.374  35.842  1.00  0.00     0.135 A 
ATOM     81  F   UNL A   1      42.712  33.433  33.524  1.00  0.00    -0.206 F 
ATOM     82  C   UNL A   1      41.972  33.822  35.788  1.00  0.00     0.059 A 
ATOM     83  C   UNL A   1      40.673  32.273  36.852  1.00  0.00     0.059 A 
ATOM     84  F   UNL A   1      40.370  30.163  35.893  1.00  0.00    -0.206 F 
ATOM     85  C   UNL A   1      41.146  33.554  36.783  1.00  0.00     0.060 A 
BRANCH  85  86
ATOM     86  S   UNL A   1      40.665  34.815  37.988  1.00  0.00     0.124 S 
ATOM     87  O   UNL A   1      39.923  34.153  39.152  1.00  0.00    -0.237 OA
ATOM     88  O   UNL A   1      41.917  35.520  38.516  1.00  0.00    -0.237 OA
ATOM     89  O   UNL A   1      39.640  35.961  37.237  1.00  0.00    -0.744 OA
ENDBRANCH  85  86
ENDBRANCH  53  78
BRANCH  65  90
ATOM     90  C   UNL A   1      46.723  26.964  33.567  1.00  0.00     0.058 A 
ATOM     91  C   UNL A   1      46.666  25.954  34.513  1.00  0.00     0.135 A 
ATOM     92  C   UNL A   1      47.875  27.537  33.239  1.00  0.00     0.135 A 
ATOM     93  F   UNL A   1      45.595  25.186  34.691  1.00  0.00    -0.206 F 
ATOM     94  C   UNL A   1      47.850  25.814  35.275  1.00  0.00     0.059 A 
ATOM     95  C   UNL A   1      49.022  27.251  33.940  1.00  0.00     0.059 A 
ATOM     96  F   UNL A   1      47.919  28.395  32.224  1.00  0.00    -0.206 F 
ATOM     97  C   UNL A   1      49.026  26.306  34.928  1.00  0.00     0.060 A 
BRANCH  97  98
ATOM     98  S   UNL A   1      50.559  25.759  35.719  1.00  0.00     0.124 S 
ATOM     99  O   UNL A   1      51.758  26.287  34.927  1.00  0.00    -0.237 OA
ATOM    100  O   UNL A   1      50.616  26.297  37.150  1.00  0.00    -0.237 OA
ATOM    101  O   UNL A   1      50.606  24.050  35.751  1.00  0.00    -0.744 OA
ENDBRANCH  97  98
ENDBRANCH  65  90
ENDBRANCH  39  40
ENDBRANCH  31  34
ENDBRANCH  29  30
ENDBRANCH   1  29
TORSDOF 16
ENDMDL
