MODEL 1
REMARK VINA RESULT:     -11.7      0.000      0.000
REMARK SMILES CCCc1cc(OC(F)(F)F)cc2c1O[C@@H](C(F)(F)F)C(C(=O)NCCCCNC(=O)c1ccc(-c3c4nc(c(-c5c(F)cc(S(=O)(=O)[O-])cc5F)c5ccc([nH]5)c(-c5c(F)cc(S(=O)(=O)[O-])cc5F)c5nc(c(-c6c(F)cc(S(=O)(=O)[O-])cc6F)c6ccc3[nH]6)C=C5)C=C4)cc1)=C2
REMARK SMILES IDX 27 1 26 2 25 3 24 4 22 5 23 6 21 8 4 9 5 10 14 11 6 12 13 13
REMARK SMILES IDX 15 14 12 15 98 16 16 17 3 18 2 19 1 20 7 21 8 22 9 23 10 24
REMARK SMILES IDX 11 25 17 26 18 27 19 28 20 29 28 30 29 31 30 32 31 34 32 35
REMARK SMILES IDX 33 36 97 37 34 38 96 39 35 40 36 41 37 42 90 43 38 44 95 45
REMARK SMILES IDX 89 46 91 47 39 48 94 49 88 50 87 51 40 53 74 54 53 55 73 56
REMARK SMILES IDX 54 57 57 58 72 59 92 60 55 61 56 62 71 64 93 65 58 66 41 67
REMARK SMILES IDX 42 68 51 69 43 70 44 71 50 72 52 73 45 74 46 75 47 76 48 77
REMARK SMILES IDX 49 78 75 79 76 80 85 81 77 82 78 83 84 84 86 85 79 86 80 87
REMARK SMILES IDX 81 88 82 89 83 90 59 91 60 92 69 93 61 94 62 95 68 96 70 97
REMARK SMILES IDX 63 98 64 99 65 100 66 101 67 102
REMARK H PARENT 24 7 29 33 91 52 57 63
REMARK Flexibility Score: inf
ROOT
ATOM      1  C   UNL A   1      34.225  29.657  26.810  1.00  0.00     0.023 C 
ENDROOT
BRANCH   1   2
ATOM      2  C   UNL A   1      32.758  29.523  27.226  1.00  0.00     0.023 C 
BRANCH   2   3
ATOM      3  C   UNL A   1      31.997  28.411  26.492  1.00  0.00     0.116 C 
BRANCH   3   4
ATOM      4  N   UNL A   1      32.027  28.663  25.062  1.00  0.00    -0.352 N 
ATOM      5  C   UNL A   1      32.534  27.942  24.028  1.00  0.00     0.251 C 
ATOM      6  O   UNL A   1      32.724  28.516  22.960  1.00  0.00    -0.270 OA
ATOM      7  H   UNL A   1      31.603  29.510  24.794  1.00  0.00     0.163 HD
BRANCH   5   8
ATOM      8  C   UNL A   1      32.797  26.480  24.118  1.00  0.00     0.067 C 
ATOM      9  C   UNL A   1      33.215  22.304  24.546  1.00  0.00    -0.002 A 
ATOM     10  C   UNL A   1      34.433  21.810  25.073  1.00  0.00     0.054 A 
ATOM     11  C   UNL A   1      33.070  23.688  24.354  1.00  0.00     0.131 A 
ATOM     12  C   UNL A   1      35.485  22.667  25.393  1.00  0.00     0.130 A 
ATOM     13  C   UNL A   1      34.116  24.544  24.691  1.00  0.00     0.021 A 
ATOM     14  O   UNL A   1      31.886  24.156  23.864  1.00  0.00    -0.475 OA
ATOM     15  C   UNL A   1      35.317  24.034  25.199  1.00  0.00     0.058 A 
ATOM     16  C   UNL A   1      33.948  25.980  24.582  1.00  0.00     0.025 C 
ATOM     17  C   UNL A   1      31.750  25.565  23.495  1.00  0.00     0.314 C 
BRANCH   9  18
ATOM     18  C   UNL A   1      32.156  21.300  24.137  1.00  0.00     0.039 C 
BRANCH  18  19
ATOM     19  C   UNL A   1      32.465  19.820  24.386  1.00  0.00     0.001 C 
ATOM     20  C   UNL A   1      32.509  18.973  23.122  1.00  0.00     0.004 C 
ENDBRANCH  18  19
ENDBRANCH   9  18
BRANCH  12  21
ATOM     21  O   UNL A   1      36.706  22.321  25.893  1.00  0.00    -0.406 OA
BRANCH  21  22
ATOM     22  C   UNL A   1      37.591  21.598  25.058  1.00  0.00     0.573 C 
ATOM     23  F   UNL A   1      37.418  21.930  23.762  1.00  0.00    -0.132 F 
ATOM     24  F   UNL A   1      38.878  21.812  25.410  1.00  0.00    -0.132 F 
ATOM     25  F   UNL A   1      37.335  20.278  25.194  1.00  0.00    -0.132 F 
ENDBRANCH  21  22
ENDBRANCH  12  21
BRANCH  17  26
ATOM     26  C   UNL A   1      30.272  25.962  23.734  1.00  0.00     0.429 C 
ATOM     27  F   UNL A   1      29.384  25.018  23.364  1.00  0.00    -0.167 F 
ATOM     28  F   UNL A   1      30.037  26.161  25.059  1.00  0.00    -0.167 F 
ATOM     29  F   UNL A   1      29.948  27.113  23.100  1.00  0.00    -0.167 F 
ENDBRANCH  17  26
ENDBRANCH   5   8
ENDBRANCH   3   4
ENDBRANCH   2   3
ENDBRANCH   1   2
BRANCH   1  30
ATOM     30  C   UNL A   1      35.219  29.360  27.922  1.00  0.00     0.116 C 
BRANCH  30  31
ATOM     31  N   UNL A   1      35.268  30.407  28.933  1.00  0.00    -0.352 N 
ATOM     32  C   UNL A   1      36.353  30.808  29.671  1.00  0.00     0.251 C 
ATOM     33  H   UNL A   1      34.424  30.883  29.106  1.00  0.00     0.163 HD
ATOM     34  O   UNL A   1      36.228  31.633  30.571  1.00  0.00    -0.269 OA
BRANCH  32  35
ATOM     35  C   UNL A   1      37.660  30.187  29.390  1.00  0.00     0.039 A 
ATOM     36  C   UNL A   1      38.088  30.083  28.066  1.00  0.00     0.014 A 
ATOM     37  C   UNL A   1      38.486  29.786  30.443  1.00  0.00     0.014 A 
ATOM     38  C   UNL A   1      39.380  29.630  27.798  1.00  0.00     0.010 A 
ATOM     39  C   UNL A   1      39.792  29.398  30.177  1.00  0.00     0.010 A 
ATOM     40  C   UNL A   1      40.251  29.317  28.853  1.00  0.00    -0.014 A 
BRANCH  40  41
ATOM     41  C   UNL A   1      41.647  28.883  28.607  1.00  0.00     0.031 A 
ATOM     42  C   UNL A   1      42.752  29.901  28.636  1.00  0.00     0.074 A 
ATOM     43  C   UNL A   1      41.902  27.604  28.271  1.00  0.00     0.049 A 
ATOM     44  N   UNL A   1      44.010  29.764  28.311  1.00  0.00    -0.248 NA
ATOM     45  C   UNL A   1      42.382  31.263  29.053  1.00  0.00     0.031 C 
ATOM     46  C   UNL A   1      40.903  26.537  28.170  1.00  0.00     0.029 A 
ATOM     47  N   UNL A   1      43.080  26.988  27.931  1.00  0.00    -0.354 N 
ATOM     48  C   UNL A   1      44.577  31.024  28.457  1.00  0.00     0.074 A 
ATOM     49  C   UNL A   1      43.515  31.923  28.858  1.00  0.00     0.031 C 
ATOM     50  C   UNL A   1      41.512  25.398  27.804  1.00  0.00     0.029 A 
ATOM     51  C   UNL A   1      42.935  25.659  27.608  1.00  0.00     0.049 A 
ATOM     52  H   UNL A   1      43.946  27.453  27.919  1.00  0.00     0.167 HD
ATOM     53  C   UNL A   1      45.868  31.394  28.289  1.00  0.00     0.037 A 
ATOM     54  C   UNL A   1      43.846  24.759  27.190  1.00  0.00     0.037 A 
ATOM     55  C   UNL A   1      46.922  30.485  27.927  1.00  0.00     0.049 A 
ATOM     56  C   UNL A   1      45.279  25.188  27.035  1.00  0.00     0.074 A 
ATOM     57  C   UNL A   1      48.273  30.747  27.784  1.00  0.00     0.029 A 
ATOM     58  N   UNL A   1      46.744  29.135  27.660  1.00  0.00    -0.354 N 
ATOM     59  N   UNL A   1      45.808  26.376  27.218  1.00  0.00    -0.248 NA
ATOM     60  C   UNL A   1      46.242  24.158  26.622  1.00  0.00     0.031 C 
ATOM     61  C   UNL A   1      48.909  29.560  27.403  1.00  0.00     0.029 A 
ATOM     62  C   UNL A   1      47.959  28.552  27.346  1.00  0.00     0.049 A 
ATOM     63  H   UNL A   1      45.881  28.663  27.687  1.00  0.00     0.167 HD
ATOM     64  C   UNL A   1      47.169  26.228  26.974  1.00  0.00     0.074 A 
ATOM     65  C   UNL A   1      47.382  24.836  26.633  1.00  0.00     0.031 C 
ATOM     66  C   UNL A   1      48.152  27.159  27.030  1.00  0.00     0.037 A 
BRANCH  53  67
ATOM     67  C   UNL A   1      46.207  32.842  28.504  1.00  0.00     0.058 A 
ATOM     68  C   UNL A   1      46.628  33.321  29.754  1.00  0.00     0.135 A 
ATOM     69  C   UNL A   1      46.122  33.760  27.445  1.00  0.00     0.135 A 
ATOM     70  F   UNL A   1      46.708  32.490  30.805  1.00  0.00    -0.206 F 
ATOM     71  C   UNL A   1      46.923  34.665  29.956  1.00  0.00     0.059 A 
ATOM     72  C   UNL A   1      46.437  35.105  27.618  1.00  0.00     0.059 A 
ATOM     73  F   UNL A   1      45.722  33.356  26.230  1.00  0.00    -0.206 F 
ATOM     74  C   UNL A   1      46.820  35.551  28.882  1.00  0.00     0.060 A 
BRANCH  74  75
ATOM     75  S   UNL A   1      47.200  37.293  29.160  1.00  0.00     0.124 S 
ATOM     76  O   UNL A   1      46.818  37.881  27.879  1.00  0.00    -0.237 OA
ATOM     77  O   UNL A   1      46.341  37.627  30.291  1.00  0.00    -0.237 OA
ATOM     78  O   UNL A   1      48.632  37.286  29.446  1.00  0.00    -0.744 OA
ENDBRANCH  74  75
ENDBRANCH  53  67
BRANCH  54  79
ATOM     79  C   UNL A   1      43.433  23.358  26.914  1.00  0.00     0.058 A 
ATOM     80  C   UNL A   1      43.456  22.849  25.607  1.00  0.00     0.135 A 
ATOM     81  C   UNL A   1      43.028  22.498  27.945  1.00  0.00     0.135 A 
ATOM     82  F   UNL A   1      43.833  23.635  24.588  1.00  0.00    -0.206 F 
ATOM     83  C   UNL A   1      43.076  21.540  25.329  1.00  0.00     0.059 A 
ATOM     84  C   UNL A   1      42.663  21.178  27.695  1.00  0.00     0.059 A 
ATOM     85  F   UNL A   1      43.007  22.933  29.215  1.00  0.00    -0.206 F 
ATOM     86  C   UNL A   1      42.680  20.711  26.381  1.00  0.00     0.060 A 
BRANCH  86  87
ATOM     87  S   UNL A   1      42.237  19.000  26.016  1.00  0.00     0.124 S 
ATOM     88  O   UNL A   1      42.617  18.328  27.252  1.00  0.00    -0.237 OA
ATOM     89  O   UNL A   1      40.803  19.101  25.758  1.00  0.00    -0.237 OA
ATOM     90  O   UNL A   1      43.053  18.685  24.847  1.00  0.00    -0.744 OA
ENDBRANCH  86  87
ENDBRANCH  54  79
BRANCH  66  91
ATOM     91  C   UNL A   1      49.556  26.698  26.763  1.00  0.00     0.058 A 
ATOM     92  C   UNL A   1      50.365  26.169  27.779  1.00  0.00     0.135 A 
ATOM     93  C   UNL A   1      50.072  26.724  25.458  1.00  0.00     0.135 A 
ATOM     94  F   UNL A   1      49.918  26.128  29.045  1.00  0.00    -0.206 F 
ATOM     95  C   UNL A   1      51.644  25.693  27.513  1.00  0.00     0.059 A 
ATOM     96  C   UNL A   1      51.338  26.233  25.164  1.00  0.00     0.059 A 
ATOM     97  F   UNL A   1      49.331  27.213  24.448  1.00  0.00    -0.206 F 
ATOM     98  C   UNL A   1      52.121  25.728  26.201  1.00  0.00     0.060 A 
BRANCH  98  99
ATOM     99  S   UNL A   1      53.765  25.062  25.858  1.00  0.00     0.124 S 
ATOM    100  O   UNL A   1      54.336  24.988  27.198  1.00  0.00    -0.237 OA
ATOM    101  O   UNL A   1      53.460  23.782  25.226  1.00  0.00    -0.237 OA
ATOM    102  O   UNL A   1      54.357  26.064  24.976  1.00  0.00    -0.744 OA
ENDBRANCH  98  99
ENDBRANCH  66  91
ENDBRANCH  40  41
ENDBRANCH  32  35
ENDBRANCH  30  31
ENDBRANCH   1  30
TORSDOF 19
ENDMDL
MODEL 2
REMARK VINA RESULT:     -11.7      4.755      6.087
REMARK SMILES CCCc1cc(OC(F)(F)F)cc2c1O[C@@H](C(F)(F)F)C(C(=O)NCCCCNC(=O)c1ccc(-c3c4nc(c(-c5c(F)cc(S(=O)(=O)[O-])cc5F)c5ccc([nH]5)c(-c5c(F)cc(S(=O)(=O)[O-])cc5F)c5nc(c(-c6c(F)cc(S(=O)(=O)[O-])cc6F)c6ccc3[nH]6)C=C5)C=C4)cc1)=C2
REMARK SMILES IDX 27 1 26 2 25 3 24 4 22 5 23 6 21 8 4 9 5 10 14 11 6 12 13 13
REMARK SMILES IDX 15 14 12 15 98 16 16 17 3 18 2 19 1 20 7 21 8 22 9 23 10 24
REMARK SMILES IDX 11 25 17 26 18 27 19 28 20 29 28 30 29 31 30 32 31 34 32 35
REMARK SMILES IDX 33 36 97 37 34 38 96 39 35 40 36 41 37 42 90 43 38 44 95 45
REMARK SMILES IDX 89 46 91 47 39 48 94 49 88 50 87 51 40 53 74 54 53 55 73 56
REMARK SMILES IDX 54 57 57 58 72 59 92 60 55 61 56 62 71 64 93 65 58 66 41 67
REMARK SMILES IDX 42 68 51 69 43 70 44 71 50 72 52 73 45 74 46 75 47 76 48 77
REMARK SMILES IDX 49 78 75 79 76 80 85 81 77 82 78 83 84 84 86 85 79 86 80 87
REMARK SMILES IDX 81 88 82 89 83 90 59 91 60 92 69 93 61 94 62 95 68 96 70 97
REMARK SMILES IDX 63 98 64 99 65 100 66 101 67 102
REMARK H PARENT 24 7 29 33 91 52 57 63
REMARK Flexibility Score: inf
ROOT
ATOM      1  C   UNL A   1      33.189  27.662  26.556  1.00  0.00     0.023 C 
ENDROOT
BRANCH   1   2
ATOM      2  C   UNL A   1      31.697  27.917  26.329  1.00  0.00     0.023 C 
BRANCH   2   3
ATOM      3  C   UNL A   1      30.802  26.705  26.617  1.00  0.00     0.116 C 
BRANCH   3   4
ATOM      4  N   UNL A   1      30.102  26.319  25.405  1.00  0.00    -0.352 N 
ATOM      5  C   UNL A   1      30.478  25.544  24.353  1.00  0.00     0.251 C 
ATOM      6  O   UNL A   1      29.837  25.636  23.310  1.00  0.00    -0.270 OA
ATOM      7  H   UNL A   1      29.191  26.684  25.332  1.00  0.00     0.163 HD
BRANCH   5   8
ATOM      8  C   UNL A   1      31.577  24.546  24.439  1.00  0.00     0.067 C 
ATOM      9  C   UNL A   1      34.775  21.797  24.330  1.00  0.00    -0.002 A 
ATOM     10  C   UNL A   1      34.533  20.479  24.790  1.00  0.00     0.054 A 
ATOM     11  C   UNL A   1      33.737  22.740  24.397  1.00  0.00     0.131 A 
ATOM     12  C   UNL A   1      33.296  20.110  25.313  1.00  0.00     0.130 A 
ATOM     13  C   UNL A   1      32.496  22.365  24.904  1.00  0.00     0.021 A 
ATOM     14  O   UNL A   1      33.974  24.001  23.934  1.00  0.00    -0.475 OA
ATOM     15  C   UNL A   1      32.281  21.061  25.365  1.00  0.00     0.058 A 
ATOM     16  C   UNL A   1      31.390  23.303  24.897  1.00  0.00     0.025 C 
ATOM     17  C   UNL A   1      32.980  25.056  24.134  1.00  0.00     0.314 C 
BRANCH   9  18
ATOM     18  C   UNL A   1      36.175  22.143  23.861  1.00  0.00     0.039 C 
BRANCH  18  19
ATOM     19  C   UNL A   1      37.260  22.262  24.937  1.00  0.00     0.001 C 
ATOM     20  C   UNL A   1      37.277  23.603  25.657  1.00  0.00     0.004 C 
ENDBRANCH  18  19
ENDBRANCH   9  18
BRANCH  12  21
ATOM     21  O   UNL A   1      32.938  18.886  25.798  1.00  0.00    -0.406 OA
BRANCH  21  22
ATOM     22  C   UNL A   1      32.766  17.826  24.875  1.00  0.00     0.573 C 
ATOM     23  F   UNL A   1      32.059  16.814  25.423  1.00  0.00    -0.132 F 
ATOM     24  F   UNL A   1      32.148  18.251  23.752  1.00  0.00    -0.132 F 
ATOM     25  F   UNL A   1      33.983  17.350  24.530  1.00  0.00    -0.132 F 
ENDBRANCH  21  22
ENDBRANCH  12  21
BRANCH  17  26
ATOM     26  C   UNL A   1      33.103  26.037  22.943  1.00  0.00     0.429 C 
ATOM     27  F   UNL A   1      32.451  25.636  21.833  1.00  0.00    -0.167 F 
ATOM     28  F   UNL A   1      32.552  27.241  23.254  1.00  0.00    -0.167 F 
ATOM     29  F   UNL A   1      34.394  26.270  22.609  1.00  0.00    -0.167 F 
ENDBRANCH  17  26
ENDBRANCH   5   8
ENDBRANCH   3   4
ENDBRANCH   2   3
ENDBRANCH   1   2
BRANCH   1  30
ATOM     30  C   UNL A   1      34.101  28.725  25.963  1.00  0.00     0.116 C 
BRANCH  30  31
ATOM     31  N   UNL A   1      33.784  30.068  26.428  1.00  0.00    -0.352 N 
ATOM     32  C   UNL A   1      34.440  30.798  27.387  1.00  0.00     0.251 C 
ATOM     33  H   UNL A   1      33.009  30.502  26.005  1.00  0.00     0.163 HD
ATOM     34  O   UNL A   1      33.998  31.880  27.761  1.00  0.00    -0.269 OA
BRANCH  32  35
ATOM     35  C   UNL A   1      35.659  30.229  27.990  1.00  0.00     0.039 A 
ATOM     36  C   UNL A   1      36.874  30.368  27.318  1.00  0.00     0.014 A 
ATOM     37  C   UNL A   1      35.602  29.632  29.252  1.00  0.00     0.014 A 
ATOM     38  C   UNL A   1      38.053  29.962  27.945  1.00  0.00     0.010 A 
ATOM     39  C   UNL A   1      36.782  29.288  29.898  1.00  0.00     0.010 A 
ATOM     40  C   UNL A   1      38.017  29.450  29.251  1.00  0.00    -0.014 A 
BRANCH  40  41
ATOM     41  C   UNL A   1      39.254  29.057  29.967  1.00  0.00     0.031 A 
ATOM     42  C   UNL A   1      39.671  29.819  31.193  1.00  0.00     0.074 A 
ATOM     43  C   UNL A   1      40.040  28.085  29.463  1.00  0.00     0.049 A 
ATOM     44  N   UNL A   1      40.779  29.735  31.881  1.00  0.00    -0.248 NA
ATOM     45  C   UNL A   1      38.729  30.835  31.690  1.00  0.00     0.031 C 
ATOM     46  C   UNL A   1      39.757  27.306  28.255  1.00  0.00     0.029 A 
ATOM     47  N   UNL A   1      41.248  27.601  29.895  1.00  0.00    -0.354 N 
ATOM     48  C   UNL A   1      40.681  30.703  32.872  1.00  0.00     0.074 A 
ATOM     49  C   UNL A   1      39.424  31.392  32.671  1.00  0.00     0.031 C 
ATOM     50  C   UNL A   1      40.759  26.435  28.050  1.00  0.00     0.029 A 
ATOM     51  C   UNL A   1      41.771  26.619  29.087  1.00  0.00     0.049 A 
ATOM     52  H   UNL A   1      41.699  27.927  30.707  1.00  0.00     0.167 HD
ATOM     53  C   UNL A   1      41.552  30.980  33.871  1.00  0.00     0.037 A 
ATOM     54  C   UNL A   1      42.938  25.953  29.168  1.00  0.00     0.037 A 
ATOM     55  C   UNL A   1      42.781  30.265  34.085  1.00  0.00     0.049 A 
ATOM     56  C   UNL A   1      43.878  26.261  30.301  1.00  0.00     0.074 A 
ATOM     57  C   UNL A   1      43.709  30.430  35.098  1.00  0.00     0.029 A 
ATOM     58  N   UNL A   1      43.250  29.241  33.275  1.00  0.00    -0.354 N 
ATOM     59  N   UNL A   1      43.752  27.151  31.257  1.00  0.00    -0.248 NA
ATOM     60  C   UNL A   1      45.117  25.473  30.371  1.00  0.00     0.031 C 
ATOM     61  C   UNL A   1      44.753  29.523  34.886  1.00  0.00     0.029 A 
ATOM     62  C   UNL A   1      44.457  28.768  33.761  1.00  0.00     0.049 A 
ATOM     63  H   UNL A   1      42.793  28.901  32.472  1.00  0.00     0.167 HD
ATOM     64  C   UNL A   1      44.878  27.009  32.061  1.00  0.00     0.074 A 
ATOM     65  C   UNL A   1      45.673  25.945  31.480  1.00  0.00     0.031 C 
ATOM     66  C   UNL A   1      45.221  27.694  33.178  1.00  0.00     0.037 A 
BRANCH  53  67
ATOM     67  C   UNL A   1      41.197  32.100  34.809  1.00  0.00     0.058 A 
ATOM     68  C   UNL A   1      41.588  33.424  34.554  1.00  0.00     0.135 A 
ATOM     69  C   UNL A   1      40.447  31.850  35.969  1.00  0.00     0.135 A 
ATOM     70  F   UNL A   1      42.323  33.716  33.469  1.00  0.00    -0.206 F 
ATOM     71  C   UNL A   1      41.277  34.456  35.433  1.00  0.00     0.059 A 
ATOM     72  C   UNL A   1      40.101  32.871  36.849  1.00  0.00     0.059 A 
ATOM     73  F   UNL A   1      40.050  30.602  36.261  1.00  0.00    -0.206 F 
ATOM     74  C   UNL A   1      40.536  34.169  36.580  1.00  0.00     0.060 A 
BRANCH  74  75
ATOM     75  S   UNL A   1      40.143  35.517  37.714  1.00  0.00     0.124 S 
ATOM     76  O   UNL A   1      40.031  36.645  36.794  1.00  0.00    -0.237 OA
ATOM     77  O   UNL A   1      38.894  35.066  38.319  1.00  0.00    -0.237 OA
ATOM     78  O   UNL A   1      41.294  35.550  38.612  1.00  0.00    -0.744 OA
ENDBRANCH  74  75
ENDBRANCH  53  67
BRANCH  54  79
ATOM     79  C   UNL A   1      43.271  24.911  28.161  1.00  0.00     0.058 A 
ATOM     80  C   UNL A   1      42.955  23.564  28.392  1.00  0.00     0.135 A 
ATOM     81  C   UNL A   1      43.890  25.239  26.945  1.00  0.00     0.135 A 
ATOM     82  F   UNL A   1      42.367  23.202  29.542  1.00  0.00    -0.206 F 
ATOM     83  C   UNL A   1      43.257  22.575  27.462  1.00  0.00     0.059 A 
ATOM     84  C   UNL A   1      44.182  24.271  25.990  1.00  0.00     0.059 A 
ATOM     85  F   UNL A   1      44.194  26.517  26.669  1.00  0.00    -0.206 F 
ATOM     86  C   UNL A   1      43.871  22.939  26.262  1.00  0.00     0.060 A 
BRANCH  86  87
ATOM     87  S   UNL A   1      44.212  21.655  25.039  1.00  0.00     0.124 S 
ATOM     88  O   UNL A   1      43.138  20.706  25.303  1.00  0.00    -0.237 OA
ATOM     89  O   UNL A   1      44.118  22.393  23.782  1.00  0.00    -0.237 OA
ATOM     90  O   UNL A   1      45.556  21.206  25.392  1.00  0.00    -0.744 OA
ENDBRANCH  86  87
ENDBRANCH  54  79
BRANCH  66  91
ATOM     91  C   UNL A   1      46.486  27.287  33.878  1.00  0.00     0.058 A 
ATOM     92  C   UNL A   1      46.495  26.294  34.869  1.00  0.00     0.135 A 
ATOM     93  C   UNL A   1      47.715  27.851  33.500  1.00  0.00     0.135 A 
ATOM     94  F   UNL A   1      45.344  25.729  35.268  1.00  0.00    -0.206 F 
ATOM     95  C   UNL A   1      47.678  25.884  35.472  1.00  0.00     0.059 A 
ATOM     96  C   UNL A   1      48.913  27.441  34.073  1.00  0.00     0.059 A 
ATOM     97  F   UNL A   1      47.759  28.799  32.549  1.00  0.00    -0.206 F 
ATOM     98  C   UNL A   1      48.883  26.462  35.066  1.00  0.00     0.060 A 
BRANCH  98  99
ATOM     99  S   UNL A   1      50.420  25.887  35.821  1.00  0.00     0.124 S 
ATOM    100  O   UNL A   1      51.141  25.372  34.663  1.00  0.00    -0.237 OA
ATOM    101  O   UNL A   1      50.957  27.110  36.410  1.00  0.00    -0.237 OA
ATOM    102  O   UNL A   1      49.969  24.883  36.780  1.00  0.00    -0.744 OA
ENDBRANCH  98  99
ENDBRANCH  66  91
ENDBRANCH  40  41
ENDBRANCH  32  35
ENDBRANCH  30  31
ENDBRANCH   1  30
TORSDOF 19
ENDMDL
MODEL 3
REMARK VINA RESULT:     -11.6      4.675     10.240
REMARK SMILES CCCc1cc(OC(F)(F)F)cc2c1O[C@@H](C(F)(F)F)C(C(=O)NCCCCNC(=O)c1ccc(-c3c4nc(c(-c5c(F)cc(S(=O)(=O)[O-])cc5F)c5ccc([nH]5)c(-c5c(F)cc(S(=O)(=O)[O-])cc5F)c5nc(c(-c6c(F)cc(S(=O)(=O)[O-])cc6F)c6ccc3[nH]6)C=C5)C=C4)cc1)=C2
REMARK SMILES IDX 27 1 26 2 25 3 24 4 22 5 23 6 21 8 4 9 5 10 14 11 6 12 13 13
REMARK SMILES IDX 15 14 12 15 98 16 16 17 3 18 2 19 1 20 7 21 8 22 9 23 10 24
REMARK SMILES IDX 11 25 17 26 18 27 19 28 20 29 28 30 29 31 30 32 31 34 32 35
REMARK SMILES IDX 33 36 97 37 34 38 96 39 35 40 36 41 37 42 90 43 38 44 95 45
REMARK SMILES IDX 89 46 91 47 39 48 94 49 88 50 87 51 40 53 74 54 53 55 73 56
REMARK SMILES IDX 54 57 57 58 72 59 92 60 55 61 56 62 71 64 93 65 58 66 41 67
REMARK SMILES IDX 42 68 51 69 43 70 44 71 50 72 52 73 45 74 46 75 47 76 48 77
REMARK SMILES IDX 49 78 75 79 76 80 85 81 77 82 78 83 84 84 86 85 79 86 80 87
REMARK SMILES IDX 81 88 82 89 83 90 59 91 60 92 69 93 61 94 62 95 68 96 70 97
REMARK SMILES IDX 63 98 64 99 65 100 66 101 67 102
REMARK H PARENT 24 7 29 33 91 52 57 63
REMARK Flexibility Score: inf
ROOT
ATOM      1  C   UNL A   1      35.846  23.571  26.394  1.00  0.00     0.023 C 
ENDROOT
BRANCH   1   2
ATOM      2  C   UNL A   1      35.266  22.158  26.486  1.00  0.00     0.023 C 
BRANCH   2   3
ATOM      3  C   UNL A   1      34.091  21.899  25.533  1.00  0.00     0.116 C 
BRANCH   3   4
ATOM      4  N   UNL A   1      32.842  21.974  26.270  1.00  0.00    -0.352 N 
ATOM      5  C   UNL A   1      32.078  23.033  26.647  1.00  0.00     0.251 C 
ATOM      6  O   UNL A   1      31.248  22.860  27.535  1.00  0.00    -0.270 OA
ATOM      7  H   UNL A   1      32.485  21.099  26.546  1.00  0.00     0.163 HD
BRANCH   5   8
ATOM      8  C   UNL A   1      32.155  24.360  25.980  1.00  0.00     0.067 C 
ATOM      9  C   UNL A   1      32.435  27.944  23.772  1.00  0.00    -0.002 A 
ATOM     10  C   UNL A   1      33.288  28.961  24.264  1.00  0.00     0.054 A 
ATOM     11  C   UNL A   1      32.293  26.759  24.513  1.00  0.00     0.131 A 
ATOM     12  C   UNL A   1      33.975  28.812  25.467  1.00  0.00     0.130 A 
ATOM     13  C   UNL A   1      32.994  26.605  25.706  1.00  0.00     0.021 A 
ATOM     14  O   UNL A   1      31.484  25.777  24.021  1.00  0.00    -0.475 OA
ATOM     15  C   UNL A   1      33.823  27.628  26.182  1.00  0.00     0.058 A 
ATOM     16  C   UNL A   1      32.927  25.353  26.436  1.00  0.00     0.025 C 
ATOM     17  C   UNL A   1      31.179  24.601  24.835  1.00  0.00     0.314 C 
BRANCH   9  18
ATOM     18  C   UNL A   1      31.651  28.221  22.504  1.00  0.00     0.039 C 
BRANCH  18  19
ATOM     19  C   UNL A   1      30.682  29.409  22.529  1.00  0.00     0.001 C 
ATOM     20  C   UNL A   1      29.873  29.525  23.812  1.00  0.00     0.004 C 
ENDBRANCH  18  19
ENDBRANCH   9  18
BRANCH  12  21
ATOM     21  O   UNL A   1      34.813  29.714  26.054  1.00  0.00    -0.406 OA
BRANCH  21  22
ATOM     22  C   UNL A   1      34.355  30.405  27.202  1.00  0.00     0.573 C 
ATOM     23  F   UNL A   1      34.497  29.652  28.313  1.00  0.00    -0.132 F 
ATOM     24  F   UNL A   1      35.011  31.574  27.362  1.00  0.00    -0.132 F 
ATOM     25  F   UNL A   1      33.041  30.681  27.046  1.00  0.00    -0.132 F 
ENDBRANCH  21  22
ENDBRANCH  12  21
BRANCH  17  26
ATOM     26  C   UNL A   1      30.963  23.413  23.865  1.00  0.00     0.429 C 
ATOM     27  F   UNL A   1      30.109  23.678  22.856  1.00  0.00    -0.167 F 
ATOM     28  F   UNL A   1      32.130  23.076  23.254  1.00  0.00    -0.167 F 
ATOM     29  F   UNL A   1      30.522  22.307  24.509  1.00  0.00    -0.167 F 
ENDBRANCH  17  26
ENDBRANCH   5   8
ENDBRANCH   3   4
ENDBRANCH   2   3
ENDBRANCH   1   2
BRANCH   1  30
ATOM     30  C   UNL A   1      36.895  23.746  25.306  1.00  0.00     0.116 C 
BRANCH  30  31
ATOM     31  N   UNL A   1      38.001  22.806  25.430  1.00  0.00    -0.352 N 
ATOM     32  C   UNL A   1      39.206  23.009  26.053  1.00  0.00     0.251 C 
ATOM     33  H   UNL A   1      37.868  21.922  25.018  1.00  0.00     0.163 HD
ATOM     34  O   UNL A   1      40.095  22.165  25.988  1.00  0.00    -0.269 OA
BRANCH  32  35
ATOM     35  C   UNL A   1      39.424  24.284  26.761  1.00  0.00     0.039 A 
ATOM     36  C   UNL A   1      38.948  24.423  28.065  1.00  0.00     0.014 A 
ATOM     37  C   UNL A   1      40.166  25.301  26.156  1.00  0.00     0.014 A 
ATOM     38  C   UNL A   1      39.272  25.569  28.792  1.00  0.00     0.010 A 
ATOM     39  C   UNL A   1      40.541  26.409  26.904  1.00  0.00     0.010 A 
ATOM     40  C   UNL A   1      40.098  26.553  28.228  1.00  0.00    -0.014 A 
BRANCH  40  41
ATOM     41  C   UNL A   1      40.505  27.757  28.990  1.00  0.00     0.031 A 
ATOM     42  C   UNL A   1      41.813  27.755  29.730  1.00  0.00     0.074 A 
ATOM     43  C   UNL A   1      39.664  28.805  29.089  1.00  0.00     0.049 A 
ATOM     44  N   UNL A   1      42.291  28.639  30.566  1.00  0.00    -0.248 NA
ATOM     45  C   UNL A   1      42.682  26.584  29.529  1.00  0.00     0.031 C 
ATOM     46  C   UNL A   1      38.350  28.901  28.448  1.00  0.00     0.029 A 
ATOM     47  N   UNL A   1      39.780  29.981  29.784  1.00  0.00    -0.354 N 
ATOM     48  C   UNL A   1      43.500  28.120  31.012  1.00  0.00     0.074 A 
ATOM     49  C   UNL A   1      43.663  26.825  30.387  1.00  0.00     0.031 C 
ATOM     50  C   UNL A   1      37.788  30.077  28.772  1.00  0.00     0.029 A 
ATOM     51  C   UNL A   1      38.682  30.801  29.672  1.00  0.00     0.049 A 
ATOM     52  H   UNL A   1      40.575  30.216  30.315  1.00  0.00     0.167 HD
ATOM     53  C   UNL A   1      44.402  28.682  31.851  1.00  0.00     0.037 A 
ATOM     54  C   UNL A   1      38.422  31.994  30.240  1.00  0.00     0.037 A 
ATOM     55  C   UNL A   1      44.248  29.987  32.437  1.00  0.00     0.049 A 
ATOM     56  C   UNL A   1      39.450  32.609  31.150  1.00  0.00     0.074 A 
ATOM     57  C   UNL A   1      45.127  30.671  33.258  1.00  0.00     0.029 A 
ATOM     58  N   UNL A   1      43.145  30.809  32.257  1.00  0.00    -0.354 N 
ATOM     59  N   UNL A   1      40.610  32.125  31.528  1.00  0.00    -0.248 NA
ATOM     60  C   UNL A   1      39.140  33.934  31.706  1.00  0.00     0.031 C 
ATOM     61  C   UNL A   1      44.543  31.897  33.596  1.00  0.00     0.029 A 
ATOM     62  C   UNL A   1      43.317  31.991  32.955  1.00  0.00     0.049 A 
ATOM     63  H   UNL A   1      42.355  30.583  31.713  1.00  0.00     0.167 HD
ATOM     64  C   UNL A   1      41.181  33.098  32.341  1.00  0.00     0.074 A 
ATOM     65  C   UNL A   1      40.241  34.199  32.397  1.00  0.00     0.031 C 
ATOM     66  C   UNL A   1      42.376  33.082  32.980  1.00  0.00     0.037 A 
BRANCH  53  67
ATOM     67  C   UNL A   1      45.635  27.887  32.176  1.00  0.00     0.058 A 
ATOM     68  C   UNL A   1      45.685  27.028  33.285  1.00  0.00     0.135 A 
ATOM     69  C   UNL A   1      46.776  27.974  31.362  1.00  0.00     0.135 A 
ATOM     70  F   UNL A   1      44.628  26.922  34.107  1.00  0.00    -0.206 F 
ATOM     71  C   UNL A   1      46.833  26.308  33.596  1.00  0.00     0.059 A 
ATOM     72  C   UNL A   1      47.928  27.242  31.639  1.00  0.00     0.059 A 
ATOM     73  F   UNL A   1      46.783  28.782  30.291  1.00  0.00    -0.206 F 
ATOM     74  C   UNL A   1      47.952  26.425  32.769  1.00  0.00     0.060 A 
BRANCH  74  75
ATOM     75  S   UNL A   1      49.437  25.489  33.187  1.00  0.00     0.124 S 
ATOM     76  O   UNL A   1      48.863  24.296  33.804  1.00  0.00    -0.237 OA
ATOM     77  O   UNL A   1      50.061  25.289  31.884  1.00  0.00    -0.237 OA
ATOM     78  O   UNL A   1      50.155  26.380  34.093  1.00  0.00    -0.744 OA
ENDBRANCH  74  75
ENDBRANCH  53  67
BRANCH  54  79
ATOM     79  C   UNL A   1      37.146  32.696  29.944  1.00  0.00     0.058 A 
ATOM     80  C   UNL A   1      35.971  32.368  30.636  1.00  0.00     0.135 A 
ATOM     81  C   UNL A   1      37.078  33.716  28.983  1.00  0.00     0.135 A 
ATOM     82  F   UNL A   1      35.986  31.397  31.560  1.00  0.00    -0.206 F 
ATOM     83  C   UNL A   1      34.767  33.014  30.374  1.00  0.00     0.059 A 
ATOM     84  C   UNL A   1      35.890  34.392  28.719  1.00  0.00     0.059 A 
ATOM     85  F   UNL A   1      38.179  34.079  28.308  1.00  0.00    -0.206 F 
ATOM     86  C   UNL A   1      34.737  34.027  29.413  1.00  0.00     0.060 A 
BRANCH  86  87
ATOM     87  S   UNL A   1      33.181  34.894  29.117  1.00  0.00     0.124 S 
ATOM     88  O   UNL A   1      32.562  34.049  28.104  1.00  0.00    -0.237 OA
ATOM     89  O   UNL A   1      32.559  34.870  30.437  1.00  0.00    -0.237 OA
ATOM     90  O   UNL A   1      33.615  36.212  28.663  1.00  0.00    -0.744 OA
ENDBRANCH  86  87
ENDBRANCH  54  79
BRANCH  66  91
ATOM     91  C   UNL A   1      42.761  34.309  33.758  1.00  0.00     0.058 A 
ATOM     92  C   UNL A   1      42.539  34.405  35.139  1.00  0.00     0.135 A 
ATOM     93  C   UNL A   1      43.422  35.370  33.120  1.00  0.00     0.135 A 
ATOM     94  F   UNL A   1      41.905  33.418  35.792  1.00  0.00    -0.206 F 
ATOM     95  C   UNL A   1      42.948  35.520  35.861  1.00  0.00     0.059 A 
ATOM     96  C   UNL A   1      43.860  36.485  33.826  1.00  0.00     0.059 A 
ATOM     97  F   UNL A   1      43.665  35.320  31.800  1.00  0.00    -0.206 F 
ATOM     98  C   UNL A   1      43.610  36.555  35.196  1.00  0.00     0.060 A 
BRANCH  98  99
ATOM     99  S   UNL A   1      44.181  37.977  36.152  1.00  0.00     0.124 S 
ATOM    100  O   UNL A   1      43.864  39.080  35.253  1.00  0.00    -0.237 OA
ATOM    101  O   UNL A   1      43.367  37.890  37.361  1.00  0.00    -0.237 OA
ATOM    102  O   UNL A   1      45.603  37.707  36.342  1.00  0.00    -0.744 OA
ENDBRANCH  98  99
ENDBRANCH  66  91
ENDBRANCH  40  41
ENDBRANCH  32  35
ENDBRANCH  30  31
ENDBRANCH   1  30
TORSDOF 19
ENDMDL
