MODEL 1
REMARK VINA RESULT:      -9.3      0.000      0.000
REMARK SMILES C/C=C/C=C/C(=O)N[C@@H](C)CC(=O)NCCCCNC(=O)c1ccc(-c2c3nc(c(-c4c(F)cc(S(=O)(=O)[O-])cc4F)c4ccc([nH]4)c(-c4c(F)cc(S(=O)(=O)[O-])cc4F)c4nc(c(-c5c(F)cc(S(=O)(=O)[O-])cc5F)c5ccc2[nH]5)C=C4)C=C3)cc1
REMARK SMILES IDX 16 1 15 2 14 3 12 4 13 5 11 7 9 8 10 9 8 10 6 11 7 12 5 14
REMARK SMILES IDX 4 15 3 16 1 17 2 18 17 19 18 20 19 21 20 22 21 24 22 25
REMARK SMILES IDX 23 26 87 27 24 28 86 29 25 30 26 31 27 32 80 33 28 34 85 35
REMARK SMILES IDX 79 36 81 37 29 38 84 39 78 40 77 41 30 43 64 44 43 45 63 46
REMARK SMILES IDX 44 47 47 48 62 49 82 50 45 51 46 52 61 54 83 55 48 56 31 57
REMARK SMILES IDX 32 58 41 59 33 60 34 61 40 62 42 63 35 64 36 65 37 66 38 67
REMARK SMILES IDX 39 68 65 69 66 70 75 71 67 72 68 73 74 74 76 75 69 76 70 77
REMARK SMILES IDX 71 78 72 79 73 80 49 81 50 82 59 83 51 84 52 85 58 86 60 87
REMARK SMILES IDX 53 88 54 89 55 90 56 91 57 92
REMARK H PARENT 14 6 8 13 19 23 81 42 47 53
REMARK Flexibility Score: inf
ROOT
ATOM      1  C   UNL A   1      34.506  33.649  30.715  1.00  0.00     0.023 C 
ENDROOT
BRANCH   1   2
ATOM      2  C   UNL A   1      34.260  34.671  31.819  1.00  0.00     0.116 C 
BRANCH   2   3
ATOM      3  N   UNL A   1      35.512  35.079  32.427  1.00  0.00    -0.356 N 
ATOM      4  C   UNL A   1      36.328  34.370  33.254  1.00  0.00     0.222 C 
ATOM      5  O   UNL A   1      37.271  34.945  33.800  1.00  0.00    -0.275 OA
ATOM      6  H   UNL A   1      35.811  35.994  32.213  1.00  0.00     0.163 HD
BRANCH   4   7
ATOM      7  C   UNL A   1      36.089  32.892  33.477  1.00  0.00     0.124 C 
BRANCH   7   8
ATOM      8  C   UNL A   1      37.300  32.047  33.070  1.00  0.00     0.088 C 
ATOM      9  C   UNL A   1      37.697  32.374  31.630  1.00  0.00     0.031 C 
BRANCH   8  10
ATOM     10  N   UNL A   1      37.037  30.605  33.122  1.00  0.00    -0.350 N 
ATOM     11  C   UNL A   1      37.870  29.529  33.179  1.00  0.00     0.244 C 
ATOM     12  O   UNL A   1      37.386  28.398  33.155  1.00  0.00    -0.270 OA
ATOM     13  H   UNL A   1      36.080  30.371  33.112  1.00  0.00     0.164 HD
BRANCH  11  14
ATOM     14  C   UNL A   1      39.316  29.691  33.435  1.00  0.00     0.071 C 
ATOM     15  C   UNL A   1      40.242  28.754  33.199  1.00  0.00     0.005 C 
BRANCH  15  16
ATOM     16  C   UNL A   1      41.650  28.975  33.427  1.00  0.00    -0.004 C 
ATOM     17  C   UNL A   1      43.964  28.146  33.898  1.00  0.00     0.035 C 
ATOM     18  C   UNL A   1      42.496  27.967  33.683  1.00  0.00    -0.030 C 
ENDBRANCH  15  16
ENDBRANCH  11  14
ENDBRANCH   8  10
ENDBRANCH   7   8
ENDBRANCH   4   7
ENDBRANCH   2   3
ENDBRANCH   1   2
BRANCH   1  19
ATOM     19  C   UNL A   1      35.249  34.172  29.495  1.00  0.00     0.023 C 
BRANCH  19  20
ATOM     20  C   UNL A   1      35.665  33.109  28.495  1.00  0.00     0.116 C 
BRANCH  20  21
ATOM     21  N   UNL A   1      34.599  32.185  28.136  1.00  0.00    -0.352 N 
ATOM     22  C   UNL A   1      34.679  30.820  27.962  1.00  0.00     0.251 C 
ATOM     23  H   UNL A   1      33.710  32.584  28.001  1.00  0.00     0.163 HD
ATOM     24  O   UNL A   1      33.708  30.179  27.590  1.00  0.00    -0.269 OA
BRANCH  22  25
ATOM     25  C   UNL A   1      35.983  30.160  28.185  1.00  0.00     0.039 A 
ATOM     26  C   UNL A   1      36.932  30.177  27.161  1.00  0.00     0.014 A 
ATOM     27  C   UNL A   1      36.293  29.616  29.433  1.00  0.00     0.014 A 
ATOM     28  C   UNL A   1      38.225  29.720  27.420  1.00  0.00     0.010 A 
ATOM     29  C   UNL A   1      37.604  29.254  29.715  1.00  0.00     0.010 A 
ATOM     30  C   UNL A   1      38.583  29.299  28.711  1.00  0.00    -0.014 A 
BRANCH  30  31
ATOM     31  C   UNL A   1      39.968  28.874  29.035  1.00  0.00     0.031 A 
ATOM     32  C   UNL A   1      40.897  29.843  29.716  1.00  0.00     0.074 A 
ATOM     33  C   UNL A   1      40.405  27.655  28.661  1.00  0.00     0.049 A 
ATOM     34  N   UNL A   1      42.170  29.718  29.983  1.00  0.00    -0.248 NA
ATOM     35  C   UNL A   1      40.325  31.140  30.117  1.00  0.00     0.031 C 
ATOM     36  C   UNL A   1      39.616  26.646  27.950  1.00  0.00     0.029 A 
ATOM     37  N   UNL A   1      41.631  27.058  28.822  1.00  0.00    -0.354 N 
ATOM     38  C   UNL A   1      42.553  30.922  30.564  1.00  0.00     0.074 A 
ATOM     39  C   UNL A   1      41.396  31.787  30.550  1.00  0.00     0.031 C 
ATOM     40  C   UNL A   1      40.366  25.546  27.766  1.00  0.00     0.029 A 
ATOM     41  C   UNL A   1      41.699  25.784  28.311  1.00  0.00     0.049 A 
ATOM     42  H   UNL A   1      42.392  27.502  29.263  1.00  0.00     0.167 HD
ATOM     43  C   UNL A   1      43.751  31.263  31.093  1.00  0.00     0.037 A 
ATOM     44  C   UNL A   1      42.722  24.908  28.285  1.00  0.00     0.037 A 
ATOM     45  C   UNL A   1      44.886  30.382  31.146  1.00  0.00     0.049 A 
ATOM     46  C   UNL A   1      44.039  25.307  28.897  1.00  0.00     0.074 A 
ATOM     47  C   UNL A   1      46.137  30.619  31.688  1.00  0.00     0.029 A 
ATOM     48  N   UNL A   1      44.900  29.085  30.656  1.00  0.00    -0.354 N 
ATOM     49  N   UNL A   1      44.373  26.440  29.468  1.00  0.00    -0.248 NA
ATOM     50  C   UNL A   1      45.116  24.307  28.866  1.00  0.00     0.031 C 
ATOM     51  C   UNL A   1      46.913  29.469  31.510  1.00  0.00     0.029 A 
ATOM     52  C   UNL A   1      46.135  28.506  30.887  1.00  0.00     0.049 A 
ATOM     53  H   UNL A   1      44.142  28.641  30.209  1.00  0.00     0.167 HD
ATOM     54  C   UNL A   1      45.687  26.277  29.893  1.00  0.00     0.074 A 
ATOM     55  C   UNL A   1      46.083  24.934  29.523  1.00  0.00     0.031 C 
ATOM     56  C   UNL A   1      46.495  27.158  30.532  1.00  0.00     0.037 A 
BRANCH  43  57
ATOM     57  C   UNL A   1      43.879  32.637  31.688  1.00  0.00     0.058 A 
ATOM     58  C   UNL A   1      43.642  32.864  33.053  1.00  0.00     0.135 A 
ATOM     59  C   UNL A   1      44.266  33.731  30.898  1.00  0.00     0.135 A 
ATOM     60  F   UNL A   1      43.249  31.856  33.848  1.00  0.00    -0.206 F 
ATOM     61  C   UNL A   1      43.759  34.132  33.610  1.00  0.00     0.059 A 
ATOM     62  C   UNL A   1      44.414  35.005  31.441  1.00  0.00     0.059 A 
ATOM     63  F   UNL A   1      44.499  33.570  29.587  1.00  0.00    -0.206 F 
ATOM     64  C   UNL A   1      44.146  35.196  32.796  1.00  0.00     0.060 A 
BRANCH  64  65
ATOM     65  S   UNL A   1      44.306  36.835  33.538  1.00  0.00     0.124 S 
ATOM     66  O   UNL A   1      44.932  36.514  34.816  1.00  0.00    -0.237 OA
ATOM     67  O   UNL A   1      45.151  37.533  32.575  1.00  0.00    -0.237 OA
ATOM     68  O   UNL A   1      42.927  37.308  33.615  1.00  0.00    -0.744 OA
ENDBRANCH  64  65
ENDBRANCH  43  57
BRANCH  44  69
ATOM     69  C   UNL A   1      42.546  23.556  27.691  1.00  0.00     0.058 A 
ATOM     70  C   UNL A   1      42.344  22.434  28.509  1.00  0.00     0.135 A 
ATOM     71  C   UNL A   1      42.605  23.350  26.305  1.00  0.00     0.135 A 
ATOM     72  F   UNL A   1      42.284  22.580  29.842  1.00  0.00    -0.206 F 
ATOM     73  C   UNL A   1      42.244  21.152  27.980  1.00  0.00     0.059 A 
ATOM     74  C   UNL A   1      42.483  22.080  25.748  1.00  0.00     0.059 A 
ATOM     75  F   UNL A   1      42.777  24.393  25.477  1.00  0.00    -0.206 F 
ATOM     76  C   UNL A   1      42.322  20.985  26.596  1.00  0.00     0.060 A 
BRANCH  76  77
ATOM     77  S   UNL A   1      42.184  19.318  25.913  1.00  0.00     0.124 S 
ATOM     78  O   UNL A   1      40.753  19.230  25.645  1.00  0.00    -0.237 OA
ATOM     79  O   UNL A   1      43.049  19.391  24.740  1.00  0.00    -0.237 OA
ATOM     80  O   UNL A   1      42.678  18.473  26.996  1.00  0.00    -0.744 OA
ENDBRANCH  76  77
ENDBRANCH  44  69
BRANCH  56  81
ATOM     81  C   UNL A   1      47.866  26.681  30.917  1.00  0.00     0.058 A 
ATOM     82  C   UNL A   1      48.946  26.750  30.025  1.00  0.00     0.135 A 
ATOM     83  C   UNL A   1      48.109  26.198  32.212  1.00  0.00     0.135 A 
ATOM     84  F   UNL A   1      48.761  27.200  28.774  1.00  0.00    -0.206 F 
ATOM     85  C   UNL A   1      50.220  26.337  30.398  1.00  0.00     0.059 A 
ATOM     86  C   UNL A   1      49.380  25.801  32.614  1.00  0.00     0.059 A 
ATOM     87  F   UNL A   1      47.110  26.123  33.105  1.00  0.00    -0.206 F 
ATOM     88  C   UNL A   1      50.427  25.863  31.695  1.00  0.00     0.060 A 
BRANCH  88  89
ATOM     89  S   UNL A   1      52.091  25.363  32.180  1.00  0.00     0.124 S 
ATOM     90  O   UNL A   1      51.993  23.909  32.110  1.00  0.00    -0.237 OA
ATOM     91  O   UNL A   1      52.921  25.992  31.157  1.00  0.00    -0.237 OA
ATOM     92  O   UNL A   1      52.234  25.920  33.522  1.00  0.00    -0.744 OA
ENDBRANCH  88  89
ENDBRANCH  56  81
ENDBRANCH  30  31
ENDBRANCH  22  25
ENDBRANCH  20  21
ENDBRANCH  19  20
ENDBRANCH   1  19
TORSDOF 18
ENDMDL
MODEL 2
REMARK VINA RESULT:      -8.8      1.292      2.238
REMARK SMILES C/C=C/C=C/C(=O)N[C@@H](C)CC(=O)NCCCCNC(=O)c1ccc(-c2c3nc(c(-c4c(F)cc(S(=O)(=O)[O-])cc4F)c4ccc([nH]4)c(-c4c(F)cc(S(=O)(=O)[O-])cc4F)c4nc(c(-c5c(F)cc(S(=O)(=O)[O-])cc5F)c5ccc2[nH]5)C=C4)C=C3)cc1
REMARK SMILES IDX 16 1 15 2 14 3 12 4 13 5 11 7 9 8 10 9 8 10 6 11 7 12 5 14
REMARK SMILES IDX 4 15 3 16 1 17 2 18 17 19 18 20 19 21 20 22 21 24 22 25
REMARK SMILES IDX 23 26 87 27 24 28 86 29 25 30 26 31 27 32 80 33 28 34 85 35
REMARK SMILES IDX 79 36 81 37 29 38 84 39 78 40 77 41 30 43 64 44 43 45 63 46
REMARK SMILES IDX 44 47 47 48 62 49 82 50 45 51 46 52 61 54 83 55 48 56 31 57
REMARK SMILES IDX 32 58 41 59 33 60 34 61 40 62 42 63 35 64 36 65 37 66 38 67
REMARK SMILES IDX 39 68 65 69 66 70 75 71 67 72 68 73 74 74 76 75 69 76 70 77
REMARK SMILES IDX 71 78 72 79 73 80 49 81 50 82 59 83 51 84 52 85 58 86 60 87
REMARK SMILES IDX 53 88 54 89 55 90 56 91 57 92
REMARK H PARENT 14 6 8 13 19 23 81 42 47 53
REMARK Flexibility Score: inf
ROOT
ATOM      1  C   UNL A   1      33.921  34.689  29.167  1.00  0.00     0.023 C 
ENDROOT
BRANCH   1   2
ATOM      2  C   UNL A   1      34.793  34.273  30.345  1.00  0.00     0.116 C 
BRANCH   2   3
ATOM      3  N   UNL A   1      33.981  33.729  31.418  1.00  0.00    -0.356 N 
ATOM      4  C   UNL A   1      34.191  33.795  32.761  1.00  0.00     0.222 C 
ATOM      5  O   UNL A   1      33.473  33.133  33.511  1.00  0.00    -0.275 OA
ATOM      6  H   UNL A   1      33.170  33.248  31.135  1.00  0.00     0.163 HD
BRANCH   4   7
ATOM      7  C   UNL A   1      35.277  34.689  33.320  1.00  0.00     0.124 C 
BRANCH   7   8
ATOM      8  C   UNL A   1      36.474  33.885  33.838  1.00  0.00     0.088 C 
ATOM      9  C   UNL A   1      36.436  33.829  35.366  1.00  0.00     0.031 C 
BRANCH   8  10
ATOM     10  N   UNL A   1      37.765  34.472  33.465  1.00  0.00    -0.350 N 
ATOM     11  C   UNL A   1      39.004  33.928  33.317  1.00  0.00     0.244 C 
ATOM     12  O   UNL A   1      39.951  34.665  33.049  1.00  0.00    -0.270 OA
ATOM     13  H   UNL A   1      37.729  35.441  33.290  1.00  0.00     0.164 HD
BRANCH  11  14
ATOM     14  C   UNL A   1      39.203  32.464  33.311  1.00  0.00     0.071 C 
ATOM     15  C   UNL A   1      40.291  31.841  33.778  1.00  0.00     0.005 C 
BRANCH  15  16
ATOM     16  C   UNL A   1      40.421  30.403  33.787  1.00  0.00    -0.004 C 
ATOM     17  C   UNL A   1      39.867  28.134  32.889  1.00  0.00     0.035 C 
ATOM     18  C   UNL A   1      39.744  29.622  32.933  1.00  0.00    -0.030 C 
ENDBRANCH  15  16
ENDBRANCH  11  14
ENDBRANCH   8  10
ENDBRANCH   7   8
ENDBRANCH   4   7
ENDBRANCH   2   3
ENDBRANCH   1   2
BRANCH   1  19
ATOM     19  C   UNL A   1      33.693  33.615  28.114  1.00  0.00     0.023 C 
BRANCH  19  20
ATOM     20  C   UNL A   1      34.653  32.440  28.179  1.00  0.00     0.116 C 
BRANCH  20  21
ATOM     21  N   UNL A   1      34.025  31.149  27.935  1.00  0.00    -0.352 N 
ATOM     22  C   UNL A   1      34.611  29.903  27.948  1.00  0.00     0.251 C 
ATOM     23  H   UNL A   1      33.062  31.170  27.734  1.00  0.00     0.163 HD
ATOM     24  O   UNL A   1      33.969  28.906  27.653  1.00  0.00    -0.269 OA
BRANCH  22  25
ATOM     25  C   UNL A   1      36.050  29.806  28.275  1.00  0.00     0.039 A 
ATOM     26  C   UNL A   1      36.424  29.403  29.558  1.00  0.00     0.014 A 
ATOM     27  C   UNL A   1      37.013  30.019  27.286  1.00  0.00     0.014 A 
ATOM     28  C   UNL A   1      37.768  29.133  29.824  1.00  0.00     0.010 A 
ATOM     29  C   UNL A   1      38.331  29.657  27.527  1.00  0.00     0.010 A 
ATOM     30  C   UNL A   1      38.724  29.213  28.799  1.00  0.00    -0.014 A 
BRANCH  30  31
ATOM     31  C   UNL A   1      40.148  28.864  29.033  1.00  0.00     0.031 A 
ATOM     32  C   UNL A   1      41.077  29.900  29.607  1.00  0.00     0.074 A 
ATOM     33  C   UNL A   1      40.615  27.654  28.669  1.00  0.00     0.049 A 
ATOM     34  N   UNL A   1      42.371  29.844  29.782  1.00  0.00    -0.248 NA
ATOM     35  C   UNL A   1      40.474  31.184  30.005  1.00  0.00     0.031 C 
ATOM     36  C   UNL A   1      39.825  26.583  28.055  1.00  0.00     0.029 A 
ATOM     37  N   UNL A   1      41.876  27.120  28.758  1.00  0.00    -0.354 N 
ATOM     38  C   UNL A   1      42.737  31.085  30.290  1.00  0.00     0.074 A 
ATOM     39  C   UNL A   1      41.541  31.896  30.334  1.00  0.00     0.031 C 
ATOM     40  C   UNL A   1      40.612  25.512  27.853  1.00  0.00     0.029 A 
ATOM     41  C   UNL A   1      41.968  25.831  28.287  1.00  0.00     0.049 A 
ATOM     42  H   UNL A   1      42.645  27.614  29.125  1.00  0.00     0.167 HD
ATOM     43  C   UNL A   1      43.953  31.500  30.715  1.00  0.00     0.037 A 
ATOM     44  C   UNL A   1      43.027  25.002  28.215  1.00  0.00     0.037 A 
ATOM     45  C   UNL A   1      45.129  30.674  30.713  1.00  0.00     0.049 A 
ATOM     46  C   UNL A   1      44.365  25.483  28.712  1.00  0.00     0.074 A 
ATOM     47  C   UNL A   1      46.404  30.988  31.151  1.00  0.00     0.029 A 
ATOM     48  N   UNL A   1      45.170  29.361  30.269  1.00  0.00    -0.354 N 
ATOM     49  N   UNL A   1      44.685  26.652  29.216  1.00  0.00    -0.248 NA
ATOM     50  C   UNL A   1      45.484  24.533  28.635  1.00  0.00     0.031 C 
ATOM     51  C   UNL A   1      47.220  29.869  30.956  1.00  0.00     0.029 A 
ATOM     52  C   UNL A   1      46.445  28.848  30.427  1.00  0.00     0.049 A 
ATOM     53  H   UNL A   1      44.404  28.867  29.896  1.00  0.00     0.167 HD
ATOM     54  C   UNL A   1      46.033  26.565  29.547  1.00  0.00     0.074 A 
ATOM     55  C   UNL A   1      46.465  25.228  29.195  1.00  0.00     0.031 C 
ATOM     56  C   UNL A   1      46.842  27.505  30.092  1.00  0.00     0.037 A 
BRANCH  43  57
ATOM     57  C   UNL A   1      44.058  32.900  31.251  1.00  0.00     0.058 A 
ATOM     58  C   UNL A   1      44.417  33.973  30.420  1.00  0.00     0.135 A 
ATOM     59  C   UNL A   1      43.773  33.179  32.597  1.00  0.00     0.135 A 
ATOM     60  F   UNL A   1      44.719  33.757  29.130  1.00  0.00    -0.206 F 
ATOM     61  C   UNL A   1      44.515  35.271  30.909  1.00  0.00     0.059 A 
ATOM     62  C   UNL A   1      43.841  34.475  33.102  1.00  0.00     0.059 A 
ATOM     63  F   UNL A   1      43.431  32.189  33.435  1.00  0.00    -0.206 F 
ATOM     64  C   UNL A   1      44.225  35.511  32.252  1.00  0.00     0.060 A 
BRANCH  64  65
ATOM     65  S   UNL A   1      44.345  37.204  32.868  1.00  0.00     0.124 S 
ATOM     66  O   UNL A   1      45.777  37.455  32.749  1.00  0.00    -0.237 OA
ATOM     67  O   UNL A   1      43.493  37.937  31.938  1.00  0.00    -0.237 OA
ATOM     68  O   UNL A   1      43.836  37.105  34.233  1.00  0.00    -0.744 OA
ENDBRANCH  64  65
ENDBRANCH  43  57
BRANCH  44  69
ATOM     69  C   UNL A   1      42.874  23.622  27.683  1.00  0.00     0.058 A 
ATOM     70  C   UNL A   1      43.014  23.362  26.312  1.00  0.00     0.135 A 
ATOM     71  C   UNL A   1      42.556  22.543  28.523  1.00  0.00     0.135 A 
ATOM     72  F   UNL A   1      43.314  24.361  25.469  1.00  0.00    -0.206 F 
ATOM     73  C   UNL A   1      42.810  22.092  25.784  1.00  0.00     0.059 A 
ATOM     74  C   UNL A   1      42.370  21.258  28.022  1.00  0.00     0.059 A 
ATOM     75  F   UNL A   1      42.430  22.735  29.845  1.00  0.00    -0.206 F 
ATOM     76  C   UNL A   1      42.480  21.046  26.649  1.00  0.00     0.060 A 
BRANCH  76  77
ATOM     77  S   UNL A   1      42.222  19.397  25.959  1.00  0.00     0.124 S 
ATOM     78  O   UNL A   1      43.018  19.463  24.738  1.00  0.00    -0.237 OA
ATOM     79  O   UNL A   1      42.743  18.534  27.014  1.00  0.00    -0.237 OA
ATOM     80  O   UNL A   1      40.776  19.338  25.769  1.00  0.00    -0.744 OA
ENDBRANCH  76  77
ENDBRANCH  44  69
BRANCH  56  81
ATOM     81  C   UNL A   1      48.260  27.107  30.389  1.00  0.00     0.058 A 
ATOM     82  C   UNL A   1      49.302  27.374  29.490  1.00  0.00     0.135 A 
ATOM     83  C   UNL A   1      48.581  26.496  31.612  1.00  0.00     0.135 A 
ATOM     84  F   UNL A   1      49.043  27.951  28.307  1.00  0.00    -0.206 F 
ATOM     85  C   UNL A   1      50.617  27.030  29.785  1.00  0.00     0.059 A 
ATOM     86  C   UNL A   1      49.893  26.166  31.936  1.00  0.00     0.059 A 
ATOM     87  F   UNL A   1      47.619  26.230  32.509  1.00  0.00    -0.206 F 
ATOM     88  C   UNL A   1      50.902  26.426  31.011  1.00  0.00     0.060 A 
BRANCH  88  89
ATOM     89  S   UNL A   1      52.616  26.017  31.399  1.00  0.00     0.124 S 
ATOM     90  O   UNL A   1      52.983  27.111  32.293  1.00  0.00    -0.237 OA
ATOM     91  O   UNL A   1      52.495  24.703  32.022  1.00  0.00    -0.237 OA
ATOM     92  O   UNL A   1      53.270  26.026  30.093  1.00  0.00    -0.744 OA
ENDBRANCH  88  89
ENDBRANCH  56  81
ENDBRANCH  30  31
ENDBRANCH  22  25
ENDBRANCH  20  21
ENDBRANCH  19  20
ENDBRANCH   1  19
TORSDOF 18
ENDMDL
MODEL 3
REMARK VINA RESULT:      -8.7      3.895      6.218
REMARK SMILES C/C=C/C=C/C(=O)N[C@@H](C)CC(=O)NCCCCNC(=O)c1ccc(-c2c3nc(c(-c4c(F)cc(S(=O)(=O)[O-])cc4F)c4ccc([nH]4)c(-c4c(F)cc(S(=O)(=O)[O-])cc4F)c4nc(c(-c5c(F)cc(S(=O)(=O)[O-])cc5F)c5ccc2[nH]5)C=C4)C=C3)cc1
REMARK SMILES IDX 16 1 15 2 14 3 12 4 13 5 11 7 9 8 10 9 8 10 6 11 7 12 5 14
REMARK SMILES IDX 4 15 3 16 1 17 2 18 17 19 18 20 19 21 20 22 21 24 22 25
REMARK SMILES IDX 23 26 87 27 24 28 86 29 25 30 26 31 27 32 80 33 28 34 85 35
REMARK SMILES IDX 79 36 81 37 29 38 84 39 78 40 77 41 30 43 64 44 43 45 63 46
REMARK SMILES IDX 44 47 47 48 62 49 82 50 45 51 46 52 61 54 83 55 48 56 31 57
REMARK SMILES IDX 32 58 41 59 33 60 34 61 40 62 42 63 35 64 36 65 37 66 38 67
REMARK SMILES IDX 39 68 65 69 66 70 75 71 67 72 68 73 74 74 76 75 69 76 70 77
REMARK SMILES IDX 71 78 72 79 73 80 49 81 50 82 59 83 51 84 52 85 58 86 60 87
REMARK SMILES IDX 53 88 54 89 55 90 56 91 57 92
REMARK H PARENT 14 6 8 13 19 23 81 42 47 53
REMARK Flexibility Score: inf
ROOT
ATOM      1  C   UNL A   1      31.736  27.804  26.552  1.00  0.00     0.023 C 
ENDROOT
BRANCH   1   2
ATOM      2  C   UNL A   1      31.074  26.660  25.794  1.00  0.00     0.116 C 
BRANCH   2   3
ATOM      3  N   UNL A   1      30.789  25.551  26.685  1.00  0.00    -0.356 N 
ATOM      4  C   UNL A   1      30.662  24.229  26.385  1.00  0.00     0.222 C 
ATOM      5  O   UNL A   1      30.258  23.456  27.253  1.00  0.00    -0.275 OA
ATOM      6  H   UNL A   1      30.670  25.787  27.634  1.00  0.00     0.163 HD
BRANCH   4   7
ATOM      7  C   UNL A   1      31.037  23.721  25.009  1.00  0.00     0.124 C 
BRANCH   7   8
ATOM      8  C   UNL A   1      32.516  23.330  24.924  1.00  0.00     0.088 C 
ATOM      9  C   UNL A   1      33.181  24.076  23.767  1.00  0.00     0.031 C 
BRANCH   8  10
ATOM     10  N   UNL A   1      32.718  21.898  24.680  1.00  0.00    -0.350 N 
ATOM     11  C   UNL A   1      33.819  21.103  24.781  1.00  0.00     0.244 C 
ATOM     12  O   UNL A   1      33.734  19.921  24.455  1.00  0.00    -0.270 OA
ATOM     13  H   UNL A   1      31.906  21.423  24.386  1.00  0.00     0.164 HD
BRANCH  11  14
ATOM     14  C   UNL A   1      35.058  21.589  25.423  1.00  0.00     0.071 C 
ATOM     15  C   UNL A   1      36.284  21.472  24.899  1.00  0.00     0.005 C 
BRANCH  15  16
ATOM     16  C   UNL A   1      37.461  22.000  25.548  1.00  0.00    -0.004 C 
ATOM     17  C   UNL A   1      38.767  23.884  26.551  1.00  0.00     0.035 C 
ATOM     18  C   UNL A   1      37.581  23.300  25.856  1.00  0.00    -0.030 C 
ENDBRANCH  15  16
ENDBRANCH  11  14
ENDBRANCH   8  10
ENDBRANCH   7   8
ENDBRANCH   4   7
ENDBRANCH   2   3
ENDBRANCH   1   2
BRANCH   1  19
ATOM     19  C   UNL A   1      33.247  27.701  26.699  1.00  0.00     0.023 C 
BRANCH  19  20
ATOM     20  C   UNL A   1      34.031  28.822  26.041  1.00  0.00     0.116 C 
BRANCH  20  21
ATOM     21  N   UNL A   1      33.738  30.143  26.578  1.00  0.00    -0.352 N 
ATOM     22  C   UNL A   1      34.459  30.863  27.506  1.00  0.00     0.251 C 
ATOM     23  H   UNL A   1      32.923  30.576  26.236  1.00  0.00     0.163 HD
ATOM     24  O   UNL A   1      34.051  31.938  27.917  1.00  0.00    -0.269 OA
BRANCH  22  25
ATOM     25  C   UNL A   1      35.711  30.277  28.030  1.00  0.00     0.039 A 
ATOM     26  C   UNL A   1      36.924  30.643  27.444  1.00  0.00     0.014 A 
ATOM     27  C   UNL A   1      35.684  29.450  29.156  1.00  0.00     0.014 A 
ATOM     28  C   UNL A   1      38.120  30.242  28.043  1.00  0.00     0.010 A 
ATOM     29  C   UNL A   1      36.873  29.137  29.801  1.00  0.00     0.010 A 
ATOM     30  C   UNL A   1      38.103  29.526  29.251  1.00  0.00    -0.014 A 
BRANCH  30  31
ATOM     31  C   UNL A   1      39.357  29.147  29.949  1.00  0.00     0.031 A 
ATOM     32  C   UNL A   1      39.771  29.899  31.185  1.00  0.00     0.074 A 
ATOM     33  C   UNL A   1      40.149  28.183  29.439  1.00  0.00     0.049 A 
ATOM     34  N   UNL A   1      40.876  29.810  31.876  1.00  0.00    -0.248 NA
ATOM     35  C   UNL A   1      38.830  30.915  31.689  1.00  0.00     0.031 C 
ATOM     36  C   UNL A   1      39.882  27.416  28.218  1.00  0.00     0.029 A 
ATOM     37  N   UNL A   1      41.349  27.685  29.882  1.00  0.00    -0.354 N 
ATOM     38  C   UNL A   1      40.772  30.765  32.881  1.00  0.00     0.074 A 
ATOM     39  C   UNL A   1      39.526  31.468  32.671  1.00  0.00     0.031 C 
ATOM     40  C   UNL A   1      40.871  26.526  28.030  1.00  0.00     0.029 A 
ATOM     41  C   UNL A   1      41.860  26.682  29.092  1.00  0.00     0.049 A 
ATOM     42  H   UNL A   1      41.802  28.016  30.691  1.00  0.00     0.167 HD
ATOM     43  C   UNL A   1      41.619  31.011  33.907  1.00  0.00     0.037 A 
ATOM     44  C   UNL A   1      42.997  25.971  29.213  1.00  0.00     0.037 A 
ATOM     45  C   UNL A   1      42.834  30.277  34.138  1.00  0.00     0.049 A 
ATOM     46  C   UNL A   1      43.913  26.253  30.374  1.00  0.00     0.074 A 
ATOM     47  C   UNL A   1      43.749  30.426  35.166  1.00  0.00     0.029 A 
ATOM     48  N   UNL A   1      43.293  29.241  33.340  1.00  0.00    -0.354 N 
ATOM     49  N   UNL A   1      43.783  27.141  31.331  1.00  0.00    -0.248 NA
ATOM     50  C   UNL A   1      45.129  25.432  30.475  1.00  0.00     0.031 C 
ATOM     51  C   UNL A   1      44.770  29.489  34.979  1.00  0.00     0.029 A 
ATOM     52  C   UNL A   1      44.474  28.736  33.854  1.00  0.00     0.049 A 
ATOM     53  H   UNL A   1      42.844  28.912  32.527  1.00  0.00     0.167 HD
ATOM     54  C   UNL A   1      44.881  26.964  32.166  1.00  0.00     0.074 A 
ATOM     55  C   UNL A   1      45.661  25.878  31.606  1.00  0.00     0.031 C 
ATOM     56  C   UNL A   1      45.216  27.637  33.292  1.00  0.00     0.037 A 
BRANCH  43  57
ATOM     57  C   UNL A   1      41.238  32.095  34.875  1.00  0.00     0.058 A 
ATOM     58  C   UNL A   1      40.420  31.827  35.984  1.00  0.00     0.135 A 
ATOM     59  C   UNL A   1      41.713  33.406  34.711  1.00  0.00     0.135 A 
ATOM     60  F   UNL A   1      39.922  30.595  36.174  1.00  0.00    -0.206 F 
ATOM     61  C   UNL A   1      40.064  32.826  36.883  1.00  0.00     0.059 A 
ATOM     62  C   UNL A   1      41.391  34.416  35.614  1.00  0.00     0.059 A 
ATOM     63  F   UNL A   1      42.494  33.717  33.665  1.00  0.00    -0.206 F 
ATOM     64  C   UNL A   1      40.555  34.117  36.690  1.00  0.00     0.060 A 
BRANCH  64  65
ATOM     65  S   UNL A   1      40.094  35.399  37.874  1.00  0.00     0.124 S 
ATOM     66  O   UNL A   1      39.802  36.521  36.988  1.00  0.00    -0.237 OA
ATOM     67  O   UNL A   1      38.943  34.806  38.546  1.00  0.00    -0.237 OA
ATOM     68  O   UNL A   1      41.290  35.544  38.699  1.00  0.00    -0.744 OA
ENDBRANCH  64  65
ENDBRANCH  43  57
BRANCH  44  69
ATOM     69  C   UNL A   1      43.329  24.902  28.234  1.00  0.00     0.058 A 
ATOM     70  C   UNL A   1      44.020  25.203  27.050  1.00  0.00     0.135 A 
ATOM     71  C   UNL A   1      42.940  23.570  28.442  1.00  0.00     0.135 A 
ATOM     72  F   UNL A   1      44.410  26.462  26.805  1.00  0.00    -0.206 F 
ATOM     73  C   UNL A   1      44.282  24.231  26.090  1.00  0.00     0.059 A 
ATOM     74  C   UNL A   1      43.212  22.574  27.508  1.00  0.00     0.059 A 
ATOM     75  F   UNL A   1      42.294  23.226  29.567  1.00  0.00    -0.206 F 
ATOM     76  C   UNL A   1      43.867  22.919  26.326  1.00  0.00     0.060 A 
BRANCH  76  77
ATOM     77  S   UNL A   1      44.216  21.659  25.079  1.00  0.00     0.124 S 
ATOM     78  O   UNL A   1      45.579  21.274  25.428  1.00  0.00    -0.237 OA
ATOM     79  O   UNL A   1      43.183  20.664  25.346  1.00  0.00    -0.237 OA
ATOM     80  O   UNL A   1      44.066  22.386  23.822  1.00  0.00    -0.744 OA
ENDBRANCH  76  77
ENDBRANCH  44  69
BRANCH  56  81
ATOM     81  C   UNL A   1      46.449  27.188  34.023  1.00  0.00     0.058 A 
ATOM     82  C   UNL A   1      46.388  26.244  35.057  1.00  0.00     0.135 A 
ATOM     83  C   UNL A   1      47.711  27.673  33.644  1.00  0.00     0.135 A 
ATOM     84  F   UNL A   1      45.204  25.756  35.458  1.00  0.00    -0.206 F 
ATOM     85  C   UNL A   1      47.537  25.808  35.708  1.00  0.00     0.059 A 
ATOM     86  C   UNL A   1      48.876  27.233  34.265  1.00  0.00     0.059 A 
ATOM     87  F   UNL A   1      47.822  28.570  32.651  1.00  0.00    -0.206 F 
ATOM     88  C   UNL A   1      48.777  26.310  35.305  1.00  0.00     0.060 A 
BRANCH  88  89
ATOM     89  S   UNL A   1      50.265  25.710  36.131  1.00  0.00     0.124 S 
ATOM     90  O   UNL A   1      51.312  26.196  35.238  1.00  0.00    -0.237 OA
ATOM     91  O   UNL A   1      50.189  26.365  37.433  1.00  0.00    -0.237 OA
ATOM     92  O   UNL A   1      50.080  24.263  36.153  1.00  0.00    -0.744 OA
ENDBRANCH  88  89
ENDBRANCH  56  81
ENDBRANCH  30  31
ENDBRANCH  22  25
ENDBRANCH  20  21
ENDBRANCH  19  20
ENDBRANCH   1  19
TORSDOF 18
ENDMDL
