MODEL 1
REMARK VINA RESULT:     -12.9      0.000      0.000
REMARK SMILES O=C(NCCCCNC(=O)[C@H]1[C@@H](C(=O)Nc2ccccc2-c2ccccc2)[C@@H]2C=C[C@H]1O2)c1ccc(-c2c3nc(c(-c4c(F)cc(S(=O)(=O)[O-])cc4F)c4ccc([nH]4)c(-c4c(F)cc(S(=O)(=O)[O-])cc4F)c4nc(c(-c5c(F)cc(S(=O)(=O)[O-])cc5F)c5ccc2[nH]5)C=C4)C=C3)cc1
REMARK SMILES IDX 5 1 4 2 3 3 1 4 2 5 33 7 34 8 98 9 35 10 97 11 36 12 37 13
REMARK SMILES IDX 38 14 91 15 39 16 96 17 90 18 92 19 40 20 95 21 89 22 88 23
REMARK SMILES IDX 41 25 75 26 54 27 74 28 55 29 58 30 73 31 93 32 56 33 57 34
REMARK SMILES IDX 72 36 94 37 59 38 42 39 43 40 52 41 44 42 45 43 51 44 53 45
REMARK SMILES IDX 46 46 47 47 48 48 49 49 50 50 76 51 77 52 86 53 78 54 79 55
REMARK SMILES IDX 85 56 87 57 80 58 81 59 82 60 83 61 84 62 60 63 61 64 70 65
REMARK SMILES IDX 62 66 63 67 69 68 71 69 64 70 65 71 66 72 67 73 68 74 6 75
REMARK SMILES IDX 7 76 8 77 9 78 10 80 11 81 12 82 31 83 28 84 30 85 32 86
REMARK SMILES IDX 29 87 13 88 14 89 15 90 16 92 17 93 21 94 18 95 20 96 19 97
REMARK SMILES IDX 22 98 23 99 27 100 24 101 26 102 25 103
REMARK H PARENT 3 6 92 24 58 35 8 79 15 91
REMARK Flexibility Score: inf
ROOT
ATOM      1  C   UNL A   1      33.874  29.471  26.841  1.00  0.00     0.023 C 
ENDROOT
BRANCH   1   2
ATOM      2  C   UNL A   1      35.144  29.327  27.660  1.00  0.00     0.116 C 
BRANCH   2   3
ATOM      3  N   UNL A   1      35.152  30.129  28.878  1.00  0.00    -0.352 N 
ATOM      4  O   UNL A   1      36.129  31.016  30.727  1.00  0.00    -0.269 OA
ATOM      5  C   UNL A   1      36.235  30.375  29.692  1.00  0.00     0.251 C 
ATOM      6  H   UNL A   1      34.295  30.535  29.146  1.00  0.00     0.163 HD
BRANCH   5   7
ATOM      7  C   UNL A   1      37.516  29.771  29.287  1.00  0.00     0.039 A 
ATOM      8  C   UNL A   1      38.357  29.240  30.264  1.00  0.00     0.014 A 
ATOM      9  C   UNL A   1      37.940  29.915  27.965  1.00  0.00     0.014 A 
ATOM     10  C   UNL A   1      39.686  29.005  29.953  1.00  0.00     0.010 A 
ATOM     11  C   UNL A   1      39.252  29.580  27.634  1.00  0.00     0.010 A 
ATOM     12  C   UNL A   1      40.143  29.159  28.631  1.00  0.00    -0.014 A 
BRANCH  12  13
ATOM     13  C   UNL A   1      41.545  28.804  28.313  1.00  0.00     0.031 A 
ATOM     14  C   UNL A   1      42.651  29.816  28.404  1.00  0.00     0.074 A 
ATOM     15  C   UNL A   1      41.804  27.528  27.969  1.00  0.00     0.049 A 
ATOM     16  N   UNL A   1      43.920  29.668  28.127  1.00  0.00    -0.248 NA
ATOM     17  C   UNL A   1      42.290  31.171  28.853  1.00  0.00     0.031 C 
ATOM     18  C   UNL A   1      40.794  26.471  27.849  1.00  0.00     0.029 A 
ATOM     19  N   UNL A   1      42.982  26.894  27.683  1.00  0.00    -0.354 N 
ATOM     20  C   UNL A   1      44.505  30.913  28.328  1.00  0.00     0.074 A 
ATOM     21  C   UNL A   1      43.450  31.809  28.751  1.00  0.00     0.031 C 
ATOM     22  C   UNL A   1      41.402  25.310  27.576  1.00  0.00     0.029 A 
ATOM     23  C   UNL A   1      42.830  25.555  27.421  1.00  0.00     0.049 A 
ATOM     24  H   UNL A   1      43.852  27.354  27.667  1.00  0.00     0.167 HD
ATOM     25  C   UNL A   1      45.802  31.268  28.164  1.00  0.00     0.037 A 
ATOM     26  C   UNL A   1      43.736  24.627  27.067  1.00  0.00     0.037 A 
ATOM     27  C   UNL A   1      46.841  30.352  27.767  1.00  0.00     0.049 A 
ATOM     28  C   UNL A   1      45.165  25.044  26.910  1.00  0.00     0.074 A 
ATOM     29  C   UNL A   1      48.192  30.603  27.590  1.00  0.00     0.029 A 
ATOM     30  N   UNL A   1      46.647  29.006  27.489  1.00  0.00    -0.354 N 
ATOM     31  N   UNL A   1      45.696  26.230  27.086  1.00  0.00    -0.248 NA
ATOM     32  C   UNL A   1      46.114  24.008  26.489  1.00  0.00     0.031 C 
ATOM     33  C   UNL A   1      48.808  29.414  27.179  1.00  0.00     0.029 A 
ATOM     34  C   UNL A   1      47.849  28.415  27.132  1.00  0.00     0.049 A 
ATOM     35  H   UNL A   1      45.783  28.539  27.538  1.00  0.00     0.167 HD
ATOM     36  C   UNL A   1      47.044  26.087  26.789  1.00  0.00     0.074 A 
ATOM     37  C   UNL A   1      47.249  24.691  26.451  1.00  0.00     0.031 C 
ATOM     38  C   UNL A   1      48.020  27.027  26.787  1.00  0.00     0.037 A 
BRANCH  25  39
ATOM     39  C   UNL A   1      46.171  32.710  28.385  1.00  0.00     0.058 A 
ATOM     40  C   UNL A   1      46.612  33.181  29.630  1.00  0.00     0.135 A 
ATOM     41  C   UNL A   1      46.126  33.624  27.318  1.00  0.00     0.135 A 
ATOM     42  F   UNL A   1      46.658  32.354  30.687  1.00  0.00    -0.206 F 
ATOM     43  C   UNL A   1      46.980  34.511  29.817  1.00  0.00     0.059 A 
ATOM     44  C   UNL A   1      46.508  34.953  27.478  1.00  0.00     0.059 A 
ATOM     45  F   UNL A   1      45.711  33.227  26.105  1.00  0.00    -0.206 F 
ATOM     46  C   UNL A   1      46.921  35.391  28.735  1.00  0.00     0.060 A 
BRANCH  46  47
ATOM     47  S   UNL A   1      47.404  37.113  28.988  1.00  0.00     0.124 S 
ATOM     48  O   UNL A   1      46.436  37.810  28.147  1.00  0.00    -0.237 OA
ATOM     49  O   UNL A   1      47.228  37.281  30.427  1.00  0.00    -0.237 OA
ATOM     50  O   UNL A   1      48.785  37.151  28.521  1.00  0.00    -0.744 OA
ENDBRANCH  46  47
ENDBRANCH  25  39
BRANCH  26  51
ATOM     51  C   UNL A   1      43.290  23.233  26.826  1.00  0.00     0.058 A 
ATOM     52  C   UNL A   1      43.250  22.703  25.529  1.00  0.00     0.135 A 
ATOM     53  C   UNL A   1      42.978  22.378  27.896  1.00  0.00     0.135 A 
ATOM     54  F   UNL A   1      43.541  23.483  24.478  1.00  0.00    -0.206 F 
ATOM     55  C   UNL A   1      42.921  21.372  25.301  1.00  0.00     0.059 A 
ATOM     56  C   UNL A   1      42.671  21.039  27.695  1.00  0.00     0.059 A 
ATOM     57  F   UNL A   1      43.028  22.836  29.157  1.00  0.00    -0.206 F 
ATOM     58  C   UNL A   1      42.641  20.545  26.391  1.00  0.00     0.060 A 
BRANCH  58  59
ATOM     59  S   UNL A   1      42.308  18.795  26.098  1.00  0.00     0.124 S 
ATOM     60  O   UNL A   1      43.267  18.488  25.044  1.00  0.00    -0.237 OA
ATOM     61  O   UNL A   1      42.583  18.203  27.404  1.00  0.00    -0.237 OA
ATOM     62  O   UNL A   1      40.903  18.787  25.701  1.00  0.00    -0.744 OA
ENDBRANCH  58  59
ENDBRANCH  26  51
BRANCH  38  63
ATOM     63  C   UNL A   1      49.394  26.562  26.406  1.00  0.00     0.058 A 
ATOM     64  C   UNL A   1      49.916  26.808  25.127  1.00  0.00     0.135 A 
ATOM     65  C   UNL A   1      50.198  25.880  27.331  1.00  0.00     0.135 A 
ATOM     66  F   UNL A   1      49.178  27.448  24.207  1.00  0.00    -0.206 F 
ATOM     67  C   UNL A   1      51.185  26.370  24.768  1.00  0.00     0.059 A 
ATOM     68  C   UNL A   1      51.478  25.449  26.999  1.00  0.00     0.059 A 
ATOM     69  F   UNL A   1      49.741  25.627  28.567  1.00  0.00    -0.206 F 
ATOM     70  C   UNL A   1      51.957  25.687  25.712  1.00  0.00     0.060 A 
BRANCH  70  71
ATOM     71  S   UNL A   1      53.610  25.132  25.242  1.00  0.00     0.124 S 
ATOM     72  O   UNL A   1      53.512  23.695  25.472  1.00  0.00    -0.237 OA
ATOM     73  O   UNL A   1      53.698  25.547  23.845  1.00  0.00    -0.237 OA
ATOM     74  O   UNL A   1      54.481  25.859  26.161  1.00  0.00    -0.744 OA
ENDBRANCH  70  71
ENDBRANCH  38  63
ENDBRANCH  12  13
ENDBRANCH   5   7
ENDBRANCH   2   3
ENDBRANCH   1   2
BRANCH   1  75
ATOM     75  C   UNL A   1      32.728  28.605  27.351  1.00  0.00     0.023 C 
BRANCH  75  76
ATOM     76  C   UNL A   1      32.472  27.345  26.522  1.00  0.00     0.116 C 
BRANCH  76  77
ATOM     77  N   UNL A   1      33.719  26.727  26.139  1.00  0.00    -0.356 N 
ATOM     78  C   UNL A   1      33.982  25.648  25.361  1.00  0.00     0.227 C 
ATOM     79  H   UNL A   1      34.520  27.167  26.506  1.00  0.00     0.163 HD
ATOM     80  O   UNL A   1      35.178  25.358  25.252  1.00  0.00    -0.275 OA
BRANCH  78  81
ATOM     81  C   UNL A   1      32.945  24.944  24.497  1.00  0.00     0.127 C 
ATOM     82  C   UNL A   1      32.484  23.556  25.058  1.00  0.00     0.127 C 
ATOM     83  C   UNL A   1      31.582  25.551  24.134  1.00  0.00     0.155 C 
ATOM     84  C   UNL A   1      30.977  23.609  24.866  1.00  0.00     0.155 C 
ATOM     85  C   UNL A   1      30.999  24.824  22.950  1.00  0.00     0.004 C 
ATOM     86  O   UNL A   1      30.730  25.003  25.161  1.00  0.00    -0.365 OA
ATOM     87  C   UNL A   1      30.629  23.622  23.404  1.00  0.00     0.004 C 
BRANCH  82  88
ATOM     88  C   UNL A   1      32.907  23.068  26.441  1.00  0.00     0.231 C 
ATOM     89  O   UNL A   1      32.149  23.335  27.390  1.00  0.00    -0.274 OA
ATOM     90  N   UNL A   1      33.972  22.290  26.757  1.00  0.00    -0.325 N 
ATOM     91  H   UNL A   1      33.841  21.828  27.617  1.00  0.00     0.169 HD
BRANCH  90  92
ATOM     92  C   UNL A   1      35.213  21.967  26.181  1.00  0.00     0.049 A 
ATOM     93  C   UNL A   1      36.232  22.906  26.443  1.00  0.00     0.027 A 
ATOM     94  C   UNL A   1      35.435  20.958  25.213  1.00  0.00     0.005 A 
ATOM     95  C   UNL A   1      37.489  22.811  25.848  1.00  0.00     0.002 A 
ATOM     96  C   UNL A   1      36.730  20.879  24.639  1.00  0.00     0.011 A 
ATOM     97  C   UNL A   1      37.744  21.784  24.954  1.00  0.00     0.001 A 
BRANCH  94  98
ATOM     98  C   UNL A   1      34.391  20.075  24.644  1.00  0.00    -0.016 A 
ATOM     99  C   UNL A   1      34.487  18.673  24.767  1.00  0.00     0.009 A 
ATOM    100  C   UNL A   1      33.282  20.588  23.952  1.00  0.00     0.009 A 
ATOM    101  C   UNL A   1      33.489  17.827  24.277  1.00  0.00     0.001 A 
ATOM    102  C   UNL A   1      32.279  19.744  23.464  1.00  0.00     0.001 A 
ATOM    103  C   UNL A   1      32.379  18.365  23.635  1.00  0.00     0.000 A 
ENDBRANCH  94  98
ENDBRANCH  90  92
ENDBRANCH  82  88
ENDBRANCH  78  81
ENDBRANCH  76  77
ENDBRANCH  75  76
ENDBRANCH   1  75
TORSDOF 17
ENDMDL
MODEL 2
REMARK VINA RESULT:     -12.7      6.361     11.858
REMARK SMILES O=C(NCCCCNC(=O)[C@H]1[C@@H](C(=O)Nc2ccccc2-c2ccccc2)[C@@H]2C=C[C@H]1O2)c1ccc(-c2c3nc(c(-c4c(F)cc(S(=O)(=O)[O-])cc4F)c4ccc([nH]4)c(-c4c(F)cc(S(=O)(=O)[O-])cc4F)c4nc(c(-c5c(F)cc(S(=O)(=O)[O-])cc5F)c5ccc2[nH]5)C=C4)C=C3)cc1
REMARK SMILES IDX 5 1 4 2 3 3 1 4 2 5 33 7 34 8 98 9 35 10 97 11 36 12 37 13
REMARK SMILES IDX 38 14 91 15 39 16 96 17 90 18 92 19 40 20 95 21 89 22 88 23
REMARK SMILES IDX 41 25 75 26 54 27 74 28 55 29 58 30 73 31 93 32 56 33 57 34
REMARK SMILES IDX 72 36 94 37 59 38 42 39 43 40 52 41 44 42 45 43 51 44 53 45
REMARK SMILES IDX 46 46 47 47 48 48 49 49 50 50 76 51 77 52 86 53 78 54 79 55
REMARK SMILES IDX 85 56 87 57 80 58 81 59 82 60 83 61 84 62 60 63 61 64 70 65
REMARK SMILES IDX 62 66 63 67 69 68 71 69 64 70 65 71 66 72 67 73 68 74 6 75
REMARK SMILES IDX 7 76 8 77 9 78 10 80 11 81 12 82 31 83 28 84 30 85 32 86
REMARK SMILES IDX 29 87 13 88 14 89 15 90 16 92 17 93 21 94 18 95 20 96 19 97
REMARK SMILES IDX 22 98 23 99 27 100 24 101 26 102 25 103
REMARK H PARENT 3 6 92 24 58 35 8 79 15 91
REMARK Flexibility Score: inf
ROOT
ATOM      1  C   UNL A   1      37.672  23.527  25.540  1.00  0.00     0.023 C 
ENDROOT
BRANCH   1   2
ATOM      2  C   UNL A   1      38.711  23.905  26.581  1.00  0.00     0.116 C 
BRANCH   2   3
ATOM      3  N   UNL A   1      40.085  23.799  26.107  1.00  0.00    -0.352 N 
ATOM      4  O   UNL A   1      42.245  24.483  25.951  1.00  0.00    -0.269 OA
ATOM      5  C   UNL A   1      41.137  24.619  26.447  1.00  0.00     0.251 C 
ATOM      6  H   UNL A   1      40.281  23.066  25.478  1.00  0.00     0.163 HD
BRANCH   5   7
ATOM      7  C   UNL A   1      40.844  25.711  27.391  1.00  0.00     0.039 A 
ATOM      8  C   UNL A   1      41.658  26.843  27.395  1.00  0.00     0.014 A 
ATOM      9  C   UNL A   1      39.882  25.505  28.381  1.00  0.00     0.014 A 
ATOM     10  C   UNL A   1      41.621  27.694  28.488  1.00  0.00     0.010 A 
ATOM     11  C   UNL A   1      39.780  26.420  29.428  1.00  0.00     0.010 A 
ATOM     12  C   UNL A   1      40.673  27.498  29.508  1.00  0.00    -0.014 A 
BRANCH  12  13
ATOM     13  C   UNL A   1      40.596  28.482  30.612  1.00  0.00     0.031 A 
ATOM     14  C   UNL A   1      41.562  28.449  31.762  1.00  0.00     0.074 A 
ATOM     15  C   UNL A   1      39.646  29.434  30.535  1.00  0.00     0.049 A 
ATOM     16  N   UNL A   1      41.603  29.219  32.818  1.00  0.00    -0.248 NA
ATOM     17  C   UNL A   1      42.610  27.416  31.733  1.00  0.00     0.031 C 
ATOM     18  C   UNL A   1      38.658  29.547  29.458  1.00  0.00     0.029 A 
ATOM     19  N   UNL A   1      39.369  30.496  31.352  1.00  0.00    -0.354 N 
ATOM     20  C   UNL A   1      42.651  28.744  33.598  1.00  0.00     0.074 A 
ATOM     21  C   UNL A   1      43.222  27.616  32.893  1.00  0.00     0.031 C 
ATOM     22  C   UNL A   1      37.924  30.652  29.647  1.00  0.00     0.029 A 
ATOM     23  C   UNL A   1      38.334  31.276  30.898  1.00  0.00     0.049 A 
ATOM     24  H   UNL A   1      39.862  30.682  32.183  1.00  0.00     0.167 HD
ATOM     25  C   UNL A   1      43.085  29.210  34.795  1.00  0.00     0.037 A 
ATOM     26  C   UNL A   1      37.757  32.363  31.440  1.00  0.00     0.037 A 
ATOM     27  C   UNL A   1      42.518  30.352  35.466  1.00  0.00     0.049 A 
ATOM     28  C   UNL A   1      38.268  32.864  32.755  1.00  0.00     0.074 A 
ATOM     29  C   UNL A   1      42.894  30.919  36.672  1.00  0.00     0.029 A 
ATOM     30  N   UNL A   1      41.456  31.106  34.985  1.00  0.00    -0.354 N 
ATOM     31  N   UNL A   1      39.248  32.391  33.487  1.00  0.00    -0.248 NA
ATOM     32  C   UNL A   1      37.588  34.031  33.327  1.00  0.00     0.031 C 
ATOM     33  C   UNL A   1      42.042  31.999  36.932  1.00  0.00     0.029 A 
ATOM     34  C   UNL A   1      41.156  32.126  35.874  1.00  0.00     0.049 A 
ATOM     35  H   UNL A   1      40.985  30.941  34.138  1.00  0.00     0.167 HD
ATOM     36  C   UNL A   1      39.299  33.198  34.615  1.00  0.00     0.074 A 
ATOM     37  C   UNL A   1      38.268  34.206  34.451  1.00  0.00     0.031 C 
ATOM     38  C   UNL A   1      40.116  33.107  35.692  1.00  0.00     0.037 A 
BRANCH  25  39
ATOM     39  C   UNL A   1      44.207  28.471  35.472  1.00  0.00     0.058 A 
ATOM     40  C   UNL A   1      45.553  28.801  35.251  1.00  0.00     0.135 A 
ATOM     41  C   UNL A   1      43.927  27.448  36.393  1.00  0.00     0.135 A 
ATOM     42  F   UNL A   1      45.877  29.760  34.369  1.00  0.00    -0.206 F 
ATOM     43  C   UNL A   1      46.583  28.132  35.907  1.00  0.00     0.059 A 
ATOM     44  C   UNL A   1      44.940  26.778  37.073  1.00  0.00     0.059 A 
ATOM     45  F   UNL A   1      42.657  27.091  36.642  1.00  0.00    -0.206 F 
ATOM     46  C   UNL A   1      46.267  27.118  36.814  1.00  0.00     0.060 A 
BRANCH  46  47
ATOM     47  S   UNL A   1      47.612  26.259  37.660  1.00  0.00     0.124 S 
ATOM     48  O   UNL A   1      47.209  24.865  37.500  1.00  0.00    -0.237 OA
ATOM     49  O   UNL A   1      48.782  26.671  36.890  1.00  0.00    -0.237 OA
ATOM     50  O   UNL A   1      47.546  26.781  39.021  1.00  0.00    -0.744 OA
ENDBRANCH  46  47
ENDBRANCH  25  39
BRANCH  26  51
ATOM     51  C   UNL A   1      36.628  33.013  30.733  1.00  0.00     0.058 A 
ATOM     52  C   UNL A   1      35.306  32.827  31.161  1.00  0.00     0.135 A 
ATOM     53  C   UNL A   1      36.856  33.902  29.670  1.00  0.00     0.135 A 
ATOM     54  F   UNL A   1      35.041  31.988  32.173  1.00  0.00    -0.206 F 
ATOM     55  C   UNL A   1      34.249  33.503  30.562  1.00  0.00     0.059 A 
ATOM     56  C   UNL A   1      35.819  34.607  29.073  1.00  0.00     0.059 A 
ATOM     57  F   UNL A   1      38.108  34.131  29.243  1.00  0.00    -0.206 F 
ATOM     58  C   UNL A   1      34.517  34.398  29.524  1.00  0.00     0.060 A 
BRANCH  58  59
ATOM     59  S   UNL A   1      33.154  35.345  28.813  1.00  0.00     0.124 S 
ATOM     60  O   UNL A   1      32.454  34.320  28.047  1.00  0.00    -0.237 OA
ATOM     61  O   UNL A   1      32.463  35.837  30.002  1.00  0.00    -0.237 OA
ATOM     62  O   UNL A   1      33.836  36.370  28.028  1.00  0.00    -0.744 OA
ENDBRANCH  58  59
ENDBRANCH  26  51
BRANCH  38  63
ATOM     63  C   UNL A   1      39.918  34.130  36.769  1.00  0.00     0.058 A 
ATOM     64  C   UNL A   1      40.607  35.353  36.746  1.00  0.00     0.135 A 
ATOM     65  C   UNL A   1      39.023  33.894  37.822  1.00  0.00     0.135 A 
ATOM     66  F   UNL A   1      41.481  35.618  35.762  1.00  0.00    -0.206 F 
ATOM     67  C   UNL A   1      40.433  36.299  37.748  1.00  0.00     0.059 A 
ATOM     68  C   UNL A   1      38.819  34.835  38.825  1.00  0.00     0.059 A 
ATOM     69  F   UNL A   1      38.339  32.741  37.882  1.00  0.00    -0.206 F 
ATOM     70  C   UNL A   1      39.539  36.029  38.787  1.00  0.00     0.060 A 
BRANCH  70  71
ATOM     71  S   UNL A   1      39.308  37.268  40.079  1.00  0.00     0.124 S 
ATOM     72  O   UNL A   1      40.671  37.754  40.264  1.00  0.00    -0.237 OA
ATOM     73  O   UNL A   1      38.378  38.206  39.455  1.00  0.00    -0.237 OA
ATOM     74  O   UNL A   1      38.758  36.497  41.190  1.00  0.00    -0.744 OA
ENDBRANCH  70  71
ENDBRANCH  38  63
ENDBRANCH  12  13
ENDBRANCH   5   7
ENDBRANCH   2   3
ENDBRANCH   1   2
BRANCH   1  75
ATOM     75  C   UNL A   1      37.298  22.050  25.573  1.00  0.00     0.023 C 
BRANCH  75  76
ATOM     76  C   UNL A   1      35.792  21.781  25.565  1.00  0.00     0.116 C 
BRANCH  76  77
ATOM     77  N   UNL A   1      35.197  22.257  24.339  1.00  0.00    -0.356 N 
ATOM     78  C   UNL A   1      33.936  22.665  24.055  1.00  0.00     0.227 C 
ATOM     79  H   UNL A   1      35.816  22.292  23.574  1.00  0.00     0.163 HD
ATOM     80  O   UNL A   1      33.741  22.991  22.879  1.00  0.00    -0.275 OA
BRANCH  78  81
ATOM     81  C   UNL A   1      32.864  22.924  25.105  1.00  0.00     0.127 C 
ATOM     82  C   UNL A   1      32.923  24.357  25.735  1.00  0.00     0.127 C 
ATOM     83  C   UNL A   1      31.358  22.813  24.832  1.00  0.00     0.155 C 
ATOM     84  C   UNL A   1      31.459  24.768  25.751  1.00  0.00     0.155 C 
ATOM     85  C   UNL A   1      30.610  22.699  26.135  1.00  0.00     0.004 C 
ATOM     86  O   UNL A   1      31.014  24.176  24.509  1.00  0.00    -0.365 OA
ATOM     87  C   UNL A   1      30.678  23.908  26.704  1.00  0.00     0.004 C 
BRANCH  82  88
ATOM     88  C   UNL A   1      33.855  25.436  25.191  1.00  0.00     0.231 C 
ATOM     89  O   UNL A   1      35.077  25.253  25.337  1.00  0.00    -0.274 OA
ATOM     90  N   UNL A   1      33.521  26.538  24.475  1.00  0.00    -0.325 N 
ATOM     91  H   UNL A   1      34.284  26.875  23.950  1.00  0.00     0.169 HD
BRANCH  90  92
ATOM     92  C   UNL A   1      32.374  27.329  24.285  1.00  0.00     0.049 A 
ATOM     93  C   UNL A   1      31.580  26.938  23.187  1.00  0.00     0.027 A 
ATOM     94  C   UNL A   1      32.109  28.562  24.926  1.00  0.00     0.005 A 
ATOM     95  C   UNL A   1      30.477  27.685  22.775  1.00  0.00     0.002 A 
ATOM     96  C   UNL A   1      30.969  29.289  24.495  1.00  0.00     0.011 A 
ATOM     97  C   UNL A   1      30.161  28.857  23.442  1.00  0.00     0.001 A 
BRANCH  94  98
ATOM     98  C   UNL A   1      32.999  29.226  25.905  1.00  0.00    -0.016 A 
ATOM     99  C   UNL A   1      32.610  30.427  26.534  1.00  0.00     0.009 A 
ATOM    100  C   UNL A   1      34.261  28.705  26.233  1.00  0.00     0.009 A 
ATOM    101  C   UNL A   1      33.417  31.043  27.494  1.00  0.00     0.001 A 
ATOM    102  C   UNL A   1      35.069  29.317  27.197  1.00  0.00     0.001 A 
ATOM    103  C   UNL A   1      34.642  30.480  27.834  1.00  0.00     0.000 A 
ENDBRANCH  94  98
ENDBRANCH  90  92
ENDBRANCH  82  88
ENDBRANCH  78  81
ENDBRANCH  76  77
ENDBRANCH  75  76
ENDBRANCH   1  75
TORSDOF 17
ENDMDL
MODEL 3
REMARK VINA RESULT:     -12.7      1.347      2.410
REMARK SMILES O=C(NCCCCNC(=O)[C@H]1[C@@H](C(=O)Nc2ccccc2-c2ccccc2)[C@@H]2C=C[C@H]1O2)c1ccc(-c2c3nc(c(-c4c(F)cc(S(=O)(=O)[O-])cc4F)c4ccc([nH]4)c(-c4c(F)cc(S(=O)(=O)[O-])cc4F)c4nc(c(-c5c(F)cc(S(=O)(=O)[O-])cc5F)c5ccc2[nH]5)C=C4)C=C3)cc1
REMARK SMILES IDX 5 1 4 2 3 3 1 4 2 5 33 7 34 8 98 9 35 10 97 11 36 12 37 13
REMARK SMILES IDX 38 14 91 15 39 16 96 17 90 18 92 19 40 20 95 21 89 22 88 23
REMARK SMILES IDX 41 25 75 26 54 27 74 28 55 29 58 30 73 31 93 32 56 33 57 34
REMARK SMILES IDX 72 36 94 37 59 38 42 39 43 40 52 41 44 42 45 43 51 44 53 45
REMARK SMILES IDX 46 46 47 47 48 48 49 49 50 50 76 51 77 52 86 53 78 54 79 55
REMARK SMILES IDX 85 56 87 57 80 58 81 59 82 60 83 61 84 62 60 63 61 64 70 65
REMARK SMILES IDX 62 66 63 67 69 68 71 69 64 70 65 71 66 72 67 73 68 74 6 75
REMARK SMILES IDX 7 76 8 77 9 78 10 80 11 81 12 82 31 83 28 84 30 85 32 86
REMARK SMILES IDX 29 87 13 88 14 89 15 90 16 92 17 93 21 94 18 95 20 96 19 97
REMARK SMILES IDX 22 98 23 99 27 100 24 101 26 102 25 103
REMARK H PARENT 3 6 92 24 58 35 8 79 15 91
REMARK Flexibility Score: inf
ROOT
ATOM      1  C   UNL A   1      35.163  32.205  27.754  1.00  0.00     0.023 C 
ENDROOT
BRANCH   1   2
ATOM      2  C   UNL A   1      36.090  32.192  28.956  1.00  0.00     0.116 C 
BRANCH   2   3
ATOM      3  N   UNL A   1      35.680  31.266  30.005  1.00  0.00    -0.352 N 
ATOM      4  O   UNL A   1      36.017  29.548  31.453  1.00  0.00    -0.269 OA
ATOM      5  C   UNL A   1      36.469  30.320  30.620  1.00  0.00     0.251 C 
ATOM      6  H   UNL A   1      34.743  31.323  30.305  1.00  0.00     0.163 HD
BRANCH   5   7
ATOM      7  C   UNL A   1      37.870  30.239  30.175  1.00  0.00     0.039 A 
ATOM      8  C   UNL A   1      38.144  30.046  28.821  1.00  0.00     0.014 A 
ATOM      9  C   UNL A   1      38.879  30.167  31.136  1.00  0.00     0.014 A 
ATOM     10  C   UNL A   1      39.405  29.615  28.444  1.00  0.00     0.010 A 
ATOM     11  C   UNL A   1      40.172  29.831  30.738  1.00  0.00     0.010 A 
ATOM     12  C   UNL A   1      40.435  29.516  29.397  1.00  0.00    -0.014 A 
BRANCH  12  13
ATOM     13  C   UNL A   1      41.796  29.148  28.944  1.00  0.00     0.031 A 
ATOM     14  C   UNL A   1      42.931  30.129  28.991  1.00  0.00     0.074 A 
ATOM     15  C   UNL A   1      41.992  27.886  28.516  1.00  0.00     0.049 A 
ATOM     16  N   UNL A   1      44.169  29.968  28.600  1.00  0.00    -0.248 NA
ATOM     17  C   UNL A   1      42.645  31.467  29.536  1.00  0.00     0.031 C 
ATOM     18  C   UNL A   1      40.948  26.859  28.429  1.00  0.00     0.029 A 
ATOM     19  N   UNL A   1      43.125  27.242  28.100  1.00  0.00    -0.354 N 
ATOM     20  C   UNL A   1      44.801  31.188  28.812  1.00  0.00     0.074 A 
ATOM     21  C   UNL A   1      43.809  32.084  29.369  1.00  0.00     0.031 C 
ATOM     22  C   UNL A   1      41.501  25.700  28.048  1.00  0.00     0.029 A 
ATOM     23  C   UNL A   1      42.916  25.922  27.785  1.00  0.00     0.049 A 
ATOM     24  H   UNL A   1      44.002  27.683  28.033  1.00  0.00     0.167 HD
ATOM     25  C   UNL A   1      46.089  31.523  28.558  1.00  0.00     0.037 A 
ATOM     26  C   UNL A   1      43.765  24.994  27.310  1.00  0.00     0.037 A 
ATOM     27  C   UNL A   1      47.067  30.606  28.028  1.00  0.00     0.049 A 
ATOM     28  C   UNL A   1      45.187  25.387  27.052  1.00  0.00     0.074 A 
ATOM     29  C   UNL A   1      48.404  30.836  27.750  1.00  0.00     0.029 A 
ATOM     30  N   UNL A   1      46.815  29.280  27.701  1.00  0.00    -0.354 N 
ATOM     31  N   UNL A   1      45.761  26.551  27.242  1.00  0.00    -0.248 NA
ATOM     32  C   UNL A   1      46.070  24.354  26.502  1.00  0.00     0.031 C 
ATOM     33  C   UNL A   1      48.952  29.657  27.230  1.00  0.00     0.029 A 
ATOM     34  C   UNL A   1      47.967  28.683  27.214  1.00  0.00     0.049 A 
ATOM     35  H   UNL A   1      45.946  28.830  27.800  1.00  0.00     0.167 HD
ATOM     36  C   UNL A   1      47.075  26.394  26.825  1.00  0.00     0.074 A 
ATOM     37  C   UNL A   1      47.215  25.013  26.402  1.00  0.00     0.031 C 
ATOM     38  C   UNL A   1      48.072  27.311  26.787  1.00  0.00     0.037 A 
BRANCH  25  39
ATOM     39  C   UNL A   1      46.513  32.942  28.818  1.00  0.00     0.058 A 
ATOM     40  C   UNL A   1      47.049  33.343  30.051  1.00  0.00     0.135 A 
ATOM     41  C   UNL A   1      46.422  33.907  27.800  1.00  0.00     0.135 A 
ATOM     42  F   UNL A   1      47.143  32.466  31.063  1.00  0.00    -0.206 F 
ATOM     43  C   UNL A   1      47.467  34.653  30.272  1.00  0.00     0.059 A 
ATOM     44  C   UNL A   1      46.851  35.217  27.993  1.00  0.00     0.059 A 
ATOM     45  F   UNL A   1      45.915  33.578  26.601  1.00  0.00    -0.206 F 
ATOM     46  C   UNL A   1      47.360  35.584  29.237  1.00  0.00     0.060 A 
BRANCH  46  47
ATOM     47  S   UNL A   1      47.907  37.280  29.535  1.00  0.00     0.124 S 
ATOM     48  O   UNL A   1      46.953  37.716  30.551  1.00  0.00    -0.237 OA
ATOM     49  O   UNL A   1      49.279  37.092  29.996  1.00  0.00    -0.237 OA
ATOM     50  O   UNL A   1      47.769  37.916  28.229  1.00  0.00    -0.744 OA
ENDBRANCH  46  47
ENDBRANCH  25  39
BRANCH  26  51
ATOM     51  C   UNL A   1      43.265  23.625  27.038  1.00  0.00     0.058 A 
ATOM     52  C   UNL A   1      42.950  23.218  25.734  1.00  0.00     0.135 A 
ATOM     53  C   UNL A   1      43.174  22.671  28.065  1.00  0.00     0.135 A 
ATOM     54  F   UNL A   1      43.024  24.095  24.722  1.00  0.00    -0.206 F 
ATOM     55  C   UNL A   1      42.566  21.910  25.456  1.00  0.00     0.059 A 
ATOM     56  C   UNL A   1      42.817  21.354  27.808  1.00  0.00     0.059 A 
ATOM     57  F   UNL A   1      43.489  23.009  29.325  1.00  0.00    -0.206 F 
ATOM     58  C   UNL A   1      42.512  20.983  26.499  1.00  0.00     0.060 A 
BRANCH  58  59
ATOM     59  S   UNL A   1      42.106  19.265  26.120  1.00  0.00     0.124 S 
ATOM     60  O   UNL A   1      42.988  19.000  24.990  1.00  0.00    -0.237 OA
ATOM     61  O   UNL A   1      42.444  18.583  27.367  1.00  0.00    -0.237 OA
ATOM     62  O   UNL A   1      40.680  19.320  25.814  1.00  0.00    -0.744 OA
ENDBRANCH  58  59
ENDBRANCH  26  51
BRANCH  38  63
ATOM     63  C   UNL A   1      49.397  26.836  26.268  1.00  0.00     0.058 A 
ATOM     64  C   UNL A   1      49.769  27.039  24.931  1.00  0.00     0.135 A 
ATOM     65  C   UNL A   1      50.305  26.189  27.118  1.00  0.00     0.135 A 
ATOM     66  F   UNL A   1      48.926  27.646  24.079  1.00  0.00    -0.206 F 
ATOM     67  C   UNL A   1      50.991  26.592  24.445  1.00  0.00     0.059 A 
ATOM     68  C   UNL A   1      51.542  25.751  26.658  1.00  0.00     0.059 A 
ATOM     69  F   UNL A   1      49.994  25.979  28.406  1.00  0.00    -0.206 F 
ATOM     70  C   UNL A   1      51.870  25.945  25.317  1.00  0.00     0.060 A 
BRANCH  70  71
ATOM     71  S   UNL A   1      53.462  25.378  24.681  1.00  0.00     0.124 S 
ATOM     72  O   UNL A   1      53.471  23.985  25.115  1.00  0.00    -0.237 OA
ATOM     73  O   UNL A   1      53.325  25.595  23.244  1.00  0.00    -0.237 OA
ATOM     74  O   UNL A   1      54.421  26.252  25.352  1.00  0.00    -0.744 OA
ENDBRANCH  70  71
ENDBRANCH  38  63
ENDBRANCH  12  13
ENDBRANCH   5   7
ENDBRANCH   2   3
ENDBRANCH   1   2
BRANCH   1  75
ATOM     75  C   UNL A   1      33.875  31.422  27.979  1.00  0.00     0.023 C 
BRANCH  75  76
ATOM     76  C   UNL A   1      33.594  30.353  26.920  1.00  0.00     0.116 C 
BRANCH  76  77
ATOM     77  N   UNL A   1      32.669  29.367  27.426  1.00  0.00    -0.356 N 
ATOM     78  C   UNL A   1      31.776  28.570  26.791  1.00  0.00     0.227 C 
ATOM     79  H   UNL A   1      32.693  29.252  28.404  1.00  0.00     0.163 HD
ATOM     80  O   UNL A   1      31.103  27.842  27.531  1.00  0.00    -0.275 OA
BRANCH  78  81
ATOM     81  C   UNL A   1      31.712  28.389  25.281  1.00  0.00     0.127 C 
ATOM     82  C   UNL A   1      32.810  27.431  24.707  1.00  0.00     0.127 C 
ATOM     83  C   UNL A   1      30.479  27.858  24.536  1.00  0.00     0.155 C 
ATOM     84  C   UNL A   1      32.023  26.582  23.722  1.00  0.00     0.155 C 
ATOM     85  C   UNL A   1      30.577  28.207  23.074  1.00  0.00     0.004 C 
ATOM     86  O   UNL A   1      30.774  26.450  24.439  1.00  0.00    -0.365 OA
ATOM     87  C   UNL A   1      31.535  27.420  22.573  1.00  0.00     0.004 C 
BRANCH  82  88
ATOM     88  C   UNL A   1      33.724  26.618  25.620  1.00  0.00     0.231 C 
ATOM     89  O   UNL A   1      34.799  27.145  25.956  1.00  0.00    -0.274 OA
ATOM     90  N   UNL A   1      33.467  25.417  26.196  1.00  0.00    -0.325 N 
ATOM     91  H   UNL A   1      34.028  25.270  26.992  1.00  0.00     0.169 HD
BRANCH  90  92
ATOM     92  C   UNL A   1      32.613  24.327  25.956  1.00  0.00     0.049 A 
ATOM     93  C   UNL A   1      31.361  24.423  26.599  1.00  0.00     0.027 A 
ATOM     94  C   UNL A   1      32.990  23.102  25.356  1.00  0.00     0.005 A 
ATOM     95  C   UNL A   1      30.442  23.375  26.575  1.00  0.00     0.002 A 
ATOM     96  C   UNL A   1      32.025  22.062  25.333  1.00  0.00     0.011 A 
ATOM     97  C   UNL A   1      30.768  22.196  25.926  1.00  0.00     0.001 A 
BRANCH  94  98
ATOM     98  C   UNL A   1      34.352  22.766  24.881  1.00  0.00    -0.016 A 
ATOM     99  C   UNL A   1      35.038  21.645  25.395  1.00  0.00     0.009 A 
ATOM    100  C   UNL A   1      35.018  23.547  23.923  1.00  0.00     0.009 A 
ATOM    101  C   UNL A   1      36.304  21.286  24.926  1.00  0.00     0.001 A 
ATOM    102  C   UNL A   1      36.284  23.188  23.448  1.00  0.00     0.001 A 
ATOM    103  C   UNL A   1      36.921  22.052  23.943  1.00  0.00     0.000 A 
ENDBRANCH  94  98
ENDBRANCH  90  92
ENDBRANCH  82  88
ENDBRANCH  78  81
ENDBRANCH  76  77
ENDBRANCH  75  76
ENDBRANCH   1  75
TORSDOF 17
ENDMDL
