MODEL 1
REMARK VINA RESULT:     -11.3      0.000      0.000
REMARK SMILES C[C@@H](C(=O)NCCCCNC(=O)c1ccc(-c2c3nc(c(-c4c(F)cc(S(=O)(=O)[O-])cc4F)c4ccc([nH]4)c(-c4c(F)cc(S(=O)(=O)[O-])cc4F)c4nc(c(-c5c(F)cc(S(=O)(=O)[O-])cc5F)c5ccc2[nH]5)C=C4)C=C3)cc1)c1ccc(C(=O)c2cccs2)cc1
REMARK SMILES IDX 7 1 6 2 5 3 3 4 4 5 2 7 1 8 79 9 80 10 91 11 81 12 90 13
REMARK SMILES IDX 82 14 83 15 84 16 85 17 86 18 89 19 87 20 88 21 8 22 9 23
REMARK SMILES IDX 10 24 11 25 12 27 13 28 14 29 78 30 15 31 77 32 16 33 17 34
REMARK SMILES IDX 18 35 71 36 19 37 76 38 70 39 72 40 20 41 75 42 69 43 68 44
REMARK SMILES IDX 21 46 55 47 34 48 54 49 35 50 38 51 53 52 73 53 36 54 37 55
REMARK SMILES IDX 52 57 74 58 39 59 22 60 23 61 32 62 24 63 25 64 31 65 33 66
REMARK SMILES IDX 26 67 27 68 28 69 29 70 30 71 56 72 57 73 66 74 58 75 59 76
REMARK SMILES IDX 65 77 67 78 60 79 61 80 62 81 63 82 64 83 40 84 41 85 50 86
REMARK SMILES IDX 42 87 43 88 49 89 51 90 44 91 45 92 46 93 47 94 48 95
REMARK H PARENT 5 6 10 26 72 45 38 56
REMARK Flexibility Score: inf
ROOT
ATOM      1  C   UNL A   1      33.800  30.894  27.332  1.00  0.00     0.023 C 
ENDROOT
BRANCH   1   2
ATOM      2  C   UNL A   1      32.329  30.734  26.948  1.00  0.00     0.116 C 
BRANCH   2   3
ATOM      3  N   UNL A   1      31.807  29.445  27.352  1.00  0.00    -0.356 N 
ATOM      4  C   UNL A   1      31.621  28.296  26.641  1.00  0.00     0.227 C 
ATOM      5  O   UNL A   1      31.155  27.341  27.269  1.00  0.00    -0.274 OA
ATOM      6  H   UNL A   1      31.542  29.389  28.299  1.00  0.00     0.163 HD
BRANCH   4   7
ATOM      7  C   UNL A   1      32.022  28.217  25.154  1.00  0.00     0.105 C 
ATOM      8  C   UNL A   1      30.854  28.512  24.209  1.00  0.00     0.023 C 
BRANCH   7   9
ATOM      9  C   UNL A   1      32.611  26.863  24.752  1.00  0.00    -0.036 A 
ATOM     10  C   UNL A   1      33.758  26.368  25.388  1.00  0.00     0.005 A 
ATOM     11  C   UNL A   1      32.058  26.122  23.697  1.00  0.00     0.005 A 
ATOM     12  C   UNL A   1      34.336  25.163  24.972  1.00  0.00     0.012 A 
ATOM     13  C   UNL A   1      32.620  24.907  23.300  1.00  0.00     0.012 A 
ATOM     14  C   UNL A   1      33.777  24.422  23.920  1.00  0.00     0.023 A 
BRANCH  14  15
ATOM     15  C   UNL A   1      34.419  23.124  23.526  1.00  0.00     0.202 C 
ATOM     16  O   UNL A   1      35.425  23.163  22.820  1.00  0.00    -0.288 OA
BRANCH  15  17
ATOM     17  C   UNL A   1      33.842  21.878  24.001  1.00  0.00     0.075 A 
ATOM     18  C   UNL A   1      32.717  21.204  23.565  1.00  0.00     0.024 A 
ATOM     19  S   UNL A   1      34.610  21.055  25.290  1.00  0.00    -0.140 S 
ATOM     20  C   UNL A   1      32.445  20.046  24.351  1.00  0.00     0.012 A 
ATOM     21  C   UNL A   1      33.391  19.857  25.334  1.00  0.00     0.065 A 
ENDBRANCH  15  17
ENDBRANCH  14  15
ENDBRANCH   7   9
ENDBRANCH   4   7
ENDBRANCH   2   3
ENDBRANCH   1   2
BRANCH   1  22
ATOM     22  C   UNL A   1      34.698  29.702  26.986  1.00  0.00     0.023 C 
BRANCH  22  23
ATOM     23  C   UNL A   1      35.736  29.327  28.040  1.00  0.00     0.116 C 
BRANCH  23  24
ATOM     24  N   UNL A   1      35.483  29.947  29.332  1.00  0.00    -0.352 N 
ATOM     25  C   UNL A   1      36.381  30.330  30.301  1.00  0.00     0.251 C 
ATOM     26  H   UNL A   1      34.537  30.116  29.542  1.00  0.00     0.163 HD
ATOM     27  O   UNL A   1      35.977  30.736  31.387  1.00  0.00    -0.269 OA
BRANCH  25  28
ATOM     28  C   UNL A   1      37.832  30.214  30.042  1.00  0.00     0.039 A 
ATOM     29  C   UNL A   1      38.684  29.916  31.109  1.00  0.00     0.014 A 
ATOM     30  C   UNL A   1      38.342  30.353  28.749  1.00  0.00     0.014 A 
ATOM     31  C   UNL A   1      40.035  29.661  30.863  1.00  0.00     0.010 A 
ATOM     32  C   UNL A   1      39.678  30.047  28.498  1.00  0.00     0.010 A 
ATOM     33  C   UNL A   1      40.530  29.673  29.549  1.00  0.00    -0.014 A 
BRANCH  33  34
ATOM     34  C   UNL A   1      41.910  29.222  29.237  1.00  0.00     0.031 A 
ATOM     35  C   UNL A   1      43.041  30.209  29.179  1.00  0.00     0.074 A 
ATOM     36  C   UNL A   1      42.116  27.933  28.895  1.00  0.00     0.049 A 
ATOM     37  N   UNL A   1      44.277  30.022  28.795  1.00  0.00    -0.248 NA
ATOM     38  C   UNL A   1      42.741  31.591  29.584  1.00  0.00     0.031 C 
ATOM     39  C   UNL A   1      41.086  26.891  28.858  1.00  0.00     0.029 A 
ATOM     40  N   UNL A   1      43.254  27.283  28.481  1.00  0.00    -0.354 N 
ATOM     41  C   UNL A   1      44.896  31.261  28.888  1.00  0.00     0.074 A 
ATOM     42  C   UNL A   1      43.895  32.201  29.344  1.00  0.00     0.031 C 
ATOM     43  C   UNL A   1      41.635  25.740  28.438  1.00  0.00     0.029 A 
ATOM     44  C   UNL A   1      43.044  25.967  28.137  1.00  0.00     0.049 A 
ATOM     45  H   UNL A   1      44.136  27.719  28.434  1.00  0.00     0.167 HD
ATOM     46  C   UNL A   1      46.186  31.581  28.628  1.00  0.00     0.037 A 
ATOM     47  C   UNL A   1      43.883  25.053  27.612  1.00  0.00     0.037 A 
ATOM     48  C   UNL A   1      47.188  30.633  28.214  1.00  0.00     0.049 A 
ATOM     49  C   UNL A   1      45.310  25.438  27.333  1.00  0.00     0.074 A 
ATOM     50  C   UNL A   1      48.545  30.843  28.037  1.00  0.00     0.029 A 
ATOM     51  N   UNL A   1      46.944  29.305  27.905  1.00  0.00    -0.354 N 
ATOM     52  N   UNL A   1      45.901  26.594  27.520  1.00  0.00    -0.248 NA
ATOM     53  C   UNL A   1      46.184  24.400  26.768  1.00  0.00     0.031 C 
ATOM     54  C   UNL A   1      49.115  29.651  27.576  1.00  0.00     0.029 A 
ATOM     55  C   UNL A   1      48.119  28.691  27.502  1.00  0.00     0.049 A 
ATOM     56  H   UNL A   1      46.067  28.862  27.962  1.00  0.00     0.167 HD
ATOM     57  C   UNL A   1      47.216  26.418  27.107  1.00  0.00     0.074 A 
ATOM     58  C   UNL A   1      47.342  25.040  26.679  1.00  0.00     0.031 C 
ATOM     59  C   UNL A   1      48.229  27.319  27.079  1.00  0.00     0.037 A 
BRANCH  46  60
ATOM     60  C   UNL A   1      46.608  33.013  28.787  1.00  0.00     0.058 A 
ATOM     61  C   UNL A   1      47.117  33.497  30.002  1.00  0.00     0.135 A 
ATOM     62  C   UNL A   1      46.596  33.884  27.685  1.00  0.00     0.135 A 
ATOM     63  F   UNL A   1      47.137  32.708  31.088  1.00  0.00    -0.206 F 
ATOM     64  C   UNL A   1      47.597  34.796  30.121  1.00  0.00     0.059 A 
ATOM     65  C   UNL A   1      47.089  35.182  27.776  1.00  0.00     0.059 A 
ATOM     66  F   UNL A   1      46.116  33.469  26.502  1.00  0.00    -0.206 F 
ATOM     67  C   UNL A   1      47.585  35.630  29.000  1.00  0.00     0.060 A 
BRANCH  67  68
ATOM     68  S   UNL A   1      48.260  37.297  29.159  1.00  0.00     0.124 S 
ATOM     69  O   UNL A   1      49.611  37.115  28.638  1.00  0.00    -0.237 OA
ATOM     70  O   UNL A   1      47.359  38.081  28.320  1.00  0.00    -0.237 OA
ATOM     71  O   UNL A   1      48.171  37.565  30.591  1.00  0.00    -0.744 OA
ENDBRANCH  67  68
ENDBRANCH  46  60
BRANCH  47  72
ATOM     72  C   UNL A   1      43.394  23.688  27.284  1.00  0.00     0.058 A 
ATOM     73  C   UNL A   1      43.073  23.331  25.967  1.00  0.00     0.135 A 
ATOM     74  C   UNL A   1      43.220  22.720  28.286  1.00  0.00     0.135 A 
ATOM     75  F   UNL A   1      43.217  24.226  24.977  1.00  0.00    -0.206 F 
ATOM     76  C   UNL A   1      42.568  22.074  25.655  1.00  0.00     0.059 A 
ATOM     77  C   UNL A   1      42.740  21.447  27.995  1.00  0.00     0.059 A 
ATOM     78  F   UNL A   1      43.530  23.007  29.560  1.00  0.00    -0.206 F 
ATOM     79  C   UNL A   1      42.402  21.139  26.679  1.00  0.00     0.060 A 
BRANCH  79  80
ATOM     80  S   UNL A   1      41.767  19.498  26.267  1.00  0.00     0.124 S 
ATOM     81  O   UNL A   1      42.530  19.185  25.065  1.00  0.00    -0.237 OA
ATOM     82  O   UNL A   1      42.106  18.727  27.458  1.00  0.00    -0.237 OA
ATOM     83  O   UNL A   1      40.340  19.735  26.069  1.00  0.00    -0.744 OA
ENDBRANCH  79  80
ENDBRANCH  47  72
BRANCH  59  84
ATOM     84  C   UNL A   1      49.563  26.845  26.578  1.00  0.00     0.058 A 
ATOM     85  C   UNL A   1      50.498  26.257  27.444  1.00  0.00     0.135 A 
ATOM     86  C   UNL A   1      49.885  26.923  25.215  1.00  0.00     0.135 A 
ATOM     87  F   UNL A   1      50.240  26.170  28.758  1.00  0.00    -0.206 F 
ATOM     88  C   UNL A   1      51.714  25.772  26.975  1.00  0.00     0.059 A 
ATOM     89  C   UNL A   1      51.085  26.423  24.721  1.00  0.00     0.059 A 
ATOM     90  F   UNL A   1      49.020  27.470  24.345  1.00  0.00    -0.206 F 
ATOM     91  C   UNL A   1      51.998  25.856  25.610  1.00  0.00     0.060 A 
BRANCH  91  92
ATOM     92  S   UNL A   1      53.557  25.177  25.006  1.00  0.00     0.124 S 
ATOM     93  O   UNL A   1      53.546  25.612  23.613  1.00  0.00    -0.237 OA
ATOM     94  O   UNL A   1      54.539  25.832  25.866  1.00  0.00    -0.237 OA
ATOM     95  O   UNL A   1      53.407  23.741  25.217  1.00  0.00    -0.744 OA
ENDBRANCH  91  92
ENDBRANCH  59  84
ENDBRANCH  33  34
ENDBRANCH  25  28
ENDBRANCH  23  24
ENDBRANCH  22  23
ENDBRANCH   1  22
TORSDOF 17
ENDMDL
MODEL 2
REMARK VINA RESULT:     -11.3      5.172     10.603
REMARK SMILES C[C@@H](C(=O)NCCCCNC(=O)c1ccc(-c2c3nc(c(-c4c(F)cc(S(=O)(=O)[O-])cc4F)c4ccc([nH]4)c(-c4c(F)cc(S(=O)(=O)[O-])cc4F)c4nc(c(-c5c(F)cc(S(=O)(=O)[O-])cc5F)c5ccc2[nH]5)C=C4)C=C3)cc1)c1ccc(C(=O)c2cccs2)cc1
REMARK SMILES IDX 7 1 6 2 5 3 3 4 4 5 2 7 1 8 79 9 80 10 91 11 81 12 90 13
REMARK SMILES IDX 82 14 83 15 84 16 85 17 86 18 89 19 87 20 88 21 8 22 9 23
REMARK SMILES IDX 10 24 11 25 12 27 13 28 14 29 78 30 15 31 77 32 16 33 17 34
REMARK SMILES IDX 18 35 71 36 19 37 76 38 70 39 72 40 20 41 75 42 69 43 68 44
REMARK SMILES IDX 21 46 55 47 34 48 54 49 35 50 38 51 53 52 73 53 36 54 37 55
REMARK SMILES IDX 52 57 74 58 39 59 22 60 23 61 32 62 24 63 25 64 31 65 33 66
REMARK SMILES IDX 26 67 27 68 28 69 29 70 30 71 56 72 57 73 66 74 58 75 59 76
REMARK SMILES IDX 65 77 67 78 60 79 61 80 62 81 63 82 64 83 40 84 41 85 50 86
REMARK SMILES IDX 42 87 43 88 49 89 51 90 44 91 45 92 46 93 47 94 48 95
REMARK H PARENT 5 6 10 26 72 45 38 56
REMARK Flexibility Score: inf
ROOT
ATOM      1  C   UNL A   1      35.745  21.690  26.026  1.00  0.00     0.023 C 
ENDROOT
BRANCH   1   2
ATOM      2  C   UNL A   1      35.125  20.782  24.963  1.00  0.00     0.116 C 
BRANCH   2   3
ATOM      3  N   UNL A   1      34.277  19.768  25.553  1.00  0.00    -0.356 N 
ATOM      4  C   UNL A   1      32.962  19.471  25.341  1.00  0.00     0.227 C 
ATOM      5  O   UNL A   1      32.507  18.531  25.999  1.00  0.00    -0.274 OA
ATOM      6  H   UNL A   1      34.724  19.196  26.219  1.00  0.00     0.163 HD
BRANCH   4   7
ATOM      7  C   UNL A   1      32.136  20.256  24.301  1.00  0.00     0.105 C 
ATOM      8  C   UNL A   1      32.500  19.891  22.859  1.00  0.00     0.023 C 
BRANCH   7   9
ATOM      9  C   UNL A   1      32.268  21.774  24.440  1.00  0.00    -0.036 A 
ATOM     10  C   UNL A   1      32.767  22.545  23.381  1.00  0.00     0.005 A 
ATOM     11  C   UNL A   1      31.959  22.417  25.647  1.00  0.00     0.005 A 
ATOM     12  C   UNL A   1      32.953  23.925  23.533  1.00  0.00     0.012 A 
ATOM     13  C   UNL A   1      32.120  23.797  25.791  1.00  0.00     0.012 A 
ATOM     14  C   UNL A   1      32.637  24.564  24.742  1.00  0.00     0.023 A 
BRANCH  14  15
ATOM     15  C   UNL A   1      32.832  26.048  24.848  1.00  0.00     0.202 C 
ATOM     16  O   UNL A   1      33.794  26.465  25.491  1.00  0.00    -0.288 OA
BRANCH  15  17
ATOM     17  C   UNL A   1      31.892  26.934  24.182  1.00  0.00     0.075 A 
ATOM     18  C   UNL A   1      30.892  27.723  24.718  1.00  0.00     0.024 A 
ATOM     19  S   UNL A   1      31.967  27.080  22.478  1.00  0.00    -0.140 S 
ATOM     20  C   UNL A   1      30.135  28.390  23.710  1.00  0.00     0.012 A 
ATOM     21  C   UNL A   1      30.607  28.116  22.445  1.00  0.00     0.065 A 
ENDBRANCH  15  17
ENDBRANCH  14  15
ENDBRANCH   7   9
ENDBRANCH   4   7
ENDBRANCH   2   3
ENDBRANCH   1   2
BRANCH   1  22
ATOM     22  C   UNL A   1      35.800  23.177  25.662  1.00  0.00     0.023 C 
BRANCH  22  23
ATOM     23  C   UNL A   1      37.141  23.678  25.130  1.00  0.00     0.116 C 
BRANCH  23  24
ATOM     24  N   UNL A   1      38.246  22.784  25.442  1.00  0.00    -0.352 N 
ATOM     25  C   UNL A   1      39.386  23.037  26.168  1.00  0.00     0.251 C 
ATOM     26  H   UNL A   1      38.166  21.871  25.084  1.00  0.00     0.163 HD
ATOM     27  O   UNL A   1      40.273  22.190  26.233  1.00  0.00    -0.269 OA
BRANCH  25  28
ATOM     28  C   UNL A   1      39.556  24.345  26.835  1.00  0.00     0.039 A 
ATOM     29  C   UNL A   1      38.958  24.546  28.083  1.00  0.00     0.014 A 
ATOM     30  C   UNL A   1      40.335  25.349  26.256  1.00  0.00     0.014 A 
ATOM     31  C   UNL A   1      39.223  25.719  28.794  1.00  0.00     0.010 A 
ATOM     32  C   UNL A   1      40.640  26.493  26.989  1.00  0.00     0.010 A 
ATOM     33  C   UNL A   1      40.108  26.677  28.274  1.00  0.00    -0.014 A 
BRANCH  33  34
ATOM     34  C   UNL A   1      40.556  27.838  29.086  1.00  0.00     0.031 A 
ATOM     35  C   UNL A   1      41.818  27.759  29.897  1.00  0.00     0.074 A 
ATOM     36  C   UNL A   1      39.759  28.922  29.174  1.00  0.00     0.049 A 
ATOM     37  N   UNL A   1      42.293  28.615  30.763  1.00  0.00    -0.248 NA
ATOM     38  C   UNL A   1      42.643  26.552  29.731  1.00  0.00     0.031 C 
ATOM     39  C   UNL A   1      38.480  29.093  28.478  1.00  0.00     0.029 A 
ATOM     40  N   UNL A   1      39.887  30.074  29.912  1.00  0.00    -0.354 N 
ATOM     41  C   UNL A   1      43.457  28.045  31.264  1.00  0.00     0.074 A 
ATOM     42  C   UNL A   1      43.606  26.757  30.621  1.00  0.00     0.031 C 
ATOM     43  C   UNL A   1      37.940  30.272  28.828  1.00  0.00     0.029 A 
ATOM     44  C   UNL A   1      38.810  30.923  29.801  1.00  0.00     0.049 A 
ATOM     45  H   UNL A   1      40.674  30.272  30.469  1.00  0.00     0.167 HD
ATOM     46  C   UNL A   1      44.326  28.557  32.167  1.00  0.00     0.037 A 
ATOM     47  C   UNL A   1      38.537  32.083  30.431  1.00  0.00     0.037 A 
ATOM     48  C   UNL A   1      44.193  29.857  32.772  1.00  0.00     0.049 A 
ATOM     49  C   UNL A   1      39.522  32.626  31.431  1.00  0.00     0.074 A 
ATOM     50  C   UNL A   1      45.083  30.507  33.611  1.00  0.00     0.029 A 
ATOM     51  N   UNL A   1      43.105  30.700  32.612  1.00  0.00    -0.354 N 
ATOM     52  N   UNL A   1      40.666  32.116  31.818  1.00  0.00    -0.248 NA
ATOM     53  C   UNL A   1      39.179  33.898  32.082  1.00  0.00     0.031 C 
ATOM     54  C   UNL A   1      44.511  31.725  33.995  1.00  0.00     0.029 A 
ATOM     55  C   UNL A   1      43.283  31.848  33.365  1.00  0.00     0.049 A 
ATOM     56  H   UNL A   1      42.321  30.511  32.047  1.00  0.00     0.167 HD
ATOM     57  C   UNL A   1      41.183  33.009  32.749  1.00  0.00     0.074 A 
ATOM     58  C   UNL A   1      40.239  34.102  32.852  1.00  0.00     0.031 C 
ATOM     59  C   UNL A   1      42.335  32.928  33.459  1.00  0.00     0.037 A 
BRANCH  46  60
ATOM     60  C   UNL A   1      45.511  27.724  32.563  1.00  0.00     0.058 A 
ATOM     61  C   UNL A   1      45.431  26.779  33.597  1.00  0.00     0.135 A 
ATOM     62  C   UNL A   1      46.708  27.803  31.834  1.00  0.00     0.135 A 
ATOM     63  F   UNL A   1      44.312  26.674  34.332  1.00  0.00    -0.206 F 
ATOM     64  C   UNL A   1      46.500  25.941  33.897  1.00  0.00     0.059 A 
ATOM     65  C   UNL A   1      47.784  26.962  32.104  1.00  0.00     0.059 A 
ATOM     66  F   UNL A   1      46.835  28.693  30.837  1.00  0.00    -0.206 F 
ATOM     67  C   UNL A   1      47.670  26.036  33.141  1.00  0.00     0.060 A 
BRANCH  67  68
ATOM     68  S   UNL A   1      49.029  24.906  33.512  1.00  0.00     0.124 S 
ATOM     69  O   UNL A   1      49.812  25.694  34.460  1.00  0.00    -0.237 OA
ATOM     70  O   UNL A   1      48.333  23.752  34.071  1.00  0.00    -0.237 OA
ATOM     71  O   UNL A   1      49.654  24.688  32.211  1.00  0.00    -0.744 OA
ENDBRANCH  67  68
ENDBRANCH  46  60
BRANCH  47  72
ATOM     72  C   UNL A   1      37.264  32.801  30.162  1.00  0.00     0.058 A 
ATOM     73  C   UNL A   1      36.112  32.538  30.918  1.00  0.00     0.135 A 
ATOM     74  C   UNL A   1      37.169  33.749  29.132  1.00  0.00     0.135 A 
ATOM     75  F   UNL A   1      36.153  31.635  31.910  1.00  0.00    -0.206 F 
ATOM     76  C   UNL A   1      34.902  33.167  30.645  1.00  0.00     0.059 A 
ATOM     77  C   UNL A   1      35.976  34.409  28.855  1.00  0.00     0.059 A 
ATOM     78  F   UNL A   1      38.247  34.048  28.391  1.00  0.00    -0.206 F 
ATOM     79  C   UNL A   1      34.845  34.099  29.607  1.00  0.00     0.060 A 
BRANCH  79  80
ATOM     80  S   UNL A   1      33.276  34.931  29.269  1.00  0.00     0.124 S 
ATOM     81  O   UNL A   1      32.665  34.949  30.592  1.00  0.00    -0.237 OA
ATOM     82  O   UNL A   1      33.717  36.223  28.751  1.00  0.00    -0.237 OA
ATOM     83  O   UNL A   1      32.641  34.056  28.288  1.00  0.00    -0.744 OA
ENDBRANCH  79  80
ENDBRANCH  47  72
BRANCH  59  84
ATOM     84  C   UNL A   1      42.646  34.053  34.404  1.00  0.00     0.058 A 
ATOM     85  C   UNL A   1      42.343  33.960  35.771  1.00  0.00     0.135 A 
ATOM     86  C   UNL A   1      43.306  35.206  33.952  1.00  0.00     0.135 A 
ATOM     87  F   UNL A   1      41.702  32.882  36.249  1.00  0.00    -0.206 F 
ATOM     88  C   UNL A   1      42.675  34.979  36.657  1.00  0.00     0.059 A 
ATOM     89  C   UNL A   1      43.669  36.226  34.825  1.00  0.00     0.059 A 
ATOM     90  F   UNL A   1      43.624  35.338  32.654  1.00  0.00    -0.206 F 
ATOM     91  C   UNL A   1      43.342  36.108  36.175  1.00  0.00     0.060 A 
BRANCH  91  92
ATOM     92  S   UNL A   1      43.812  37.401  37.343  1.00  0.00     0.124 S 
ATOM     93  O   UNL A   1      42.590  37.548  38.127  1.00  0.00    -0.237 OA
ATOM     94  O   UNL A   1      44.944  36.797  38.041  1.00  0.00    -0.237 OA
ATOM     95  O   UNL A   1      44.146  38.530  36.481  1.00  0.00    -0.744 OA
ENDBRANCH  91  92
ENDBRANCH  59  84
ENDBRANCH  33  34
ENDBRANCH  25  28
ENDBRANCH  23  24
ENDBRANCH  22  23
ENDBRANCH   1  22
TORSDOF 17
ENDMDL
MODEL 3
REMARK VINA RESULT:     -11.2      3.506      9.303
REMARK SMILES C[C@@H](C(=O)NCCCCNC(=O)c1ccc(-c2c3nc(c(-c4c(F)cc(S(=O)(=O)[O-])cc4F)c4ccc([nH]4)c(-c4c(F)cc(S(=O)(=O)[O-])cc4F)c4nc(c(-c5c(F)cc(S(=O)(=O)[O-])cc5F)c5ccc2[nH]5)C=C4)C=C3)cc1)c1ccc(C(=O)c2cccs2)cc1
REMARK SMILES IDX 7 1 6 2 5 3 3 4 4 5 2 7 1 8 79 9 80 10 91 11 81 12 90 13
REMARK SMILES IDX 82 14 83 15 84 16 85 17 86 18 89 19 87 20 88 21 8 22 9 23
REMARK SMILES IDX 10 24 11 25 12 27 13 28 14 29 78 30 15 31 77 32 16 33 17 34
REMARK SMILES IDX 18 35 71 36 19 37 76 38 70 39 72 40 20 41 75 42 69 43 68 44
REMARK SMILES IDX 21 46 55 47 34 48 54 49 35 50 38 51 53 52 73 53 36 54 37 55
REMARK SMILES IDX 52 57 74 58 39 59 22 60 23 61 32 62 24 63 25 64 31 65 33 66
REMARK SMILES IDX 26 67 27 68 28 69 29 70 30 71 56 72 57 73 66 74 58 75 59 76
REMARK SMILES IDX 65 77 67 78 60 79 61 80 62 81 63 82 64 83 40 84 41 85 50 86
REMARK SMILES IDX 42 87 43 88 49 89 51 90 44 91 45 92 46 93 47 94 48 95
REMARK H PARENT 5 6 10 26 72 45 38 56
REMARK Flexibility Score: inf
ROOT
ATOM      1  C   UNL A   1      35.101  23.502  23.396  1.00  0.00     0.023 C 
ENDROOT
BRANCH   1   2
ATOM      2  C   UNL A   1      34.526  24.611  24.279  1.00  0.00     0.116 C 
BRANCH   2   3
ATOM      3  N   UNL A   1      33.349  25.210  23.689  1.00  0.00    -0.356 N 
ATOM      4  C   UNL A   1      32.024  24.940  23.869  1.00  0.00     0.227 C 
ATOM      5  O   UNL A   1      31.237  25.634  23.221  1.00  0.00    -0.274 OA
ATOM      6  H   UNL A   1      33.535  25.936  23.049  1.00  0.00     0.163 HD
BRANCH   4   7
ATOM      7  C   UNL A   1      31.572  23.853  24.867  1.00  0.00     0.105 C 
ATOM      8  C   UNL A   1      32.163  24.052  26.266  1.00  0.00     0.023 C 
BRANCH   7   9
ATOM      9  C   UNL A   1      31.919  22.432  24.417  1.00  0.00    -0.036 A 
ATOM     10  C   UNL A   1      31.862  22.080  23.062  1.00  0.00     0.005 A 
ATOM     11  C   UNL A   1      32.232  21.436  25.354  1.00  0.00     0.005 A 
ATOM     12  C   UNL A   1      32.111  20.762  22.659  1.00  0.00     0.012 A 
ATOM     13  C   UNL A   1      32.506  20.128  24.950  1.00  0.00     0.012 A 
ATOM     14  C   UNL A   1      32.429  19.771  23.599  1.00  0.00     0.023 A 
BRANCH  14  15
ATOM     15  C   UNL A   1      32.710  18.378  23.117  1.00  0.00     0.202 C 
ATOM     16  O   UNL A   1      32.333  18.066  21.988  1.00  0.00    -0.288 OA
BRANCH  15  17
ATOM     17  C   UNL A   1      33.425  17.460  23.986  1.00  0.00     0.075 A 
ATOM     18  C   UNL A   1      34.786  17.270  24.141  1.00  0.00     0.024 A 
ATOM     19  S   UNL A   1      32.523  16.422  25.006  1.00  0.00    -0.140 S 
ATOM     20  C   UNL A   1      35.081  16.209  25.048  1.00  0.00     0.012 A 
ATOM     21  C   UNL A   1      33.938  15.653  25.580  1.00  0.00     0.065 A 
ENDBRANCH  15  17
ENDBRANCH  14  15
ENDBRANCH   7   9
ENDBRANCH   4   7
ENDBRANCH   2   3
ENDBRANCH   1   2
BRANCH   1  22
ATOM     22  C   UNL A   1      36.449  22.936  23.853  1.00  0.00     0.023 C 
BRANCH  22  23
ATOM     23  C   UNL A   1      36.860  23.281  25.283  1.00  0.00     0.116 C 
BRANCH  23  24
ATOM     24  N   UNL A   1      37.801  22.325  25.848  1.00  0.00    -0.352 N 
ATOM     25  C   UNL A   1      38.968  22.561  26.536  1.00  0.00     0.251 C 
ATOM     26  H   UNL A   1      37.568  21.377  25.722  1.00  0.00     0.163 HD
ATOM     27  O   UNL A   1      39.700  21.624  26.842  1.00  0.00    -0.269 OA
BRANCH  25  28
ATOM     28  C   UNL A   1      39.355  23.948  26.869  1.00  0.00     0.039 A 
ATOM     29  C   UNL A   1      39.162  24.405  28.176  1.00  0.00     0.014 A 
ATOM     30  C   UNL A   1      39.945  24.776  25.912  1.00  0.00     0.014 A 
ATOM     31  C   UNL A   1      39.650  25.659  28.548  1.00  0.00     0.010 A 
ATOM     32  C   UNL A   1      40.478  26.004  26.297  1.00  0.00     0.010 A 
ATOM     33  C   UNL A   1      40.358  26.446  27.624  1.00  0.00    -0.014 A 
BRANCH  33  34
ATOM     34  C   UNL A   1      41.051  27.692  28.039  1.00  0.00     0.031 A 
ATOM     35  C   UNL A   1      42.551  27.767  28.038  1.00  0.00     0.074 A 
ATOM     36  C   UNL A   1      40.321  28.717  28.525  1.00  0.00     0.049 A 
ATOM     37  N   UNL A   1      43.328  28.717  28.491  1.00  0.00    -0.248 NA
ATOM     38  C   UNL A   1      43.276  26.616  27.476  1.00  0.00     0.031 C 
ATOM     39  C   UNL A   1      38.859  28.741  28.630  1.00  0.00     0.029 A 
ATOM     40  N   UNL A   1      40.707  29.926  29.052  1.00  0.00    -0.354 N 
ATOM     41  C   UNL A   1      44.629  28.273  28.291  1.00  0.00     0.074 A 
ATOM     42  C   UNL A   1      44.540  26.957  27.697  1.00  0.00     0.031 C 
ATOM     43  C   UNL A   1      38.475  29.898  29.193  1.00  0.00     0.029 A 
ATOM     44  C   UNL A   1      39.659  30.682  29.525  1.00  0.00     0.049 A 
ATOM     45  H   UNL A   1      41.645  30.222  29.089  1.00  0.00     0.167 HD
ATOM     46  C   UNL A   1      45.789  28.912  28.569  1.00  0.00     0.037 A 
ATOM     47  C   UNL A   1      39.652  31.860  30.179  1.00  0.00     0.037 A 
ATOM     48  C   UNL A   1      45.871  30.240  29.122  1.00  0.00     0.049 A 
ATOM     49  C   UNL A   1      40.958  32.546  30.474  1.00  0.00     0.074 A 
ATOM     50  C   UNL A   1      47.000  31.013  29.331  1.00  0.00     0.029 A 
ATOM     51  N   UNL A   1      44.789  30.985  29.561  1.00  0.00    -0.354 N 
ATOM     52  N   UNL A   1      42.175  32.152  30.189  1.00  0.00    -0.248 NA
ATOM     53  C   UNL A   1      40.891  33.832  31.181  1.00  0.00     0.031 C 
ATOM     54  C   UNL A   1      46.604  32.209  29.939  1.00  0.00     0.029 A 
ATOM     55  C   UNL A   1      45.226  32.194  30.074  1.00  0.00     0.049 A 
ATOM     56  H   UNL A   1      43.848  30.697  29.516  1.00  0.00     0.167 HD
ATOM     57  C   UNL A   1      43.018  33.146  30.673  1.00  0.00     0.074 A 
ATOM     58  C   UNL A   1      42.172  34.170  31.250  1.00  0.00     0.031 C 
ATOM     59  C   UNL A   1      44.372  33.204  30.646  1.00  0.00     0.037 A 
BRANCH  46  60
ATOM     60  C   UNL A   1      47.079  28.201  28.275  1.00  0.00     0.058 A 
ATOM     61  C   UNL A   1      47.658  27.320  29.200  1.00  0.00     0.135 A 
ATOM     62  C   UNL A   1      47.688  28.328  27.016  1.00  0.00     0.135 A 
ATOM     63  F   UNL A   1      47.121  27.174  30.422  1.00  0.00    -0.206 F 
ATOM     64  C   UNL A   1      48.799  26.589  28.889  1.00  0.00     0.059 A 
ATOM     65  C   UNL A   1      48.820  27.593  26.676  1.00  0.00     0.059 A 
ATOM     66  F   UNL A   1      47.174  29.161  26.097  1.00  0.00    -0.206 F 
ATOM     67  C   UNL A   1      49.370  26.728  27.621  1.00  0.00     0.060 A 
BRANCH  67  68
ATOM     68  S   UNL A   1      50.822  25.733  27.216  1.00  0.00     0.124 S 
ATOM     69  O   UNL A   1      50.945  25.971  25.781  1.00  0.00    -0.237 OA
ATOM     70  O   UNL A   1      51.857  26.337  28.049  1.00  0.00    -0.237 OA
ATOM     71  O   UNL A   1      50.424  24.381  27.596  1.00  0.00    -0.744 OA
ENDBRANCH  67  68
ENDBRANCH  46  60
BRANCH  47  72
ATOM     72  C   UNL A   1      38.368  32.459  30.630  1.00  0.00     0.058 A 
ATOM     73  C   UNL A   1      37.833  32.159  31.891  1.00  0.00     0.135 A 
ATOM     74  C   UNL A   1      37.643  33.328  29.801  1.00  0.00     0.135 A 
ATOM     75  F   UNL A   1      38.488  31.327  32.716  1.00  0.00    -0.206 F 
ATOM     76  C   UNL A   1      36.609  32.674  32.305  1.00  0.00     0.059 A 
ATOM     77  C   UNL A   1      36.428  33.876  30.201  1.00  0.00     0.059 A 
ATOM     78  F   UNL A   1      38.121  33.661  28.592  1.00  0.00    -0.206 F 
ATOM     79  C   UNL A   1      35.912  33.530  31.449  1.00  0.00     0.060 A 
BRANCH  79  80
ATOM     80  S   UNL A   1      34.333  34.215  31.999  1.00  0.00     0.124 S 
ATOM     81  O   UNL A   1      34.765  35.428  32.682  1.00  0.00    -0.237 OA
ATOM     82  O   UNL A   1      33.625  34.410  30.737  1.00  0.00    -0.237 OA
ATOM     83  O   UNL A   1      33.794  33.162  32.854  1.00  0.00    -0.744 OA
ENDBRANCH  79  80
ENDBRANCH  47  72
BRANCH  59  84
ATOM     84  C   UNL A   1      45.025  34.414  31.249  1.00  0.00     0.058 A 
ATOM     85  C   UNL A   1      45.225  35.583  30.498  1.00  0.00     0.135 A 
ATOM     86  C   UNL A   1      45.399  34.428  32.601  1.00  0.00     0.135 A 
ATOM     87  F   UNL A   1      44.894  35.615  29.198  1.00  0.00    -0.206 F 
ATOM     88  C   UNL A   1      45.784  36.722  31.067  1.00  0.00     0.059 A 
ATOM     89  C   UNL A   1      45.938  35.563  33.196  1.00  0.00     0.059 A 
ATOM     90  F   UNL A   1      45.221  33.336  33.363  1.00  0.00    -0.206 F 
ATOM     91  C   UNL A   1      46.134  36.704  32.419  1.00  0.00     0.060 A 
BRANCH  91  92
ATOM     92  S   UNL A   1      46.812  38.205  33.158  1.00  0.00     0.124 S 
ATOM     93  O   UNL A   1      45.600  38.969  33.437  1.00  0.00    -0.237 OA
ATOM     94  O   UNL A   1      47.519  37.687  34.326  1.00  0.00    -0.237 OA
ATOM     95  O   UNL A   1      47.666  38.745  32.106  1.00  0.00    -0.744 OA
ENDBRANCH  91  92
ENDBRANCH  59  84
ENDBRANCH  33  34
ENDBRANCH  25  28
ENDBRANCH  23  24
ENDBRANCH  22  23
ENDBRANCH   1  22
TORSDOF 17
ENDMDL
