MODEL 1
REMARK VINA RESULT:     -10.4      0.000      0.000
REMARK SMILES CCC[N@H+](C)CC[C@@H]1CCC[C@]1([NH2+]C)C(=O)NCCCCNC(=O)c1ccc(-c2c3nc(c(-c4c(F)cc(S(=O)(=O)[O-])cc4F)c4ccc([nH]4)c(-c4c(F)cc(S(=O)(=O)[O-])cc4F)c4nc(c(-c5c(F)cc(S(=O)(=O)[O-])cc5F)c5ccc2[nH]5)C=C4)C=C3)cc1
REMARK SMILES IDX 18 1 17 2 15 3 16 4 12 6 8 7 9 8 10 9 11 10 7 11 6 12 4 13
REMARK SMILES IDX 5 14 3 16 2 17 1 18 13 19 14 20 19 23 20 24 21 25 22 26
REMARK SMILES IDX 23 27 24 29 25 30 26 31 90 32 27 33 89 34 28 35 29 36 30 37
REMARK SMILES IDX 83 38 31 39 88 40 82 41 84 42 32 43 87 44 81 45 80 46 33 48
REMARK SMILES IDX 67 49 46 50 66 51 47 52 50 53 65 54 85 55 48 56 49 57 64 59
REMARK SMILES IDX 86 60 51 61 34 62 35 63 44 64 36 65 37 66 43 67 45 68 38 69
REMARK SMILES IDX 39 70 40 71 41 72 42 73 68 74 69 75 78 76 70 77 71 78 77 79
REMARK SMILES IDX 79 80 72 81 73 82 74 83 75 84 76 85 52 86 53 87 62 88 54 89
REMARK SMILES IDX 55 90 61 91 63 92 56 93 57 94 58 95 59 96 60 97
REMARK H PARENT 17 5 4 15 13 21 13 22 22 28 84 47 50 58
REMARK Flexibility Score: inf
ROOT
ATOM      1  C   UNL A   1      31.086  25.974  26.150  1.00  0.00     0.116 C 
ENDROOT
BRANCH   1   2
ATOM      2  N   UNL A   1      30.852  25.326  24.789  1.00  0.00    -0.351 N 
ATOM      3  C   UNL A   1      31.226  24.974  23.517  1.00  0.00     0.281 C 
ATOM      4  O   UNL A   1      30.271  24.239  23.139  1.00  0.00    -0.268 OA
ATOM      5  H   UNL A   1      29.938  24.967  24.864  1.00  0.00     0.163 HD
BRANCH   3   6
ATOM      6  C   UNL A   1      32.424  25.307  22.232  1.00  0.00     0.178 C 
ATOM      7  C   UNL A   1      33.596  24.536  22.797  1.00  0.00     0.066 C 
ATOM      8  C   UNL A   1      34.025  25.397  24.007  1.00  0.00     0.011 C 
ATOM      9  C   UNL A   1      33.779  26.852  23.539  1.00  0.00     0.008 C 
ATOM     10  C   UNL A   1      32.994  26.733  22.244  1.00  0.00     0.079 C 
BRANCH   7  11
ATOM     11  C   UNL A   1      33.170  23.066  22.916  1.00  0.00     0.072 C 
BRANCH  11  12
ATOM     12  C   UNL A   1      33.784  22.102  24.093  1.00  0.00     0.262 C 
BRANCH  12  13
ATOM     13  N   UNL A   1      33.136  21.012  25.060  1.00  0.00    -0.337 N 
ATOM     14  C   UNL A   1      31.901  21.578  25.651  1.00  0.00     0.332 C 
ATOM     15  H   UNL A   1      34.064  20.890  25.464  1.00  0.00     0.347 HD
BRANCH  13  16
ATOM     16  C   UNL A   1      32.899  19.430  24.991  1.00  0.00     0.261 C 
BRANCH  16  17
ATOM     17  C   UNL A   1      32.555  18.262  23.872  1.00  0.00     0.058 C 
ATOM     18  C   UNL A   1      33.470  17.197  23.220  1.00  0.00     0.010 C 
ENDBRANCH  16  17
ENDBRANCH  13  16
ENDBRANCH  12  13
ENDBRANCH  11  12
ENDBRANCH   7  11
BRANCH   6  19
ATOM     19  N   UNL A   1      32.532  24.805  20.823  1.00  0.00    -0.336 N 
ATOM     20  C   UNL A   1      32.578  25.517  19.572  1.00  0.00     0.331 C 
ATOM     21  H   UNL A   1      31.729  24.185  20.722  1.00  0.00     0.346 HD
ATOM     22  H   UNL A   1      33.517  24.543  20.855  1.00  0.00     0.346 HD
ENDBRANCH   6  19
ENDBRANCH   3   6
ENDBRANCH   1   2
BRANCH   1  23
ATOM     23  C   UNL A   1      31.387  27.482  26.077  1.00  0.00     0.023 C 
BRANCH  23  24
ATOM     24  C   UNL A   1      32.299  27.964  27.209  1.00  0.00     0.023 C 
BRANCH  24  25
ATOM     25  C   UNL A   1      33.569  28.686  26.773  1.00  0.00     0.116 C 
BRANCH  25  26
ATOM     26  N   UNL A   1      33.531  30.130  26.995  1.00  0.00    -0.352 N 
ATOM     27  C   UNL A   1      34.470  30.887  27.663  1.00  0.00     0.251 C 
ATOM     28  H   UNL A   1      32.754  30.612  26.631  1.00  0.00     0.163 HD
ATOM     29  O   UNL A   1      34.300  32.081  27.898  1.00  0.00    -0.269 OA
BRANCH  27  30
ATOM     30  C   UNL A   1      35.694  30.192  28.093  1.00  0.00     0.039 A 
ATOM     31  C   UNL A   1      36.870  30.350  27.361  1.00  0.00     0.014 A 
ATOM     32  C   UNL A   1      35.693  29.601  29.360  1.00  0.00     0.014 A 
ATOM     33  C   UNL A   1      38.078  29.963  27.939  1.00  0.00     0.010 A 
ATOM     34  C   UNL A   1      36.905  29.318  29.968  1.00  0.00     0.010 A 
ATOM     35  C   UNL A   1      38.107  29.483  29.260  1.00  0.00    -0.014 A 
BRANCH  35  36
ATOM     36  C   UNL A   1      39.382  29.097  29.910  1.00  0.00     0.031 A 
ATOM     37  C   UNL A   1      39.820  29.840  31.142  1.00  0.00     0.074 A 
ATOM     38  C   UNL A   1      40.152  28.131  29.372  1.00  0.00     0.049 A 
ATOM     39  N   UNL A   1      40.914  29.702  31.843  1.00  0.00    -0.248 NA
ATOM     40  C   UNL A   1      38.929  30.907  31.632  1.00  0.00     0.031 C 
ATOM     41  C   UNL A   1      39.852  27.387  28.144  1.00  0.00     0.029 A 
ATOM     42  N   UNL A   1      41.350  27.605  29.786  1.00  0.00    -0.354 N 
ATOM     43  C   UNL A   1      40.843  30.668  32.840  1.00  0.00     0.074 A 
ATOM     44  C   UNL A   1      39.644  31.436  32.612  1.00  0.00     0.031 C 
ATOM     45  C   UNL A   1      40.818  26.479  27.929  1.00  0.00     0.029 A 
ATOM     46  C   UNL A   1      41.826  26.598  28.976  1.00  0.00     0.049 A 
ATOM     47  H   UNL A   1      41.825  27.918  30.589  1.00  0.00     0.167 HD
ATOM     48  C   UNL A   1      41.688  30.872  33.875  1.00  0.00     0.037 A 
ATOM     49  C   UNL A   1      42.950  25.862  29.075  1.00  0.00     0.037 A 
ATOM     50  C   UNL A   1      42.856  30.070  34.115  1.00  0.00     0.049 A 
ATOM     51  C   UNL A   1      43.874  26.110  30.241  1.00  0.00     0.074 A 
ATOM     52  C   UNL A   1      43.746  30.143  35.169  1.00  0.00     0.029 A 
ATOM     53  N   UNL A   1      43.295  29.049  33.284  1.00  0.00    -0.354 N 
ATOM     54  N   UNL A   1      43.750  26.974  31.221  1.00  0.00    -0.248 NA
ATOM     55  C   UNL A   1      45.083  25.280  30.322  1.00  0.00     0.031 C 
ATOM     56  C   UNL A   1      44.756  29.204  34.948  1.00  0.00     0.029 A 
ATOM     57  C   UNL A   1      44.461  28.501  33.790  1.00  0.00     0.049 A 
ATOM     58  H   UNL A   1      42.845  28.757  32.459  1.00  0.00     0.167 HD
ATOM     59  C   UNL A   1      44.846  26.767  32.051  1.00  0.00     0.074 A 
ATOM     60  C   UNL A   1      45.612  25.686  31.467  1.00  0.00     0.031 C 
ATOM     61  C   UNL A   1      45.191  27.411  33.195  1.00  0.00     0.037 A 
BRANCH  48  62
ATOM     62  C   UNL A   1      41.376  31.990  34.830  1.00  0.00     0.058 A 
ATOM     63  C   UNL A   1      41.924  33.273  34.671  1.00  0.00     0.135 A 
ATOM     64  C   UNL A   1      40.477  31.789  35.888  1.00  0.00     0.135 A 
ATOM     65  F   UNL A   1      42.811  33.516  33.693  1.00  0.00    -0.206 F 
ATOM     66  C   UNL A   1      41.598  34.315  35.534  1.00  0.00     0.059 A 
ATOM     67  C   UNL A   1      40.112  32.823  36.744  1.00  0.00     0.059 A 
ATOM     68  F   UNL A   1      39.935  30.578  36.094  1.00  0.00    -0.206 F 
ATOM     69  C   UNL A   1      40.684  34.081  36.561  1.00  0.00     0.060 A 
BRANCH  69  70
ATOM     70  S   UNL A   1      40.235  35.457  37.640  1.00  0.00     0.124 S 
ATOM     71  O   UNL A   1      39.084  34.907  38.351  1.00  0.00    -0.237 OA
ATOM     72  O   UNL A   1      41.446  35.633  38.436  1.00  0.00    -0.237 OA
ATOM     73  O   UNL A   1      39.937  36.539  36.708  1.00  0.00    -0.744 OA
ENDBRANCH  69  70
ENDBRANCH  48  62
BRANCH  49  74
ATOM     74  C   UNL A   1      43.263  24.813  28.062  1.00  0.00     0.058 A 
ATOM     75  C   UNL A   1      42.860  23.481  28.247  1.00  0.00     0.135 A 
ATOM     76  C   UNL A   1      43.995  25.115  26.902  1.00  0.00     0.135 A 
ATOM     77  F   UNL A   1      42.161  23.139  29.340  1.00  0.00    -0.206 F 
ATOM     78  C   UNL A   1      43.200  22.481  27.341  1.00  0.00     0.059 A 
ATOM     79  C   UNL A   1      44.319  24.138  25.965  1.00  0.00     0.059 A 
ATOM     80  F   UNL A   1      44.389  26.375  26.663  1.00  0.00    -0.206 F 
ATOM     81  C   UNL A   1      43.933  22.819  26.203  1.00  0.00     0.060 A 
BRANCH  81  82
ATOM     82  S   UNL A   1      44.361  21.516  25.028  1.00  0.00     0.124 S 
ATOM     83  O   UNL A   1      44.302  22.232  23.761  1.00  0.00    -0.237 OA
ATOM     84  O   UNL A   1      45.692  21.123  25.481  1.00  0.00    -0.237 OA
ATOM     85  O   UNL A   1      43.316  20.518  25.239  1.00  0.00    -0.744 OA
ENDBRANCH  81  82
ENDBRANCH  49  74
BRANCH  61  86
ATOM     86  C   UNL A   1      46.423  26.934  33.914  1.00  0.00     0.058 A 
ATOM     87  C   UNL A   1      46.374  25.900  34.860  1.00  0.00     0.135 A 
ATOM     88  C   UNL A   1      47.678  27.479  33.598  1.00  0.00     0.135 A 
ATOM     89  F   UNL A   1      45.197  25.348  35.199  1.00  0.00    -0.206 F 
ATOM     90  C   UNL A   1      47.524  25.441  35.491  1.00  0.00     0.059 A 
ATOM     91  C   UNL A   1      48.846  27.010  34.189  1.00  0.00     0.059 A 
ATOM     92  F   UNL A   1      47.782  28.460  32.688  1.00  0.00    -0.206 F 
ATOM     93  C   UNL A   1      48.757  26.000  35.145  1.00  0.00     0.060 A 
BRANCH  93  94
ATOM     94  S   UNL A   1      50.245  25.367  35.945  1.00  0.00     0.124 S 
ATOM     95  O   UNL A   1      50.609  24.267  35.059  1.00  0.00    -0.237 OA
ATOM     96  O   UNL A   1      51.131  26.527  35.914  1.00  0.00    -0.237 OA
ATOM     97  O   UNL A   1      49.778  24.976  37.272  1.00  0.00    -0.744 OA
ENDBRANCH  93  94
ENDBRANCH  61  86
ENDBRANCH  35  36
ENDBRANCH  27  30
ENDBRANCH  25  26
ENDBRANCH  24  25
ENDBRANCH  23  24
ENDBRANCH   1  23
TORSDOF 20
ENDMDL
MODEL 2
REMARK VINA RESULT:     -10.4      1.169      2.921
REMARK SMILES CCC[N@H+](C)CC[C@@H]1CCC[C@]1([NH2+]C)C(=O)NCCCCNC(=O)c1ccc(-c2c3nc(c(-c4c(F)cc(S(=O)(=O)[O-])cc4F)c4ccc([nH]4)c(-c4c(F)cc(S(=O)(=O)[O-])cc4F)c4nc(c(-c5c(F)cc(S(=O)(=O)[O-])cc5F)c5ccc2[nH]5)C=C4)C=C3)cc1
REMARK SMILES IDX 18 1 17 2 15 3 16 4 12 6 8 7 9 8 10 9 11 10 7 11 6 12 4 13
REMARK SMILES IDX 5 14 3 16 2 17 1 18 13 19 14 20 19 23 20 24 21 25 22 26
REMARK SMILES IDX 23 27 24 29 25 30 26 31 90 32 27 33 89 34 28 35 29 36 30 37
REMARK SMILES IDX 83 38 31 39 88 40 82 41 84 42 32 43 87 44 81 45 80 46 33 48
REMARK SMILES IDX 67 49 46 50 66 51 47 52 50 53 65 54 85 55 48 56 49 57 64 59
REMARK SMILES IDX 86 60 51 61 34 62 35 63 44 64 36 65 37 66 43 67 45 68 38 69
REMARK SMILES IDX 39 70 40 71 41 72 42 73 68 74 69 75 78 76 70 77 71 78 77 79
REMARK SMILES IDX 79 80 72 81 73 82 74 83 75 84 76 85 52 86 53 87 62 88 54 89
REMARK SMILES IDX 55 90 61 91 63 92 56 93 57 94 58 95 59 96 60 97
REMARK H PARENT 17 5 4 15 13 21 13 22 22 28 84 47 50 58
REMARK Flexibility Score: inf
ROOT
ATOM      1  C   UNL A   1      31.940  25.764  26.408  1.00  0.00     0.116 C 
ENDROOT
BRANCH   1   2
ATOM      2  N   UNL A   1      33.288  25.226  25.935  1.00  0.00    -0.351 N 
ATOM      3  C   UNL A   1      34.210  24.230  25.735  1.00  0.00     0.281 C 
ATOM      4  O   UNL A   1      35.110  24.814  25.070  1.00  0.00    -0.268 OA
ATOM      5  H   UNL A   1      33.741  26.028  25.586  1.00  0.00     0.163 HD
BRANCH   3   6
ATOM      6  C   UNL A   1      34.636  22.558  26.203  1.00  0.00     0.178 C 
ATOM      7  C   UNL A   1      33.505  21.826  25.515  1.00  0.00     0.066 C 
ATOM      8  C   UNL A   1      32.277  22.204  26.373  1.00  0.00     0.011 C 
ATOM      9  C   UNL A   1      32.833  22.275  27.816  1.00  0.00     0.008 C 
ATOM     10  C   UNL A   1      34.344  22.211  27.670  1.00  0.00     0.079 C 
BRANCH   7  11
ATOM     11  C   UNL A   1      33.608  22.121  24.013  1.00  0.00     0.072 C 
BRANCH  11  12
ATOM     12  C   UNL A   1      32.279  22.520  23.138  1.00  0.00     0.262 C 
BRANCH  12  13
ATOM     13  N   UNL A   1      31.762  23.887  22.499  1.00  0.00    -0.337 N 
ATOM     14  C   UNL A   1      30.617  24.381  23.299  1.00  0.00     0.332 C 
ATOM     15  H   UNL A   1      31.781  23.415  21.596  1.00  0.00     0.347 HD
BRANCH  13  16
ATOM     16  C   UNL A   1      32.463  25.193  21.891  1.00  0.00     0.261 C 
BRANCH  16  17
ATOM     17  C   UNL A   1      33.627  26.294  22.298  1.00  0.00     0.058 C 
ATOM     18  C   UNL A   1      33.625  27.838  22.202  1.00  0.00     0.010 C 
ENDBRANCH  16  17
ENDBRANCH  13  16
ENDBRANCH  12  13
ENDBRANCH  11  12
ENDBRANCH   7  11
BRANCH   6  19
ATOM     19  N   UNL A   1      35.746  21.655  25.752  1.00  0.00    -0.336 N 
ATOM     20  C   UNL A   1      37.114  21.946  25.412  1.00  0.00     0.331 C 
ATOM     21  H   UNL A   1      35.374  21.209  24.914  1.00  0.00     0.346 HD
ATOM     22  H   UNL A   1      35.931  21.219  26.656  1.00  0.00     0.346 HD
ENDBRANCH   6  19
ENDBRANCH   3   6
ENDBRANCH   1   2
BRANCH   1  23
ATOM     23  C   UNL A   1      31.946  27.272  26.714  1.00  0.00     0.023 C 
BRANCH  23  24
ATOM     24  C   UNL A   1      32.632  28.099  25.622  1.00  0.00     0.023 C 
BRANCH  24  25
ATOM     25  C   UNL A   1      33.921  28.800  26.036  1.00  0.00     0.116 C 
BRANCH  25  26
ATOM     26  N   UNL A   1      33.724  30.172  26.498  1.00  0.00    -0.352 N 
ATOM     27  C   UNL A   1      34.494  30.852  27.417  1.00  0.00     0.251 C 
ATOM     28  H   UNL A   1      32.963  30.662  26.112  1.00  0.00     0.163 HD
ATOM     29  O   UNL A   1      34.187  31.968  27.828  1.00  0.00    -0.269 OA
BRANCH  27  30
ATOM     30  C   UNL A   1      35.708  30.171  27.895  1.00  0.00     0.039 A 
ATOM     31  C   UNL A   1      36.915  30.359  27.223  1.00  0.00     0.014 A 
ATOM     32  C   UNL A   1      35.656  29.560  29.152  1.00  0.00     0.014 A 
ATOM     33  C   UNL A   1      38.100  29.983  27.853  1.00  0.00     0.010 A 
ATOM     34  C   UNL A   1      36.843  29.288  29.813  1.00  0.00     0.010 A 
ATOM     35  C   UNL A   1      38.074  29.482  29.166  1.00  0.00    -0.014 A 
BRANCH  35  36
ATOM     36  C   UNL A   1      39.323  29.107  29.871  1.00  0.00     0.031 A 
ATOM     37  C   UNL A   1      39.704  29.859  31.118  1.00  0.00     0.074 A 
ATOM     38  C   UNL A   1      40.121  28.144  29.371  1.00  0.00     0.049 A 
ATOM     39  N   UNL A   1      40.768  29.731  31.865  1.00  0.00    -0.248 NA
ATOM     40  C   UNL A   1      38.786  30.922  31.565  1.00  0.00     0.031 C 
ATOM     41  C   UNL A   1      39.877  27.393  28.135  1.00  0.00     0.029 A 
ATOM     42  N   UNL A   1      41.303  27.627  29.837  1.00  0.00    -0.354 N 
ATOM     43  C   UNL A   1      40.650  30.701  32.853  1.00  0.00     0.074 A 
ATOM     44  C   UNL A   1      39.456  31.461  32.571  1.00  0.00     0.031 C 
ATOM     45  C   UNL A   1      40.857  26.489  27.965  1.00  0.00     0.029 A 
ATOM     46  C   UNL A   1      41.819  26.620  29.053  1.00  0.00     0.049 A 
ATOM     47  H   UNL A   1      41.742  27.947  30.658  1.00  0.00     0.167 HD
ATOM     48  C   UNL A   1      41.449  30.914  33.922  1.00  0.00     0.037 A 
ATOM     49  C   UNL A   1      42.942  25.891  29.203  1.00  0.00     0.037 A 
ATOM     50  C   UNL A   1      42.610  30.121  34.214  1.00  0.00     0.049 A 
ATOM     51  C   UNL A   1      43.814  26.150  30.405  1.00  0.00     0.074 A 
ATOM     52  C   UNL A   1      43.454  30.204  35.305  1.00  0.00     0.029 A 
ATOM     53  N   UNL A   1      43.090  29.099  33.408  1.00  0.00    -0.354 N 
ATOM     54  N   UNL A   1      43.645  27.018  31.375  1.00  0.00    -0.248 NA
ATOM     55  C   UNL A   1      45.024  25.328  30.541  1.00  0.00     0.031 C 
ATOM     56  C   UNL A   1      44.479  29.271  35.131  1.00  0.00     0.029 A 
ATOM     57  C   UNL A   1      44.237  28.560  33.964  1.00  0.00     0.049 A 
ATOM     58  H   UNL A   1      42.677  28.800  32.566  1.00  0.00     0.167 HD
ATOM     59  C   UNL A   1      44.705  26.821  32.252  1.00  0.00     0.074 A 
ATOM     60  C   UNL A   1      45.501  25.742  31.705  1.00  0.00     0.031 C 
ATOM     61  C   UNL A   1      44.999  27.473  33.406  1.00  0.00     0.037 A 
BRANCH  48  62
ATOM     62  C   UNL A   1      41.090  32.035  34.857  1.00  0.00     0.058 A 
ATOM     63  C   UNL A   1      40.230  31.842  35.949  1.00  0.00     0.135 A 
ATOM     64  C   UNL A   1      41.656  33.309  34.687  1.00  0.00     0.135 A 
ATOM     65  F   UNL A   1      39.639  30.653  36.145  1.00  0.00    -0.206 F 
ATOM     66  C   UNL A   1      39.935  32.873  36.835  1.00  0.00     0.059 A 
ATOM     67  C   UNL A   1      41.401  34.346  35.578  1.00  0.00     0.059 A 
ATOM     68  F   UNL A   1      42.475  33.552  33.651  1.00  0.00    -0.206 F 
ATOM     69  C   UNL A   1      40.534  34.119  36.645  1.00  0.00     0.060 A 
BRANCH  69  70
ATOM     70  S   UNL A   1      40.179  35.432  37.833  1.00  0.00     0.124 S 
ATOM     71  O   UNL A   1      41.392  35.424  38.646  1.00  0.00    -0.237 OA
ATOM     72  O   UNL A   1      40.005  36.593  36.967  1.00  0.00    -0.237 OA
ATOM     73  O   UNL A   1      38.971  34.966  38.505  1.00  0.00    -0.744 OA
ENDBRANCH  69  70
ENDBRANCH  48  62
BRANCH  49  74
ATOM     74  C   UNL A   1      43.304  24.840  28.209  1.00  0.00     0.058 A 
ATOM     75  C   UNL A   1      43.993  25.163  27.029  1.00  0.00     0.135 A 
ATOM     76  C   UNL A   1      42.946  23.497  28.404  1.00  0.00     0.135 A 
ATOM     77  F   UNL A   1      44.357  26.432  26.792  1.00  0.00    -0.206 F 
ATOM     78  C   UNL A   1      44.281  24.202  26.063  1.00  0.00     0.059 A 
ATOM     79  C   UNL A   1      43.251  22.512  27.468  1.00  0.00     0.059 A 
ATOM     80  F   UNL A   1      42.303  23.126  29.523  1.00  0.00    -0.206 F 
ATOM     81  C   UNL A   1      43.904  22.879  26.292  1.00  0.00     0.060 A 
BRANCH  81  82
ATOM     82  S   UNL A   1      44.290  21.639  25.037  1.00  0.00     0.124 S 
ATOM     83  O   UNL A   1      43.251  20.645  25.277  1.00  0.00    -0.237 OA
ATOM     84  O   UNL A   1      44.169  22.407  23.801  1.00  0.00    -0.237 OA
ATOM     85  O   UNL A   1      45.648  21.227  25.380  1.00  0.00    -0.744 OA
ENDBRANCH  81  82
ENDBRANCH  49  74
BRANCH  61  86
ATOM     86  C   UNL A   1      46.201  27.007  34.178  1.00  0.00     0.058 A 
ATOM     87  C   UNL A   1      46.115  25.991  35.142  1.00  0.00     0.135 A 
ATOM     88  C   UNL A   1      47.469  27.542  33.898  1.00  0.00     0.135 A 
ATOM     89  F   UNL A   1      44.925  25.449  35.448  1.00  0.00    -0.206 F 
ATOM     90  C   UNL A   1      47.239  25.541  35.823  1.00  0.00     0.059 A 
ATOM     91  C   UNL A   1      48.613  27.082  34.540  1.00  0.00     0.059 A 
ATOM     92  F   UNL A   1      47.609  28.506  32.974  1.00  0.00    -0.206 F 
ATOM     93  C   UNL A   1      48.486  26.090  35.511  1.00  0.00     0.060 A 
BRANCH  93  94
ATOM     94  S   UNL A   1      49.942  25.470  36.377  1.00  0.00     0.124 S 
ATOM     95  O   UNL A   1      49.485  24.156  36.815  1.00  0.00    -0.237 OA
ATOM     96  O   UNL A   1      50.954  25.472  35.324  1.00  0.00    -0.237 OA
ATOM     97  O   UNL A   1      50.149  26.449  37.441  1.00  0.00    -0.744 OA
ENDBRANCH  93  94
ENDBRANCH  61  86
ENDBRANCH  35  36
ENDBRANCH  27  30
ENDBRANCH  25  26
ENDBRANCH  24  25
ENDBRANCH  23  24
ENDBRANCH   1  23
TORSDOF 20
ENDMDL
MODEL 3
REMARK VINA RESULT:     -10.3      3.218      9.747
REMARK SMILES CCC[N@H+](C)CC[C@@H]1CCC[C@]1([NH2+]C)C(=O)NCCCCNC(=O)c1ccc(-c2c3nc(c(-c4c(F)cc(S(=O)(=O)[O-])cc4F)c4ccc([nH]4)c(-c4c(F)cc(S(=O)(=O)[O-])cc4F)c4nc(c(-c5c(F)cc(S(=O)(=O)[O-])cc5F)c5ccc2[nH]5)C=C4)C=C3)cc1
REMARK SMILES IDX 18 1 17 2 15 3 16 4 12 6 8 7 9 8 10 9 11 10 7 11 6 12 4 13
REMARK SMILES IDX 5 14 3 16 2 17 1 18 13 19 14 20 19 23 20 24 21 25 22 26
REMARK SMILES IDX 23 27 24 29 25 30 26 31 90 32 27 33 89 34 28 35 29 36 30 37
REMARK SMILES IDX 83 38 31 39 88 40 82 41 84 42 32 43 87 44 81 45 80 46 33 48
REMARK SMILES IDX 67 49 46 50 66 51 47 52 50 53 65 54 85 55 48 56 49 57 64 59
REMARK SMILES IDX 86 60 51 61 34 62 35 63 44 64 36 65 37 66 43 67 45 68 38 69
REMARK SMILES IDX 39 70 40 71 41 72 42 73 68 74 69 75 78 76 70 77 71 78 77 79
REMARK SMILES IDX 79 80 72 81 73 82 74 83 75 84 76 85 52 86 53 87 62 88 54 89
REMARK SMILES IDX 55 90 61 91 63 92 56 93 57 94 58 95 59 96 60 97
REMARK H PARENT 17 5 4 15 13 21 13 22 22 28 84 47 50 58
REMARK Flexibility Score: inf
ROOT
ATOM      1  C   UNL A   1      38.192  23.583  25.768  1.00  0.00     0.116 C 
ENDROOT
BRANCH   1   2
ATOM      2  N   UNL A   1      37.289  23.370  24.557  1.00  0.00    -0.351 N 
ATOM      3  C   UNL A   1      36.075  23.165  23.953  1.00  0.00     0.281 C 
ATOM      4  O   UNL A   1      36.355  23.256  22.725  1.00  0.00    -0.268 OA
ATOM      5  H   UNL A   1      37.918  23.391  23.800  1.00  0.00     0.163 HD
BRANCH   3   6
ATOM      6  C   UNL A   1      34.384  22.675  24.266  1.00  0.00     0.178 C 
ATOM      7  C   UNL A   1      34.031  23.705  25.316  1.00  0.00     0.066 C 
ATOM      8  C   UNL A   1      34.841  23.235  26.546  1.00  0.00     0.011 C 
ATOM      9  C   UNL A   1      34.802  21.690  26.453  1.00  0.00     0.008 C 
ATOM     10  C   UNL A   1      34.233  21.381  25.079  1.00  0.00     0.079 C 
BRANCH   7  11
ATOM     11  C   UNL A   1      34.193  25.091  24.679  1.00  0.00     0.072 C 
BRANCH  11  12
ATOM     12  C   UNL A   1      33.029  26.236  24.843  1.00  0.00     0.262 C 
BRANCH  12  13
ATOM     13  N   UNL A   1      32.967  27.625  25.623  1.00  0.00    -0.337 N 
ATOM     14  C   UNL A   1      32.026  27.490  26.758  1.00  0.00     0.332 C 
ATOM     15  H   UNL A   1      32.845  28.073  24.715  1.00  0.00     0.347 HD
BRANCH  13  16
ATOM     16  C   UNL A   1      34.042  28.721  26.079  1.00  0.00     0.261 C 
BRANCH  16  17
ATOM     17  C   UNL A   1      34.689  29.339  27.470  1.00  0.00     0.058 C 
ATOM     18  C   UNL A   1      34.934  30.806  27.897  1.00  0.00     0.010 C 
ENDBRANCH  16  17
ENDBRANCH  13  16
ENDBRANCH  12  13
ENDBRANCH  11  12
ENDBRANCH   7  11
BRANCH   6  19
ATOM     19  N   UNL A   1      33.140  22.819  23.438  1.00  0.00    -0.336 N 
ATOM     20  C   UNL A   1      32.409  21.849  22.665  1.00  0.00     0.331 C 
ATOM     21  H   UNL A   1      33.379  23.542  22.761  1.00  0.00     0.346 HD
ATOM     22  H   UNL A   1      32.479  22.888  24.212  1.00  0.00     0.346 HD
ENDBRANCH   6  19
ENDBRANCH   3   6
ENDBRANCH   1   2
BRANCH   1  23
ATOM     23  C   UNL A   1      38.529  22.287  26.527  1.00  0.00     0.023 C 
BRANCH  23  24
ATOM     24  C   UNL A   1      40.031  21.985  26.551  1.00  0.00     0.023 C 
BRANCH  24  25
ATOM     25  C   UNL A   1      40.928  23.124  27.022  1.00  0.00     0.116 C 
BRANCH  25  26
ATOM     26  N   UNL A   1      41.439  23.958  25.936  1.00  0.00    -0.352 N 
ATOM     27  C   UNL A   1      41.731  25.304  25.997  1.00  0.00     0.251 C 
ATOM     28  H   UNL A   1      41.591  23.512  25.072  1.00  0.00     0.163 HD
ATOM     29  O   UNL A   1      42.052  25.948  25.001  1.00  0.00    -0.269 OA
BRANCH  27  30
ATOM     30  C   UNL A   1      41.630  25.943  27.319  1.00  0.00     0.039 A 
ATOM     31  C   UNL A   1      42.719  26.652  27.826  1.00  0.00     0.014 A 
ATOM     32  C   UNL A   1      40.364  26.026  27.905  1.00  0.00     0.014 A 
ATOM     33  C   UNL A   1      42.516  27.510  28.906  1.00  0.00     0.010 A 
ATOM     34  C   UNL A   1      40.149  26.958  28.907  1.00  0.00     0.010 A 
ATOM     35  C   UNL A   1      41.224  27.698  29.427  1.00  0.00    -0.014 A 
BRANCH  35  36
ATOM     36  C   UNL A   1      40.976  28.630  30.552  1.00  0.00     0.031 A 
ATOM     37  C   UNL A   1      41.814  28.503  31.795  1.00  0.00     0.074 A 
ATOM     38  C   UNL A   1      39.985  29.539  30.473  1.00  0.00     0.049 A 
ATOM     39  N   UNL A   1      41.741  29.178  32.911  1.00  0.00    -0.248 NA
ATOM     40  C   UNL A   1      42.848  27.452  31.800  1.00  0.00     0.031 C 
ATOM     41  C   UNL A   1      39.072  29.708  29.337  1.00  0.00     0.029 A 
ATOM     42  N   UNL A   1      39.573  30.496  31.366  1.00  0.00    -0.354 N 
ATOM     43  C   UNL A   1      42.704  28.624  33.746  1.00  0.00     0.074 A 
ATOM     44  C   UNL A   1      43.296  27.512  33.044  1.00  0.00     0.031 C 
ATOM     45  C   UNL A   1      38.238  30.731  29.589  1.00  0.00     0.029 A 
ATOM     46  C   UNL A   1      38.525  31.266  30.915  1.00  0.00     0.049 A 
ATOM     47  H   UNL A   1      39.990  30.621  32.249  1.00  0.00     0.167 HD
ATOM     48  C   UNL A   1      43.085  29.033  34.977  1.00  0.00     0.037 A 
ATOM     49  C   UNL A   1      37.875  32.285  31.511  1.00  0.00     0.037 A 
ATOM     50  C   UNL A   1      42.516  30.169  35.646  1.00  0.00     0.049 A 
ATOM     51  C   UNL A   1      38.322  32.720  32.883  1.00  0.00     0.074 A 
ATOM     52  C   UNL A   1      42.872  30.715  36.865  1.00  0.00     0.029 A 
ATOM     53  N   UNL A   1      41.471  30.935  35.150  1.00  0.00    -0.354 N 
ATOM     54  N   UNL A   1      39.290  32.237  33.627  1.00  0.00    -0.248 NA
ATOM     55  C   UNL A   1      37.598  33.841  33.496  1.00  0.00     0.031 C 
ATOM     56  C   UNL A   1      42.003  31.775  37.134  1.00  0.00     0.029 A 
ATOM     57  C   UNL A   1      41.149  31.933  36.053  1.00  0.00     0.049 A 
ATOM     58  H   UNL A   1      41.024  30.790  34.285  1.00  0.00     0.167 HD
ATOM     59  C   UNL A   1      39.313  33.017  34.777  1.00  0.00     0.074 A 
ATOM     60  C   UNL A   1      38.273  34.013  34.624  1.00  0.00     0.031 C 
ATOM     61  C   UNL A   1      40.119  32.922  35.864  1.00  0.00     0.037 A 
BRANCH  48  62
ATOM     62  C   UNL A   1      44.170  28.258  35.672  1.00  0.00     0.058 A 
ATOM     63  C   UNL A   1      43.881  27.184  36.529  1.00  0.00     0.135 A 
ATOM     64  C   UNL A   1      45.520  28.563  35.437  1.00  0.00     0.135 A 
ATOM     65  F   UNL A   1      42.608  26.866  36.812  1.00  0.00    -0.206 F 
ATOM     66  C   UNL A   1      44.891  26.445  37.136  1.00  0.00     0.059 A 
ATOM     67  C   UNL A   1      46.547  27.819  36.007  1.00  0.00     0.059 A 
ATOM     68  F   UNL A   1      45.852  29.589  34.637  1.00  0.00    -0.206 F 
ATOM     69  C   UNL A   1      46.222  26.765  36.861  1.00  0.00     0.060 A 
BRANCH  69  70
ATOM     70  S   UNL A   1      47.519  25.764  37.618  1.00  0.00     0.124 S 
ATOM     71  O   UNL A   1      47.360  24.497  36.910  1.00  0.00    -0.237 OA
ATOM     72  O   UNL A   1      48.723  26.523  37.294  1.00  0.00    -0.237 OA
ATOM     73  O   UNL A   1      47.154  25.743  39.030  1.00  0.00    -0.744 OA
ENDBRANCH  69  70
ENDBRANCH  48  62
BRANCH  49  74
ATOM     74  C   UNL A   1      36.750  32.977  30.819  1.00  0.00     0.058 A 
ATOM     75  C   UNL A   1      36.988  33.886  29.776  1.00  0.00     0.135 A 
ATOM     76  C   UNL A   1      35.417  32.764  31.203  1.00  0.00     0.135 A 
ATOM     77  F   UNL A   1      38.244  34.128  29.372  1.00  0.00    -0.206 F 
ATOM     78  C   UNL A   1      35.952  34.587  29.165  1.00  0.00     0.059 A 
ATOM     79  C   UNL A   1      34.360  33.428  30.585  1.00  0.00     0.059 A 
ATOM     80  F   UNL A   1      35.128  31.891  32.180  1.00  0.00    -0.206 F 
ATOM     81  C   UNL A   1      34.641  34.352  29.578  1.00  0.00     0.060 A 
BRANCH  81  82
ATOM     82  S   UNL A   1      33.302  35.258  28.772  1.00  0.00     0.124 S 
ATOM     83  O   UNL A   1      32.664  34.207  27.992  1.00  0.00    -0.237 OA
ATOM     84  O   UNL A   1      32.543  35.760  29.914  1.00  0.00    -0.237 OA
ATOM     85  O   UNL A   1      34.007  36.278  28.000  1.00  0.00    -0.744 OA
ENDBRANCH  81  82
ENDBRANCH  49  74
BRANCH  61  86
ATOM     86  C   UNL A   1      39.942  33.947  36.950  1.00  0.00     0.058 A 
ATOM     87  C   UNL A   1      40.661  35.151  36.957  1.00  0.00     0.135 A 
ATOM     88  C   UNL A   1      38.988  33.744  37.961  1.00  0.00     0.135 A 
ATOM     89  F   UNL A   1      41.587  35.391  36.014  1.00  0.00    -0.206 F 
ATOM     90  C   UNL A   1      40.462  36.108  37.944  1.00  0.00     0.059 A 
ATOM     91  C   UNL A   1      38.746  34.703  38.938  1.00  0.00     0.059 A 
ATOM     92  F   UNL A   1      38.263  32.615  37.992  1.00  0.00    -0.206 F 
ATOM     93  C   UNL A   1      39.498  35.877  38.929  1.00  0.00     0.060 A 
BRANCH  93  94
ATOM     94  S   UNL A   1      39.224  37.145  40.182  1.00  0.00     0.124 S 
ATOM     95  O   UNL A   1      40.534  37.783  40.245  1.00  0.00    -0.237 OA
ATOM     96  O   UNL A   1      38.156  37.944  39.588  1.00  0.00    -0.237 OA
ATOM     97  O   UNL A   1      38.843  36.378  41.365  1.00  0.00    -0.744 OA
ENDBRANCH  93  94
ENDBRANCH  61  86
ENDBRANCH  35  36
ENDBRANCH  27  30
ENDBRANCH  25  26
ENDBRANCH  24  25
ENDBRANCH  23  24
ENDBRANCH   1  23
TORSDOF 20
ENDMDL
