MODEL 1
REMARK VINA RESULT:     -11.2      0.000      0.000
REMARK SMILES [NH3+][C@H](C(=O)NCCCCNC(=O)c1ccc(-c2c3nc(c(-c4c(F)cc(S(=O)(=O)[O-])cc4F)c4ccc([nH]4)c(-c4c(F)cc(S(=O)(=O)[O-])cc4F)c4nc(c(-c5c(F)cc(S(=O)(=O)[O-])cc5F)c5ccc2[nH]5)C=C4)C=C3)cc1)c1ccc(OCC(=O)N2CCCC2)cc1
REMARK SMILES IDX 7 1 6 2 5 3 3 4 4 5 2 7 1 8 79 12 80 13 93 14 81 15 92 16
REMARK SMILES IDX 82 17 83 18 84 19 85 20 86 21 87 22 88 23 91 24 89 25 90 26
REMARK SMILES IDX 8 27 9 28 10 29 11 30 12 32 13 33 14 34 78 35 15 36 77 37
REMARK SMILES IDX 16 38 17 39 18 40 71 41 19 42 76 43 70 44 72 45 20 46 75 47
REMARK SMILES IDX 69 48 68 49 21 51 55 52 34 53 54 54 35 55 38 56 53 57 73 58
REMARK SMILES IDX 36 59 37 60 52 62 74 63 39 64 22 65 23 66 32 67 24 68 25 69
REMARK SMILES IDX 31 70 33 71 26 72 27 73 28 74 29 75 30 76 56 77 57 78 66 79
REMARK SMILES IDX 58 80 59 81 65 82 67 83 60 84 61 85 62 86 63 87 64 88 40 89
REMARK SMILES IDX 41 90 50 91 42 92 43 93 49 94 51 95 44 96 45 97 46 98 47 99
REMARK SMILES IDX 48 100
REMARK H PARENT 5 6 1 9 1 10 1 11 10 31 72 50 38 61
REMARK Flexibility Score: inf
ROOT
ATOM      1  C   UNL A   1      31.718  28.745  25.503  1.00  0.00     0.023 C 
ENDROOT
BRANCH   1   2
ATOM      2  C   UNL A   1      31.349  28.756  24.019  1.00  0.00     0.116 C 
BRANCH   2   3
ATOM      3  N   UNL A   1      32.520  28.609  23.176  1.00  0.00    -0.351 N 
ATOM      4  C   UNL A   1      32.892  27.561  22.382  1.00  0.00     0.283 C 
ATOM      5  O   UNL A   1      33.978  27.639  21.795  1.00  0.00    -0.268 OA
ATOM      6  H   UNL A   1      33.136  29.376  23.176  1.00  0.00     0.163 HD
BRANCH   4   7
ATOM      7  C   UNL A   1      31.948  26.336  22.169  1.00  0.00     0.302 C 
BRANCH   7   8
ATOM      8  N   UNL A   1      31.957  25.998  20.721  1.00  0.00    -0.343 N 
ATOM      9  H   UNL A   1      31.030  26.164  20.327  1.00  0.00     0.345 HD
ATOM     10  H   UNL A   1      32.207  25.017  20.601  1.00  0.00     0.345 HD
ATOM     11  H   UNL A   1      32.639  26.584  20.239  1.00  0.00     0.345 HD
ENDBRANCH   7   8
BRANCH   7  12
ATOM     12  C   UNL A   1      32.361  25.160  23.042  1.00  0.00     0.019 A 
ATOM     13  C   UNL A   1      31.676  24.815  24.214  1.00  0.00     0.014 A 
ATOM     14  C   UNL A   1      33.421  24.332  22.639  1.00  0.00     0.014 A 
ATOM     15  C   UNL A   1      32.006  23.653  24.916  1.00  0.00     0.047 A 
ATOM     16  C   UNL A   1      33.714  23.139  23.308  1.00  0.00     0.047 A 
ATOM     17  C   UNL A   1      32.989  22.787  24.438  1.00  0.00     0.120 A 
BRANCH  17  18
ATOM     18  O   UNL A   1      33.165  21.653  25.174  1.00  0.00    -0.484 OA
BRANCH  18  19
ATOM     19  C   UNL A   1      32.206  20.624  25.016  1.00  0.00     0.329 C 
BRANCH  19  20
ATOM     20  C   UNL A   1      32.348  19.606  23.867  1.00  0.00     0.260 C 
ATOM     21  O   UNL A   1      32.163  19.967  22.701  1.00  0.00    -0.271 OA
ATOM     22  N   UNL A   1      32.817  18.346  24.171  1.00  0.00    -0.340 N 
ATOM     23  C   UNL A   1      32.902  17.724  25.477  1.00  0.00     0.119 C 
ATOM     24  C   UNL A   1      33.278  17.442  23.130  1.00  0.00     0.119 C 
ATOM     25  C   UNL A   1      33.964  16.653  25.301  1.00  0.00     0.023 C 
ATOM     26  C   UNL A   1      33.768  16.196  23.861  1.00  0.00     0.023 C 
ENDBRANCH  19  20
ENDBRANCH  18  19
ENDBRANCH  17  18
ENDBRANCH   7  12
ENDBRANCH   4   7
ENDBRANCH   2   3
ENDBRANCH   1   2
BRANCH   1  27
ATOM     27  C   UNL A   1      33.036  28.052  25.836  1.00  0.00     0.023 C 
BRANCH  27  28
ATOM     28  C   UNL A   1      33.594  28.351  27.221  1.00  0.00     0.116 C 
BRANCH  28  29
ATOM     29  N   UNL A   1      33.519  29.759  27.585  1.00  0.00    -0.352 N 
ATOM     30  C   UNL A   1      34.504  30.559  28.117  1.00  0.00     0.251 C 
ATOM     31  H   UNL A   1      32.651  30.195  27.432  1.00  0.00     0.163 HD
ATOM     32  O   UNL A   1      34.246  31.710  28.460  1.00  0.00    -0.269 OA
BRANCH  30  33
ATOM     33  C   UNL A   1      35.862  30.008  28.307  1.00  0.00     0.039 A 
ATOM     34  C   UNL A   1      36.776  30.082  27.254  1.00  0.00     0.014 A 
ATOM     35  C   UNL A   1      36.244  29.467  29.537  1.00  0.00     0.014 A 
ATOM     36  C   UNL A   1      38.099  29.684  27.460  1.00  0.00     0.010 A 
ATOM     37  C   UNL A   1      37.579  29.147  29.764  1.00  0.00     0.010 A 
ATOM     38  C   UNL A   1      38.520  29.252  28.728  1.00  0.00    -0.014 A 
BRANCH  38  39
ATOM     39  C   UNL A   1      39.937  28.904  28.998  1.00  0.00     0.031 A 
ATOM     40  C   UNL A   1      40.869  29.939  29.568  1.00  0.00     0.074 A 
ATOM     41  C   UNL A   1      40.405  27.688  28.655  1.00  0.00     0.049 A 
ATOM     42  N   UNL A   1      42.156  29.861  29.787  1.00  0.00    -0.248 NA
ATOM     43  C   UNL A   1      40.281  31.246  29.905  1.00  0.00     0.031 C 
ATOM     44  C   UNL A   1      39.614  26.618  28.040  1.00  0.00     0.029 A 
ATOM     45  N   UNL A   1      41.661  27.148  28.761  1.00  0.00    -0.354 N 
ATOM     46  C   UNL A   1      42.534  31.110  30.265  1.00  0.00     0.074 A 
ATOM     47  C   UNL A   1      41.351  31.942  30.254  1.00  0.00     0.031 C 
ATOM     48  C   UNL A   1      40.398  25.546  27.846  1.00  0.00     0.029 A 
ATOM     49  C   UNL A   1      41.753  25.860  28.288  1.00  0.00     0.049 A 
ATOM     50  H   UNL A   1      42.427  27.637  29.141  1.00  0.00     0.167 HD
ATOM     51  C   UNL A   1      43.750  31.518  30.699  1.00  0.00     0.037 A 
ATOM     52  C   UNL A   1      42.811  25.028  28.215  1.00  0.00     0.037 A 
ATOM     53  C   UNL A   1      44.914  30.673  30.743  1.00  0.00     0.049 A 
ATOM     54  C   UNL A   1      44.147  25.496  28.723  1.00  0.00     0.074 A 
ATOM     55  C   UNL A   1      46.176  30.969  31.228  1.00  0.00     0.029 A 
ATOM     56  N   UNL A   1      44.958  29.363  30.288  1.00  0.00    -0.354 N 
ATOM     57  N   UNL A   1      44.472  26.661  29.230  1.00  0.00    -0.248 NA
ATOM     58  C   UNL A   1      45.258  24.536  28.654  1.00  0.00     0.031 C 
ATOM     59  C   UNL A   1      46.992  29.849  31.035  1.00  0.00     0.029 A 
ATOM     60  C   UNL A   1      46.228  28.842  30.466  1.00  0.00     0.049 A 
ATOM     61  H   UNL A   1      44.198  28.876  29.895  1.00  0.00     0.167 HD
ATOM     62  C   UNL A   1      45.820  26.566  29.562  1.00  0.00     0.074 A 
ATOM     63  C   UNL A   1      46.244  25.227  29.208  1.00  0.00     0.031 C 
ATOM     64  C   UNL A   1      46.632  27.504  30.111  1.00  0.00     0.037 A 
BRANCH  51  65
ATOM     65  C   UNL A   1      43.876  32.943  31.166  1.00  0.00     0.058 A 
ATOM     66  C   UNL A   1      44.047  34.001  30.258  1.00  0.00     0.135 A 
ATOM     67  C   UNL A   1      43.813  33.255  32.532  1.00  0.00     0.135 A 
ATOM     68  F   UNL A   1      44.131  33.755  28.941  1.00  0.00    -0.206 F 
ATOM     69  C   UNL A   1      44.191  35.314  30.692  1.00  0.00     0.059 A 
ATOM     70  C   UNL A   1      43.926  34.566  32.987  1.00  0.00     0.059 A 
ATOM     71  F   UNL A   1      43.649  32.283  33.442  1.00  0.00    -0.206 F 
ATOM     72  C   UNL A   1      44.134  35.587  32.059  1.00  0.00     0.060 A 
BRANCH  72  73
ATOM     73  S   UNL A   1      44.335  37.295  32.609  1.00  0.00     0.124 S 
ATOM     74  O   UNL A   1      44.625  37.971  31.348  1.00  0.00    -0.237 OA
ATOM     75  O   UNL A   1      43.033  37.589  33.200  1.00  0.00    -0.237 OA
ATOM     76  O   UNL A   1      45.446  37.219  33.552  1.00  0.00    -0.744 OA
ENDBRANCH  72  73
ENDBRANCH  51  65
BRANCH  52  77
ATOM     77  C   UNL A   1      42.637  23.656  27.669  1.00  0.00     0.058 A 
ATOM     78  C   UNL A   1      42.758  23.412  26.293  1.00  0.00     0.135 A 
ATOM     79  C   UNL A   1      42.373  22.562  28.507  1.00  0.00     0.135 A 
ATOM     80  F   UNL A   1      43.003  24.427  25.450  1.00  0.00    -0.206 F 
ATOM     81  C   UNL A   1      42.613  22.133  25.764  1.00  0.00     0.059 A 
ATOM     82  C   UNL A   1      42.246  21.271  28.004  1.00  0.00     0.059 A 
ATOM     83  F   UNL A   1      42.266  22.742  29.832  1.00  0.00    -0.206 F 
ATOM     84  C   UNL A   1      42.359  21.068  26.629  1.00  0.00     0.060 A 
BRANCH  84  85
ATOM     85  S   UNL A   1      42.231  19.404  25.940  1.00  0.00     0.124 S 
ATOM     86  O   UNL A   1      43.038  19.523  24.732  1.00  0.00    -0.237 OA
ATOM     87  O   UNL A   1      42.798  18.584  27.007  1.00  0.00    -0.237 OA
ATOM     88  O   UNL A   1      40.796  19.238  25.730  1.00  0.00    -0.744 OA
ENDBRANCH  84  85
ENDBRANCH  52  77
BRANCH  64  89
ATOM     89  C   UNL A   1      48.055  27.109  30.387  1.00  0.00     0.058 A 
ATOM     90  C   UNL A   1      49.095  27.445  29.509  1.00  0.00     0.135 A 
ATOM     91  C   UNL A   1      48.386  26.433  31.573  1.00  0.00     0.135 A 
ATOM     92  F   UNL A   1      48.829  28.086  28.360  1.00  0.00    -0.206 F 
ATOM     93  C   UNL A   1      50.416  27.109  29.787  1.00  0.00     0.059 A 
ATOM     94  C   UNL A   1      49.703  26.108  31.882  1.00  0.00     0.059 A 
ATOM     95  F   UNL A   1      47.428  26.097  32.451  1.00  0.00    -0.206 F 
ATOM     96  C   UNL A   1      50.710  26.442  30.978  1.00  0.00     0.060 A 
BRANCH  96  97
ATOM     97  S   UNL A   1      52.432  26.045  31.346  1.00  0.00     0.124 S 
ATOM     98  O   UNL A   1      52.842  27.213  32.120  1.00  0.00    -0.237 OA
ATOM     99  O   UNL A   1      52.315  24.798  32.095  1.00  0.00    -0.237 OA
ATOM    100  O   UNL A   1      53.042  25.921  30.026  1.00  0.00    -0.744 OA
ENDBRANCH  96  97
ENDBRANCH  64  89
ENDBRANCH  38  39
ENDBRANCH  30  33
ENDBRANCH  28  29
ENDBRANCH  27  28
ENDBRANCH   1  27
TORSDOF 19
ENDMDL
MODEL 2
REMARK VINA RESULT:     -11.2      4.785     10.627
REMARK SMILES [NH3+][C@H](C(=O)NCCCCNC(=O)c1ccc(-c2c3nc(c(-c4c(F)cc(S(=O)(=O)[O-])cc4F)c4ccc([nH]4)c(-c4c(F)cc(S(=O)(=O)[O-])cc4F)c4nc(c(-c5c(F)cc(S(=O)(=O)[O-])cc5F)c5ccc2[nH]5)C=C4)C=C3)cc1)c1ccc(OCC(=O)N2CCCC2)cc1
REMARK SMILES IDX 7 1 6 2 5 3 3 4 4 5 2 7 1 8 79 12 80 13 93 14 81 15 92 16
REMARK SMILES IDX 82 17 83 18 84 19 85 20 86 21 87 22 88 23 91 24 89 25 90 26
REMARK SMILES IDX 8 27 9 28 10 29 11 30 12 32 13 33 14 34 78 35 15 36 77 37
REMARK SMILES IDX 16 38 17 39 18 40 71 41 19 42 76 43 70 44 72 45 20 46 75 47
REMARK SMILES IDX 69 48 68 49 21 51 55 52 34 53 54 54 35 55 38 56 53 57 73 58
REMARK SMILES IDX 36 59 37 60 52 62 74 63 39 64 22 65 23 66 32 67 24 68 25 69
REMARK SMILES IDX 31 70 33 71 26 72 27 73 28 74 29 75 30 76 56 77 57 78 66 79
REMARK SMILES IDX 58 80 59 81 65 82 67 83 60 84 61 85 62 86 63 87 64 88 40 89
REMARK SMILES IDX 41 90 50 91 42 92 43 93 49 94 51 95 44 96 45 97 46 98 47 99
REMARK SMILES IDX 48 100
REMARK H PARENT 5 6 1 9 1 10 1 11 10 31 72 50 38 61
REMARK Flexibility Score: inf
ROOT
ATOM      1  C   UNL A   1      38.532  23.217  26.234  1.00  0.00     0.023 C 
ENDROOT
BRANCH   1   2
ATOM      2  C   UNL A   1      37.396  22.451  25.555  1.00  0.00     0.116 C 
BRANCH   2   3
ATOM      3  N   UNL A   1      36.333  22.132  26.489  1.00  0.00    -0.351 N 
ATOM      4  C   UNL A   1      35.105  21.582  26.252  1.00  0.00     0.283 C 
ATOM      5  O   UNL A   1      34.333  21.459  27.211  1.00  0.00    -0.268 OA
ATOM      6  H   UNL A   1      36.526  22.342  27.431  1.00  0.00     0.163 HD
BRANCH   4   7
ATOM      7  C   UNL A   1      34.712  21.067  24.832  1.00  0.00     0.302 C 
BRANCH   7   8
ATOM      8  N   UNL A   1      34.174  19.689  24.979  1.00  0.00    -0.343 N 
ATOM      9  H   UNL A   1      34.665  19.210  25.734  1.00  0.00     0.345 HD
ATOM     10  H   UNL A   1      34.308  19.176  24.107  1.00  0.00     0.345 HD
ATOM     11  H   UNL A   1      33.178  19.734  25.197  1.00  0.00     0.345 HD
ENDBRANCH   7   8
BRANCH   7  12
ATOM     12  C   UNL A   1      33.727  22.007  24.154  1.00  0.00     0.019 A 
ATOM     13  C   UNL A   1      32.367  22.045  24.492  1.00  0.00     0.014 A 
ATOM     14  C   UNL A   1      34.187  22.931  23.204  1.00  0.00     0.014 A 
ATOM     15  C   UNL A   1      31.523  23.011  23.940  1.00  0.00     0.047 A 
ATOM     16  C   UNL A   1      33.356  23.935  22.694  1.00  0.00     0.047 A 
ATOM     17  C   UNL A   1      32.024  23.988  23.081  1.00  0.00     0.120 A 
BRANCH  17  18
ATOM     18  O   UNL A   1      31.113  24.915  22.670  1.00  0.00    -0.484 OA
BRANCH  18  19
ATOM     19  C   UNL A   1      31.612  26.073  22.026  1.00  0.00     0.329 C 
BRANCH  19  20
ATOM     20  C   UNL A   1      31.172  27.472  22.500  1.00  0.00     0.260 C 
ATOM     21  O   UNL A   1      30.296  28.082  21.883  1.00  0.00    -0.271 OA
ATOM     22  N   UNL A   1      31.681  27.941  23.693  1.00  0.00    -0.340 N 
ATOM     23  C   UNL A   1      32.826  27.440  24.426  1.00  0.00     0.119 C 
ATOM     24  C   UNL A   1      31.089  29.085  24.366  1.00  0.00     0.119 C 
ATOM     25  C   UNL A   1      32.582  27.912  25.848  1.00  0.00     0.023 C 
ATOM     26  C   UNL A   1      31.879  29.250  25.661  1.00  0.00     0.023 C 
ENDBRANCH  19  20
ENDBRANCH  18  19
ENDBRANCH  17  18
ENDBRANCH   7  12
ENDBRANCH   4   7
ENDBRANCH   2   3
ENDBRANCH   1   2
BRANCH   1  27
ATOM     27  C   UNL A   1      39.613  22.344  26.864  1.00  0.00     0.023 C 
BRANCH  27  28
ATOM     28  C   UNL A   1      40.927  23.054  27.163  1.00  0.00     0.116 C 
BRANCH  28  29
ATOM     29  N   UNL A   1      41.427  23.845  26.046  1.00  0.00    -0.352 N 
ATOM     30  C   UNL A   1      41.730  25.186  26.016  1.00  0.00     0.251 C 
ATOM     31  H   UNL A   1      41.565  23.356  25.204  1.00  0.00     0.163 HD
ATOM     32  O   UNL A   1      42.051  25.722  24.958  1.00  0.00    -0.269 OA
BRANCH  30  33
ATOM     33  C   UNL A   1      41.628  25.981  27.257  1.00  0.00     0.039 A 
ATOM     34  C   UNL A   1      42.675  26.840  27.599  1.00  0.00     0.014 A 
ATOM     35  C   UNL A   1      40.480  25.916  28.051  1.00  0.00     0.014 A 
ATOM     36  C   UNL A   1      42.537  27.692  28.697  1.00  0.00     0.010 A 
ATOM     37  C   UNL A   1      40.312  26.820  29.094  1.00  0.00     0.010 A 
ATOM     38  C   UNL A   1      41.338  27.717  29.428  1.00  0.00    -0.014 A 
BRANCH  38  39
ATOM     39  C   UNL A   1      41.131  28.672  30.546  1.00  0.00     0.031 A 
ATOM     40  C   UNL A   1      41.980  28.572  31.784  1.00  0.00     0.074 A 
ATOM     41  C   UNL A   1      40.130  29.571  30.481  1.00  0.00     0.049 A 
ATOM     42  N   UNL A   1      41.894  29.247  32.901  1.00  0.00    -0.248 NA
ATOM     43  C   UNL A   1      43.044  27.555  31.777  1.00  0.00     0.031 C 
ATOM     44  C   UNL A   1      39.201  29.727  29.359  1.00  0.00     0.029 A 
ATOM     45  N   UNL A   1      39.716  30.518  31.385  1.00  0.00    -0.354 N 
ATOM     46  C   UNL A   1      42.875  28.724  33.734  1.00  0.00     0.074 A 
ATOM     47  C   UNL A   1      43.508  27.640  33.015  1.00  0.00     0.031 C 
ATOM     48  C   UNL A   1      38.343  30.724  29.632  1.00  0.00     0.029 A 
ATOM     49  C   UNL A   1      38.636  31.255  30.960  1.00  0.00     0.049 A 
ATOM     50  H   UNL A   1      40.152  30.656  32.257  1.00  0.00     0.167 HD
ATOM     51  C   UNL A   1      43.235  29.126  34.977  1.00  0.00     0.037 A 
ATOM     52  C   UNL A   1      37.956  32.244  31.572  1.00  0.00     0.037 A 
ATOM     53  C   UNL A   1      42.627  30.230  35.672  1.00  0.00     0.049 A 
ATOM     54  C   UNL A   1      38.386  32.688  32.943  1.00  0.00     0.074 A 
ATOM     55  C   UNL A   1      42.963  30.761  36.905  1.00  0.00     0.029 A 
ATOM     56  N   UNL A   1      41.558  30.974  35.193  1.00  0.00    -0.354 N 
ATOM     57  N   UNL A   1      39.358  32.223  33.692  1.00  0.00    -0.248 NA
ATOM     58  C   UNL A   1      37.634  33.795  33.550  1.00  0.00     0.031 C 
ATOM     59  C   UNL A   1      42.075  31.806  37.187  1.00  0.00     0.029 A 
ATOM     60  C   UNL A   1      41.212  31.950  36.112  1.00  0.00     0.049 A 
ATOM     61  H   UNL A   1      41.112  30.829  34.328  1.00  0.00     0.167 HD
ATOM     62  C   UNL A   1      39.348  32.996  34.849  1.00  0.00     0.074 A 
ATOM     63  C   UNL A   1      38.281  33.964  34.695  1.00  0.00     0.031 C 
ATOM     64  C   UNL A   1      40.150  32.910  35.940  1.00  0.00     0.037 A 
BRANCH  51  65
ATOM     65  C   UNL A   1      44.342  28.368  35.656  1.00  0.00     0.058 A 
ATOM     66  C   UNL A   1      45.690  28.719  35.477  1.00  0.00     0.135 A 
ATOM     67  C   UNL A   1      44.054  27.289  36.505  1.00  0.00     0.135 A 
ATOM     68  F   UNL A   1      46.022  29.733  34.662  1.00  0.00    -0.206 F 
ATOM     69  C   UNL A   1      46.715  28.000  36.082  1.00  0.00     0.059 A 
ATOM     70  C   UNL A   1      45.063  26.574  37.145  1.00  0.00     0.059 A 
ATOM     71  F   UNL A   1      42.782  26.912  36.713  1.00  0.00    -0.206 F 
ATOM     72  C   UNL A   1      46.392  26.926  36.911  1.00  0.00     0.060 A 
BRANCH  72  73
ATOM     73  S   UNL A   1      47.733  25.994  37.681  1.00  0.00     0.124 S 
ATOM     74  O   UNL A   1      48.903  26.601  37.054  1.00  0.00    -0.237 OA
ATOM     75  O   UNL A   1      47.548  26.292  39.098  1.00  0.00    -0.237 OA
ATOM     76  O   UNL A   1      47.455  24.615  37.293  1.00  0.00    -0.744 OA
ENDBRANCH  72  73
ENDBRANCH  51  65
BRANCH  52  77
ATOM     77  C   UNL A   1      36.818  32.900  30.877  1.00  0.00     0.058 A 
ATOM     78  C   UNL A   1      35.493  32.605  31.233  1.00  0.00     0.135 A 
ATOM     79  C   UNL A   1      37.027  33.849  29.865  1.00  0.00     0.135 A 
ATOM     80  F   UNL A   1      35.242  31.701  32.191  1.00  0.00    -0.206 F 
ATOM     81  C   UNL A   1      34.415  33.220  30.604  1.00  0.00     0.059 A 
ATOM     82  C   UNL A   1      35.966  34.493  29.235  1.00  0.00     0.059 A 
ATOM     83  F   UNL A   1      38.276  34.177  29.500  1.00  0.00    -0.206 F 
ATOM     84  C   UNL A   1      34.662  34.165  29.607  1.00  0.00     0.060 A 
BRANCH  84  85
ATOM     85  S   UNL A   1      33.258  35.000  28.837  1.00  0.00     0.124 S 
ATOM     86  O   UNL A   1      32.440  35.330  29.998  1.00  0.00    -0.237 OA
ATOM     87  O   UNL A   1      33.900  36.127  28.167  1.00  0.00    -0.237 OA
ATOM     88  O   UNL A   1      32.711  33.981  27.946  1.00  0.00    -0.744 OA
ENDBRANCH  84  85
ENDBRANCH  52  77
BRANCH  64  89
ATOM     89  C   UNL A   1      39.923  33.905  37.042  1.00  0.00     0.058 A 
ATOM     90  C   UNL A   1      40.537  35.166  37.033  1.00  0.00     0.135 A 
ATOM     91  C   UNL A   1      39.037  33.612  38.092  1.00  0.00     0.135 A 
ATOM     92  F   UNL A   1      41.397  35.491  36.054  1.00  0.00    -0.206 F 
ATOM     93  C   UNL A   1      40.296  36.098  38.036  1.00  0.00     0.059 A 
ATOM     94  C   UNL A   1      38.763  34.538  39.093  1.00  0.00     0.059 A 
ATOM     95  F   UNL A   1      38.416  32.423  38.141  1.00  0.00    -0.206 F 
ATOM     96  C   UNL A   1      39.405  35.775  39.062  1.00  0.00     0.060 A 
BRANCH  96  97
ATOM     97  S   UNL A   1      39.069  37.007  40.338  1.00  0.00     0.124 S 
ATOM     98  O   UNL A   1      38.467  38.081  39.556  1.00  0.00    -0.237 OA
ATOM     99  O   UNL A   1      38.166  36.292  41.235  1.00  0.00    -0.237 OA
ATOM    100  O   UNL A   1      40.390  37.294  40.888  1.00  0.00    -0.744 OA
ENDBRANCH  96  97
ENDBRANCH  64  89
ENDBRANCH  38  39
ENDBRANCH  30  33
ENDBRANCH  28  29
ENDBRANCH  27  28
ENDBRANCH   1  27
TORSDOF 19
ENDMDL
MODEL 3
REMARK VINA RESULT:     -11.0      1.673      2.306
REMARK SMILES [NH3+][C@H](C(=O)NCCCCNC(=O)c1ccc(-c2c3nc(c(-c4c(F)cc(S(=O)(=O)[O-])cc4F)c4ccc([nH]4)c(-c4c(F)cc(S(=O)(=O)[O-])cc4F)c4nc(c(-c5c(F)cc(S(=O)(=O)[O-])cc5F)c5ccc2[nH]5)C=C4)C=C3)cc1)c1ccc(OCC(=O)N2CCCC2)cc1
REMARK SMILES IDX 7 1 6 2 5 3 3 4 4 5 2 7 1 8 79 12 80 13 93 14 81 15 92 16
REMARK SMILES IDX 82 17 83 18 84 19 85 20 86 21 87 22 88 23 91 24 89 25 90 26
REMARK SMILES IDX 8 27 9 28 10 29 11 30 12 32 13 33 14 34 78 35 15 36 77 37
REMARK SMILES IDX 16 38 17 39 18 40 71 41 19 42 76 43 70 44 72 45 20 46 75 47
REMARK SMILES IDX 69 48 68 49 21 51 55 52 34 53 54 54 35 55 38 56 53 57 73 58
REMARK SMILES IDX 36 59 37 60 52 62 74 63 39 64 22 65 23 66 32 67 24 68 25 69
REMARK SMILES IDX 31 70 33 71 26 72 27 73 28 74 29 75 30 76 56 77 57 78 66 79
REMARK SMILES IDX 58 80 59 81 65 82 67 83 60 84 61 85 62 86 63 87 64 88 40 89
REMARK SMILES IDX 41 90 50 91 42 92 43 93 49 94 51 95 44 96 45 97 46 98 47 99
REMARK SMILES IDX 48 100
REMARK H PARENT 5 6 1 9 1 10 1 11 10 31 72 50 38 61
REMARK Flexibility Score: inf
ROOT
ATOM      1  C   UNL A   1      31.593  29.132  26.217  1.00  0.00     0.023 C 
ENDROOT
BRANCH   1   2
ATOM      2  C   UNL A   1      31.624  29.844  24.864  1.00  0.00     0.116 C 
BRANCH   2   3
ATOM      3  N   UNL A   1      30.357  30.485  24.568  1.00  0.00    -0.351 N 
ATOM      4  C   UNL A   1      29.561  30.367  23.463  1.00  0.00     0.283 C 
ATOM      5  O   UNL A   1      28.544  31.068  23.407  1.00  0.00    -0.268 OA
ATOM      6  H   UNL A   1      30.023  31.095  25.265  1.00  0.00     0.163 HD
BRANCH   4   7
ATOM      7  C   UNL A   1      29.888  29.333  22.341  1.00  0.00     0.302 C 
BRANCH   7   8
ATOM      8  N   UNL A   1      31.039  29.856  21.559  1.00  0.00    -0.343 N 
ATOM      9  H   UNL A   1      31.383  30.714  21.991  1.00  0.00     0.345 HD
ATOM     10  H   UNL A   1      30.740  30.053  20.603  1.00  0.00     0.345 HD
ATOM     11  H   UNL A   1      31.785  29.161  21.545  1.00  0.00     0.345 HD
ENDBRANCH   7   8
BRANCH   7  12
ATOM     12  C   UNL A   1      30.160  27.953  22.922  1.00  0.00     0.019 A 
ATOM     13  C   UNL A   1      31.367  27.272  22.714  1.00  0.00     0.014 A 
ATOM     14  C   UNL A   1      29.210  27.351  23.761  1.00  0.00     0.014 A 
ATOM     15  C   UNL A   1      31.628  26.067  23.370  1.00  0.00     0.047 A 
ATOM     16  C   UNL A   1      29.492  26.174  24.463  1.00  0.00     0.047 A 
ATOM     17  C   UNL A   1      30.715  25.541  24.284  1.00  0.00     0.120 A 
BRANCH  17  18
ATOM     18  O   UNL A   1      31.120  24.401  24.911  1.00  0.00    -0.484 OA
BRANCH  18  19
ATOM     19  C   UNL A   1      31.965  24.546  26.036  1.00  0.00     0.329 C 
BRANCH  19  20
ATOM     20  C   UNL A   1      32.581  23.302  26.706  1.00  0.00     0.260 C 
ATOM     21  O   UNL A   1      32.020  22.787  27.677  1.00  0.00    -0.271 OA
ATOM     22  N   UNL A   1      33.675  22.717  26.105  1.00  0.00    -0.340 N 
ATOM     23  C   UNL A   1      34.541  23.288  25.093  1.00  0.00     0.119 C 
ATOM     24  C   UNL A   1      34.116  21.382  26.478  1.00  0.00     0.119 C 
ATOM     25  C   UNL A   1      35.165  22.077  24.423  1.00  0.00     0.023 C 
ATOM     26  C   UNL A   1      35.294  21.072  25.561  1.00  0.00     0.023 C 
ENDBRANCH  19  20
ENDBRANCH  18  19
ENDBRANCH  17  18
ENDBRANCH   7  12
ENDBRANCH   4   7
ENDBRANCH   2   3
ENDBRANCH   1   2
BRANCH   1  27
ATOM     27  C   UNL A   1      32.678  28.078  26.417  1.00  0.00     0.023 C 
BRANCH  27  28
ATOM     28  C   UNL A   1      33.976  28.591  27.027  1.00  0.00     0.116 C 
BRANCH  28  29
ATOM     29  N   UNL A   1      33.861  29.924  27.602  1.00  0.00    -0.352 N 
ATOM     30  C   UNL A   1      34.800  30.634  28.313  1.00  0.00     0.251 C 
ATOM     31  H   UNL A   1      32.998  30.376  27.464  1.00  0.00     0.163 HD
ATOM     32  O   UNL A   1      34.506  31.715  28.815  1.00  0.00    -0.269 OA
BRANCH  30  33
ATOM     33  C   UNL A   1      36.151  30.064  28.500  1.00  0.00     0.039 A 
ATOM     34  C   UNL A   1      37.080  30.172  27.462  1.00  0.00     0.014 A 
ATOM     35  C   UNL A   1      36.512  29.472  29.713  1.00  0.00     0.014 A 
ATOM     36  C   UNL A   1      38.396  29.754  27.670  1.00  0.00     0.010 A 
ATOM     37  C   UNL A   1      37.840  29.133  29.945  1.00  0.00     0.010 A 
ATOM     38  C   UNL A   1      38.796  29.270  28.927  1.00  0.00    -0.014 A 
BRANCH  38  39
ATOM     39  C   UNL A   1      40.208  28.900  29.201  1.00  0.00     0.031 A 
ATOM     40  C   UNL A   1      41.138  29.903  29.828  1.00  0.00     0.074 A 
ATOM     41  C   UNL A   1      40.671  27.695  28.813  1.00  0.00     0.049 A 
ATOM     42  N   UNL A   1      42.421  29.805  30.061  1.00  0.00    -0.248 NA
ATOM     43  C   UNL A   1      40.555  31.198  30.211  1.00  0.00     0.031 C 
ATOM     44  C   UNL A   1      39.881  26.659  28.143  1.00  0.00     0.029 A 
ATOM     45  N   UNL A   1      41.922  27.142  28.915  1.00  0.00    -0.354 N 
ATOM     46  C   UNL A   1      42.801  31.030  30.597  1.00  0.00     0.074 A 
ATOM     47  C   UNL A   1      41.625  31.871  30.604  1.00  0.00     0.031 C 
ATOM     48  C   UNL A   1      40.661  25.590  27.915  1.00  0.00     0.029 A 
ATOM     49  C   UNL A   1      42.011  25.874  28.389  1.00  0.00     0.049 A 
ATOM     50  H   UNL A   1      42.686  27.608  29.325  1.00  0.00     0.167 HD
ATOM     51  C   UNL A   1      44.014  31.410  31.065  1.00  0.00     0.037 A 
ATOM     52  C   UNL A   1      43.064  25.038  28.296  1.00  0.00     0.037 A 
ATOM     53  C   UNL A   1      45.171  30.555  31.090  1.00  0.00     0.049 A 
ATOM     54  C   UNL A   1      44.396  25.474  28.841  1.00  0.00     0.074 A 
ATOM     55  C   UNL A   1      46.428  30.820  31.605  1.00  0.00     0.029 A 
ATOM     56  N   UNL A   1      45.212  29.265  30.580  1.00  0.00    -0.354 N 
ATOM     57  N   UNL A   1      44.722  26.613  29.402  1.00  0.00    -0.248 NA
ATOM     58  C   UNL A   1      45.501  24.509  28.748  1.00  0.00     0.031 C 
ATOM     59  C   UNL A   1      47.239  29.703  31.376  1.00  0.00     0.029 A 
ATOM     60  C   UNL A   1      46.476  28.727  30.754  1.00  0.00     0.049 A 
ATOM     61  H   UNL A   1      44.454  28.801  30.156  1.00  0.00     0.167 HD
ATOM     62  C   UNL A   1      46.065  26.494  29.749  1.00  0.00     0.074 A 
ATOM     63  C   UNL A   1      46.484  25.168  29.345  1.00  0.00     0.031 C 
ATOM     64  C   UNL A   1      46.875  27.402  30.349  1.00  0.00     0.037 A 
BRANCH  51  65
ATOM     65  C   UNL A   1      44.143  32.812  31.593  1.00  0.00     0.058 A 
ATOM     66  C   UNL A   1      44.543  33.875  30.767  1.00  0.00     0.135 A 
ATOM     67  C   UNL A   1      43.853  33.100  32.936  1.00  0.00     0.135 A 
ATOM     68  F   UNL A   1      44.848  33.652  29.478  1.00  0.00    -0.206 F 
ATOM     69  C   UNL A   1      44.690  35.166  31.262  1.00  0.00     0.059 A 
ATOM     70  C   UNL A   1      43.965  34.391  33.446  1.00  0.00     0.059 A 
ATOM     71  F   UNL A   1      43.466  32.122  33.769  1.00  0.00    -0.206 F 
ATOM     72  C   UNL A   1      44.403  35.414  32.605  1.00  0.00     0.060 A 
BRANCH  72  73
ATOM     73  S   UNL A   1      44.609  37.092  33.238  1.00  0.00     0.124 S 
ATOM     74  O   UNL A   1      43.398  37.739  32.740  1.00  0.00    -0.237 OA
ATOM     75  O   UNL A   1      44.665  36.878  34.680  1.00  0.00    -0.237 OA
ATOM     76  O   UNL A   1      45.856  37.535  32.624  1.00  0.00    -0.744 OA
ENDBRANCH  72  73
ENDBRANCH  51  65
BRANCH  52  77
ATOM     77  C   UNL A   1      42.888  23.692  27.689  1.00  0.00     0.058 A 
ATOM     78  C   UNL A   1      43.132  23.483  26.324  1.00  0.00     0.135 A 
ATOM     79  C   UNL A   1      42.500  22.586  28.461  1.00  0.00     0.135 A 
ATOM     80  F   UNL A   1      43.499  24.511  25.543  1.00  0.00    -0.206 F 
ATOM     81  C   UNL A   1      42.987  22.229  25.741  1.00  0.00     0.059 A 
ATOM     82  C   UNL A   1      42.369  21.317  27.905  1.00  0.00     0.059 A 
ATOM     83  F   UNL A   1      42.272  22.731  29.775  1.00  0.00    -0.206 F 
ATOM     84  C   UNL A   1      42.607  21.150  26.541  1.00  0.00     0.060 A 
BRANCH  84  85
ATOM     85  S   UNL A   1      42.479  19.514  25.788  1.00  0.00     0.124 S 
ATOM     86  O   UNL A   1      42.873  18.650  26.893  1.00  0.00    -0.237 OA
ATOM     87  O   UNL A   1      41.071  19.460  25.406  1.00  0.00    -0.237 OA
ATOM     88  O   UNL A   1      43.419  19.585  24.673  1.00  0.00    -0.744 OA
ENDBRANCH  84  85
ENDBRANCH  52  77
BRANCH  64  89
ATOM     89  C   UNL A   1      48.291  26.984  30.628  1.00  0.00     0.058 A 
ATOM     90  C   UNL A   1      49.312  27.169  29.684  1.00  0.00     0.135 A 
ATOM     91  C   UNL A   1      48.638  26.443  31.877  1.00  0.00     0.135 A 
ATOM     92  F   UNL A   1      49.030  27.676  28.474  1.00  0.00    -0.206 F 
ATOM     93  C   UNL A   1      50.628  26.814  29.961  1.00  0.00     0.059 A 
ATOM     94  C   UNL A   1      49.952  26.104  32.183  1.00  0.00     0.059 A 
ATOM     95  F   UNL A   1      47.699  26.256  32.818  1.00  0.00    -0.206 F 
ATOM     96  C   UNL A   1      50.939  26.284  31.215  1.00  0.00     0.060 A 
BRANCH  96  97
ATOM     97  S   UNL A   1      52.656  25.864  31.577  1.00  0.00     0.124 S 
ATOM     98  O   UNL A   1      52.523  24.507  32.098  1.00  0.00    -0.237 OA
ATOM     99  O   UNL A   1      53.291  25.980  30.267  1.00  0.00    -0.237 OA
ATOM    100  O   UNL A   1      53.055  26.875  32.551  1.00  0.00    -0.744 OA
ENDBRANCH  96  97
ENDBRANCH  64  89
ENDBRANCH  38  39
ENDBRANCH  30  33
ENDBRANCH  28  29
ENDBRANCH  27  28
ENDBRANCH   1  27
TORSDOF 19
ENDMDL
