MODEL 1
REMARK VINA RESULT:     -11.2      0.000      0.000
REMARK SMILES CS(=O)(=O)N1C[C@@H]2CN(C(=O)c3ccco3)C[C@]2(C(=O)NCCCCNC(=O)c2ccc(-c3c4nc(c(-c5c(F)cc(S(=O)(=O)[O-])cc5F)c5ccc([nH]5)c(-c5c(F)cc(S(=O)(=O)[O-])cc5F)c5nc(c(-c6c(F)cc(S(=O)(=O)[O-])cc6F)c6ccc3[nH]6)C=C5)C=C4)cc2)C1
REMARK SMILES IDX 24 1 23 2 22 3 21 4 19 5 20 6 18 8 5 9 6 10 95 11 7 12 8 13
REMARK SMILES IDX 17 14 9 15 2 16 1 17 3 18 4 19 10 20 11 21 12 22 13 23 16 24
REMARK SMILES IDX 14 25 15 26 25 27 26 28 27 29 28 31 29 32 30 33 94 34 31 35
REMARK SMILES IDX 93 36 32 37 33 38 34 39 87 40 35 41 92 42 86 43 88 44 36 45
REMARK SMILES IDX 91 46 85 47 84 48 37 50 71 51 50 52 70 53 51 54 54 55 69 56
REMARK SMILES IDX 89 57 52 58 53 59 68 61 90 62 55 63 38 64 39 65 48 66 40 67
REMARK SMILES IDX 41 68 47 69 49 70 42 71 43 72 44 73 45 74 46 75 72 76 73 77
REMARK SMILES IDX 82 78 74 79 75 80 81 81 83 82 76 83 77 84 78 85 79 86 80 87
REMARK SMILES IDX 56 88 57 89 66 90 58 91 59 92 65 93 67 94 60 95 61 96 62 97
REMARK SMILES IDX 63 98 64 99
REMARK H PARENT 21 7 26 30 88 49 54 60
REMARK Flexibility Score: inf
ROOT
ATOM      1  C   UNL A   1      42.844  22.733  28.467  1.00  0.00     0.023 C 
ENDROOT
BRANCH   1   2
ATOM      2  C   UNL A   1      43.434  23.470  29.658  1.00  0.00     0.023 C 
BRANCH   2   3
ATOM      3  C   UNL A   1      43.888  24.893  29.376  1.00  0.00     0.116 C 
BRANCH   3   4
ATOM      4  N   UNL A   1      45.332  24.954  29.447  1.00  0.00    -0.356 N 
ATOM      5  C   UNL A   1      46.184  24.938  28.368  1.00  0.00     0.229 C 
ATOM      6  O   UNL A   1      47.361  24.623  28.544  1.00  0.00    -0.274 OA
ATOM      7  H   UNL A   1      45.737  25.010  30.342  1.00  0.00     0.163 HD
BRANCH   5   8
ATOM      8  C   UNL A   1      45.576  25.373  27.012  1.00  0.00     0.086 C 
ATOM      9  N   UNL A   1      45.346  27.842  26.684  1.00  0.00    -0.201 NA
ATOM     10  C   UNL A   1      44.830  27.210  25.490  1.00  0.00     0.108 C 
ATOM     11  C   UNL A   1      46.183  26.840  27.404  1.00  0.00     0.121 C 
ATOM     12  C   UNL A   1      45.568  25.891  25.525  1.00  0.00     0.042 C 
ATOM     13  C   UNL A   1      44.880  24.870  24.655  1.00  0.00     0.126 C 
ATOM     14  C   UNL A   1      46.124  23.957  26.419  1.00  0.00     0.138 C 
ATOM     15  N   UNL A   1      45.203  23.646  25.313  1.00  0.00    -0.334 N 
BRANCH   9  16
ATOM     16  S   UNL A   1      45.787  29.462  26.675  1.00  0.00     0.211 S 
ATOM     17  C   UNL A   1      44.204  30.240  26.898  1.00  0.00     0.176 C 
ATOM     18  O   UNL A   1      46.245  29.809  25.343  1.00  0.00    -0.213 OA
ATOM     19  O   UNL A   1      46.586  29.734  27.845  1.00  0.00    -0.213 OA
ENDBRANCH   9  16
BRANCH  15  20
ATOM     20  C   UNL A   1      44.434  22.529  24.979  1.00  0.00     0.289 C 
ATOM     21  O   UNL A   1      43.258  22.703  24.640  1.00  0.00    -0.265 OA
BRANCH  20  22
ATOM     22  C   UNL A   1      44.935  21.184  25.155  1.00  0.00     0.191 A 
ATOM     23  C   UNL A   1      44.212  20.021  25.382  1.00  0.00     0.056 A 
ATOM     24  O   UNL A   1      46.263  20.877  25.041  1.00  0.00    -0.459 OA
ATOM     25  C   UNL A   1      45.140  18.959  25.431  1.00  0.00     0.043 A 
ATOM     26  C   UNL A   1      46.369  19.525  25.181  1.00  0.00     0.196 A 
ENDBRANCH  20  22
ENDBRANCH  15  20
ENDBRANCH   5   8
ENDBRANCH   3   4
ENDBRANCH   2   3
ENDBRANCH   1   2
BRANCH   1  27
ATOM     27  C   UNL A   1      41.567  23.369  27.971  1.00  0.00     0.116 C 
BRANCH  27  28
ATOM     28  N   UNL A   1      41.717  24.011  26.670  1.00  0.00    -0.352 N 
ATOM     29  C   UNL A   1      41.483  25.315  26.314  1.00  0.00     0.251 C 
ATOM     30  H   UNL A   1      42.031  23.425  25.944  1.00  0.00     0.163 HD
ATOM     31  O   UNL A   1      41.553  25.650  25.137  1.00  0.00    -0.269 OA
BRANCH  29  32
ATOM     32  C   UNL A   1      41.093  26.281  27.359  1.00  0.00     0.039 A 
ATOM     33  C   UNL A   1      40.086  25.936  28.259  1.00  0.00     0.014 A 
ATOM     34  C   UNL A   1      41.780  27.488  27.495  1.00  0.00     0.014 A 
ATOM     35  C   UNL A   1      39.818  26.781  29.334  1.00  0.00     0.010 A 
ATOM     36  C   UNL A   1      41.623  28.239  28.646  1.00  0.00     0.010 A 
ATOM     37  C   UNL A   1      40.615  27.917  29.559  1.00  0.00    -0.014 A 
BRANCH  37  38
ATOM     38  C   UNL A   1      40.383  28.802  30.723  1.00  0.00     0.031 A 
ATOM     39  C   UNL A   1      41.248  28.673  31.948  1.00  0.00     0.074 A 
ATOM     40  C   UNL A   1      39.370  29.689  30.686  1.00  0.00     0.049 A 
ATOM     41  N   UNL A   1      41.223  29.371  33.052  1.00  0.00    -0.248 NA
ATOM     42  C   UNL A   1      42.247  27.590  31.952  1.00  0.00     0.031 C 
ATOM     43  C   UNL A   1      38.419  29.847  29.581  1.00  0.00     0.029 A 
ATOM     44  N   UNL A   1      38.983  30.639  31.594  1.00  0.00    -0.354 N 
ATOM     45  C   UNL A   1      42.192  28.809  33.875  1.00  0.00     0.074 A 
ATOM     46  C   UNL A   1      42.712  27.650  33.188  1.00  0.00     0.031 C 
ATOM     47  C   UNL A   1      37.610  30.883  29.844  1.00  0.00     0.029 A 
ATOM     48  C   UNL A   1      37.956  31.437  31.148  1.00  0.00     0.049 A 
ATOM     49  H   UNL A   1      39.399  30.742  32.480  1.00  0.00     0.167 HD
ATOM     50  C   UNL A   1      42.645  29.244  35.075  1.00  0.00     0.037 A 
ATOM     51  C   UNL A   1      37.377  32.510  31.720  1.00  0.00     0.037 A 
ATOM     52  C   UNL A   1      42.126  30.408  35.739  1.00  0.00     0.049 A 
ATOM     53  C   UNL A   1      37.890  32.978  33.055  1.00  0.00     0.074 A 
ATOM     54  C   UNL A   1      42.528  30.972  36.935  1.00  0.00     0.029 A 
ATOM     55  N   UNL A   1      41.080  31.187  35.261  1.00  0.00    -0.354 N 
ATOM     56  N   UNL A   1      38.857  32.480  33.789  1.00  0.00    -0.248 NA
ATOM     57  C   UNL A   1      37.240  34.160  33.630  1.00  0.00     0.031 C 
ATOM     58  C   UNL A   1      41.691  32.060  37.207  1.00  0.00     0.029 A 
ATOM     59  C   UNL A   1      40.808  32.214  36.148  1.00  0.00     0.049 A 
ATOM     60  H   UNL A   1      40.602  31.032  34.413  1.00  0.00     0.167 HD
ATOM     61  C   UNL A   1      38.958  33.312  34.900  1.00  0.00     0.074 A 
ATOM     62  C   UNL A   1      37.957  34.347  34.730  1.00  0.00     0.031 C 
ATOM     63  C   UNL A   1      39.804  33.232  35.958  1.00  0.00     0.037 A 
BRANCH  50  64
ATOM     64  C   UNL A   1      43.747  28.446  35.724  1.00  0.00     0.058 A 
ATOM     65  C   UNL A   1      45.103  28.668  35.417  1.00  0.00     0.135 A 
ATOM     66  C   UNL A   1      43.449  27.422  36.636  1.00  0.00     0.135 A 
ATOM     67  F   UNL A   1      45.450  29.622  34.539  1.00  0.00    -0.206 F 
ATOM     68  C   UNL A   1      46.111  27.865  35.939  1.00  0.00     0.059 A 
ATOM     69  C   UNL A   1      44.445  26.631  37.201  1.00  0.00     0.059 A 
ATOM     70  F   UNL A   1      42.174  27.163  36.970  1.00  0.00    -0.206 F 
ATOM     71  C   UNL A   1      45.770  26.841  36.823  1.00  0.00     0.060 A 
BRANCH  71  72
ATOM     72  S   UNL A   1      47.084  25.776  37.453  1.00  0.00     0.124 S 
ATOM     73  O   UNL A   1      46.631  24.462  37.006  1.00  0.00    -0.237 OA
ATOM     74  O   UNL A   1      48.265  26.302  36.776  1.00  0.00    -0.237 OA
ATOM     75  O   UNL A   1      47.040  25.998  38.894  1.00  0.00    -0.744 OA
ENDBRANCH  71  72
ENDBRANCH  50  64
BRANCH  51  76
ATOM     76  C   UNL A   1      36.317  33.254  30.991  1.00  0.00     0.058 A 
ATOM     77  C   UNL A   1      34.990  33.240  31.450  1.00  0.00     0.135 A 
ATOM     78  C   UNL A   1      36.608  34.030  29.859  1.00  0.00     0.135 A 
ATOM     79  F   UNL A   1      34.661  32.513  32.527  1.00  0.00    -0.206 F 
ATOM     80  C   UNL A   1      33.989  33.962  30.808  1.00  0.00     0.059 A 
ATOM     81  C   UNL A   1      35.630  34.781  29.215  1.00  0.00     0.059 A 
ATOM     82  F   UNL A   1      37.865  34.093  29.393  1.00  0.00    -0.206 F 
ATOM     83  C   UNL A   1      34.322  34.737  29.695  1.00  0.00     0.060 A 
BRANCH  83  84
ATOM     84  S   UNL A   1      33.027  35.727  28.918  1.00  0.00     0.124 S 
ATOM     85  O   UNL A   1      33.811  36.730  28.206  1.00  0.00    -0.237 OA
ATOM     86  O   UNL A   1      32.346  34.739  28.086  1.00  0.00    -0.237 OA
ATOM     87  O   UNL A   1      32.254  36.220  30.054  1.00  0.00    -0.744 OA
ENDBRANCH  83  84
ENDBRANCH  51  76
BRANCH  63  88
ATOM     88  C   UNL A   1      39.711  34.322  36.991  1.00  0.00     0.058 A 
ATOM     89  C   UNL A   1      40.380  35.547  36.843  1.00  0.00     0.135 A 
ATOM     90  C   UNL A   1      38.917  34.142  38.135  1.00  0.00     0.135 A 
ATOM     91  F   UNL A   1      41.155  35.770  35.769  1.00  0.00    -0.206 F 
ATOM     92  C   UNL A   1      40.299  36.539  37.814  1.00  0.00     0.059 A 
ATOM     93  C   UNL A   1      38.793  35.134  39.101  1.00  0.00     0.059 A 
ATOM     94  F   UNL A   1      38.243  32.996  38.319  1.00  0.00    -0.206 F 
ATOM     95  C   UNL A   1      39.504  36.322  38.941  1.00  0.00     0.060 A 
BRANCH  95  96
ATOM     96  S   UNL A   1      39.404  37.619  40.192  1.00  0.00     0.124 S 
ATOM     97  O   UNL A   1      40.741  38.197  40.123  1.00  0.00    -0.237 OA
ATOM     98  O   UNL A   1      38.323  38.458  39.683  1.00  0.00    -0.237 OA
ATOM     99  O   UNL A   1      39.098  36.886  41.417  1.00  0.00    -0.744 OA
ENDBRANCH  95  96
ENDBRANCH  63  88
ENDBRANCH  37  38
ENDBRANCH  29  32
ENDBRANCH  27  28
ENDBRANCH   1  27
TORSDOF 17
ENDMDL
MODEL 2
REMARK VINA RESULT:     -11.1      6.546     13.631
REMARK SMILES CS(=O)(=O)N1C[C@@H]2CN(C(=O)c3ccco3)C[C@]2(C(=O)NCCCCNC(=O)c2ccc(-c3c4nc(c(-c5c(F)cc(S(=O)(=O)[O-])cc5F)c5ccc([nH]5)c(-c5c(F)cc(S(=O)(=O)[O-])cc5F)c5nc(c(-c6c(F)cc(S(=O)(=O)[O-])cc6F)c6ccc3[nH]6)C=C5)C=C4)cc2)C1
REMARK SMILES IDX 24 1 23 2 22 3 21 4 19 5 20 6 18 8 5 9 6 10 95 11 7 12 8 13
REMARK SMILES IDX 17 14 9 15 2 16 1 17 3 18 4 19 10 20 11 21 12 22 13 23 16 24
REMARK SMILES IDX 14 25 15 26 25 27 26 28 27 29 28 31 29 32 30 33 94 34 31 35
REMARK SMILES IDX 93 36 32 37 33 38 34 39 87 40 35 41 92 42 86 43 88 44 36 45
REMARK SMILES IDX 91 46 85 47 84 48 37 50 71 51 50 52 70 53 51 54 54 55 69 56
REMARK SMILES IDX 89 57 52 58 53 59 68 61 90 62 55 63 38 64 39 65 48 66 40 67
REMARK SMILES IDX 41 68 47 69 49 70 42 71 43 72 44 73 45 74 46 75 72 76 73 77
REMARK SMILES IDX 82 78 74 79 75 80 81 81 83 82 76 83 77 84 78 85 79 86 80 87
REMARK SMILES IDX 56 88 57 89 66 90 58 91 59 92 65 93 67 94 60 95 61 96 62 97
REMARK SMILES IDX 63 98 64 99
REMARK H PARENT 21 7 26 30 88 49 54 60
REMARK Flexibility Score: inf
ROOT
ATOM      1  C   UNL A   1      34.236  29.282  27.491  1.00  0.00     0.023 C 
ENDROOT
BRANCH   1   2
ATOM      2  C   UNL A   1      34.354  28.706  26.090  1.00  0.00     0.023 C 
BRANCH   2   3
ATOM      3  C   UNL A   1      33.266  29.143  25.120  1.00  0.00     0.116 C 
BRANCH   3   4
ATOM      4  N   UNL A   1      33.836  29.273  23.796  1.00  0.00    -0.356 N 
ATOM      5  C   UNL A   1      33.646  28.393  22.756  1.00  0.00     0.229 C 
ATOM      6  O   UNL A   1      34.449  28.394  21.823  1.00  0.00    -0.274 OA
ATOM      7  H   UNL A   1      34.408  30.056  23.626  1.00  0.00     0.163 HD
BRANCH   5   8
ATOM      8  C   UNL A   1      32.385  27.499  22.842  1.00  0.00     0.086 C 
ATOM      9  N   UNL A   1      30.212  28.726  23.016  1.00  0.00    -0.201 NA
ATOM     10  C   UNL A   1      29.900  27.314  23.041  1.00  0.00     0.108 C 
ATOM     11  C   UNL A   1      31.589  28.878  22.467  1.00  0.00     0.121 C 
ATOM     12  C   UNL A   1      31.104  26.744  22.325  1.00  0.00     0.042 C 
ATOM     13  C   UNL A   1      31.252  25.272  22.616  1.00  0.00     0.126 C 
ATOM     14  C   UNL A   1      33.256  26.358  22.070  1.00  0.00     0.138 C 
ATOM     15  N   UNL A   1      32.663  25.085  22.514  1.00  0.00    -0.334 N 
BRANCH   9  16
ATOM     16  S   UNL A   1      29.027  29.859  22.654  1.00  0.00     0.211 S 
ATOM     17  C   UNL A   1      27.556  28.944  23.056  1.00  0.00     0.176 C 
ATOM     18  O   UNL A   1      29.015  30.073  21.220  1.00  0.00    -0.213 OA
ATOM     19  O   UNL A   1      29.135  30.958  23.583  1.00  0.00    -0.213 OA
ENDBRANCH   9  16
BRANCH  15  20
ATOM     20  C   UNL A   1      33.185  23.917  23.073  1.00  0.00     0.289 C 
ATOM     21  O   UNL A   1      32.579  22.855  22.894  1.00  0.00    -0.265 OA
BRANCH  20  22
ATOM     22  C   UNL A   1      34.327  23.946  23.961  1.00  0.00     0.191 A 
ATOM     23  C   UNL A   1      34.420  24.517  25.222  1.00  0.00     0.056 A 
ATOM     24  O   UNL A   1      35.501  23.311  23.663  1.00  0.00    -0.459 OA
ATOM     25  C   UNL A   1      35.715  24.237  25.709  1.00  0.00     0.043 A 
ATOM     26  C   UNL A   1      36.321  23.471  24.740  1.00  0.00     0.196 A 
ENDBRANCH  20  22
ENDBRANCH  15  20
ENDBRANCH   5   8
ENDBRANCH   3   4
ENDBRANCH   2   3
ENDBRANCH   1   2
BRANCH   1  27
ATOM     27  C   UNL A   1      35.582  29.610  28.094  1.00  0.00     0.116 C 
BRANCH  27  28
ATOM     28  N   UNL A   1      35.506  29.953  29.509  1.00  0.00    -0.352 N 
ATOM     29  C   UNL A   1      36.515  30.047  30.434  1.00  0.00     0.251 C 
ATOM     30  H   UNL A   1      34.602  30.145  29.849  1.00  0.00     0.163 HD
ATOM     31  O   UNL A   1      36.246  30.235  31.615  1.00  0.00    -0.269 OA
BRANCH  29  32
ATOM     32  C   UNL A   1      37.909  29.860  29.991  1.00  0.00     0.039 A 
ATOM     33  C   UNL A   1      38.832  29.299  30.873  1.00  0.00     0.014 A 
ATOM     34  C   UNL A   1      38.279  30.162  28.680  1.00  0.00     0.014 A 
ATOM     35  C   UNL A   1      40.108  28.984  30.411  1.00  0.00     0.010 A 
ATOM     36  C   UNL A   1      39.486  29.703  28.185  1.00  0.00     0.010 A 
ATOM     37  C   UNL A   1      40.430  29.144  29.052  1.00  0.00    -0.014 A 
BRANCH  37  38
ATOM     38  C   UNL A   1      41.763  28.770  28.527  1.00  0.00     0.031 A 
ATOM     39  C   UNL A   1      42.865  29.794  28.480  1.00  0.00     0.074 A 
ATOM     40  C   UNL A   1      41.961  27.524  28.058  1.00  0.00     0.049 A 
ATOM     41  N   UNL A   1      44.104  29.655  28.086  1.00  0.00    -0.248 NA
ATOM     42  C   UNL A   1      42.524  31.166  28.892  1.00  0.00     0.031 C 
ATOM     43  C   UNL A   1      40.941  26.473  27.982  1.00  0.00     0.029 A 
ATOM     44  N   UNL A   1      43.092  26.921  27.574  1.00  0.00    -0.354 N 
ATOM     45  C   UNL A   1      44.678  30.916  28.197  1.00  0.00     0.074 A 
ATOM     46  C   UNL A   1      43.630  31.826  28.594  1.00  0.00     0.031 C 
ATOM     47  C   UNL A   1      41.512  25.337  27.555  1.00  0.00     0.029 A 
ATOM     48  C   UNL A   1      42.925  25.587  27.289  1.00  0.00     0.049 A 
ATOM     49  H   UNL A   1      43.944  27.397  27.444  1.00  0.00     0.167 HD
ATOM     50  C   UNL A   1      45.972  31.277  28.032  1.00  0.00     0.037 A 
ATOM     51  C   UNL A   1      43.818  24.666  26.882  1.00  0.00     0.037 A 
ATOM     52  C   UNL A   1      47.007  30.355  27.650  1.00  0.00     0.049 A 
ATOM     53  C   UNL A   1      45.251  25.085  26.700  1.00  0.00     0.074 A 
ATOM     54  C   UNL A   1      48.359  30.591  27.491  1.00  0.00     0.029 A 
ATOM     55  N   UNL A   1      46.797  29.012  27.362  1.00  0.00    -0.354 N 
ATOM     56  N   UNL A   1      45.797  26.266  26.879  1.00  0.00    -0.248 NA
ATOM     57  C   UNL A   1      46.191  24.043  26.272  1.00  0.00     0.031 C 
ATOM     58  C   UNL A   1      48.959  29.405  27.054  1.00  0.00     0.029 A 
ATOM     59  C   UNL A   1      47.992  28.411  27.004  1.00  0.00     0.049 A 
ATOM     60  H   UNL A   1      45.926  28.554  27.407  1.00  0.00     0.167 HD
ATOM     61  C   UNL A   1      47.153  26.101  26.622  1.00  0.00     0.074 A 
ATOM     62  C   UNL A   1      47.341  24.704  26.283  1.00  0.00     0.031 C 
ATOM     63  C   UNL A   1      48.153  27.018  26.668  1.00  0.00     0.037 A 
BRANCH  50  64
ATOM     64  C   UNL A   1      46.316  32.727  28.264  1.00  0.00     0.058 A 
ATOM     65  C   UNL A   1      46.726  33.198  29.525  1.00  0.00     0.135 A 
ATOM     66  C   UNL A   1      46.200  33.665  27.227  1.00  0.00     0.135 A 
ATOM     67  F   UNL A   1      46.840  32.351  30.561  1.00  0.00    -0.206 F 
ATOM     68  C   UNL A   1      46.945  34.551  29.763  1.00  0.00     0.059 A 
ATOM     69  C   UNL A   1      46.452  35.019  27.434  1.00  0.00     0.059 A 
ATOM     70  F   UNL A   1      45.815  33.276  26.001  1.00  0.00    -0.206 F 
ATOM     71  C   UNL A   1      46.795  35.455  28.712  1.00  0.00     0.060 A 
BRANCH  71  72
ATOM     72  S   UNL A   1      47.034  37.213  29.048  1.00  0.00     0.124 S 
ATOM     73  O   UNL A   1      46.688  37.803  27.758  1.00  0.00    -0.237 OA
ATOM     74  O   UNL A   1      46.085  37.455  30.130  1.00  0.00    -0.237 OA
ATOM     75  O   UNL A   1      48.442  37.299  29.420  1.00  0.00    -0.744 OA
ENDBRANCH  71  72
ENDBRANCH  50  64
BRANCH  51  76
ATOM     76  C   UNL A   1      43.394  23.252  26.708  1.00  0.00     0.058 A 
ATOM     77  C   UNL A   1      43.347  22.672  25.431  1.00  0.00     0.135 A 
ATOM     78  C   UNL A   1      43.078  22.439  27.807  1.00  0.00     0.135 A 
ATOM     79  F   UNL A   1      43.640  23.408  24.349  1.00  0.00    -0.206 F 
ATOM     80  C   UNL A   1      42.993  21.339  25.248  1.00  0.00     0.059 A 
ATOM     81  C   UNL A   1      42.746  21.096  27.651  1.00  0.00     0.059 A 
ATOM     82  F   UNL A   1      43.128  22.940  29.051  1.00  0.00    -0.206 F 
ATOM     83  C   UNL A   1      42.703  20.556  26.367  1.00  0.00     0.060 A 
BRANCH  83  84
ATOM     84  S   UNL A   1      42.318  18.810  26.119  1.00  0.00     0.124 S 
ATOM     85  O   UNL A   1      43.250  18.450  25.056  1.00  0.00    -0.237 OA
ATOM     86  O   UNL A   1      42.601  18.245  27.435  1.00  0.00    -0.237 OA
ATOM     87  O   UNL A   1      40.908  18.827  25.742  1.00  0.00    -0.744 OA
ENDBRANCH  83  84
ENDBRANCH  51  76
BRANCH  63  88
ATOM     88  C   UNL A   1      49.547  26.524  26.389  1.00  0.00     0.058 A 
ATOM     89  C   UNL A   1      50.119  26.597  25.109  1.00  0.00     0.135 A 
ATOM     90  C   UNL A   1      50.328  25.995  27.428  1.00  0.00     0.135 A 
ATOM     91  F   UNL A   1      49.415  27.091  24.079  1.00  0.00    -0.206 F 
ATOM     92  C   UNL A   1      51.403  26.122  24.862  1.00  0.00     0.059 A 
ATOM     93  C   UNL A   1      51.627  25.548  27.211  1.00  0.00     0.059 A 
ATOM     94  F   UNL A   1      49.835  25.918  28.675  1.00  0.00    -0.206 F 
ATOM     95  C   UNL A   1      52.148  25.597  25.919  1.00  0.00     0.060 A 
BRANCH  95  96
ATOM     96  S   UNL A   1      53.813  24.988  25.586  1.00  0.00     0.124 S 
ATOM     97  O   UNL A   1      54.183  25.772  24.413  1.00  0.00    -0.237 OA
ATOM     98  O   UNL A   1      54.519  25.319  26.820  1.00  0.00    -0.237 OA
ATOM     99  O   UNL A   1      53.612  23.561  25.349  1.00  0.00    -0.744 OA
ENDBRANCH  95  96
ENDBRANCH  63  88
ENDBRANCH  37  38
ENDBRANCH  29  32
ENDBRANCH  27  28
ENDBRANCH   1  27
TORSDOF 17
ENDMDL
MODEL 3
REMARK VINA RESULT:     -11.1      4.706     10.964
REMARK SMILES CS(=O)(=O)N1C[C@@H]2CN(C(=O)c3ccco3)C[C@]2(C(=O)NCCCCNC(=O)c2ccc(-c3c4nc(c(-c5c(F)cc(S(=O)(=O)[O-])cc5F)c5ccc([nH]5)c(-c5c(F)cc(S(=O)(=O)[O-])cc5F)c5nc(c(-c6c(F)cc(S(=O)(=O)[O-])cc6F)c6ccc3[nH]6)C=C5)C=C4)cc2)C1
REMARK SMILES IDX 24 1 23 2 22 3 21 4 19 5 20 6 18 8 5 9 6 10 95 11 7 12 8 13
REMARK SMILES IDX 17 14 9 15 2 16 1 17 3 18 4 19 10 20 11 21 12 22 13 23 16 24
REMARK SMILES IDX 14 25 15 26 25 27 26 28 27 29 28 31 29 32 30 33 94 34 31 35
REMARK SMILES IDX 93 36 32 37 33 38 34 39 87 40 35 41 92 42 86 43 88 44 36 45
REMARK SMILES IDX 91 46 85 47 84 48 37 50 71 51 50 52 70 53 51 54 54 55 69 56
REMARK SMILES IDX 89 57 52 58 53 59 68 61 90 62 55 63 38 64 39 65 48 66 40 67
REMARK SMILES IDX 41 68 47 69 49 70 42 71 43 72 44 73 45 74 46 75 72 76 73 77
REMARK SMILES IDX 82 78 74 79 75 80 81 81 83 82 76 83 77 84 78 85 79 86 80 87
REMARK SMILES IDX 56 88 57 89 66 90 58 91 59 92 65 93 67 94 60 95 61 96 62 97
REMARK SMILES IDX 63 98 64 99
REMARK H PARENT 21 7 26 30 88 49 54 60
REMARK Flexibility Score: inf
ROOT
ATOM      1  C   UNL A   1      32.191  31.191  26.687  1.00  0.00     0.023 C 
ENDROOT
BRANCH   1   2
ATOM      2  C   UNL A   1      32.192  29.733  27.118  1.00  0.00     0.023 C 
BRANCH   2   3
ATOM      3  C   UNL A   1      33.046  28.809  26.263  1.00  0.00     0.116 C 
BRANCH   3   4
ATOM      4  N   UNL A   1      33.288  29.437  24.982  1.00  0.00    -0.356 N 
ATOM      5  C   UNL A   1      32.961  28.902  23.757  1.00  0.00     0.229 C 
ATOM      6  O   UNL A   1      33.530  29.328  22.752  1.00  0.00    -0.274 OA
ATOM      7  H   UNL A   1      33.722  30.321  24.987  1.00  0.00     0.163 HD
BRANCH   5   8
ATOM      8  C   UNL A   1      31.852  27.822  23.759  1.00  0.00     0.086 C 
ATOM      9  N   UNL A   1      29.530  28.672  23.387  1.00  0.00    -0.201 NA
ATOM     10  C   UNL A   1      29.429  27.240  23.563  1.00  0.00     0.108 C 
ATOM     11  C   UNL A   1      30.948  28.992  23.060  1.00  0.00     0.121 C 
ATOM     12  C   UNL A   1      30.817  26.805  23.148  1.00  0.00     0.042 C 
ATOM     13  C   UNL A   1      31.122  25.424  23.669  1.00  0.00     0.126 C 
ATOM     14  C   UNL A   1      33.012  26.765  23.317  1.00  0.00     0.138 C 
ATOM     15  N   UNL A   1      32.539  25.470  23.834  1.00  0.00    -0.334 N 
BRANCH   9  16
ATOM     16  S   UNL A   1      28.281  29.537  22.672  1.00  0.00     0.211 S 
ATOM     17  C   UNL A   1      28.474  31.118  23.464  1.00  0.00     0.176 C 
ATOM     18  O   UNL A   1      27.017  28.988  23.125  1.00  0.00    -0.213 OA
ATOM     19  O   UNL A   1      28.574  29.704  21.269  1.00  0.00    -0.213 OA
ENDBRANCH   9  16
BRANCH  15  20
ATOM     20  C   UNL A   1      33.112  24.480  24.634  1.00  0.00     0.289 C 
ATOM     21  O   UNL A   1      32.556  24.188  25.699  1.00  0.00    -0.265 OA
BRANCH  20  22
ATOM     22  C   UNL A   1      34.398  23.899  24.317  1.00  0.00     0.191 A 
ATOM     23  C   UNL A   1      34.809  23.323  23.124  1.00  0.00     0.056 A 
ATOM     24  O   UNL A   1      35.444  23.914  25.198  1.00  0.00    -0.459 OA
ATOM     25  C   UNL A   1      36.161  22.950  23.288  1.00  0.00     0.043 A 
ATOM     26  C   UNL A   1      36.511  23.364  24.552  1.00  0.00     0.196 A 
ENDBRANCH  20  22
ENDBRANCH  15  20
ENDBRANCH   5   8
ENDBRANCH   3   4
ENDBRANCH   2   3
ENDBRANCH   1   2
BRANCH   1  27
ATOM     27  C   UNL A   1      33.260  31.998  27.384  1.00  0.00     0.116 C 
BRANCH  27  28
ATOM     28  N   UNL A   1      32.852  33.371  27.658  1.00  0.00    -0.352 N 
ATOM     29  C   UNL A   1      33.342  34.252  28.588  1.00  0.00     0.251 C 
ATOM     30  H   UNL A   1      32.120  33.714  27.096  1.00  0.00     0.163 HD
ATOM     31  O   UNL A   1      32.792  35.335  28.755  1.00  0.00    -0.269 OA
BRANCH  29  32
ATOM     32  C   UNL A   1      34.496  33.850  29.415  1.00  0.00     0.039 A 
ATOM     33  C   UNL A   1      34.291  32.993  30.494  1.00  0.00     0.014 A 
ATOM     34  C   UNL A   1      35.786  34.255  29.069  1.00  0.00     0.014 A 
ATOM     35  C   UNL A   1      35.394  32.493  31.184  1.00  0.00     0.010 A 
ATOM     36  C   UNL A   1      36.877  33.634  29.649  1.00  0.00     0.010 A 
ATOM     37  C   UNL A   1      36.697  32.777  30.739  1.00  0.00    -0.014 A 
BRANCH  37  38
ATOM     38  C   UNL A   1      37.884  32.217  31.424  1.00  0.00     0.031 A 
ATOM     39  C   UNL A   1      38.298  32.756  32.767  1.00  0.00     0.074 A 
ATOM     40  C   UNL A   1      38.605  31.257  30.815  1.00  0.00     0.049 A 
ATOM     41  N   UNL A   1      39.284  32.379  33.538  1.00  0.00    -0.248 NA
ATOM     42  C   UNL A   1      37.528  33.893  33.300  1.00  0.00     0.031 C 
ATOM     43  C   UNL A   1      38.341  30.715  29.478  1.00  0.00     0.029 A 
ATOM     44  N   UNL A   1      39.697  30.551  31.248  1.00  0.00    -0.354 N 
ATOM     45  C   UNL A   1      39.253  33.235  34.633  1.00  0.00     0.074 A 
ATOM     46  C   UNL A   1      38.222  34.213  34.378  1.00  0.00     0.031 C 
ATOM     47  C   UNL A   1      39.197  29.712  29.235  1.00  0.00     0.029 A 
ATOM     48  C   UNL A   1      40.094  29.565  30.376  1.00  0.00     0.049 A 
ATOM     49  H   UNL A   1      40.153  30.731  32.102  1.00  0.00     0.167 HD
ATOM     50  C   UNL A   1      39.984  33.185  35.771  1.00  0.00     0.037 A 
ATOM     51  C   UNL A   1      41.057  28.633  30.499  1.00  0.00     0.037 A 
ATOM     52  C   UNL A   1      40.999  32.196  36.014  1.00  0.00     0.049 A 
ATOM     53  C   UNL A   1      41.863  28.593  31.769  1.00  0.00     0.074 A 
ATOM     54  C   UNL A   1      41.778  32.016  37.142  1.00  0.00     0.029 A 
ATOM     55  N   UNL A   1      41.378  31.217  35.105  1.00  0.00    -0.354 N 
ATOM     56  N   UNL A   1      41.774  29.363  32.828  1.00  0.00    -0.248 NA
ATOM     57  C   UNL A   1      42.889  27.549  31.863  1.00  0.00     0.031 C 
ATOM     58  C   UNL A   1      42.665  30.963  36.894  1.00  0.00     0.029 A 
ATOM     59  C   UNL A   1      42.396  30.443  35.636  1.00  0.00     0.049 A 
ATOM     60  H   UNL A   1      40.981  31.091  34.212  1.00  0.00     0.167 HD
ATOM     61  C   UNL A   1      42.710  28.873  33.733  1.00  0.00     0.074 A 
ATOM     62  C   UNL A   1      43.344  27.736  33.094  1.00  0.00     0.031 C 
ATOM     63  C   UNL A   1      43.013  29.317  34.979  1.00  0.00     0.037 A 
BRANCH  50  64
ATOM     64  C   UNL A   1      39.701  34.233  36.818  1.00  0.00     0.058 A 
ATOM     65  C   UNL A   1      40.259  35.523  36.745  1.00  0.00     0.135 A 
ATOM     66  C   UNL A   1      38.893  33.937  37.926  1.00  0.00     0.135 A 
ATOM     67  F   UNL A   1      41.054  35.860  35.717  1.00  0.00    -0.206 F 
ATOM     68  C   UNL A   1      40.079  36.454  37.762  1.00  0.00     0.059 A 
ATOM     69  C   UNL A   1      38.668  34.868  38.937  1.00  0.00     0.059 A 
ATOM     70  F   UNL A   1      38.331  32.724  38.051  1.00  0.00    -0.206 F 
ATOM     71  C   UNL A   1      39.289  36.113  38.860  1.00  0.00     0.060 A 
BRANCH  71  72
ATOM     72  S   UNL A   1      39.105  37.315  40.194  1.00  0.00     0.124 S 
ATOM     73  O   UNL A   1      38.527  36.488  41.250  1.00  0.00    -0.237 OA
ATOM     74  O   UNL A   1      40.480  37.751  40.413  1.00  0.00    -0.237 OA
ATOM     75  O   UNL A   1      38.214  38.320  39.626  1.00  0.00    -0.744 OA
ENDBRANCH  71  72
ENDBRANCH  50  64
BRANCH  51  76
ATOM     76  C   UNL A   1      41.244  27.619  29.428  1.00  0.00     0.058 A 
ATOM     77  C   UNL A   1      42.373  27.660  28.594  1.00  0.00     0.135 A 
ATOM     78  C   UNL A   1      40.336  26.566  29.245  1.00  0.00     0.135 A 
ATOM     79  F   UNL A   1      43.271  28.648  28.729  1.00  0.00    -0.206 F 
ATOM     80  C   UNL A   1      42.591  26.699  27.613  1.00  0.00     0.059 A 
ATOM     81  C   UNL A   1      40.545  25.578  28.287  1.00  0.00     0.059 A 
ATOM     82  F   UNL A   1      39.251  26.470  30.029  1.00  0.00    -0.206 F 
ATOM     83  C   UNL A   1      41.674  25.656  27.473  1.00  0.00     0.060 A 
BRANCH  83  84
ATOM     84  S   UNL A   1      42.008  24.375  26.245  1.00  0.00     0.124 S 
ATOM     85  O   UNL A   1      42.130  25.163  25.023  1.00  0.00    -0.237 OA
ATOM     86  O   UNL A   1      43.242  23.782  26.750  1.00  0.00    -0.237 OA
ATOM     87  O   UNL A   1      40.829  23.517  26.327  1.00  0.00    -0.744 OA
ENDBRANCH  83  84
ENDBRANCH  51  76
BRANCH  63  88
ATOM     88  C   UNL A   1      44.046  28.540  35.750  1.00  0.00     0.058 A 
ATOM     89  C   UNL A   1      43.698  27.478  36.598  1.00  0.00     0.135 A 
ATOM     90  C   UNL A   1      45.408  28.852  35.613  1.00  0.00     0.135 A 
ATOM     91  F   UNL A   1      42.410  27.140  36.767  1.00  0.00    -0.206 F 
ATOM     92  C   UNL A   1      44.662  26.779  37.317  1.00  0.00     0.059 A 
ATOM     93  C   UNL A   1      46.392  28.144  36.295  1.00  0.00     0.059 A 
ATOM     94  F   UNL A   1      45.798  29.849  34.802  1.00  0.00    -0.206 F 
ATOM     95  C   UNL A   1      46.007  27.122  37.160  1.00  0.00     0.060 A 
BRANCH  95  96
ATOM     96  S   UNL A   1      47.248  26.205  38.095  1.00  0.00     0.124 S 
ATOM     97  O   UNL A   1      48.487  26.749  37.552  1.00  0.00    -0.237 OA
ATOM     98  O   UNL A   1      46.939  26.580  39.472  1.00  0.00    -0.237 OA
ATOM     99  O   UNL A   1      46.970  24.812  37.753  1.00  0.00    -0.744 OA
ENDBRANCH  95  96
ENDBRANCH  63  88
ENDBRANCH  37  38
ENDBRANCH  29  32
ENDBRANCH  27  28
ENDBRANCH   1  27
TORSDOF 17
ENDMDL
