MODEL 1
REMARK VINA RESULT:     -13.6      0.000      0.000
REMARK SMILES Cc1ccc(Nc2c(F)cccc2I)c(CC(=O)NCCCCNC(=O)c2ccc(-c3c4nc(c(-c5c(F)cc(S(=O)(=O)[O-])cc5F)c5ccc([nH]5)c(-c5c(F)cc(S(=O)(=O)[O-])cc5F)c5nc(c(-c6c(F)cc(S(=O)(=O)[O-])cc6F)c6ccc3[nH]6)C=C5)C=C4)cc2)c1
REMARK SMILES IDX 21 1 20 2 19 3 17 4 18 5 16 7 15 8 1 9 2 10 3 11 93 12 4 13
REMARK SMILES IDX 5 14 6 15 7 17 8 18 13 19 9 20 10 21 12 22 14 23 11 24 22 25
REMARK SMILES IDX 23 26 24 27 25 28 26 30 27 31 28 32 92 33 29 34 91 35 30 36
REMARK SMILES IDX 31 37 32 38 85 39 33 40 90 41 84 42 86 43 34 44 89 45 83 46
REMARK SMILES IDX 82 47 35 49 69 50 48 51 68 52 49 53 52 54 67 55 87 56 50 57
REMARK SMILES IDX 51 58 66 60 88 61 53 62 36 63 37 64 46 65 38 66 39 67 45 68
REMARK SMILES IDX 47 69 40 70 41 71 42 72 43 73 44 74 70 75 71 76 80 77 72 78
REMARK SMILES IDX 73 79 79 80 81 81 74 82 75 83 76 84 77 85 78 86 54 87 55 88
REMARK SMILES IDX 64 89 56 90 57 91 63 92 65 93 58 94 59 95 60 96 61 97 62 98
REMARK H PARENT 19 6 6 16 24 29 86 48 52 59
REMARK Flexibility Score: inf
ROOT
ATOM      1  C   UNL A   1      32.154  28.271  27.575  1.00  0.00     0.023 C 
ENDROOT
BRANCH   1   2
ATOM      2  C   UNL A   1      31.665  27.439  26.379  1.00  0.00     0.116 C 
BRANCH   2   3
ATOM      3  N   UNL A   1      31.192  26.112  26.743  1.00  0.00    -0.356 N 
ATOM      4  C   UNL A   1      31.794  24.899  26.597  1.00  0.00     0.224 C 
ATOM      5  O   UNL A   1      31.174  23.885  26.929  1.00  0.00    -0.275 OA
ATOM      6  H   UNL A   1      30.300  26.087  27.159  1.00  0.00     0.163 HD
BRANCH   4   7
ATOM      7  C   UNL A   1      33.187  24.775  26.015  1.00  0.00     0.137 C 
BRANCH   7   8
ATOM      8  C   UNL A   1      33.209  24.350  24.564  1.00  0.00    -0.015 A 
ATOM      9  C   UNL A   1      31.944  25.905  21.309  1.00  0.00     0.044 C 
ATOM     10  C   UNL A   1      32.588  24.954  22.272  1.00  0.00    -0.051 A 
ATOM     11  C   UNL A   1      32.993  23.690  21.853  1.00  0.00     0.005 A 
ATOM     12  C   UNL A   1      32.734  25.288  23.619  1.00  0.00     0.009 A 
ATOM     13  C   UNL A   1      33.514  22.771  22.770  1.00  0.00     0.026 A 
ATOM     14  C   UNL A   1      33.615  23.063  24.141  1.00  0.00     0.042 A 
BRANCH  14  15
ATOM     15  N   UNL A   1      34.107  22.105  25.055  1.00  0.00    -0.352 N 
ATOM     16  H   UNL A   1      34.219  22.434  25.976  1.00  0.00     0.167 HD
BRANCH  15  17
ATOM     17  C   UNL A   1      34.464  20.750  24.861  1.00  0.00     0.088 A 
ATOM     18  C   UNL A   1      33.499  19.740  24.714  1.00  0.00     0.147 A 
ATOM     19  C   UNL A   1      35.813  20.342  24.882  1.00  0.00     0.040 A 
ATOM     20  F   UNL A   1      32.193  20.049  24.661  1.00  0.00    -0.205 F 
ATOM     21  C   UNL A   1      33.846  18.394  24.586  1.00  0.00     0.041 A 
ATOM     22  C   UNL A   1      36.168  18.990  24.756  1.00  0.00     0.017 A 
ATOM     23  I   UNL A   1      37.393  21.699  25.161  1.00  0.00    -0.042 I 
ATOM     24  C   UNL A   1      35.184  18.016  24.610  1.00  0.00     0.004 A 
ENDBRANCH  15  17
ENDBRANCH  14  15
ENDBRANCH   7   8
ENDBRANCH   4   7
ENDBRANCH   2   3
ENDBRANCH   1   2
BRANCH   1  25
ATOM     25  C   UNL A   1      32.838  29.595  27.229  1.00  0.00     0.023 C 
BRANCH  25  26
ATOM     26  C   UNL A   1      34.356  29.498  27.186  1.00  0.00     0.116 C 
BRANCH  26  27
ATOM     27  N   UNL A   1      35.040  30.759  27.417  1.00  0.00    -0.352 N 
ATOM     28  C   UNL A   1      36.293  30.949  27.989  1.00  0.00     0.251 C 
ATOM     29  H   UNL A   1      34.561  31.572  27.136  1.00  0.00     0.163 HD
ATOM     30  O   UNL A   1      36.688  32.032  28.345  1.00  0.00    -0.269 OA
BRANCH  28  31
ATOM     31  C   UNL A   1      37.181  29.762  28.031  1.00  0.00     0.039 A 
ATOM     32  C   UNL A   1      37.251  29.071  29.245  1.00  0.00     0.014 A 
ATOM     33  C   UNL A   1      38.114  29.543  27.021  1.00  0.00     0.014 A 
ATOM     34  C   UNL A   1      38.377  28.301  29.528  1.00  0.00     0.010 A 
ATOM     35  C   UNL A   1      39.264  28.844  27.333  1.00  0.00     0.010 A 
ATOM     36  C   UNL A   1      39.421  28.275  28.608  1.00  0.00    -0.014 A 
BRANCH  36  37
ATOM     37  C   UNL A   1      40.755  27.767  28.911  1.00  0.00     0.031 A 
ATOM     38  C   UNL A   1      41.086  26.350  28.649  1.00  0.00     0.074 A 
ATOM     39  C   UNL A   1      41.725  28.624  29.305  1.00  0.00     0.049 A 
ATOM     40  N   UNL A   1      42.206  25.800  28.973  1.00  0.00    -0.248 NA
ATOM     41  C   UNL A   1      40.138  25.408  28.054  1.00  0.00     0.031 C 
ATOM     42  C   UNL A   1      43.170  28.411  29.261  1.00  0.00     0.029 A 
ATOM     43  N   UNL A   1      41.571  29.781  30.074  1.00  0.00    -0.354 N 
ATOM     44  C   UNL A   1      42.250  24.568  28.373  1.00  0.00     0.074 A 
ATOM     45  C   UNL A   1      40.902  24.317  27.934  1.00  0.00     0.031 C 
ATOM     46  C   UNL A   1      43.756  29.213  30.160  1.00  0.00     0.029 A 
ATOM     47  C   UNL A   1      42.700  29.848  30.925  1.00  0.00     0.049 A 
ATOM     48  H   UNL A   1      40.826  30.423  30.031  1.00  0.00     0.167 HD
ATOM     49  C   UNL A   1      43.458  23.968  28.201  1.00  0.00     0.037 A 
ATOM     50  C   UNL A   1      42.547  29.733  32.279  1.00  0.00     0.037 A 
ATOM     51  C   UNL A   1      44.461  24.534  29.103  1.00  0.00     0.049 A 
ATOM     52  C   UNL A   1      43.177  28.494  32.889  1.00  0.00     0.074 A 
ATOM     53  C   UNL A   1      45.586  25.329  28.981  1.00  0.00     0.029 A 
ATOM     54  N   UNL A   1      44.200  24.460  30.462  1.00  0.00    -0.354 N 
ATOM     55  N   UNL A   1      43.873  27.608  32.229  1.00  0.00    -0.248 NA
ATOM     56  C   UNL A   1      43.004  28.123  34.296  1.00  0.00     0.031 C 
ATOM     57  C   UNL A   1      45.924  25.814  30.288  1.00  0.00     0.029 A 
ATOM     58  C   UNL A   1      45.031  25.276  31.200  1.00  0.00     0.049 A 
ATOM     59  H   UNL A   1      43.501  23.890  30.857  1.00  0.00     0.167 HD
ATOM     60  C   UNL A   1      44.162  26.550  33.053  1.00  0.00     0.074 A 
ATOM     61  C   UNL A   1      43.623  26.932  34.346  1.00  0.00     0.031 C 
ATOM     62  C   UNL A   1      44.773  25.407  32.626  1.00  0.00     0.037 A 
BRANCH  49  63
ATOM     63  C   UNL A   1      43.747  22.937  27.130  1.00  0.00     0.058 A 
ATOM     64  C   UNL A   1      43.094  21.688  27.139  1.00  0.00     0.135 A 
ATOM     65  C   UNL A   1      44.762  23.064  26.151  1.00  0.00     0.135 A 
ATOM     66  F   UNL A   1      42.137  21.416  28.040  1.00  0.00    -0.206 F 
ATOM     67  C   UNL A   1      43.422  20.652  26.253  1.00  0.00     0.059 A 
ATOM     68  C   UNL A   1      45.065  22.069  25.222  1.00  0.00     0.059 A 
ATOM     69  F   UNL A   1      45.569  24.130  26.090  1.00  0.00    -0.206 F 
ATOM     70  C   UNL A   1      44.412  20.852  25.298  1.00  0.00     0.060 A 
BRANCH  70  71
ATOM     71  S   UNL A   1      44.879  19.513  24.186  1.00  0.00     0.124 S 
ATOM     72  O   UNL A   1      44.085  18.405  24.706  1.00  0.00    -0.237 OA
ATOM     73  O   UNL A   1      44.480  20.030  22.882  1.00  0.00    -0.237 OA
ATOM     74  O   UNL A   1      46.322  19.394  24.388  1.00  0.00    -0.744 OA
ENDBRANCH  70  71
ENDBRANCH  49  63
BRANCH  50  75
ATOM     75  C   UNL A   1      41.322  30.429  32.763  1.00  0.00     0.058 A 
ATOM     76  C   UNL A   1      40.192  29.628  33.032  1.00  0.00     0.135 A 
ATOM     77  C   UNL A   1      41.388  31.686  33.377  1.00  0.00     0.135 A 
ATOM     78  F   UNL A   1      40.070  28.421  32.453  1.00  0.00    -0.206 F 
ATOM     79  C   UNL A   1      39.271  29.974  34.011  1.00  0.00     0.059 A 
ATOM     80  C   UNL A   1      40.463  32.060  34.353  1.00  0.00     0.059 A 
ATOM     81  F   UNL A   1      42.436  32.493  33.155  1.00  0.00    -0.206 F 
ATOM     82  C   UNL A   1      39.461  31.158  34.717  1.00  0.00     0.060 A 
BRANCH  82  83
ATOM     83  S   UNL A   1      38.510  31.389  36.238  1.00  0.00     0.124 S 
ATOM     84  O   UNL A   1      37.371  32.170  35.769  1.00  0.00    -0.237 OA
ATOM     85  O   UNL A   1      38.219  30.005  36.609  1.00  0.00    -0.237 OA
ATOM     86  O   UNL A   1      39.443  32.094  37.110  1.00  0.00    -0.744 OA
ENDBRANCH  82  83
ENDBRANCH  50  75
BRANCH  62  87
ATOM     87  C   UNL A   1      45.124  24.288  33.566  1.00  0.00     0.058 A 
ATOM     88  C   UNL A   1      46.458  23.980  33.881  1.00  0.00     0.135 A 
ATOM     89  C   UNL A   1      44.142  23.422  34.090  1.00  0.00     0.135 A 
ATOM     90  F   UNL A   1      47.464  24.728  33.396  1.00  0.00    -0.206 F 
ATOM     91  C   UNL A   1      46.799  22.900  34.694  1.00  0.00     0.059 A 
ATOM     92  C   UNL A   1      44.462  22.310  34.866  1.00  0.00     0.059 A 
ATOM     93  F   UNL A   1      42.836  23.649  33.889  1.00  0.00    -0.206 F 
ATOM     94  C   UNL A   1      45.793  22.067  35.181  1.00  0.00     0.060 A 
BRANCH  94  95
ATOM     95  S   UNL A   1      46.229  20.648  36.205  1.00  0.00     0.124 S 
ATOM     96  O   UNL A   1      47.686  20.724  36.259  1.00  0.00    -0.237 OA
ATOM     97  O   UNL A   1      45.536  20.965  37.449  1.00  0.00    -0.237 OA
ATOM     98  O   UNL A   1      45.695  19.516  35.453  1.00  0.00    -0.744 OA
ENDBRANCH  94  95
ENDBRANCH  62  87
ENDBRANCH  36  37
ENDBRANCH  28  31
ENDBRANCH  26  27
ENDBRANCH  25  26
ENDBRANCH   1  25
TORSDOF 17
ENDMDL
MODEL 2
REMARK VINA RESULT:     -13.5      5.314     11.595
REMARK SMILES Cc1ccc(Nc2c(F)cccc2I)c(CC(=O)NCCCCNC(=O)c2ccc(-c3c4nc(c(-c5c(F)cc(S(=O)(=O)[O-])cc5F)c5ccc([nH]5)c(-c5c(F)cc(S(=O)(=O)[O-])cc5F)c5nc(c(-c6c(F)cc(S(=O)(=O)[O-])cc6F)c6ccc3[nH]6)C=C5)C=C4)cc2)c1
REMARK SMILES IDX 21 1 20 2 19 3 17 4 18 5 16 7 15 8 1 9 2 10 3 11 93 12 4 13
REMARK SMILES IDX 5 14 6 15 7 17 8 18 13 19 9 20 10 21 12 22 14 23 11 24 22 25
REMARK SMILES IDX 23 26 24 27 25 28 26 30 27 31 28 32 92 33 29 34 91 35 30 36
REMARK SMILES IDX 31 37 32 38 85 39 33 40 90 41 84 42 86 43 34 44 89 45 83 46
REMARK SMILES IDX 82 47 35 49 69 50 48 51 68 52 49 53 52 54 67 55 87 56 50 57
REMARK SMILES IDX 51 58 66 60 88 61 53 62 36 63 37 64 46 65 38 66 39 67 45 68
REMARK SMILES IDX 47 69 40 70 41 71 42 72 43 73 44 74 70 75 71 76 80 77 72 78
REMARK SMILES IDX 73 79 79 80 81 81 74 82 75 83 76 84 77 85 78 86 54 87 55 88
REMARK SMILES IDX 64 89 56 90 57 91 63 92 65 93 58 94 59 95 60 96 61 97 62 98
REMARK H PARENT 19 6 6 16 24 29 86 48 52 59
REMARK Flexibility Score: inf
ROOT
ATOM      1  C   UNL A   1      35.565  24.110  25.790  1.00  0.00     0.023 C 
ENDROOT
BRANCH   1   2
ATOM      2  C   UNL A   1      34.555  23.624  24.739  1.00  0.00     0.116 C 
BRANCH   2   3
ATOM      3  N   UNL A   1      34.603  24.371  23.491  1.00  0.00    -0.356 N 
ATOM      4  C   UNL A   1      33.744  25.303  22.996  1.00  0.00     0.224 C 
ATOM      5  O   UNL A   1      33.956  25.770  21.873  1.00  0.00    -0.275 OA
ATOM      6  H   UNL A   1      35.376  24.169  22.915  1.00  0.00     0.163 HD
BRANCH   4   7
ATOM      7  C   UNL A   1      32.530  25.754  23.782  1.00  0.00     0.137 C 
BRANCH   7   8
ATOM      8  C   UNL A   1      32.631  27.167  24.311  1.00  0.00    -0.015 A 
ATOM      9  C   UNL A   1      34.842  28.892  26.909  1.00  0.00     0.044 C 
ATOM     10  C   UNL A   1      33.803  28.668  25.852  1.00  0.00    -0.051 A 
ATOM     11  C   UNL A   1      32.882  29.666  25.545  1.00  0.00     0.005 A 
ATOM     12  C   UNL A   1      33.692  27.437  25.204  1.00  0.00     0.009 A 
ATOM     13  C   UNL A   1      31.857  29.427  24.622  1.00  0.00     0.026 A 
ATOM     14  C   UNL A   1      31.691  28.177  24.002  1.00  0.00     0.042 A 
BRANCH  14  15
ATOM     15  N   UNL A   1      30.625  27.946  23.104  1.00  0.00    -0.352 N 
ATOM     16  H   UNL A   1      30.899  27.782  22.173  1.00  0.00     0.167 HD
BRANCH  15  17
ATOM     17  C   UNL A   1      29.228  27.912  23.327  1.00  0.00     0.088 A 
ATOM     18  C   UNL A   1      28.600  26.815  23.942  1.00  0.00     0.147 A 
ATOM     19  C   UNL A   1      28.392  28.950  22.872  1.00  0.00     0.040 A 
ATOM     20  F   UNL A   1      29.329  25.795  24.424  1.00  0.00    -0.205 F 
ATOM     21  C   UNL A   1      27.216  26.749  24.106  1.00  0.00     0.041 A 
ATOM     22  C   UNL A   1      26.999  28.888  23.033  1.00  0.00     0.017 A 
ATOM     23  I   UNL A   1      29.141  30.638  21.869  1.00  0.00    -0.042 I 
ATOM     24  C   UNL A   1      26.411  27.786  23.648  1.00  0.00     0.004 A 
ENDBRANCH  15  17
ENDBRANCH  14  15
ENDBRANCH   7   8
ENDBRANCH   4   7
ENDBRANCH   2   3
ENDBRANCH   1   2
BRANCH   1  25
ATOM     25  C   UNL A   1      36.712  23.148  26.103  1.00  0.00     0.023 C 
BRANCH  25  26
ATOM     26  C   UNL A   1      38.088  23.738  25.829  1.00  0.00     0.116 C 
BRANCH  26  27
ATOM     27  N   UNL A   1      39.127  23.272  26.734  1.00  0.00    -0.352 N 
ATOM     28  C   UNL A   1      39.959  24.046  27.534  1.00  0.00     0.251 C 
ATOM     29  H   UNL A   1      39.254  22.297  26.785  1.00  0.00     0.163 HD
ATOM     30  O   UNL A   1      40.936  23.596  28.082  1.00  0.00    -0.269 OA
BRANCH  28  31
ATOM     31  C   UNL A   1      39.518  25.439  27.785  1.00  0.00     0.039 A 
ATOM     32  C   UNL A   1      40.026  26.424  26.930  1.00  0.00     0.014 A 
ATOM     33  C   UNL A   1      38.890  25.776  28.981  1.00  0.00     0.014 A 
ATOM     34  C   UNL A   1      40.083  27.744  27.368  1.00  0.00     0.010 A 
ATOM     35  C   UNL A   1      39.018  27.071  29.445  1.00  0.00     0.010 A 
ATOM     36  C   UNL A   1      39.669  28.040  28.664  1.00  0.00    -0.014 A 
BRANCH  36  37
ATOM     37  C   UNL A   1      39.958  29.302  29.337  1.00  0.00     0.031 A 
ATOM     38  C   UNL A   1      39.006  30.430  29.239  1.00  0.00     0.074 A 
ATOM     39  C   UNL A   1      41.028  29.395  30.160  1.00  0.00     0.049 A 
ATOM     40  N   UNL A   1      39.227  31.604  29.723  1.00  0.00    -0.248 NA
ATOM     41  C   UNL A   1      37.739  30.341  28.514  1.00  0.00     0.031 C 
ATOM     42  C   UNL A   1      41.258  30.383  31.211  1.00  0.00     0.029 A 
ATOM     43  N   UNL A   1      42.257  28.741  30.026  1.00  0.00    -0.354 N 
ATOM     44  C   UNL A   1      38.052  32.307  29.655  1.00  0.00     0.074 A 
ATOM     45  C   UNL A   1      37.205  31.537  28.780  1.00  0.00     0.031 C 
ATOM     46  C   UNL A   1      42.575  30.470  31.445  1.00  0.00     0.029 A 
ATOM     47  C   UNL A   1      43.245  29.663  30.444  1.00  0.00     0.049 A 
ATOM     48  H   UNL A   1      42.404  27.822  29.706  1.00  0.00     0.167 HD
ATOM     49  C   UNL A   1      37.891  33.391  30.460  1.00  0.00     0.037 A 
ATOM     50  C   UNL A   1      44.161  30.142  29.548  1.00  0.00     0.037 A 
ATOM     51  C   UNL A   1      39.182  33.895  30.929  1.00  0.00     0.049 A 
ATOM     52  C   UNL A   1      44.056  31.629  29.263  1.00  0.00     0.074 A 
ATOM     53  C   UNL A   1      39.868  33.937  32.129  1.00  0.00     0.029 A 
ATOM     54  N   UNL A   1      40.097  34.282  29.962  1.00  0.00    -0.354 N 
ATOM     55  N   UNL A   1      43.218  32.444  29.844  1.00  0.00    -0.248 NA
ATOM     56  C   UNL A   1      44.854  32.300  28.233  1.00  0.00     0.031 C 
ATOM     57  C   UNL A   1      41.236  34.255  31.842  1.00  0.00     0.029 A 
ATOM     58  C   UNL A   1      41.365  34.445  30.477  1.00  0.00     0.049 A 
ATOM     59  H   UNL A   1      39.867  34.425  29.015  1.00  0.00     0.167 HD
ATOM     60  C   UNL A   1      43.290  33.675  29.247  1.00  0.00     0.074 A 
ATOM     61  C   UNL A   1      44.350  33.545  28.263  1.00  0.00     0.031 C 
ATOM     62  C   UNL A   1      42.453  34.710  29.547  1.00  0.00     0.037 A 
BRANCH  49  63
ATOM     63  C   UNL A   1      36.545  33.923  30.905  1.00  0.00     0.058 A 
ATOM     64  C   UNL A   1      35.614  34.405  29.963  1.00  0.00     0.135 A 
ATOM     65  C   UNL A   1      36.171  34.120  32.257  1.00  0.00     0.135 A 
ATOM     66  F   UNL A   1      35.859  34.319  28.646  1.00  0.00    -0.206 F 
ATOM     67  C   UNL A   1      34.415  35.029  30.331  1.00  0.00     0.059 A 
ATOM     68  C   UNL A   1      34.957  34.686  32.645  1.00  0.00     0.059 A 
ATOM     69  F   UNL A   1      36.994  33.846  33.276  1.00  0.00    -0.206 F 
ATOM     70  C   UNL A   1      34.095  35.167  31.677  1.00  0.00     0.060 A 
BRANCH  70  71
ATOM     71  S   UNL A   1      32.580  36.013  32.165  1.00  0.00     0.124 S 
ATOM     72  O   UNL A   1      31.777  34.909  32.679  1.00  0.00    -0.237 OA
ATOM     73  O   UNL A   1      33.057  36.972  33.154  1.00  0.00    -0.237 OA
ATOM     74  O   UNL A   1      32.104  36.600  30.914  1.00  0.00    -0.744 OA
ENDBRANCH  70  71
ENDBRANCH  49  63
BRANCH  50  75
ATOM     75  C   UNL A   1      44.610  29.090  28.593  1.00  0.00     0.058 A 
ATOM     76  C   UNL A   1      44.041  29.109  27.303  1.00  0.00     0.135 A 
ATOM     77  C   UNL A   1      45.835  28.431  28.753  1.00  0.00     0.135 A 
ATOM     78  F   UNL A   1      42.858  29.712  27.099  1.00  0.00    -0.206 F 
ATOM     79  C   UNL A   1      44.744  28.667  26.190  1.00  0.00     0.059 A 
ATOM     80  C   UNL A   1      46.551  27.963  27.650  1.00  0.00     0.059 A 
ATOM     81  F   UNL A   1      46.421  28.375  29.958  1.00  0.00    -0.206 F 
ATOM     82  C   UNL A   1      46.029  28.164  26.370  1.00  0.00     0.060 A 
BRANCH  82  83
ATOM     83  S   UNL A   1      47.070  27.982  24.903  1.00  0.00     0.124 S 
ATOM     84  O   UNL A   1      46.769  26.617  24.485  1.00  0.00    -0.237 OA
ATOM     85  O   UNL A   1      46.542  29.038  24.041  1.00  0.00    -0.237 OA
ATOM     86  O   UNL A   1      48.416  28.201  25.419  1.00  0.00    -0.744 OA
ENDBRANCH  82  83
ENDBRANCH  50  75
BRANCH  62  87
ATOM     87  C   UNL A   1      42.594  36.065  28.910  1.00  0.00     0.058 A 
ATOM     88  C   UNL A   1      43.229  37.128  29.573  1.00  0.00     0.135 A 
ATOM     89  C   UNL A   1      42.000  36.368  27.668  1.00  0.00     0.135 A 
ATOM     90  F   UNL A   1      43.791  36.943  30.780  1.00  0.00    -0.206 F 
ATOM     91  C   UNL A   1      43.302  38.408  29.024  1.00  0.00     0.059 A 
ATOM     92  C   UNL A   1      42.020  37.649  27.121  1.00  0.00     0.059 A 
ATOM     93  F   UNL A   1      41.408  35.417  26.930  1.00  0.00    -0.206 F 
ATOM     94  C   UNL A   1      42.692  38.660  27.797  1.00  0.00     0.060 A 
BRANCH  94  95
ATOM     95  S   UNL A   1      42.753  40.321  27.096  1.00  0.00     0.124 S 
ATOM     96  O   UNL A   1      43.335  40.094  25.776  1.00  0.00    -0.237 OA
ATOM     97  O   UNL A   1      41.342  40.692  27.106  1.00  0.00    -0.237 OA
ATOM     98  O   UNL A   1      43.606  41.048  28.032  1.00  0.00    -0.744 OA
ENDBRANCH  94  95
ENDBRANCH  62  87
ENDBRANCH  36  37
ENDBRANCH  28  31
ENDBRANCH  26  27
ENDBRANCH  25  26
ENDBRANCH   1  25
TORSDOF 17
ENDMDL
MODEL 3
REMARK VINA RESULT:     -13.5      4.917     11.301
REMARK SMILES Cc1ccc(Nc2c(F)cccc2I)c(CC(=O)NCCCCNC(=O)c2ccc(-c3c4nc(c(-c5c(F)cc(S(=O)(=O)[O-])cc5F)c5ccc([nH]5)c(-c5c(F)cc(S(=O)(=O)[O-])cc5F)c5nc(c(-c6c(F)cc(S(=O)(=O)[O-])cc6F)c6ccc3[nH]6)C=C5)C=C4)cc2)c1
REMARK SMILES IDX 21 1 20 2 19 3 17 4 18 5 16 7 15 8 1 9 2 10 3 11 93 12 4 13
REMARK SMILES IDX 5 14 6 15 7 17 8 18 13 19 9 20 10 21 12 22 14 23 11 24 22 25
REMARK SMILES IDX 23 26 24 27 25 28 26 30 27 31 28 32 92 33 29 34 91 35 30 36
REMARK SMILES IDX 31 37 32 38 85 39 33 40 90 41 84 42 86 43 34 44 89 45 83 46
REMARK SMILES IDX 82 47 35 49 69 50 48 51 68 52 49 53 52 54 67 55 87 56 50 57
REMARK SMILES IDX 51 58 66 60 88 61 53 62 36 63 37 64 46 65 38 66 39 67 45 68
REMARK SMILES IDX 47 69 40 70 41 71 42 72 43 73 44 74 70 75 71 76 80 77 72 78
REMARK SMILES IDX 73 79 79 80 81 81 74 82 75 83 76 84 77 85 78 86 54 87 55 88
REMARK SMILES IDX 64 89 56 90 57 91 63 92 65 93 58 94 59 95 60 96 61 97 62 98
REMARK H PARENT 19 6 6 16 24 29 86 48 52 59
REMARK Flexibility Score: inf
ROOT
ATOM      1  C   UNL A   1      36.885  23.235  23.811  1.00  0.00     0.023 C 
ENDROOT
BRANCH   1   2
ATOM      2  C   UNL A   1      35.350  23.297  23.862  1.00  0.00     0.116 C 
BRANCH   2   3
ATOM      3  N   UNL A   1      34.733  22.102  24.420  1.00  0.00    -0.356 N 
ATOM      4  C   UNL A   1      34.119  21.915  25.619  1.00  0.00     0.224 C 
ATOM      5  O   UNL A   1      33.715  20.785  25.910  1.00  0.00    -0.275 OA
ATOM      6  H   UNL A   1      34.767  21.307  23.839  1.00  0.00     0.163 HD
BRANCH   4   7
ATOM      7  C   UNL A   1      33.949  23.052  26.606  1.00  0.00     0.137 C 
BRANCH   7   8
ATOM      8  C   UNL A   1      32.578  23.689  26.577  1.00  0.00    -0.015 A 
ATOM      9  C   UNL A   1      29.033  22.423  27.248  1.00  0.00     0.044 C 
ATOM     10  C   UNL A   1      30.177  23.333  26.914  1.00  0.00    -0.051 A 
ATOM     11  C   UNL A   1      29.941  24.615  26.427  1.00  0.00     0.005 A 
ATOM     12  C   UNL A   1      31.497  22.893  27.021  1.00  0.00     0.009 A 
ATOM     13  C   UNL A   1      31.007  25.432  26.033  1.00  0.00     0.026 A 
ATOM     14  C   UNL A   1      32.339  24.989  26.075  1.00  0.00     0.042 A 
BRANCH  14  15
ATOM     15  N   UNL A   1      33.396  25.817  25.634  1.00  0.00    -0.352 N 
ATOM     16  H   UNL A   1      34.221  25.751  26.167  1.00  0.00     0.167 HD
BRANCH  15  17
ATOM     17  C   UNL A   1      33.460  26.725  24.551  1.00  0.00     0.088 A 
ATOM     18  C   UNL A   1      33.339  26.301  23.217  1.00  0.00     0.147 A 
ATOM     19  C   UNL A   1      33.724  28.093  24.762  1.00  0.00     0.040 A 
ATOM     20  F   UNL A   1      33.064  25.018  22.933  1.00  0.00    -0.205 F 
ATOM     21  C   UNL A   1      33.466  27.183  22.143  1.00  0.00     0.041 A 
ATOM     22  C   UNL A   1      33.854  28.985  23.686  1.00  0.00     0.017 A 
ATOM     23  I   UNL A   1      34.004  28.900  26.682  1.00  0.00    -0.042 I 
ATOM     24  C   UNL A   1      33.726  28.529  22.376  1.00  0.00     0.004 A 
ENDBRANCH  15  17
ENDBRANCH  14  15
ENDBRANCH   7   8
ENDBRANCH   4   7
ENDBRANCH   2   3
ENDBRANCH   1   2
BRANCH   1  25
ATOM     25  C   UNL A   1      37.564  22.582  25.016  1.00  0.00     0.023 C 
BRANCH  25  26
ATOM     26  C   UNL A   1      37.935  23.572  26.111  1.00  0.00     0.116 C 
BRANCH  26  27
ATOM     27  N   UNL A   1      39.099  23.188  26.892  1.00  0.00    -0.352 N 
ATOM     28  C   UNL A   1      40.011  24.029  27.518  1.00  0.00     0.251 C 
ATOM     29  H   UNL A   1      39.260  22.221  26.987  1.00  0.00     0.163 HD
ATOM     30  O   UNL A   1      41.065  23.636  27.955  1.00  0.00    -0.269 OA
BRANCH  28  31
ATOM     31  C   UNL A   1      39.568  25.428  27.738  1.00  0.00     0.039 A 
ATOM     32  C   UNL A   1      40.105  26.398  26.885  1.00  0.00     0.014 A 
ATOM     33  C   UNL A   1      38.909  25.783  28.911  1.00  0.00     0.014 A 
ATOM     34  C   UNL A   1      40.155  27.724  27.307  1.00  0.00     0.010 A 
ATOM     35  C   UNL A   1      39.029  27.084  29.362  1.00  0.00     0.010 A 
ATOM     36  C   UNL A   1      39.706  28.040  28.586  1.00  0.00    -0.014 A 
BRANCH  36  37
ATOM     37  C   UNL A   1      39.981  29.310  29.250  1.00  0.00     0.031 A 
ATOM     38  C   UNL A   1      39.003  30.416  29.170  1.00  0.00     0.074 A 
ATOM     39  C   UNL A   1      41.067  29.428  30.050  1.00  0.00     0.049 A 
ATOM     40  N   UNL A   1      39.208  31.596  29.647  1.00  0.00    -0.248 NA
ATOM     41  C   UNL A   1      37.723  30.296  28.473  1.00  0.00     0.031 C 
ATOM     42  C   UNL A   1      41.298  30.424  31.093  1.00  0.00     0.029 A 
ATOM     43  N   UNL A   1      42.307  28.801  29.890  1.00  0.00    -0.354 N 
ATOM     44  C   UNL A   1      38.017  32.272  29.602  1.00  0.00     0.074 A 
ATOM     45  C   UNL A   1      37.169  31.482  28.748  1.00  0.00     0.031 C 
ATOM     46  C   UNL A   1      42.617  30.540  31.299  1.00  0.00     0.029 A 
ATOM     47  C   UNL A   1      43.283  29.745  30.285  1.00  0.00     0.049 A 
ATOM     48  H   UNL A   1      42.468  27.885  29.569  1.00  0.00     0.167 HD
ATOM     49  C   UNL A   1      37.849  33.355  30.409  1.00  0.00     0.037 A 
ATOM     50  C   UNL A   1      44.169  30.242  29.369  1.00  0.00     0.037 A 
ATOM     51  C   UNL A   1      39.139  33.888  30.848  1.00  0.00     0.049 A 
ATOM     52  C   UNL A   1      44.024  31.726  29.082  1.00  0.00     0.074 A 
ATOM     53  C   UNL A   1      39.849  33.949  32.034  1.00  0.00     0.029 A 
ATOM     54  N   UNL A   1      40.024  34.293  29.861  1.00  0.00    -0.354 N 
ATOM     55  N   UNL A   1      43.181  32.524  29.680  1.00  0.00    -0.248 NA
ATOM     56  C   UNL A   1      44.785  32.412  28.034  1.00  0.00     0.031 C 
ATOM     57  C   UNL A   1      41.204  34.296  31.716  1.00  0.00     0.029 A 
ATOM     58  C   UNL A   1      41.299  34.485  30.348  1.00  0.00     0.049 A 
ATOM     59  H   UNL A   1      39.770  34.428  28.919  1.00  0.00     0.167 HD
ATOM     60  C   UNL A   1      43.214  33.755  29.078  1.00  0.00     0.074 A 
ATOM     61  C   UNL A   1      44.255  33.646  28.072  1.00  0.00     0.031 C 
ATOM     62  C   UNL A   1      42.360  34.772  29.394  1.00  0.00     0.037 A 
BRANCH  49  63
ATOM     63  C   UNL A   1      36.502  33.858  30.882  1.00  0.00     0.058 A 
ATOM     64  C   UNL A   1      35.576  34.402  29.969  1.00  0.00     0.135 A 
ATOM     65  C   UNL A   1      36.122  33.966  32.242  1.00  0.00     0.135 A 
ATOM     66  F   UNL A   1      35.826  34.403  28.651  1.00  0.00    -0.206 F 
ATOM     67  C   UNL A   1      34.375  35.002  30.372  1.00  0.00     0.059 A 
ATOM     68  C   UNL A   1      34.907  34.507  32.661  1.00  0.00     0.059 A 
ATOM     69  F   UNL A   1      36.940  33.624  33.244  1.00  0.00    -0.206 F 
ATOM     70  C   UNL A   1      34.050  35.051  31.722  1.00  0.00     0.060 A 
BRANCH  70  71
ATOM     71  S   UNL A   1      32.534  35.865  32.258  1.00  0.00     0.124 S 
ATOM     72  O   UNL A   1      31.760  34.741  32.773  1.00  0.00    -0.237 OA
ATOM     73  O   UNL A   1      33.018  36.817  33.250  1.00  0.00    -0.237 OA
ATOM     74  O   UNL A   1      32.018  36.463  31.027  1.00  0.00    -0.744 OA
ENDBRANCH  70  71
ENDBRANCH  49  63
BRANCH  50  75
ATOM     75  C   UNL A   1      44.620  29.199  28.406  1.00  0.00     0.058 A 
ATOM     76  C   UNL A   1      45.581  28.274  28.865  1.00  0.00     0.135 A 
ATOM     77  C   UNL A   1      43.836  28.829  27.306  1.00  0.00     0.135 A 
ATOM     78  F   UNL A   1      46.373  28.587  29.905  1.00  0.00    -0.206 F 
ATOM     79  C   UNL A   1      45.629  26.973  28.382  1.00  0.00     0.059 A 
ATOM     80  C   UNL A   1      43.880  27.531  26.794  1.00  0.00     0.059 A 
ATOM     81  F   UNL A   1      42.910  29.670  26.822  1.00  0.00    -0.206 F 
ATOM     82  C   UNL A   1      44.721  26.594  27.398  1.00  0.00     0.060 A 
BRANCH  82  83
ATOM     83  S   UNL A   1      44.521  24.825  27.081  1.00  0.00     0.124 S 
ATOM     84  O   UNL A   1      44.174  24.316  28.403  1.00  0.00    -0.237 OA
ATOM     85  O   UNL A   1      43.437  24.828  26.099  1.00  0.00    -0.237 OA
ATOM     86  O   UNL A   1      45.830  24.427  26.575  1.00  0.00    -0.744 OA
ENDBRANCH  82  83
ENDBRANCH  50  75
BRANCH  62  87
ATOM     87  C   UNL A   1      42.457  36.127  28.752  1.00  0.00     0.058 A 
ATOM     88  C   UNL A   1      41.911  36.382  27.482  1.00  0.00     0.135 A 
ATOM     89  C   UNL A   1      43.194  37.177  29.337  1.00  0.00     0.135 A 
ATOM     90  F   UNL A   1      41.224  35.429  26.831  1.00  0.00    -0.206 F 
ATOM     91  C   UNL A   1      42.057  37.614  26.844  1.00  0.00     0.059 A 
ATOM     92  C   UNL A   1      43.393  38.399  28.699  1.00  0.00     0.059 A 
ATOM     93  F   UNL A   1      43.719  37.056  30.565  1.00  0.00    -0.206 F 
ATOM     94  C   UNL A   1      42.802  38.618  27.460  1.00  0.00     0.060 A 
BRANCH  94  95
ATOM     95  S   UNL A   1      43.024  40.201  26.627  1.00  0.00     0.124 S 
ATOM     96  O   UNL A   1      41.745  40.393  25.950  1.00  0.00    -0.237 OA
ATOM     97  O   UNL A   1      43.278  41.090  27.756  1.00  0.00    -0.237 OA
ATOM     98  O   UNL A   1      44.161  39.959  25.744  1.00  0.00    -0.744 OA
ENDBRANCH  94  95
ENDBRANCH  62  87
ENDBRANCH  36  37
ENDBRANCH  28  31
ENDBRANCH  26  27
ENDBRANCH  25  26
ENDBRANCH   1  25
TORSDOF 17
ENDMDL
