MODEL 1
REMARK VINA RESULT:     -10.2      0.000      0.000
REMARK SMILES Cc1ccc2nc(Cl)c([C@@H]3CC(c4cccs4)=NN3C(=O)CCCC(=O)NCCCCNC(=O)c3ccc(-c4c5nc(c(-c6c(F)cc(S(=O)(=O)[O-])cc6F)c6ccc([nH]6)c(-c6c(F)cc(S(=O)(=O)[O-])cc6F)c6nc(c(-c7c(F)cc(S(=O)(=O)[O-])cc7F)c7ccc4[nH]7)C=C6)C=C5)cc3)cc2c1
REMARK SMILES IDX 28 1 27 2 25 3 26 4 24 6 23 7 22 8 20 9 21 10 19 11 10 12
REMARK SMILES IDX 11 13 12 14 18 15 9 16 1 17 2 18 3 19 103 20 4 21 102 22
REMARK SMILES IDX 5 23 101 24 6 25 7 26 8 27 13 28 14 29 17 30 15 31 16 32
REMARK SMILES IDX 29 33 30 34 31 35 32 36 33 37 34 39 35 40 36 41 100 42 37 43
REMARK SMILES IDX 99 44 38 45 39 46 40 47 93 48 41 49 98 50 92 51 94 52 42 53
REMARK SMILES IDX 97 54 91 55 90 56 43 58 77 59 56 60 76 61 57 62 60 63 75 64
REMARK SMILES IDX 95 65 58 66 59 67 74 69 96 70 61 71 44 72 45 73 54 74 46 75
REMARK SMILES IDX 47 76 53 77 55 78 48 79 49 80 50 81 51 82 52 83 78 84 79 85
REMARK SMILES IDX 88 86 80 87 81 88 87 89 89 90 82 91 83 92 84 93 85 94 86 95
REMARK SMILES IDX 62 96 63 97 72 98 64 99 65 100 71 101 73 102 66 103 67 104
REMARK SMILES IDX 68 105 69 106 70 107
REMARK H PARENT 27 5 32 38 94 57 60 68
REMARK Flexibility Score: inf
ROOT
ATOM      1  C   UNL A   1      44.767  24.251  30.736  1.00  0.00     0.116 C 
ENDROOT
BRANCH   1   2
ATOM      2  N   UNL A   1      44.994  24.934  31.996  1.00  0.00    -0.356 N 
ATOM      3  C   UNL A   1      45.546  24.559  33.174  1.00  0.00     0.220 C 
ATOM      4  O   UNL A   1      46.040  25.462  33.861  1.00  0.00    -0.275 OA
ATOM      5  H   UNL A   1      44.679  25.867  31.996  1.00  0.00     0.163 HD
BRANCH   3   6
ATOM      6  C   UNL A   1      45.690  23.130  33.657  1.00  0.00     0.100 C 
BRANCH   6   7
ATOM      7  C   UNL A   1      44.720  22.570  34.669  1.00  0.00     0.020 C 
BRANCH   7   8
ATOM      8  C   UNL A   1      44.719  23.156  36.068  1.00  0.00     0.103 C 
BRANCH   8   9
ATOM      9  C   UNL A   1      45.711  22.688  37.135  1.00  0.00     0.243 C 
ATOM     10  O   UNL A   1      45.714  23.387  38.166  1.00  0.00    -0.273 OA
BRANCH   9  11
ATOM     11  N   UNL A   1      46.454  21.493  37.091  1.00  0.00    -0.225 N 
ATOM     12  C   UNL A   1      46.088  20.086  36.666  1.00  0.00     0.150 C 
ATOM     13  C   UNL A   1      47.064  19.783  35.523  1.00  0.00     0.092 C 
ATOM     14  C   UNL A   1      48.064  20.868  35.747  1.00  0.00     0.081 C 
ATOM     15  N   UNL A   1      47.748  21.749  36.639  1.00  0.00    -0.173 NA
BRANCH  12  16
ATOM     16  C   UNL A   1      46.106  18.988  37.736  1.00  0.00     0.015 A 
ATOM     17  C   UNL A   1      42.024  15.350  40.628  1.00  0.00     0.044 C 
ATOM     18  C   UNL A   1      43.397  15.887  40.333  1.00  0.00    -0.050 A 
ATOM     19  C   UNL A   1      44.381  15.904  41.322  1.00  0.00     0.005 A 
ATOM     20  C   UNL A   1      43.683  16.459  39.085  1.00  0.00     0.013 A 
ATOM     21  C   UNL A   1      45.611  16.519  41.074  1.00  0.00     0.029 A 
ATOM     22  C   UNL A   1      44.887  17.165  38.871  1.00  0.00     0.001 A 
ATOM     23  C   UNL A   1      45.862  17.187  39.881  1.00  0.00     0.072 A 
ATOM     24  C   UNL A   1      45.079  18.016  37.756  1.00  0.00     0.019 A 
ATOM     25  N   UNL A   1      46.957  17.947  39.775  1.00  0.00    -0.236 NA
ATOM     26  C   UNL A   1      47.049  18.836  38.751  1.00  0.00     0.135 A 
ATOM     27  Cl  UNL A   1      48.468  19.780  38.928  1.00  0.00    -0.062 Cl
ENDBRANCH  12  16
BRANCH  14  28
ATOM     28  C   UNL A   1      49.237  21.011  34.936  1.00  0.00     0.050 A 
ATOM     29  C   UNL A   1      49.468  21.936  33.938  1.00  0.00     0.022 A 
ATOM     30  S   UNL A   1      50.605  20.035  35.233  1.00  0.00    -0.142 S 
ATOM     31  C   UNL A   1      50.805  21.868  33.448  1.00  0.00     0.012 A 
ATOM     32  C   UNL A   1      51.526  20.865  34.055  1.00  0.00     0.065 A 
ENDBRANCH  14  28
ENDBRANCH   9  11
ENDBRANCH   8   9
ENDBRANCH   7   8
ENDBRANCH   6   7
ENDBRANCH   3   6
ENDBRANCH   1   2
BRANCH   1  33
ATOM     33  C   UNL A   1      44.789  25.171  29.516  1.00  0.00     0.023 C 
BRANCH  33  34
ATOM     34  C   UNL A   1      44.672  24.369  28.211  1.00  0.00     0.023 C 
BRANCH  34  35
ATOM     35  C   UNL A   1      45.047  25.151  26.951  1.00  0.00     0.116 C 
BRANCH  35  36
ATOM     36  N   UNL A   1      44.023  25.127  25.927  1.00  0.00    -0.352 N 
ATOM     37  C   UNL A   1      42.815  25.792  25.903  1.00  0.00     0.251 C 
ATOM     38  H   UNL A   1      44.214  24.561  25.145  1.00  0.00     0.163 HD
ATOM     39  O   UNL A   1      42.037  25.615  24.982  1.00  0.00    -0.269 OA
BRANCH  37  40
ATOM     40  C   UNL A   1      42.437  26.677  27.034  1.00  0.00     0.039 A 
ATOM     41  C   UNL A   1      41.528  26.183  27.973  1.00  0.00     0.014 A 
ATOM     42  C   UNL A   1      42.963  27.965  27.179  1.00  0.00     0.014 A 
ATOM     43  C   UNL A   1      41.183  26.958  29.084  1.00  0.00     0.010 A 
ATOM     44  C   UNL A   1      42.657  28.717  28.319  1.00  0.00     0.010 A 
ATOM     45  C   UNL A   1      41.762  28.222  29.283  1.00  0.00    -0.014 A 
BRANCH  45  46
ATOM     46  C   UNL A   1      41.421  29.018  30.494  1.00  0.00     0.031 A 
ATOM     47  C   UNL A   1      42.244  28.894  31.749  1.00  0.00     0.074 A 
ATOM     48  C   UNL A   1      40.365  29.858  30.470  1.00  0.00     0.049 A 
ATOM     49  N   UNL A   1      42.118  29.531  32.886  1.00  0.00    -0.248 NA
ATOM     50  C   UNL A   1      43.340  27.914  31.730  1.00  0.00     0.031 C 
ATOM     51  C   UNL A   1      39.462  30.047  29.333  1.00  0.00     0.029 A 
ATOM     52  N   UNL A   1      39.875  30.714  31.427  1.00  0.00    -0.354 N 
ATOM     53  C   UNL A   1      43.114  29.029  33.716  1.00  0.00     0.074 A 
ATOM     54  C   UNL A   1      43.802  27.998  32.970  1.00  0.00     0.031 C 
ATOM     55  C   UNL A   1      38.546  30.979  29.648  1.00  0.00     0.029 A 
ATOM     56  C   UNL A   1      38.778  31.436  31.016  1.00  0.00     0.049 A 
ATOM     57  H   UNL A   1      40.272  30.804  32.323  1.00  0.00     0.167 HD
ATOM     58  C   UNL A   1      43.442  29.406  34.976  1.00  0.00     0.037 A 
ATOM     59  C   UNL A   1      38.043  32.363  31.662  1.00  0.00     0.037 A 
ATOM     60  C   UNL A   1      42.769  30.446  35.713  1.00  0.00     0.049 A 
ATOM     61  C   UNL A   1      38.427  32.768  33.061  1.00  0.00     0.074 A 
ATOM     62  C   UNL A   1      43.061  30.932  36.976  1.00  0.00     0.029 A 
ATOM     63  N   UNL A   1      41.669  31.157  35.258  1.00  0.00    -0.354 N 
ATOM     64  N   UNL A   1      39.415  32.329  33.805  1.00  0.00    -0.248 NA
ATOM     65  C   UNL A   1      37.606  33.804  33.704  1.00  0.00     0.031 C 
ATOM     66  C   UNL A   1      42.112  31.907  37.303  1.00  0.00     0.029 A 
ATOM     67  C   UNL A   1      41.259  32.065  36.222  1.00  0.00     0.049 A 
ATOM     68  H   UNL A   1      41.242  31.036  34.380  1.00  0.00     0.167 HD
ATOM     69  C   UNL A   1      39.353  33.058  34.988  1.00  0.00     0.074 A 
ATOM     70  C   UNL A   1      38.237  33.971  34.859  1.00  0.00     0.031 C 
ATOM     71  C   UNL A   1      40.153  32.979  36.081  1.00  0.00     0.037 A 
BRANCH  58  72
ATOM     72  C   UNL A   1      44.586  28.690  35.642  1.00  0.00     0.058 A 
ATOM     73  C   UNL A   1      44.389  27.512  36.381  1.00  0.00     0.135 A 
ATOM     74  C   UNL A   1      45.900  29.166  35.509  1.00  0.00     0.135 A 
ATOM     75  F   UNL A   1      43.152  27.020  36.551  1.00  0.00    -0.206 F 
ATOM     76  C   UNL A   1      45.449  26.851  36.992  1.00  0.00     0.059 A 
ATOM     77  C   UNL A   1      46.980  28.505  36.087  1.00  0.00     0.059 A 
ATOM     78  F   UNL A   1      46.147  30.285  34.810  1.00  0.00    -0.206 F 
ATOM     79  C   UNL A   1      46.742  27.356  36.841  1.00  0.00     0.060 A 
BRANCH  79  80
ATOM     80  S   UNL A   1      48.107  26.484  37.637  1.00  0.00     0.124 S 
ATOM     81  O   UNL A   1      47.561  26.238  38.968  1.00  0.00    -0.237 OA
ATOM     82  O   UNL A   1      48.265  25.306  36.789  1.00  0.00    -0.237 OA
ATOM     83  O   UNL A   1      49.205  27.444  37.578  1.00  0.00    -0.744 OA
ENDBRANCH  79  80
ENDBRANCH  58  72
BRANCH  59  84
ATOM     84  C   UNL A   1      36.880  32.998  30.982  1.00  0.00     0.058 A 
ATOM     85  C   UNL A   1      37.062  34.016  30.033  1.00  0.00     0.135 A 
ATOM     86  C   UNL A   1      35.565  32.599  31.268  1.00  0.00     0.135 A 
ATOM     87  F   UNL A   1      38.299  34.438  29.732  1.00  0.00    -0.206 F 
ATOM     88  C   UNL A   1      35.983  34.627  29.404  1.00  0.00     0.059 A 
ATOM     89  C   UNL A   1      34.471  33.178  30.633  1.00  0.00     0.059 A 
ATOM     90  F   UNL A   1      35.337  31.620  32.157  1.00  0.00    -0.206 F 
ATOM     91  C   UNL A   1      34.689  34.199  29.710  1.00  0.00     0.060 A 
BRANCH  91  92
ATOM     92  S   UNL A   1      33.296  34.966  28.852  1.00  0.00     0.124 S 
ATOM     93  O   UNL A   1      32.439  35.349  29.968  1.00  0.00    -0.237 OA
ATOM     94  O   UNL A   1      33.941  36.061  28.135  1.00  0.00    -0.237 OA
ATOM     95  O   UNL A   1      32.790  33.887  28.008  1.00  0.00    -0.744 OA
ENDBRANCH  91  92
ENDBRANCH  59  84
BRANCH  71  96
ATOM     96  C   UNL A   1      39.881  33.933  37.213  1.00  0.00     0.058 A 
ATOM     97  C   UNL A   1      40.426  35.226  37.242  1.00  0.00     0.135 A 
ATOM     98  C   UNL A   1      39.023  33.560  38.261  1.00  0.00     0.135 A 
ATOM     99  F   UNL A   1      41.256  35.630  36.268  1.00  0.00    -0.206 F 
ATOM    100  C   UNL A   1      40.151  36.107  38.283  1.00  0.00     0.059 A 
ATOM    101  C   UNL A   1      38.712  34.435  39.298  1.00  0.00     0.059 A 
ATOM    102  F   UNL A   1      38.465  32.339  38.278  1.00  0.00    -0.206 F 
ATOM    103  C   UNL A   1      39.292  35.703  39.307  1.00  0.00     0.060 A 
BRANCH 103 104
ATOM    104  S   UNL A   1      38.921  36.864  40.639  1.00  0.00     0.124 S 
ATOM    105  O   UNL A   1      40.253  37.139  41.169  1.00  0.00    -0.237 OA
ATOM    106  O   UNL A   1      38.284  37.966  39.925  1.00  0.00    -0.237 OA
ATOM    107  O   UNL A   1      38.040  36.103  41.519  1.00  0.00    -0.744 OA
ENDBRANCH 103 104
ENDBRANCH  71  96
ENDBRANCH  45  46
ENDBRANCH  37  40
ENDBRANCH  35  36
ENDBRANCH  34  35
ENDBRANCH  33  34
ENDBRANCH   1  33
TORSDOF 20
ENDMDL
MODEL 2
REMARK VINA RESULT:      -9.9      1.150      3.991
REMARK SMILES Cc1ccc2nc(Cl)c([C@@H]3CC(c4cccs4)=NN3C(=O)CCCC(=O)NCCCCNC(=O)c3ccc(-c4c5nc(c(-c6c(F)cc(S(=O)(=O)[O-])cc6F)c6ccc([nH]6)c(-c6c(F)cc(S(=O)(=O)[O-])cc6F)c6nc(c(-c7c(F)cc(S(=O)(=O)[O-])cc7F)c7ccc4[nH]7)C=C6)C=C5)cc3)cc2c1
REMARK SMILES IDX 28 1 27 2 25 3 26 4 24 6 23 7 22 8 20 9 21 10 19 11 10 12
REMARK SMILES IDX 11 13 12 14 18 15 9 16 1 17 2 18 3 19 103 20 4 21 102 22
REMARK SMILES IDX 5 23 101 24 6 25 7 26 8 27 13 28 14 29 17 30 15 31 16 32
REMARK SMILES IDX 29 33 30 34 31 35 32 36 33 37 34 39 35 40 36 41 100 42 37 43
REMARK SMILES IDX 99 44 38 45 39 46 40 47 93 48 41 49 98 50 92 51 94 52 42 53
REMARK SMILES IDX 97 54 91 55 90 56 43 58 77 59 56 60 76 61 57 62 60 63 75 64
REMARK SMILES IDX 95 65 58 66 59 67 74 69 96 70 61 71 44 72 45 73 54 74 46 75
REMARK SMILES IDX 47 76 53 77 55 78 48 79 49 80 50 81 51 82 52 83 78 84 79 85
REMARK SMILES IDX 88 86 80 87 81 88 87 89 89 90 82 91 83 92 84 93 85 94 86 95
REMARK SMILES IDX 62 96 63 97 72 98 64 99 65 100 71 101 73 102 66 103 67 104
REMARK SMILES IDX 68 105 69 106 70 107
REMARK H PARENT 27 5 32 38 94 57 60 68
REMARK Flexibility Score: inf
ROOT
ATOM      1  C   UNL A   1      44.513  24.053  30.555  1.00  0.00     0.116 C 
ENDROOT
BRANCH   1   2
ATOM      2  N   UNL A   1      44.456  24.658  31.872  1.00  0.00    -0.356 N 
ATOM      3  C   UNL A   1      44.946  24.304  33.083  1.00  0.00     0.220 C 
ATOM      4  O   UNL A   1      45.162  25.227  33.879  1.00  0.00    -0.275 OA
ATOM      5  H   UNL A   1      43.953  25.505  31.889  1.00  0.00     0.163 HD
BRANCH   3   6
ATOM      6  C   UNL A   1      45.335  22.898  33.492  1.00  0.00     0.100 C 
BRANCH   6   7
ATOM      7  C   UNL A   1      44.563  22.183  34.575  1.00  0.00     0.020 C 
BRANCH   7   8
ATOM      8  C   UNL A   1      44.628  22.729  35.988  1.00  0.00     0.103 C 
BRANCH   8   9
ATOM      9  C   UNL A   1      45.757  22.341  36.947  1.00  0.00     0.243 C 
ATOM     10  O   UNL A   1      45.841  23.072  37.953  1.00  0.00    -0.273 OA
BRANCH   9  11
ATOM     11  N   UNL A   1      46.549  21.181  36.850  1.00  0.00    -0.225 N 
ATOM     12  C   UNL A   1      47.956  20.871  37.315  1.00  0.00     0.150 C 
ATOM     13  C   UNL A   1      47.773  19.686  38.270  1.00  0.00     0.092 C 
ATOM     14  C   UNL A   1      46.394  19.262  37.890  1.00  0.00     0.081 C 
ATOM     15  N   UNL A   1      45.768  20.048  37.076  1.00  0.00    -0.173 NA
BRANCH  12  16
ATOM     16  C   UNL A   1      49.016  20.583  36.246  1.00  0.00     0.015 A 
ATOM     17  C   UNL A   1      54.844  22.248  35.013  1.00  0.00     0.044 C 
ATOM     18  C   UNL A   1      53.555  21.519  34.756  1.00  0.00    -0.050 A 
ATOM     19  C   UNL A   1      53.156  21.219  33.453  1.00  0.00     0.005 A 
ATOM     20  C   UNL A   1      52.692  21.206  35.816  1.00  0.00     0.013 A 
ATOM     21  C   UNL A   1      51.900  20.654  33.219  1.00  0.00     0.029 A 
ATOM     22  C   UNL A   1      51.386  20.728  35.569  1.00  0.00     0.001 A 
ATOM     23  C   UNL A   1      50.994  20.445  34.252  1.00  0.00     0.072 A 
ATOM     24  C   UNL A   1      50.388  20.702  36.572  1.00  0.00     0.019 A 
ATOM     25  N   UNL A   1      49.731  20.116  33.958  1.00  0.00    -0.236 NA
ATOM     26  C   UNL A   1      48.779  20.217  34.922  1.00  0.00     0.135 A 
ATOM     27  Cl  UNL A   1      47.237  19.884  34.253  1.00  0.00    -0.062 Cl
ENDBRANCH  12  16
BRANCH  14  28
ATOM     28  C   UNL A   1      45.744  18.134  38.490  1.00  0.00     0.050 A 
ATOM     29  C   UNL A   1      44.670  17.418  38.001  1.00  0.00     0.022 A 
ATOM     30  S   UNL A   1      46.363  17.458  39.930  1.00  0.00    -0.142 S 
ATOM     31  C   UNL A   1      44.387  16.272  38.801  1.00  0.00     0.012 A 
ATOM     32  C   UNL A   1      45.223  16.184  39.891  1.00  0.00     0.065 A 
ENDBRANCH  14  28
ENDBRANCH   9  11
ENDBRANCH   8   9
ENDBRANCH   7   8
ENDBRANCH   6   7
ENDBRANCH   3   6
ENDBRANCH   1   2
BRANCH   1  33
ATOM     33  C   UNL A   1      44.796  25.042  29.425  1.00  0.00     0.023 C 
BRANCH  33  34
ATOM     34  C   UNL A   1      44.802  24.341  28.058  1.00  0.00     0.023 C 
BRANCH  34  35
ATOM     35  C   UNL A   1      45.184  25.245  26.884  1.00  0.00     0.116 C 
BRANCH  35  36
ATOM     36  N   UNL A   1      44.200  25.263  25.822  1.00  0.00    -0.352 N 
ATOM     37  C   UNL A   1      43.002  25.945  25.770  1.00  0.00     0.251 C 
ATOM     38  H   UNL A   1      44.414  24.715  25.033  1.00  0.00     0.163 HD
ATOM     39  O   UNL A   1      42.258  25.802  24.816  1.00  0.00    -0.269 OA
BRANCH  37  40
ATOM     40  C   UNL A   1      42.592  26.803  26.909  1.00  0.00     0.039 A 
ATOM     41  C   UNL A   1      41.682  26.276  27.830  1.00  0.00     0.014 A 
ATOM     42  C   UNL A   1      43.088  28.100  27.080  1.00  0.00     0.014 A 
ATOM     43  C   UNL A   1      41.308  27.027  28.948  1.00  0.00     0.010 A 
ATOM     44  C   UNL A   1      42.752  28.828  28.227  1.00  0.00     0.010 A 
ATOM     45  C   UNL A   1      41.857  28.300  29.173  1.00  0.00    -0.014 A 
BRANCH  45  46
ATOM     46  C   UNL A   1      41.485  29.070  30.392  1.00  0.00     0.031 A 
ATOM     47  C   UNL A   1      42.294  28.943  31.654  1.00  0.00     0.074 A 
ATOM     48  C   UNL A   1      40.412  29.889  30.366  1.00  0.00     0.049 A 
ATOM     49  N   UNL A   1      42.141  29.560  32.799  1.00  0.00    -0.248 NA
ATOM     50  C   UNL A   1      43.410  27.985  31.635  1.00  0.00     0.031 C 
ATOM     51  C   UNL A   1      39.520  30.077  29.221  1.00  0.00     0.029 A 
ATOM     52  N   UNL A   1      39.893  30.721  31.330  1.00  0.00    -0.354 N 
ATOM     53  C   UNL A   1      43.137  29.065  33.635  1.00  0.00     0.074 A 
ATOM     54  C   UNL A   1      43.855  28.059  32.882  1.00  0.00     0.031 C 
ATOM     55  C   UNL A   1      38.582  30.986  29.538  1.00  0.00     0.029 A 
ATOM     56  C   UNL A   1      38.787  31.427  30.916  1.00  0.00     0.049 A 
ATOM     57  H   UNL A   1      40.277  30.804  32.232  1.00  0.00     0.167 HD
ATOM     58  C   UNL A   1      43.441  29.429  34.905  1.00  0.00     0.037 A 
ATOM     59  C   UNL A   1      38.025  32.329  31.566  1.00  0.00     0.037 A 
ATOM     60  C   UNL A   1      42.738  30.444  35.648  1.00  0.00     0.049 A 
ATOM     61  C   UNL A   1      38.384  32.719  32.976  1.00  0.00     0.074 A 
ATOM     62  C   UNL A   1      43.005  30.916  36.922  1.00  0.00     0.029 A 
ATOM     63  N   UNL A   1      41.630  31.140  35.190  1.00  0.00    -0.354 N 
ATOM     64  N   UNL A   1      39.371  32.288  33.726  1.00  0.00    -0.248 NA
ATOM     65  C   UNL A   1      37.534  33.729  33.624  1.00  0.00     0.031 C 
ATOM     66  C   UNL A   1      42.032  31.867  37.251  1.00  0.00     0.029 A 
ATOM     67  C   UNL A   1      41.189  32.024  36.163  1.00  0.00     0.049 A 
ATOM     68  H   UNL A   1      41.217  31.024  34.305  1.00  0.00     0.167 HD
ATOM     69  C   UNL A   1      39.280  32.998  34.919  1.00  0.00     0.074 A 
ATOM     70  C   UNL A   1      38.147  33.891  34.789  1.00  0.00     0.031 C 
ATOM     71  C   UNL A   1      40.067  32.918  36.021  1.00  0.00     0.037 A 
BRANCH  58  72
ATOM     72  C   UNL A   1      44.591  28.726  35.574  1.00  0.00     0.058 A 
ATOM     73  C   UNL A   1      44.390  27.626  36.423  1.00  0.00     0.135 A 
ATOM     74  C   UNL A   1      45.913  29.133  35.334  1.00  0.00     0.135 A 
ATOM     75  F   UNL A   1      43.145  27.202  36.696  1.00  0.00    -0.206 F 
ATOM     76  C   UNL A   1      45.455  26.976  37.037  1.00  0.00     0.059 A 
ATOM     77  C   UNL A   1      46.996  28.479  35.916  1.00  0.00     0.059 A 
ATOM     78  F   UNL A   1      46.165  30.176  34.528  1.00  0.00    -0.206 F 
ATOM     79  C   UNL A   1      46.755  27.411  36.779  1.00  0.00     0.060 A 
BRANCH  79  80
ATOM     80  S   UNL A   1      48.128  26.555  37.581  1.00  0.00     0.124 S 
ATOM     81  O   UNL A   1      48.967  27.674  37.997  1.00  0.00    -0.237 OA
ATOM     82  O   UNL A   1      47.459  25.830  38.657  1.00  0.00    -0.237 OA
ATOM     83  O   UNL A   1      48.677  25.721  36.517  1.00  0.00    -0.744 OA
ENDBRANCH  79  80
ENDBRANCH  58  72
BRANCH  59  84
ATOM     84  C   UNL A   1      36.859  32.951  30.882  1.00  0.00     0.058 A 
ATOM     85  C   UNL A   1      35.545  32.567  31.192  1.00  0.00     0.135 A 
ATOM     86  C   UNL A   1      37.035  33.942  29.903  1.00  0.00     0.135 A 
ATOM     87  F   UNL A   1      35.326  31.617  32.114  1.00  0.00    -0.206 F 
ATOM     88  C   UNL A   1      34.449  33.129  30.547  1.00  0.00     0.059 A 
ATOM     89  C   UNL A   1      35.954  34.538  29.263  1.00  0.00     0.059 A 
ATOM     90  F   UNL A   1      38.270  34.356  29.580  1.00  0.00    -0.206 F 
ATOM     91  C   UNL A   1      34.664  34.117  29.584  1.00  0.00     0.060 A 
BRANCH  91  92
ATOM     92  S   UNL A   1      33.232  34.876  28.785  1.00  0.00     0.124 S 
ATOM     93  O   UNL A   1      33.829  36.057  28.173  1.00  0.00    -0.237 OA
ATOM     94  O   UNL A   1      32.801  33.828  27.865  1.00  0.00    -0.237 OA
ATOM     95  O   UNL A   1      32.325  35.131  29.901  1.00  0.00    -0.744 OA
ENDBRANCH  91  92
ENDBRANCH  59  84
BRANCH  71  96
ATOM     96  C   UNL A   1      39.762  33.848  37.163  1.00  0.00     0.058 A 
ATOM     97  C   UNL A   1      38.990  33.445  38.264  1.00  0.00     0.135 A 
ATOM     98  C   UNL A   1      40.290  35.151  37.176  1.00  0.00     0.135 A 
ATOM     99  F   UNL A   1      38.458  32.214  38.300  1.00  0.00    -0.206 F 
ATOM    100  C   UNL A   1      38.731  34.308  39.325  1.00  0.00     0.059 A 
ATOM    101  C   UNL A   1      40.067  36.020  38.239  1.00  0.00     0.059 A 
ATOM    102  F   UNL A   1      41.044  35.585  36.153  1.00  0.00    -0.206 F 
ATOM    103  C   UNL A   1      39.274  35.593  39.304  1.00  0.00     0.060 A 
BRANCH 103 104
ATOM    104  S   UNL A   1      38.954  36.694  40.699  1.00  0.00     0.124 S 
ATOM    105  O   UNL A   1      38.076  35.873  41.527  1.00  0.00    -0.237 OA
ATOM    106  O   UNL A   1      40.293  36.923  41.232  1.00  0.00    -0.237 OA
ATOM    107  O   UNL A   1      38.326  37.857  40.078  1.00  0.00    -0.744 OA
ENDBRANCH 103 104
ENDBRANCH  71  96
ENDBRANCH  45  46
ENDBRANCH  37  40
ENDBRANCH  35  36
ENDBRANCH  34  35
ENDBRANCH  33  34
ENDBRANCH   1  33
TORSDOF 20
ENDMDL
MODEL 3
REMARK VINA RESULT:      -9.5      4.137      6.406
REMARK SMILES Cc1ccc2nc(Cl)c([C@@H]3CC(c4cccs4)=NN3C(=O)CCCC(=O)NCCCCNC(=O)c3ccc(-c4c5nc(c(-c6c(F)cc(S(=O)(=O)[O-])cc6F)c6ccc([nH]6)c(-c6c(F)cc(S(=O)(=O)[O-])cc6F)c6nc(c(-c7c(F)cc(S(=O)(=O)[O-])cc7F)c7ccc4[nH]7)C=C6)C=C5)cc3)cc2c1
REMARK SMILES IDX 28 1 27 2 25 3 26 4 24 6 23 7 22 8 20 9 21 10 19 11 10 12
REMARK SMILES IDX 11 13 12 14 18 15 9 16 1 17 2 18 3 19 103 20 4 21 102 22
REMARK SMILES IDX 5 23 101 24 6 25 7 26 8 27 13 28 14 29 17 30 15 31 16 32
REMARK SMILES IDX 29 33 30 34 31 35 32 36 33 37 34 39 35 40 36 41 100 42 37 43
REMARK SMILES IDX 99 44 38 45 39 46 40 47 93 48 41 49 98 50 92 51 94 52 42 53
REMARK SMILES IDX 97 54 91 55 90 56 43 58 77 59 56 60 76 61 57 62 60 63 75 64
REMARK SMILES IDX 95 65 58 66 59 67 74 69 96 70 61 71 44 72 45 73 54 74 46 75
REMARK SMILES IDX 47 76 53 77 55 78 48 79 49 80 50 81 51 82 52 83 78 84 79 85
REMARK SMILES IDX 88 86 80 87 81 88 87 89 89 90 82 91 83 92 84 93 85 94 86 95
REMARK SMILES IDX 62 96 63 97 72 98 64 99 65 100 71 101 73 102 66 103 67 104
REMARK SMILES IDX 68 105 69 106 70 107
REMARK H PARENT 27 5 32 38 94 57 60 68
REMARK Flexibility Score: inf
ROOT
ATOM      1  C   UNL A   1      46.193  26.189  26.316  1.00  0.00     0.116 C 
ENDROOT
BRANCH   1   2
ATOM      2  N   UNL A   1      46.135  27.296  25.381  1.00  0.00    -0.356 N 
ATOM      3  C   UNL A   1      46.125  28.642  25.528  1.00  0.00     0.220 C 
ATOM      4  O   UNL A   1      46.565  29.302  24.578  1.00  0.00    -0.275 OA
ATOM      5  H   UNL A   1      46.095  27.009  24.439  1.00  0.00     0.163 HD
BRANCH   3   6
ATOM      6  C   UNL A   1      45.715  29.381  26.786  1.00  0.00     0.100 C 
BRANCH   6   7
ATOM      7  C   UNL A   1      44.347  30.012  26.882  1.00  0.00     0.020 C 
BRANCH   7   8
ATOM      8  C   UNL A   1      43.788  30.317  28.258  1.00  0.00     0.103 C 
BRANCH   8   9
ATOM      9  C   UNL A   1      44.635  31.001  29.334  1.00  0.00     0.243 C 
ATOM     10  O   UNL A   1      44.360  32.204  29.509  1.00  0.00    -0.273 OA
BRANCH   9  11
ATOM     11  N   UNL A   1      45.535  30.351  30.201  1.00  0.00    -0.225 N 
ATOM     12  C   UNL A   1      46.599  29.301  29.957  1.00  0.00     0.150 C 
ATOM     13  C   UNL A   1      47.892  29.974  30.430  1.00  0.00     0.092 C 
ATOM     14  C   UNL A   1      47.320  31.102  31.221  1.00  0.00     0.081 C 
ATOM     15  N   UNL A   1      46.039  31.256  31.135  1.00  0.00    -0.173 NA
BRANCH  12  16
ATOM     16  C   UNL A   1      46.404  27.923  30.601  1.00  0.00     0.015 A 
ATOM     17  C   UNL A   1      42.917  22.897  29.693  1.00  0.00     0.044 C 
ATOM     18  C   UNL A   1      43.955  23.721  30.401  1.00  0.00    -0.050 A 
ATOM     19  C   UNL A   1      44.176  23.563  31.769  1.00  0.00     0.005 A 
ATOM     20  C   UNL A   1      44.656  24.723  29.715  1.00  0.00     0.013 A 
ATOM     21  C   UNL A   1      45.053  24.419  32.439  1.00  0.00     0.029 A 
ATOM     22  C   UNL A   1      45.464  25.648  30.412  1.00  0.00     0.001 A 
ATOM     23  C   UNL A   1      45.665  25.485  31.791  1.00  0.00     0.072 A 
ATOM     24  C   UNL A   1      45.927  26.847  29.818  1.00  0.00     0.019 A 
ATOM     25  N   UNL A   1      46.313  26.406  32.513  1.00  0.00    -0.236 NA
ATOM     26  C   UNL A   1      46.637  27.593  31.935  1.00  0.00     0.135 A 
ATOM     27  Cl  UNL A   1      47.320  28.641  33.106  1.00  0.00    -0.062 Cl
ENDBRANCH  12  16
BRANCH  14  28
ATOM     28  C   UNL A   1      48.142  32.044  31.923  1.00  0.00     0.050 A 
ATOM     29  C   UNL A   1      49.487  31.943  32.211  1.00  0.00     0.022 A 
ATOM     30  S   UNL A   1      47.493  33.546  32.409  1.00  0.00    -0.142 S 
ATOM     31  C   UNL A   1      49.997  33.138  32.797  1.00  0.00     0.012 A 
ATOM     32  C   UNL A   1      49.013  34.085  32.976  1.00  0.00     0.065 A 
ENDBRANCH  14  28
ENDBRANCH   9  11
ENDBRANCH   8   9
ENDBRANCH   7   8
ENDBRANCH   6   7
ENDBRANCH   3   6
ENDBRANCH   1   2
BRANCH   1  33
ATOM     33  C   UNL A   1      44.981  25.260  26.258  1.00  0.00     0.023 C 
BRANCH  33  34
ATOM     34  C   UNL A   1      44.109  25.556  25.029  1.00  0.00     0.023 C 
BRANCH  34  35
ATOM     35  C   UNL A   1      42.645  25.867  25.351  1.00  0.00     0.116 C 
BRANCH  35  36
ATOM     36  N   UNL A   1      41.868  24.696  25.699  1.00  0.00    -0.352 N 
ATOM     37  C   UNL A   1      41.080  24.485  26.812  1.00  0.00     0.251 C 
ATOM     38  H   UNL A   1      41.907  23.950  25.057  1.00  0.00     0.163 HD
ATOM     39  O   UNL A   1      40.533  23.410  26.980  1.00  0.00    -0.269 OA
BRANCH  37  40
ATOM     40  C   UNL A   1      40.950  25.552  27.836  1.00  0.00     0.039 A 
ATOM     41  C   UNL A   1      39.720  25.687  28.485  1.00  0.00     0.014 A 
ATOM     42  C   UNL A   1      42.010  26.406  28.160  1.00  0.00     0.014 A 
ATOM     43  C   UNL A   1      39.566  26.642  29.495  1.00  0.00     0.010 A 
ATOM     44  C   UNL A   1      41.869  27.324  29.206  1.00  0.00     0.010 A 
ATOM     45  C   UNL A   1      40.644  27.453  29.884  1.00  0.00    -0.014 A 
BRANCH  45  46
ATOM     46  C   UNL A   1      40.480  28.435  30.992  1.00  0.00     0.031 A 
ATOM     47  C   UNL A   1      41.351  28.359  32.217  1.00  0.00     0.074 A 
ATOM     48  C   UNL A   1      39.542  29.401  30.899  1.00  0.00     0.049 A 
ATOM     49  N   UNL A   1      41.374  29.145  33.264  1.00  0.00    -0.248 NA
ATOM     50  C   UNL A   1      42.308  27.244  32.284  1.00  0.00     0.031 C 
ATOM     51  C   UNL A   1      38.607  29.566  29.785  1.00  0.00     0.029 A 
ATOM     52  N   UNL A   1      39.223  30.429  31.753  1.00  0.00    -0.354 N 
ATOM     53  C   UNL A   1      42.344  28.621  34.113  1.00  0.00     0.074 A 
ATOM     54  C   UNL A   1      42.848  27.420  33.483  1.00  0.00     0.031 C 
ATOM     55  C   UNL A   1      37.840  30.646  30.010  1.00  0.00     0.029 A 
ATOM     56  C   UNL A   1      38.207  31.236  31.294  1.00  0.00     0.049 A 
ATOM     57  H   UNL A   1      39.679  30.576  32.613  1.00  0.00     0.167 HD
ATOM     58  C   UNL A   1      42.789  29.106  35.297  1.00  0.00     0.037 A 
ATOM     59  C   UNL A   1      37.637  32.328  31.841  1.00  0.00     0.037 A 
ATOM     60  C   UNL A   1      42.301  30.313  35.916  1.00  0.00     0.049 A 
ATOM     61  C   UNL A   1      38.150  32.850  33.157  1.00  0.00     0.074 A 
ATOM     62  C   UNL A   1      42.726  30.910  37.091  1.00  0.00     0.029 A 
ATOM     63  N   UNL A   1      41.277  31.103  35.416  1.00  0.00    -0.354 N 
ATOM     64  N   UNL A   1      39.114  32.378  33.912  1.00  0.00    -0.248 NA
ATOM     65  C   UNL A   1      37.510  34.061  33.690  1.00  0.00     0.031 C 
ATOM     66  C   UNL A   1      41.932  32.038  37.323  1.00  0.00     0.029 A 
ATOM     67  C   UNL A   1      41.045  32.172  36.267  1.00  0.00     0.049 A 
ATOM     68  H   UNL A   1      40.789  30.932  34.580  1.00  0.00     0.167 HD
ATOM     69  C   UNL A   1      39.216  33.252  34.990  1.00  0.00     0.074 A 
ATOM     70  C   UNL A   1      38.222  34.285  34.786  1.00  0.00     0.031 C 
ATOM     71  C   UNL A   1      40.061  33.204  36.050  1.00  0.00     0.037 A 
BRANCH  58  72
ATOM     72  C   UNL A   1      43.867  28.331  36.005  1.00  0.00     0.058 A 
ATOM     73  C   UNL A   1      45.213  28.733  35.966  1.00  0.00     0.135 A 
ATOM     74  C   UNL A   1      43.548  27.192  36.763  1.00  0.00     0.135 A 
ATOM     75  F   UNL A   1      45.576  29.807  35.247  1.00  0.00    -0.206 F 
ATOM     76  C   UNL A   1      46.206  28.015  36.624  1.00  0.00     0.059 A 
ATOM     77  C   UNL A   1      44.522  26.476  37.452  1.00  0.00     0.059 A 
ATOM     78  F   UNL A   1      42.278  26.765  36.839  1.00  0.00    -0.206 F 
ATOM     79  C   UNL A   1      45.851  26.887  37.364  1.00  0.00     0.060 A 
BRANCH  79  80
ATOM     80  S   UNL A   1      47.152  25.969  38.215  1.00  0.00     0.124 S 
ATOM     81  O   UNL A   1      46.881  24.603  37.776  1.00  0.00    -0.237 OA
ATOM     82  O   UNL A   1      48.367  26.577  37.680  1.00  0.00    -0.237 OA
ATOM     83  O   UNL A   1      46.891  26.237  39.626  1.00  0.00    -0.744 OA
ENDBRANCH  79  80
ENDBRANCH  58  72
BRANCH  59  84
ATOM     84  C   UNL A   1      36.529  33.025  31.131  1.00  0.00     0.058 A 
ATOM     85  C   UNL A   1      35.207  32.945  31.593  1.00  0.00     0.135 A 
ATOM     86  C   UNL A   1      36.772  33.785  29.975  1.00  0.00     0.135 A 
ATOM     87  F   UNL A   1      34.923  32.224  32.689  1.00  0.00    -0.206 F 
ATOM     88  C   UNL A   1      34.162  33.578  30.928  1.00  0.00     0.059 A 
ATOM     89  C   UNL A   1      35.747  34.447  29.308  1.00  0.00     0.059 A 
ATOM     90  F   UNL A   1      38.020  33.906  29.500  1.00  0.00    -0.206 F 
ATOM     91  C   UNL A   1      34.443  34.329  29.786  1.00  0.00     0.060 A 
BRANCH  91  92
ATOM     92  S   UNL A   1      33.087  35.187  28.956  1.00  0.00     0.124 S 
ATOM     93  O   UNL A   1      32.655  34.186  27.988  1.00  0.00    -0.237 OA
ATOM     94  O   UNL A   1      32.168  35.449  30.059  1.00  0.00    -0.237 OA
ATOM     95  O   UNL A   1      33.735  36.370  28.395  1.00  0.00    -0.744 OA
ENDBRANCH  91  92
ENDBRANCH  59  84
BRANCH  71  96
ATOM     96  C   UNL A   1      39.980  34.320  37.056  1.00  0.00     0.058 A 
ATOM     97  C   UNL A   1      40.635  35.546  36.859  1.00  0.00     0.135 A 
ATOM     98  C   UNL A   1      39.196  34.176  38.213  1.00  0.00     0.135 A 
ATOM     99  F   UNL A   1      41.401  35.734  35.773  1.00  0.00    -0.206 F 
ATOM    100  C   UNL A   1      40.537  36.579  37.785  1.00  0.00     0.059 A 
ATOM    101  C   UNL A   1      39.061  35.206  39.139  1.00  0.00     0.059 A 
ATOM    102  F   UNL A   1      38.539  33.028  38.446  1.00  0.00    -0.206 F 
ATOM    103  C   UNL A   1      39.747  36.400  38.922  1.00  0.00     0.060 A 
BRANCH 103 104
ATOM    104  S   UNL A   1      39.606  37.759  40.104  1.00  0.00     0.124 S 
ATOM    105  O   UNL A   1      39.235  37.049  41.325  1.00  0.00    -0.237 OA
ATOM    106  O   UNL A   1      40.949  38.330  40.087  1.00  0.00    -0.237 OA
ATOM    107  O   UNL A   1      38.565  38.604  39.528  1.00  0.00    -0.744 OA
ENDBRANCH 103 104
ENDBRANCH  71  96
ENDBRANCH  45  46
ENDBRANCH  37  40
ENDBRANCH  35  36
ENDBRANCH  34  35
ENDBRANCH  33  34
ENDBRANCH   1  33
TORSDOF 20
ENDMDL
