MODEL 1
REMARK VINA RESULT:     -12.0      0.000      0.000
REMARK SMILES Cc1cc(Cl)cc2c1O[C@H](C(F)(F)F)C(C(=O)NCCCCNC(=O)c1ccc(-c3c4nc(c(-c5c(F)cc(S(=O)(=O)[O-])cc5F)c5ccc([nH]5)c(-c5c(F)cc(S(=O)(=O)[O-])cc5F)c5nc(c(-c6c(F)cc(S(=O)(=O)[O-])cc6F)c6ccc3[nH]6)C=C5)C=C4)cc1)=C2
REMARK SMILES IDX 21 1 20 2 19 3 18 4 16 5 17 6 15 8 1 9 2 10 3 11 8 12 4 13
REMARK SMILES IDX 7 14 9 15 5 16 6 17 92 18 10 19 11 20 12 21 13 22 14 23
REMARK SMILES IDX 22 24 23 25 24 26 25 28 26 29 27 30 91 31 28 32 90 33 29 34
REMARK SMILES IDX 30 35 31 36 84 37 32 38 89 39 83 40 85 41 33 42 88 43 82 44
REMARK SMILES IDX 81 45 34 47 68 48 47 49 67 50 48 51 51 52 66 53 86 54 49 55
REMARK SMILES IDX 50 56 65 58 87 59 52 60 35 61 36 62 45 63 37 64 38 65 44 66
REMARK SMILES IDX 46 67 39 68 40 69 41 70 42 71 43 72 69 73 70 74 79 75 71 76
REMARK SMILES IDX 72 77 78 78 80 79 73 80 74 81 75 82 76 83 77 84 53 85 54 86
REMARK SMILES IDX 63 87 55 88 56 89 62 90 64 91 57 92 58 93 59 94 60 95 61 96
REMARK H PARENT 18 7 23 27 85 46 51 57
REMARK Flexibility Score: inf
ROOT
ATOM      1  C   UNL A   1      33.917  28.505  25.645  1.00  0.00     0.023 C 
ENDROOT
BRANCH   1   2
ATOM      2  C   UNL A   1      32.684  28.856  24.808  1.00  0.00     0.023 C 
BRANCH   2   3
ATOM      3  C   UNL A   1      31.950  27.645  24.242  1.00  0.00     0.116 C 
BRANCH   3   4
ATOM      4  N   UNL A   1      31.082  27.025  25.227  1.00  0.00    -0.352 N 
ATOM      5  C   UNL A   1      30.978  25.820  25.831  1.00  0.00     0.251 C 
ATOM      6  O   UNL A   1      30.050  25.713  26.639  1.00  0.00    -0.270 OA
ATOM      7  H   UNL A   1      30.383  27.647  25.534  1.00  0.00     0.163 HD
BRANCH   5   8
ATOM      8  C   UNL A   1      31.883  24.656  25.596  1.00  0.00     0.067 C 
ATOM      9  C   UNL A   1      34.055  20.034  24.841  1.00  0.00     0.048 C 
ATOM     10  C   UNL A   1      34.537  21.412  25.192  1.00  0.00    -0.007 A 
ATOM     11  C   UNL A   1      35.909  21.636  25.373  1.00  0.00     0.027 A 
ATOM     12  C   UNL A   1      33.651  22.480  25.390  1.00  0.00     0.131 A 
ATOM     13  C   UNL A   1      36.376  22.901  25.731  1.00  0.00     0.042 A 
ATOM     14  C   UNL A   1      34.118  23.748  25.754  1.00  0.00     0.019 A 
ATOM     15  O   UNL A   1      32.312  22.227  25.262  1.00  0.00    -0.475 OA
ATOM     16  Cl  UNL A   1      38.064  23.154  25.947  1.00  0.00    -0.084 Cl
ATOM     17  C   UNL A   1      35.488  23.958  25.924  1.00  0.00     0.032 A 
ATOM     18  C   UNL A   1      33.161  24.825  25.983  1.00  0.00     0.025 C 
ATOM     19  C   UNL A   1      31.470  23.370  24.938  1.00  0.00     0.314 C 
BRANCH  19  20
ATOM     20  C   UNL A   1      31.349  23.497  23.407  1.00  0.00     0.429 C 
ATOM     21  F   UNL A   1      32.188  24.458  22.944  1.00  0.00    -0.167 F 
ATOM     22  F   UNL A   1      31.681  22.353  22.763  1.00  0.00    -0.167 F 
ATOM     23  F   UNL A   1      30.099  23.824  23.007  1.00  0.00    -0.167 F 
ENDBRANCH  19  20
ENDBRANCH   5   8
ENDBRANCH   3   4
ENDBRANCH   2   3
ENDBRANCH   1   2
BRANCH   1  24
ATOM     24  C   UNL A   1      33.722  28.563  27.158  1.00  0.00     0.116 C 
BRANCH  24  25
ATOM     25  N   UNL A   1      33.629  29.917  27.689  1.00  0.00    -0.352 N 
ATOM     26  C   UNL A   1      34.619  30.654  28.297  1.00  0.00     0.251 C 
ATOM     27  H   UNL A   1      32.753  30.357  27.602  1.00  0.00     0.163 HD
ATOM     28  O   UNL A   1      34.380  31.763  28.760  1.00  0.00    -0.269 OA
BRANCH  26  29
ATOM     29  C   UNL A   1      35.960  30.055  28.421  1.00  0.00     0.039 A 
ATOM     30  C   UNL A   1      36.836  30.141  27.337  1.00  0.00     0.014 A 
ATOM     31  C   UNL A   1      36.373  29.505  29.638  1.00  0.00     0.014 A 
ATOM     32  C   UNL A   1      38.160  29.738  27.500  1.00  0.00     0.010 A 
ATOM     33  C   UNL A   1      37.708  29.162  29.814  1.00  0.00     0.010 A 
ATOM     34  C   UNL A   1      38.614  29.283  28.749  1.00  0.00    -0.014 A 
BRANCH  34  35
ATOM     35  C   UNL A   1      40.039  28.931  28.955  1.00  0.00     0.031 A 
ATOM     36  C   UNL A   1      40.979  29.936  29.551  1.00  0.00     0.074 A 
ATOM     37  C   UNL A   1      40.487  27.720  28.569  1.00  0.00     0.049 A 
ATOM     38  N   UNL A   1      42.256  29.819  29.803  1.00  0.00    -0.248 NA
ATOM     39  C   UNL A   1      40.417  31.256  29.886  1.00  0.00     0.031 C 
ATOM     40  C   UNL A   1      39.676  26.681  27.929  1.00  0.00     0.029 A 
ATOM     41  N   UNL A   1      41.734  27.155  28.661  1.00  0.00    -0.354 N 
ATOM     42  C   UNL A   1      42.650  31.045  30.324  1.00  0.00     0.074 A 
ATOM     43  C   UNL A   1      41.494  31.912  30.295  1.00  0.00     0.031 C 
ATOM     44  C   UNL A   1      40.437  25.593  27.723  1.00  0.00     0.029 A 
ATOM     45  C   UNL A   1      41.792  25.864  28.193  1.00  0.00     0.049 A 
ATOM     46  H   UNL A   1      42.513  27.630  29.029  1.00  0.00     0.167 HD
ATOM     47  C   UNL A   1      43.859  31.403  30.815  1.00  0.00     0.037 A 
ATOM     48  C   UNL A   1      42.820  24.994  28.158  1.00  0.00     0.037 A 
ATOM     49  C   UNL A   1      44.996  30.526  30.876  1.00  0.00     0.049 A 
ATOM     50  C   UNL A   1      44.156  25.417  28.704  1.00  0.00     0.074 A 
ATOM     51  C   UNL A   1      46.244  30.772  31.416  1.00  0.00     0.029 A 
ATOM     52  N   UNL A   1      45.018  29.231  30.379  1.00  0.00    -0.354 N 
ATOM     53  N   UNL A   1      44.494  26.558  29.254  1.00  0.00    -0.248 NA
ATOM     54  C   UNL A   1      45.250  24.440  28.622  1.00  0.00     0.031 C 
ATOM     55  C   UNL A   1      47.033  29.633  31.223  1.00  0.00     0.029 A 
ATOM     56  C   UNL A   1      46.266  28.670  30.584  1.00  0.00     0.049 A 
ATOM     57  H   UNL A   1      44.259  28.778  29.946  1.00  0.00     0.167 HD
ATOM     58  C   UNL A   1      45.835  26.433  29.595  1.00  0.00     0.074 A 
ATOM     59  C   UNL A   1      46.245  25.102  29.199  1.00  0.00     0.031 C 
ATOM     60  C   UNL A   1      46.652  27.341  30.182  1.00  0.00     0.037 A 
BRANCH  47  61
ATOM     61  C   UNL A   1      43.997  32.797  31.354  1.00  0.00     0.058 A 
ATOM     62  C   UNL A   1      43.774  33.077  32.712  1.00  0.00     0.135 A 
ATOM     63  C   UNL A   1      44.367  33.859  30.517  1.00  0.00     0.135 A 
ATOM     64  F   UNL A   1      43.398  32.097  33.551  1.00  0.00    -0.206 F 
ATOM     65  C   UNL A   1      43.884  34.367  33.215  1.00  0.00     0.059 A 
ATOM     66  C   UNL A   1      44.506  35.156  31.003  1.00  0.00     0.059 A 
ATOM     67  F   UNL A   1      44.588  33.645  29.210  1.00  0.00    -0.206 F 
ATOM     68  C   UNL A   1      44.247  35.401  32.352  1.00  0.00     0.060 A 
BRANCH  68  69
ATOM     69  S   UNL A   1      44.378  37.073  33.020  1.00  0.00     0.124 S 
ATOM     70  O   UNL A   1      44.631  37.849  31.810  1.00  0.00    -0.237 OA
ATOM     71  O   UNL A   1      43.069  37.268  33.636  1.00  0.00    -0.237 OA
ATOM     72  O   UNL A   1      45.498  36.980  33.951  1.00  0.00    -0.744 OA
ENDBRANCH  68  69
ENDBRANCH  47  61
BRANCH  48  73
ATOM     73  C   UNL A   1      42.610  23.622  27.630  1.00  0.00     0.058 A 
ATOM     74  C   UNL A   1      42.697  23.366  26.254  1.00  0.00     0.135 A 
ATOM     75  C   UNL A   1      42.352  22.540  28.485  1.00  0.00     0.135 A 
ATOM     76  F   UNL A   1      42.939  24.372  25.400  1.00  0.00    -0.206 F 
ATOM     77  C   UNL A   1      42.535  22.085  25.740  1.00  0.00     0.059 A 
ATOM     78  C   UNL A   1      42.200  21.246  27.995  1.00  0.00     0.059 A 
ATOM     79  F   UNL A   1      42.274  22.733  29.810  1.00  0.00    -0.206 F 
ATOM     80  C   UNL A   1      42.289  21.029  26.620  1.00  0.00     0.060 A 
BRANCH  80  81
ATOM     81  S   UNL A   1      42.143  19.358  25.947  1.00  0.00     0.124 S 
ATOM     82  O   UNL A   1      42.640  18.552  27.055  1.00  0.00    -0.237 OA
ATOM     83  O   UNL A   1      40.712  19.261  25.677  1.00  0.00    -0.237 OA
ATOM     84  O   UNL A   1      42.995  19.400  24.763  1.00  0.00    -0.744 OA
ENDBRANCH  80  81
ENDBRANCH  48  73
BRANCH  60  85
ATOM     85  C   UNL A   1      48.076  26.939  30.430  1.00  0.00     0.058 A 
ATOM     86  C   UNL A   1      49.088  27.262  29.515  1.00  0.00     0.135 A 
ATOM     87  C   UNL A   1      48.446  26.334  31.642  1.00  0.00     0.135 A 
ATOM     88  F   UNL A   1      48.780  27.833  28.340  1.00  0.00    -0.206 F 
ATOM     89  C   UNL A   1      50.425  27.006  29.796  1.00  0.00     0.059 A 
ATOM     90  C   UNL A   1      49.779  26.085  31.950  1.00  0.00     0.059 A 
ATOM     91  F   UNL A   1      47.512  26.013  32.550  1.00  0.00    -0.206 F 
ATOM     92  C   UNL A   1      50.762  26.427  31.022  1.00  0.00     0.060 A 
BRANCH  92  93
ATOM     93  S   UNL A   1      52.508  26.185  31.410  1.00  0.00     0.124 S 
ATOM     94  O   UNL A   1      52.753  27.269  32.355  1.00  0.00    -0.237 OA
ATOM     95  O   UNL A   1      52.519  24.839  31.972  1.00  0.00    -0.237 OA
ATOM     96  O   UNL A   1      53.165  26.321  30.113  1.00  0.00    -0.744 OA
ENDBRANCH  92  93
ENDBRANCH  60  85
ENDBRANCH  34  35
ENDBRANCH  26  29
ENDBRANCH  24  25
ENDBRANCH   1  24
TORSDOF 15
ENDMDL
MODEL 2
REMARK VINA RESULT:     -11.7      2.149      3.569
REMARK SMILES Cc1cc(Cl)cc2c1O[C@H](C(F)(F)F)C(C(=O)NCCCCNC(=O)c1ccc(-c3c4nc(c(-c5c(F)cc(S(=O)(=O)[O-])cc5F)c5ccc([nH]5)c(-c5c(F)cc(S(=O)(=O)[O-])cc5F)c5nc(c(-c6c(F)cc(S(=O)(=O)[O-])cc6F)c6ccc3[nH]6)C=C5)C=C4)cc1)=C2
REMARK SMILES IDX 21 1 20 2 19 3 18 4 16 5 17 6 15 8 1 9 2 10 3 11 8 12 4 13
REMARK SMILES IDX 7 14 9 15 5 16 6 17 92 18 10 19 11 20 12 21 13 22 14 23
REMARK SMILES IDX 22 24 23 25 24 26 25 28 26 29 27 30 91 31 28 32 90 33 29 34
REMARK SMILES IDX 30 35 31 36 84 37 32 38 89 39 83 40 85 41 33 42 88 43 82 44
REMARK SMILES IDX 81 45 34 47 68 48 47 49 67 50 48 51 51 52 66 53 86 54 49 55
REMARK SMILES IDX 50 56 65 58 87 59 52 60 35 61 36 62 45 63 37 64 38 65 44 66
REMARK SMILES IDX 46 67 39 68 40 69 41 70 42 71 43 72 69 73 70 74 79 75 71 76
REMARK SMILES IDX 72 77 78 78 80 79 73 80 74 81 75 82 76 83 77 84 53 85 54 86
REMARK SMILES IDX 63 87 55 88 56 89 62 90 64 91 57 92 58 93 59 94 60 95 61 96
REMARK H PARENT 18 7 23 27 85 46 51 57
REMARK Flexibility Score: inf
ROOT
ATOM      1  C   UNL A   1      33.370  28.747  25.495  1.00  0.00     0.023 C 
ENDROOT
BRANCH   1   2
ATOM      2  C   UNL A   1      34.105  27.827  24.517  1.00  0.00     0.023 C 
BRANCH   2   3
ATOM      3  C   UNL A   1      33.957  26.342  24.830  1.00  0.00     0.116 C 
BRANCH   3   4
ATOM      4  N   UNL A   1      33.556  25.577  23.663  1.00  0.00    -0.352 N 
ATOM      5  C   UNL A   1      32.451  25.462  22.891  1.00  0.00     0.251 C 
ATOM      6  O   UNL A   1      32.540  24.655  21.959  1.00  0.00    -0.270 OA
ATOM      7  H   UNL A   1      34.278  24.984  23.354  1.00  0.00     0.163 HD
BRANCH   5   8
ATOM      8  C   UNL A   1      31.181  26.222  23.082  1.00  0.00     0.067 C 
ATOM      9  C   UNL A   1      26.338  27.826  23.874  1.00  0.00     0.048 C 
ATOM     10  C   UNL A   1      27.608  28.433  23.350  1.00  0.00    -0.007 A 
ATOM     11  C   UNL A   1      27.615  29.778  22.954  1.00  0.00     0.027 A 
ATOM     12  C   UNL A   1      28.783  27.683  23.200  1.00  0.00     0.131 A 
ATOM     13  C   UNL A   1      28.775  30.355  22.434  1.00  0.00     0.042 A 
ATOM     14  C   UNL A   1      29.945  28.259  22.673  1.00  0.00     0.019 A 
ATOM     15  O   UNL A   1      28.738  26.359  23.540  1.00  0.00    -0.475 OA
ATOM     16  Cl  UNL A   1      28.762  32.007  21.955  1.00  0.00    -0.084 Cl
ATOM     17  C   UNL A   1      29.939  29.602  22.290  1.00  0.00     0.032 A 
ATOM     18  C   UNL A   1      31.137  27.436  22.502  1.00  0.00     0.025 C 
ATOM     19  C   UNL A   1      30.010  25.744  23.892  1.00  0.00     0.314 C 
BRANCH  19  20
ATOM     20  C   UNL A   1      30.240  25.880  25.410  1.00  0.00     0.429 C 
ATOM     21  F   UNL A   1      29.094  25.618  26.087  1.00  0.00    -0.167 F 
ATOM     22  F   UNL A   1      31.170  25.013  25.875  1.00  0.00    -0.167 F 
ATOM     23  F   UNL A   1      30.646  27.119  25.768  1.00  0.00    -0.167 F 
ENDBRANCH  19  20
ENDBRANCH   5   8
ENDBRANCH   3   4
ENDBRANCH   2   3
ENDBRANCH   1   2
BRANCH   1  24
ATOM     24  C   UNL A   1      33.880  28.717  26.934  1.00  0.00     0.116 C 
BRANCH  24  25
ATOM     25  N   UNL A   1      33.744  29.987  27.635  1.00  0.00    -0.352 N 
ATOM     26  C   UNL A   1      34.693  30.643  28.383  1.00  0.00     0.251 C 
ATOM     27  H   UNL A   1      32.868  30.429  27.563  1.00  0.00     0.163 HD
ATOM     28  O   UNL A   1      34.418  31.679  28.977  1.00  0.00    -0.269 OA
BRANCH  26  29
ATOM     29  C   UNL A   1      36.035  30.043  28.492  1.00  0.00     0.039 A 
ATOM     30  C   UNL A   1      36.892  30.109  27.393  1.00  0.00     0.014 A 
ATOM     31  C   UNL A   1      36.468  29.510  29.710  1.00  0.00     0.014 A 
ATOM     32  C   UNL A   1      38.218  29.704  27.538  1.00  0.00     0.010 A 
ATOM     33  C   UNL A   1      37.805  29.166  29.869  1.00  0.00     0.010 A 
ATOM     34  C   UNL A   1      38.692  29.267  28.786  1.00  0.00    -0.014 A 
BRANCH  34  35
ATOM     35  C   UNL A   1      40.120  28.914  28.972  1.00  0.00     0.031 A 
ATOM     36  C   UNL A   1      41.070  29.921  29.548  1.00  0.00     0.074 A 
ATOM     37  C   UNL A   1      40.560  27.700  28.587  1.00  0.00     0.049 A 
ATOM     38  N   UNL A   1      42.351  29.804  29.782  1.00  0.00    -0.248 NA
ATOM     39  C   UNL A   1      40.515  31.244  29.884  1.00  0.00     0.031 C 
ATOM     40  C   UNL A   1      39.737  26.659  27.964  1.00  0.00     0.029 A 
ATOM     41  N   UNL A   1      41.807  27.134  28.663  1.00  0.00    -0.354 N 
ATOM     42  C   UNL A   1      42.754  31.032  30.290  1.00  0.00     0.074 A 
ATOM     43  C   UNL A   1      41.599  31.901  30.273  1.00  0.00     0.031 C 
ATOM     44  C   UNL A   1      40.493  25.569  27.753  1.00  0.00     0.029 A 
ATOM     45  C   UNL A   1      41.856  25.840  28.201  1.00  0.00     0.049 A 
ATOM     46  H   UNL A   1      42.593  27.610  29.016  1.00  0.00     0.167 HD
ATOM     47  C   UNL A   1      43.971  31.391  30.761  1.00  0.00     0.037 A 
ATOM     48  C   UNL A   1      42.882  24.968  28.156  1.00  0.00     0.037 A 
ATOM     49  C   UNL A   1      45.107  30.512  30.809  1.00  0.00     0.049 A 
ATOM     50  C   UNL A   1      44.227  25.393  28.678  1.00  0.00     0.074 A 
ATOM     51  C   UNL A   1      46.364  30.759  31.328  1.00  0.00     0.029 A 
ATOM     52  N   UNL A   1      45.120  29.215  30.319  1.00  0.00    -0.354 N 
ATOM     53  N   UNL A   1      44.575  26.536  29.217  1.00  0.00    -0.248 NA
ATOM     54  C   UNL A   1      45.318  24.413  28.586  1.00  0.00     0.031 C 
ATOM     55  C   UNL A   1      47.148  29.617  31.130  1.00  0.00     0.029 A 
ATOM     56  C   UNL A   1      46.371  28.652  30.508  1.00  0.00     0.049 A 
ATOM     57  H   UNL A   1      44.354  28.760  29.900  1.00  0.00     0.167 HD
ATOM     58  C   UNL A   1      45.921  26.411  29.538  1.00  0.00     0.074 A 
ATOM     59  C   UNL A   1      46.323  25.077  29.144  1.00  0.00     0.031 C 
ATOM     60  C   UNL A   1      46.748  27.321  30.107  1.00  0.00     0.037 A 
BRANCH  47  61
ATOM     61  C   UNL A   1      44.119  32.788  31.289  1.00  0.00     0.058 A 
ATOM     62  C   UNL A   1      44.436  33.857  30.435  1.00  0.00     0.135 A 
ATOM     63  C   UNL A   1      43.931  33.067  32.650  1.00  0.00     0.135 A 
ATOM     64  F   UNL A   1      44.645  33.638  29.127  1.00  0.00    -0.206 F 
ATOM     65  C   UNL A   1      44.590  35.150  30.918  1.00  0.00     0.059 A 
ATOM     66  C   UNL A   1      44.058  34.359  33.152  1.00  0.00     0.059 A 
ATOM     67  F   UNL A   1      43.631  32.079  33.508  1.00  0.00    -0.206 F 
ATOM     68  C   UNL A   1      44.403  35.391  32.280  1.00  0.00     0.060 A 
BRANCH  68  69
ATOM     69  S   UNL A   1      44.615  37.076  32.893  1.00  0.00     0.124 S 
ATOM     70  O   UNL A   1      45.847  36.950  33.665  1.00  0.00    -0.237 OA
ATOM     71  O   UNL A   1      44.717  37.848  31.658  1.00  0.00    -0.237 OA
ATOM     72  O   UNL A   1      43.405  37.307  33.676  1.00  0.00    -0.744 OA
ENDBRANCH  68  69
ENDBRANCH  47  61
BRANCH  48  73
ATOM     73  C   UNL A   1      42.662  23.594  27.638  1.00  0.00     0.058 A 
ATOM     74  C   UNL A   1      42.763  23.323  26.266  1.00  0.00     0.135 A 
ATOM     75  C   UNL A   1      42.381  22.523  28.500  1.00  0.00     0.135 A 
ATOM     76  F   UNL A   1      43.027  24.317  25.405  1.00  0.00    -0.206 F 
ATOM     77  C   UNL A   1      42.591  22.039  25.763  1.00  0.00     0.059 A 
ATOM     78  C   UNL A   1      42.220  21.226  28.022  1.00  0.00     0.059 A 
ATOM     79  F   UNL A   1      42.289  22.731  29.822  1.00  0.00    -0.206 F 
ATOM     80  C   UNL A   1      42.323  20.995  26.650  1.00  0.00     0.060 A 
BRANCH  80  81
ATOM     81  S   UNL A   1      42.164  19.320  25.992  1.00  0.00     0.124 S 
ATOM     82  O   UNL A   1      43.033  19.381  24.822  1.00  0.00    -0.237 OA
ATOM     83  O   UNL A   1      42.647  18.506  27.103  1.00  0.00    -0.237 OA
ATOM     84  O   UNL A   1      40.736  19.203  25.714  1.00  0.00    -0.744 OA
ENDBRANCH  80  81
ENDBRANCH  48  73
BRANCH  60  85
ATOM     85  C   UNL A   1      48.175  26.918  30.337  1.00  0.00     0.058 A 
ATOM     86  C   UNL A   1      49.156  27.147  29.362  1.00  0.00     0.135 A 
ATOM     87  C   UNL A   1      48.583  26.409  31.580  1.00  0.00     0.135 A 
ATOM     88  F   UNL A   1      48.811  27.623  28.154  1.00  0.00    -0.206 F 
ATOM     89  C   UNL A   1      50.499  26.894  29.614  1.00  0.00     0.059 A 
ATOM     90  C   UNL A   1      49.923  26.165  31.860  1.00  0.00     0.059 A 
ATOM     91  F   UNL A   1      47.679  26.181  32.546  1.00  0.00    -0.206 F 
ATOM     92  C   UNL A   1      50.874  26.414  30.871  1.00  0.00     0.060 A 
BRANCH  92  93
ATOM     93  S   UNL A   1      52.631  26.176  31.213  1.00  0.00     0.124 S 
ATOM     94  O   UNL A   1      53.216  26.348  29.888  1.00  0.00    -0.237 OA
ATOM     95  O   UNL A   1      52.909  27.240  32.172  1.00  0.00    -0.237 OA
ATOM     96  O   UNL A   1      52.690  24.822  31.755  1.00  0.00    -0.744 OA
ENDBRANCH  92  93
ENDBRANCH  60  85
ENDBRANCH  34  35
ENDBRANCH  26  29
ENDBRANCH  24  25
ENDBRANCH   1  24
TORSDOF 15
ENDMDL
MODEL 3
REMARK VINA RESULT:     -11.7      1.435      2.055
REMARK SMILES Cc1cc(Cl)cc2c1O[C@H](C(F)(F)F)C(C(=O)NCCCCNC(=O)c1ccc(-c3c4nc(c(-c5c(F)cc(S(=O)(=O)[O-])cc5F)c5ccc([nH]5)c(-c5c(F)cc(S(=O)(=O)[O-])cc5F)c5nc(c(-c6c(F)cc(S(=O)(=O)[O-])cc6F)c6ccc3[nH]6)C=C5)C=C4)cc1)=C2
REMARK SMILES IDX 21 1 20 2 19 3 18 4 16 5 17 6 15 8 1 9 2 10 3 11 8 12 4 13
REMARK SMILES IDX 7 14 9 15 5 16 6 17 92 18 10 19 11 20 12 21 13 22 14 23
REMARK SMILES IDX 22 24 23 25 24 26 25 28 26 29 27 30 91 31 28 32 90 33 29 34
REMARK SMILES IDX 30 35 31 36 84 37 32 38 89 39 83 40 85 41 33 42 88 43 82 44
REMARK SMILES IDX 81 45 34 47 68 48 47 49 67 50 48 51 51 52 66 53 86 54 49 55
REMARK SMILES IDX 50 56 65 58 87 59 52 60 35 61 36 62 45 63 37 64 38 65 44 66
REMARK SMILES IDX 46 67 39 68 40 69 41 70 42 71 43 72 69 73 70 74 79 75 71 76
REMARK SMILES IDX 72 77 78 78 80 79 73 80 74 81 75 82 76 83 77 84 53 85 54 86
REMARK SMILES IDX 63 87 55 88 56 89 62 90 64 91 57 92 58 93 59 94 60 95 61 96
REMARK H PARENT 18 7 23 27 85 46 51 57
REMARK Flexibility Score: inf
ROOT
ATOM      1  C   UNL A   1      32.039  27.724  27.200  1.00  0.00     0.023 C 
ENDROOT
BRANCH   1   2
ATOM      2  C   UNL A   1      31.428  27.768  25.798  1.00  0.00     0.023 C 
BRANCH   2   3
ATOM      3  C   UNL A   1      30.906  26.422  25.304  1.00  0.00     0.116 C 
BRANCH   3   4
ATOM      4  N   UNL A   1      31.097  26.254  23.875  1.00  0.00    -0.352 N 
ATOM      5  C   UNL A   1      31.823  25.450  23.065  1.00  0.00     0.251 C 
ATOM      6  O   UNL A   1      31.686  25.658  21.855  1.00  0.00    -0.270 OA
ATOM      7  H   UNL A   1      30.558  26.897  23.360  1.00  0.00     0.163 HD
BRANCH   5   8
ATOM      8  C   UNL A   1      32.740  24.365  23.522  1.00  0.00     0.067 C 
ATOM      9  C   UNL A   1      36.710  21.255  24.627  1.00  0.00     0.048 C 
ATOM     10  C   UNL A   1      35.213  21.138  24.618  1.00  0.00    -0.007 A 
ATOM     11  C   UNL A   1      34.614  19.929  25.001  1.00  0.00     0.027 A 
ATOM     12  C   UNL A   1      34.389  22.189  24.193  1.00  0.00     0.131 A 
ATOM     13  C   UNL A   1      33.227  19.788  24.970  1.00  0.00     0.042 A 
ATOM     14  C   UNL A   1      32.997  22.046  24.156  1.00  0.00     0.019 A 
ATOM     15  O   UNL A   1      34.995  23.341  23.770  1.00  0.00    -0.475 OA
ATOM     16  Cl  UNL A   1      32.513  18.296  25.446  1.00  0.00    -0.084 Cl
ATOM     17  C   UNL A   1      32.415  20.839  24.548  1.00  0.00     0.032 A 
ATOM     18  C   UNL A   1      32.177  23.153  23.675  1.00  0.00     0.025 C 
ATOM     19  C   UNL A   1      34.194  24.554  23.848  1.00  0.00     0.314 C 
BRANCH  19  20
ATOM     20  C   UNL A   1      34.415  25.224  25.218  1.00  0.00     0.429 C 
ATOM     21  F   UNL A   1      35.634  24.894  25.715  1.00  0.00    -0.167 F 
ATOM     22  F   UNL A   1      34.380  26.575  25.148  1.00  0.00    -0.167 F 
ATOM     23  F   UNL A   1      33.493  24.855  26.136  1.00  0.00    -0.167 F 
ENDBRANCH  19  20
ENDBRANCH   5   8
ENDBRANCH   3   4
ENDBRANCH   2   3
ENDBRANCH   1   2
BRANCH   1  24
ATOM     24  C   UNL A   1      33.402  28.398  27.344  1.00  0.00     0.116 C 
BRANCH  24  25
ATOM     25  N   UNL A   1      33.328  29.810  27.696  1.00  0.00    -0.352 N 
ATOM     26  C   UNL A   1      34.338  30.616  28.164  1.00  0.00     0.251 C 
ATOM     27  H   UNL A   1      32.448  30.238  27.584  1.00  0.00     0.163 HD
ATOM     28  O   UNL A   1      34.115  31.778  28.486  1.00  0.00    -0.269 OA
BRANCH  26  29
ATOM     29  C   UNL A   1      35.684  30.035  28.314  1.00  0.00     0.039 A 
ATOM     30  C   UNL A   1      36.564  30.089  27.232  1.00  0.00     0.014 A 
ATOM     31  C   UNL A   1      36.097  29.533  29.552  1.00  0.00     0.014 A 
ATOM     32  C   UNL A   1      37.891  29.704  27.415  1.00  0.00     0.010 A 
ATOM     33  C   UNL A   1      37.434  29.209  29.747  1.00  0.00     0.010 A 
ATOM     34  C   UNL A   1      38.343  29.299  28.681  1.00  0.00    -0.014 A 
BRANCH  34  35
ATOM     35  C   UNL A   1      39.771  28.967  28.905  1.00  0.00     0.031 A 
ATOM     36  C   UNL A   1      40.691  29.990  29.504  1.00  0.00     0.074 A 
ATOM     37  C   UNL A   1      40.238  27.759  28.533  1.00  0.00     0.049 A 
ATOM     38  N   UNL A   1      41.966  29.891  29.771  1.00  0.00    -0.248 NA
ATOM     39  C   UNL A   1      40.108  31.304  29.822  1.00  0.00     0.031 C 
ATOM     40  C   UNL A   1      39.448  26.705  27.892  1.00  0.00     0.029 A 
ATOM     41  N   UNL A   1      41.492  27.212  28.643  1.00  0.00    -0.354 N 
ATOM     42  C   UNL A   1      42.338  31.127  30.287  1.00  0.00     0.074 A 
ATOM     43  C   UNL A   1      41.171  31.978  30.238  1.00  0.00     0.031 C 
ATOM     44  C   UNL A   1      40.226  25.626  27.702  1.00  0.00     0.029 A 
ATOM     45  C   UNL A   1      41.572  25.919  28.185  1.00  0.00     0.049 A 
ATOM     46  H   UNL A   1      42.261  27.700  29.016  1.00  0.00     0.167 HD
ATOM     47  C   UNL A   1      43.537  31.504  30.788  1.00  0.00     0.037 A 
ATOM     48  C   UNL A   1      42.612  25.062  28.169  1.00  0.00     0.037 A 
ATOM     49  C   UNL A   1      44.684  30.642  30.868  1.00  0.00     0.049 A 
ATOM     50  C   UNL A   1      43.936  25.507  28.725  1.00  0.00     0.074 A 
ATOM     51  C   UNL A   1      45.923  30.909  31.419  1.00  0.00     0.029 A 
ATOM     52  N   UNL A   1      44.729  29.345  30.381  1.00  0.00    -0.354 N 
ATOM     53  N   UNL A   1      44.253  26.657  29.271  1.00  0.00    -0.248 NA
ATOM     54  C   UNL A   1      45.044  24.543  28.663  1.00  0.00     0.031 C 
ATOM     55  C   UNL A   1      46.729  29.779  31.244  1.00  0.00     0.029 A 
ATOM     56  C   UNL A   1      45.983  28.801  30.604  1.00  0.00     0.049 A 
ATOM     57  H   UNL A   1      43.981  28.878  29.944  1.00  0.00     0.167 HD
ATOM     58  C   UNL A   1      45.592  26.552  29.627  1.00  0.00     0.074 A 
ATOM     59  C   UNL A   1      46.024  25.223  29.246  1.00  0.00     0.031 C 
ATOM     60  C   UNL A   1      46.390  27.475  30.216  1.00  0.00     0.037 A 
BRANCH  47  61
ATOM     61  C   UNL A   1      43.650  32.904  31.317  1.00  0.00     0.058 A 
ATOM     62  C   UNL A   1      44.053  33.963  30.487  1.00  0.00     0.135 A 
ATOM     63  C   UNL A   1      43.343  33.196  32.654  1.00  0.00     0.135 A 
ATOM     64  F   UNL A   1      44.377  33.732  29.205  1.00  0.00    -0.206 F 
ATOM     65  C   UNL A   1      44.175  35.259  30.973  1.00  0.00     0.059 A 
ATOM     66  C   UNL A   1      43.437  34.491  33.156  1.00  0.00     0.059 A 
ATOM     67  F   UNL A   1      42.958  32.217  33.489  1.00  0.00    -0.206 F 
ATOM     68  C   UNL A   1      43.869  35.513  32.311  1.00  0.00     0.060 A 
BRANCH  68  69
ATOM     69  S   UNL A   1      44.041  37.200  32.928  1.00  0.00     0.124 S 
ATOM     70  O   UNL A   1      42.887  37.303  33.816  1.00  0.00    -0.237 OA
ATOM     71  O   UNL A   1      45.344  37.162  33.585  1.00  0.00    -0.237 OA
ATOM     72  O   UNL A   1      43.976  38.013  31.717  1.00  0.00    -0.744 OA
ENDBRANCH  68  69
ENDBRANCH  47  61
BRANCH  48  73
ATOM     73  C   UNL A   1      42.426  23.683  27.648  1.00  0.00     0.058 A 
ATOM     74  C   UNL A   1      42.474  23.428  26.271  1.00  0.00     0.135 A 
ATOM     75  C   UNL A   1      42.231  22.595  28.512  1.00  0.00     0.135 A 
ATOM     76  F   UNL A   1      42.654  24.439  25.408  1.00  0.00    -0.206 F 
ATOM     77  C   UNL A   1      42.332  22.141  25.763  1.00  0.00     0.059 A 
ATOM     78  C   UNL A   1      42.102  21.296  28.029  1.00  0.00     0.059 A 
ATOM     79  F   UNL A   1      42.192  22.788  29.839  1.00  0.00    -0.206 F 
ATOM     80  C   UNL A   1      42.150  21.080  26.652  1.00  0.00     0.060 A 
BRANCH  80  81
ATOM     81  S   UNL A   1      42.032  19.405  25.985  1.00  0.00     0.124 S 
ATOM     82  O   UNL A   1      42.518  18.609  27.105  1.00  0.00    -0.237 OA
ATOM     83  O   UNL A   1      40.606  19.291  25.691  1.00  0.00    -0.237 OA
ATOM     84  O   UNL A   1      42.903  19.449  24.814  1.00  0.00    -0.744 OA
ENDBRANCH  80  81
ENDBRANCH  48  73
BRANCH  60  85
ATOM     85  C   UNL A   1      47.817  27.093  30.483  1.00  0.00     0.058 A 
ATOM     86  C   UNL A   1      48.831  27.406  29.568  1.00  0.00     0.135 A 
ATOM     87  C   UNL A   1      48.185  26.519  31.710  1.00  0.00     0.135 A 
ATOM     88  F   UNL A   1      48.525  27.947  28.377  1.00  0.00    -0.206 F 
ATOM     89  C   UNL A   1      50.169  27.170  29.863  1.00  0.00     0.059 A 
ATOM     90  C   UNL A   1      49.518  26.292  32.034  1.00  0.00     0.059 A 
ATOM     91  F   UNL A   1      47.247  26.210  32.620  1.00  0.00    -0.206 F 
ATOM     92  C   UNL A   1      50.503  26.623  31.104  1.00  0.00     0.060 A 
BRANCH  92  93
ATOM     93  S   UNL A   1      52.249  26.408  31.509  1.00  0.00     0.124 S 
ATOM     94  O   UNL A   1      52.445  27.437  32.525  1.00  0.00    -0.237 OA
ATOM     95  O   UNL A   1      52.292  25.030  31.985  1.00  0.00    -0.237 OA
ATOM     96  O   UNL A   1      52.924  26.646  30.236  1.00  0.00    -0.744 OA
ENDBRANCH  92  93
ENDBRANCH  60  85
ENDBRANCH  34  35
ENDBRANCH  26  29
ENDBRANCH  24  25
ENDBRANCH   1  24
TORSDOF 15
ENDMDL
