MODEL 1
REMARK VINA RESULT:     -12.8      0.000      0.000
REMARK SMILES Cc1ccc(S(=O)(=O)N2C[C@@H](CC(=O)NCCCCNC(=O)c3ccc(-c4c5nc(c(-c6c(F)cc(S(=O)(=O)[O-])cc6F)c6ccc([nH]6)c(-c6c(F)cc(S(=O)(=O)[O-])cc6F)c6nc(c(-c7c(F)cc(S(=O)(=O)[O-])cc7F)c7ccc4[nH]7)C=C6)C=C5)cc3)c3ccccc32)c(C)c1
REMARK SMILES IDX 17 1 16 2 15 3 13 4 14 5 12 7 11 8 9 9 10 10 94 11 89 12
REMARK SMILES IDX 93 13 90 14 92 15 91 16 6 17 7 18 8 19 5 20 1 21 2 22 3 23
REMARK SMILES IDX 97 24 4 25 95 26 96 27 18 28 19 29 20 30 21 31 22 33 23 34
REMARK SMILES IDX 24 35 88 36 25 37 87 38 26 39 27 40 28 41 81 42 29 43 86 44
REMARK SMILES IDX 80 45 82 46 30 47 85 48 79 49 78 50 31 52 65 53 44 54 64 55
REMARK SMILES IDX 45 56 48 57 63 58 83 59 46 60 47 61 62 63 84 64 49 65 32 66
REMARK SMILES IDX 33 67 42 68 34 69 35 70 41 71 43 72 36 73 37 74 38 75 39 76
REMARK SMILES IDX 40 77 66 78 67 79 76 80 68 81 69 82 75 83 77 84 70 85 71 86
REMARK SMILES IDX 72 87 73 88 74 89 50 90 51 91 60 92 52 93 53 94 59 95 61 96
REMARK SMILES IDX 54 97 55 98 56 99 57 100 58 101
REMARK H PARENT 15 6 20 32 82 51 48 62
REMARK Flexibility Score: inf
ROOT
ATOM      1  C   UNL A   1      40.955  21.156  26.659  1.00  0.00     0.023 C 
ENDROOT
BRANCH   1   2
ATOM      2  C   UNL A   1      39.540  21.068  26.109  1.00  0.00     0.116 C 
BRANCH   2   3
ATOM      3  N   UNL A   1      38.956  22.398  26.091  1.00  0.00    -0.356 N 
ATOM      4  C   UNL A   1      37.676  22.743  25.759  1.00  0.00     0.220 C 
ATOM      5  O   UNL A   1      37.433  23.909  25.450  1.00  0.00    -0.275 OA
ATOM      6  H   UNL A   1      39.554  23.138  26.347  1.00  0.00     0.163 HD
BRANCH   4   7
ATOM      7  C   UNL A   1      36.568  21.717  25.865  1.00  0.00     0.110 C 
BRANCH   7   8
ATOM      8  C   UNL A   1      35.878  21.359  24.536  1.00  0.00     0.051 C 
ATOM      9  N   UNL A   1      33.607  22.216  24.759  1.00  0.00    -0.265 N 
ATOM     10  C   UNL A   1      34.951  22.530  24.140  1.00  0.00     0.144 C 
ATOM     11  C   UNL A   1      33.579  20.782  24.883  1.00  0.00     0.055 A 
ATOM     12  C   UNL A   1      34.850  20.262  24.631  1.00  0.00    -0.018 A 
ATOM     13  C   UNL A   1      32.521  19.953  25.223  1.00  0.00     0.027 A 
ATOM     14  C   UNL A   1      35.024  18.896  24.480  1.00  0.00     0.006 A 
ATOM     15  C   UNL A   1      32.720  18.572  25.185  1.00  0.00     0.002 A 
ATOM     16  C   UNL A   1      33.952  18.047  24.776  1.00  0.00     0.000 A 
BRANCH   9  17
ATOM     17  S   UNL A   1      32.312  22.938  23.891  1.00  0.00     0.264 S 
ATOM     18  O   UNL A   1      31.163  22.974  24.769  1.00  0.00    -0.201 OA
ATOM     19  O   UNL A   1      32.244  22.284  22.595  1.00  0.00    -0.201 OA
BRANCH  17  20
ATOM     20  C   UNL A   1      32.825  24.612  23.550  1.00  0.00     0.090 A 
ATOM     21  C   UNL A   1      33.968  28.659  22.609  1.00  0.00     0.044 C 
ATOM     22  C   UNL A   1      33.590  27.242  22.924  1.00  0.00    -0.051 A 
ATOM     23  C   UNL A   1      33.267  26.346  21.905  1.00  0.00     0.005 A 
ATOM     24  C   UNL A   1      33.509  26.819  24.257  1.00  0.00     0.008 A 
ATOM     25  C   UNL A   1      32.876  25.044  22.215  1.00  0.00     0.023 A 
ATOM     26  C   UNL A   1      33.133  25.504  24.595  1.00  0.00    -0.030 A 
ATOM     27  C   UNL A   1      33.007  25.191  26.062  1.00  0.00     0.046 C 
ENDBRANCH  17  20
ENDBRANCH   9  17
ENDBRANCH   7   8
ENDBRANCH   4   7
ENDBRANCH   2   3
ENDBRANCH   1   2
BRANCH   1  28
ATOM     28  C   UNL A   1      41.212  22.248  27.677  1.00  0.00     0.023 C 
BRANCH  28  29
ATOM     29  C   UNL A   1      42.268  23.243  27.252  1.00  0.00     0.116 C 
BRANCH  29  30
ATOM     30  N   UNL A   1      41.861  24.102  26.146  1.00  0.00    -0.352 N 
ATOM     31  C   UNL A   1      41.417  25.405  26.183  1.00  0.00     0.251 C 
ATOM     32  H   UNL A   1      41.912  23.694  25.251  1.00  0.00     0.163 HD
ATOM     33  O   UNL A   1      41.031  25.955  25.156  1.00  0.00    -0.269 OA
BRANCH  31  34
ATOM     34  C   UNL A   1      41.362  26.105  27.483  1.00  0.00     0.039 A 
ATOM     35  C   UNL A   1      42.337  27.052  27.791  1.00  0.00     0.014 A 
ATOM     36  C   UNL A   1      40.282  25.904  28.343  1.00  0.00     0.014 A 
ATOM     37  C   UNL A   1      42.172  27.861  28.917  1.00  0.00     0.010 A 
ATOM     38  C   UNL A   1      40.039  26.813  29.360  1.00  0.00     0.010 A 
ATOM     39  C   UNL A   1      40.991  27.788  29.678  1.00  0.00    -0.014 A 
BRANCH  39  40
ATOM     40  C   UNL A   1      40.744  28.708  30.819  1.00  0.00     0.031 A 
ATOM     41  C   UNL A   1      41.571  28.591  32.075  1.00  0.00     0.074 A 
ATOM     42  C   UNL A   1      39.743  29.610  30.744  1.00  0.00     0.049 A 
ATOM     43  N   UNL A   1      41.501  29.292  33.177  1.00  0.00    -0.248 NA
ATOM     44  C   UNL A   1      42.579  27.517  32.121  1.00  0.00     0.031 C 
ATOM     45  C   UNL A   1      38.809  29.753  29.622  1.00  0.00     0.029 A 
ATOM     46  N   UNL A   1      39.345  30.582  31.625  1.00  0.00    -0.354 N 
ATOM     47  C   UNL A   1      42.437  28.733  34.041  1.00  0.00     0.074 A 
ATOM     48  C   UNL A   1      42.997  27.581  33.375  1.00  0.00     0.031 C 
ATOM     49  C   UNL A   1      37.991  30.791  29.856  1.00  0.00     0.029 A 
ATOM     50  C   UNL A   1      38.312  31.363  31.158  1.00  0.00     0.049 A 
ATOM     51  H   UNL A   1      39.759  30.710  32.509  1.00  0.00     0.167 HD
ATOM     52  C   UNL A   1      42.831  29.165  35.261  1.00  0.00     0.037 A 
ATOM     53  C   UNL A   1      37.703  32.429  31.714  1.00  0.00     0.037 A 
ATOM     54  C   UNL A   1      42.296  30.339  35.899  1.00  0.00     0.049 A 
ATOM     55  C   UNL A   1      38.188  32.919  33.051  1.00  0.00     0.074 A 
ATOM     56  C   UNL A   1      42.667  30.910  37.103  1.00  0.00     0.029 A 
ATOM     57  N   UNL A   1      41.278  31.125  35.378  1.00  0.00    -0.354 N 
ATOM     58  N   UNL A   1      39.134  32.427  33.818  1.00  0.00    -0.248 NA
ATOM     59  C   UNL A   1      37.537  34.119  33.591  1.00  0.00     0.031 C 
ATOM     60  C   UNL A   1      41.839  32.013  37.334  1.00  0.00     0.029 A 
ATOM     61  C   UNL A   1      40.995  32.167  36.245  1.00  0.00     0.049 A 
ATOM     62  H   UNL A   1      40.825  30.965  34.520  1.00  0.00     0.167 HD
ATOM     63  C   UNL A   1      39.208  33.273  34.919  1.00  0.00     0.074 A 
ATOM     64  C   UNL A   1      38.230  34.320  34.703  1.00  0.00     0.031 C 
ATOM     65  C   UNL A   1      40.013  33.195  36.010  1.00  0.00     0.037 A 
BRANCH  52  66
ATOM     66  C   UNL A   1      43.902  28.378  35.970  1.00  0.00     0.058 A 
ATOM     67  C   UNL A   1      45.266  28.680  35.816  1.00  0.00     0.135 A 
ATOM     68  C   UNL A   1      43.563  27.319  36.827  1.00  0.00     0.135 A 
ATOM     69  F   UNL A   1      45.653  29.667  34.993  1.00  0.00    -0.206 F 
ATOM     70  C   UNL A   1      46.255  27.943  36.460  1.00  0.00     0.059 A 
ATOM     71  C   UNL A   1      44.533  26.589  37.509  1.00  0.00     0.059 A 
ATOM     72  F   UNL A   1      42.277  26.982  37.008  1.00  0.00    -0.206 F 
ATOM     73  C   UNL A   1      45.877  26.900  37.307  1.00  0.00     0.060 A 
BRANCH  73  74
ATOM     74  S   UNL A   1      47.172  25.963  38.145  1.00  0.00     0.124 S 
ATOM     75  O   UNL A   1      46.385  25.010  38.922  1.00  0.00    -0.237 OA
ATOM     76  O   UNL A   1      47.923  25.402  37.027  1.00  0.00    -0.237 OA
ATOM     77  O   UNL A   1      47.876  26.977  38.925  1.00  0.00    -0.744 OA
ENDBRANCH  73  74
ENDBRANCH  52  66
BRANCH  53  78
ATOM     78  C   UNL A   1      36.609  33.130  30.986  1.00  0.00     0.058 A 
ATOM     79  C   UNL A   1      36.877  33.902  29.845  1.00  0.00     0.135 A 
ATOM     80  C   UNL A   1      35.274  33.036  31.409  1.00  0.00     0.135 A 
ATOM     81  F   UNL A   1      38.136  34.026  29.399  1.00  0.00    -0.206 F 
ATOM     82  C   UNL A   1      35.867  34.574  29.162  1.00  0.00     0.059 A 
ATOM     83  C   UNL A   1      34.243  33.674  30.727  1.00  0.00     0.059 A 
ATOM     84  F   UNL A   1      34.960  32.294  32.482  1.00  0.00    -0.206 F 
ATOM     85  C   UNL A   1      34.551  34.451  29.611  1.00  0.00     0.060 A 
BRANCH  85  86
ATOM     86  S   UNL A   1      33.242  35.291  28.693  1.00  0.00     0.124 S 
ATOM     87  O   UNL A   1      34.008  36.222  27.872  1.00  0.00    -0.237 OA
ATOM     88  O   UNL A   1      32.609  34.185  27.982  1.00  0.00    -0.237 OA
ATOM     89  O   UNL A   1      32.430  35.897  29.745  1.00  0.00    -0.744 OA
ENDBRANCH  85  86
ENDBRANCH  53  78
BRANCH  65  90
ATOM     90  C   UNL A   1      39.885  34.291  37.030  1.00  0.00     0.058 A 
ATOM     91  C   UNL A   1      39.075  34.155  38.169  1.00  0.00     0.135 A 
ATOM     92  C   UNL A   1      40.593  35.494  36.870  1.00  0.00     0.135 A 
ATOM     93  F   UNL A   1      38.378  33.026  38.371  1.00  0.00    -0.206 F 
ATOM     94  C   UNL A   1      38.928  35.192  39.083  1.00  0.00     0.059 A 
ATOM     95  C   UNL A   1      40.490  36.530  37.791  1.00  0.00     0.059 A 
ATOM     96  F   UNL A   1      41.398  35.670  35.809  1.00  0.00    -0.206 F 
ATOM     97  C   UNL A   1      39.635  36.379  38.880  1.00  0.00     0.060 A 
BRANCH  97  98
ATOM     98  S   UNL A   1      39.421  37.726  40.063  1.00  0.00     0.124 S 
ATOM     99  O   UNL A   1      39.226  36.993  41.309  1.00  0.00    -0.237 OA
ATOM    100  O   UNL A   1      40.684  38.449  39.944  1.00  0.00    -0.237 OA
ATOM    101  O   UNL A   1      38.249  38.436  39.559  1.00  0.00    -0.744 OA
ENDBRANCH  97  98
ENDBRANCH  65  90
ENDBRANCH  39  40
ENDBRANCH  31  34
ENDBRANCH  29  30
ENDBRANCH  28  29
ENDBRANCH   1  28
TORSDOF 17
ENDMDL
MODEL 2
REMARK VINA RESULT:     -12.8      6.225     12.087
REMARK SMILES Cc1ccc(S(=O)(=O)N2C[C@@H](CC(=O)NCCCCNC(=O)c3ccc(-c4c5nc(c(-c6c(F)cc(S(=O)(=O)[O-])cc6F)c6ccc([nH]6)c(-c6c(F)cc(S(=O)(=O)[O-])cc6F)c6nc(c(-c7c(F)cc(S(=O)(=O)[O-])cc7F)c7ccc4[nH]7)C=C6)C=C5)cc3)c3ccccc32)c(C)c1
REMARK SMILES IDX 17 1 16 2 15 3 13 4 14 5 12 7 11 8 9 9 10 10 94 11 89 12
REMARK SMILES IDX 93 13 90 14 92 15 91 16 6 17 7 18 8 19 5 20 1 21 2 22 3 23
REMARK SMILES IDX 97 24 4 25 95 26 96 27 18 28 19 29 20 30 21 31 22 33 23 34
REMARK SMILES IDX 24 35 88 36 25 37 87 38 26 39 27 40 28 41 81 42 29 43 86 44
REMARK SMILES IDX 80 45 82 46 30 47 85 48 79 49 78 50 31 52 65 53 44 54 64 55
REMARK SMILES IDX 45 56 48 57 63 58 83 59 46 60 47 61 62 63 84 64 49 65 32 66
REMARK SMILES IDX 33 67 42 68 34 69 35 70 41 71 43 72 36 73 37 74 38 75 39 76
REMARK SMILES IDX 40 77 66 78 67 79 76 80 68 81 69 82 75 83 77 84 70 85 71 86
REMARK SMILES IDX 72 87 73 88 74 89 50 90 51 91 60 92 52 93 53 94 59 95 61 96
REMARK SMILES IDX 54 97 55 98 56 99 57 100 58 101
REMARK H PARENT 15 6 20 32 82 51 48 62
REMARK Flexibility Score: inf
ROOT
ATOM      1  C   UNL A   1      34.815  30.526  27.527  1.00  0.00     0.023 C 
ENDROOT
BRANCH   1   2
ATOM      2  C   UNL A   1      33.462  30.394  26.847  1.00  0.00     0.116 C 
BRANCH   2   3
ATOM      3  N   UNL A   1      32.595  29.570  27.671  1.00  0.00    -0.356 N 
ATOM      4  C   UNL A   1      32.089  28.336  27.376  1.00  0.00     0.220 C 
ATOM      5  O   UNL A   1      31.108  27.928  27.997  1.00  0.00    -0.275 OA
ATOM      6  H   UNL A   1      32.343  29.945  28.546  1.00  0.00     0.163 HD
BRANCH   4   7
ATOM      7  C   UNL A   1      32.789  27.457  26.361  1.00  0.00     0.110 C 
BRANCH   7   8
ATOM      8  C   UNL A   1      31.939  26.305  25.795  1.00  0.00     0.051 C 
ATOM      9  N   UNL A   1      33.557  24.696  24.937  1.00  0.00    -0.265 N 
ATOM     10  C   UNL A   1      32.651  24.972  26.117  1.00  0.00     0.144 C 
ATOM     11  C   UNL A   1      32.941  25.376  23.828  1.00  0.00     0.055 A 
ATOM     12  C   UNL A   1      31.921  26.209  24.292  1.00  0.00    -0.018 A 
ATOM     13  C   UNL A   1      33.254  25.310  22.478  1.00  0.00     0.027 A 
ATOM     14  C   UNL A   1      31.046  26.801  23.396  1.00  0.00     0.006 A 
ATOM     15  C   UNL A   1      32.442  25.999  21.574  1.00  0.00     0.002 A 
ATOM     16  C   UNL A   1      31.322  26.706  22.027  1.00  0.00     0.000 A 
BRANCH   9  17
ATOM     17  S   UNL A   1      33.861  23.017  24.737  1.00  0.00     0.264 S 
ATOM     18  O   UNL A   1      33.715  22.712  23.330  1.00  0.00    -0.201 OA
ATOM     19  O   UNL A   1      33.080  22.314  25.740  1.00  0.00    -0.201 OA
BRANCH  17  20
ATOM     20  C   UNL A   1      35.565  22.769  25.203  1.00  0.00     0.090 A 
ATOM     21  C   UNL A   1      39.666  22.280  26.433  1.00  0.00     0.044 C 
ATOM     22  C   UNL A   1      38.246  22.465  25.987  1.00  0.00    -0.051 A 
ATOM     23  C   UNL A   1      37.649  23.726  26.011  1.00  0.00     0.005 A 
ATOM     24  C   UNL A   1      37.488  21.357  25.586  1.00  0.00     0.008 A 
ATOM     25  C   UNL A   1      36.314  23.876  25.633  1.00  0.00     0.023 A 
ATOM     26  C   UNL A   1      36.144  21.486  25.184  1.00  0.00    -0.030 A 
ATOM     27  C   UNL A   1      35.411  20.214  24.850  1.00  0.00     0.046 C 
ENDBRANCH  17  20
ENDBRANCH   9  17
ENDBRANCH   7   8
ENDBRANCH   4   7
ENDBRANCH   2   3
ENDBRANCH   1   2
BRANCH   1  28
ATOM     28  C   UNL A   1      35.021  31.766  28.373  1.00  0.00     0.023 C 
BRANCH  28  29
ATOM     29  C   UNL A   1      36.263  31.719  29.234  1.00  0.00     0.116 C 
BRANCH  29  30
ATOM     30  N   UNL A   1      36.035  31.194  30.575  1.00  0.00    -0.352 N 
ATOM     31  C   UNL A   1      36.734  30.217  31.249  1.00  0.00     0.251 C 
ATOM     32  H   UNL A   1      35.280  31.592  31.064  1.00  0.00     0.163 HD
ATOM     33  O   UNL A   1      36.350  29.831  32.349  1.00  0.00    -0.269 OA
BRANCH  31  34
ATOM     34  C   UNL A   1      37.914  29.605  30.602  1.00  0.00     0.039 A 
ATOM     35  C   UNL A   1      38.101  29.767  29.230  1.00  0.00     0.014 A 
ATOM     36  C   UNL A   1      38.888  28.972  31.374  1.00  0.00     0.014 A 
ATOM     37  C   UNL A   1      39.312  29.375  28.656  1.00  0.00     0.010 A 
ATOM     38  C   UNL A   1      40.142  28.738  30.835  1.00  0.00     0.010 A 
ATOM     39  C   UNL A   1      40.366  28.911  29.464  1.00  0.00    -0.014 A 
BRANCH  39  40
ATOM     40  C   UNL A   1      41.698  28.586  28.893  1.00  0.00     0.031 A 
ATOM     41  C   UNL A   1      42.756  29.657  28.790  1.00  0.00     0.074 A 
ATOM     42  C   UNL A   1      41.936  27.345  28.420  1.00  0.00     0.049 A 
ATOM     43  N   UNL A   1      43.971  29.572  28.314  1.00  0.00    -0.248 NA
ATOM     44  C   UNL A   1      42.389  31.012  29.235  1.00  0.00     0.031 C 
ATOM     45  C   UNL A   1      40.960  26.251  28.373  1.00  0.00     0.029 A 
ATOM     46  N   UNL A   1      43.075  26.790  27.894  1.00  0.00    -0.354 N 
ATOM     47  C   UNL A   1      44.498  30.857  28.390  1.00  0.00     0.074 A 
ATOM     48  C   UNL A   1      43.445  31.720  28.868  1.00  0.00     0.031 C 
ATOM     49  C   UNL A   1      41.559  25.143  27.906  1.00  0.00     0.029 A 
ATOM     50  C   UNL A   1      42.946  25.455  27.583  1.00  0.00     0.049 A 
ATOM     51  H   UNL A   1      43.905  27.297  27.752  1.00  0.00     0.167 HD
ATOM     52  C   UNL A   1      45.758  31.275  28.129  1.00  0.00     0.037 A 
ATOM     53  C   UNL A   1      43.851  24.579  27.104  1.00  0.00     0.037 A 
ATOM     54  C   UNL A   1      46.812  30.399  27.693  1.00  0.00     0.049 A 
ATOM     55  C   UNL A   1      45.258  25.056  26.865  1.00  0.00     0.074 A 
ATOM     56  C   UNL A   1      48.143  30.699  27.464  1.00  0.00     0.029 A 
ATOM     57  N   UNL A   1      46.653  29.047  27.425  1.00  0.00    -0.354 N 
ATOM     58  N   UNL A   1      45.760  26.259  27.021  1.00  0.00    -0.248 NA
ATOM     59  C   UNL A   1      46.225  24.054  26.400  1.00  0.00     0.031 C 
ATOM     60  C   UNL A   1      48.777  29.537  27.009  1.00  0.00     0.029 A 
ATOM     61  C   UNL A   1      47.857  28.501  27.016  1.00  0.00     0.049 A 
ATOM     62  H   UNL A   1      45.808  28.549  27.513  1.00  0.00     0.167 HD
ATOM     63  C   UNL A   1      47.109  26.152  26.701  1.00  0.00     0.074 A 
ATOM     64  C   UNL A   1      47.345  24.762  26.366  1.00  0.00     0.031 C 
ATOM     65  C   UNL A   1      48.067  27.113  26.684  1.00  0.00     0.037 A 
BRANCH  52  66
ATOM     66  C   UNL A   1      46.066  32.736  28.332  1.00  0.00     0.058 A 
ATOM     67  C   UNL A   1      46.499  33.236  29.572  1.00  0.00     0.135 A 
ATOM     68  C   UNL A   1      45.944  33.647  27.270  1.00  0.00     0.135 A 
ATOM     69  F   UNL A   1      46.613  32.418  30.630  1.00  0.00    -0.206 F 
ATOM     70  C   UNL A   1      46.769  34.588  29.761  1.00  0.00     0.059 A 
ATOM     71  C   UNL A   1      46.241  34.998  27.426  1.00  0.00     0.059 A 
ATOM     72  F   UNL A   1      45.529  33.227  26.064  1.00  0.00    -0.206 F 
ATOM     73  C   UNL A   1      46.639  35.461  28.680  1.00  0.00     0.060 A 
BRANCH  73  74
ATOM     74  S   UNL A   1      47.007  37.209  28.939  1.00  0.00     0.124 S 
ATOM     75  O   UNL A   1      48.370  37.298  28.423  1.00  0.00    -0.237 OA
ATOM     76  O   UNL A   1      45.981  37.865  28.134  1.00  0.00    -0.237 OA
ATOM     77  O   UNL A   1      46.870  37.375  30.382  1.00  0.00    -0.744 OA
ENDBRANCH  73  74
ENDBRANCH  52  66
BRANCH  53  78
ATOM     78  C   UNL A   1      43.468  23.159  26.871  1.00  0.00     0.058 A 
ATOM     79  C   UNL A   1      43.334  22.649  25.570  1.00  0.00     0.135 A 
ATOM     80  C   UNL A   1      43.239  22.280  27.941  1.00  0.00     0.135 A 
ATOM     81  F   UNL A   1      43.540  23.447  24.512  1.00  0.00    -0.206 F 
ATOM     82  C   UNL A   1      42.964  21.327  25.337  1.00  0.00     0.059 A 
ATOM     83  C   UNL A   1      42.897  20.947  27.734  1.00  0.00     0.059 A 
ATOM     84  F   UNL A   1      43.374  22.710  29.205  1.00  0.00    -0.206 F 
ATOM     85  C   UNL A   1      42.750  20.483  26.428  1.00  0.00     0.060 A 
BRANCH  85  86
ATOM     86  S   UNL A   1      42.313  18.758  26.114  1.00  0.00     0.124 S 
ATOM     87  O   UNL A   1      43.289  18.389  25.095  1.00  0.00    -0.237 OA
ATOM     88  O   UNL A   1      42.501  18.152  27.428  1.00  0.00    -0.237 OA
ATOM     89  O   UNL A   1      40.927  18.841  25.662  1.00  0.00    -0.744 OA
ENDBRANCH  85  86
ENDBRANCH  53  78
BRANCH  65  90
ATOM     90  C   UNL A   1      49.461  26.681  26.324  1.00  0.00     0.058 A 
ATOM     91  C   UNL A   1      49.987  26.867  25.035  1.00  0.00     0.135 A 
ATOM     92  C   UNL A   1      50.287  26.077  27.288  1.00  0.00     0.135 A 
ATOM     93  F   UNL A   1      49.241  27.439  24.078  1.00  0.00    -0.206 F 
ATOM     94  C   UNL A   1      51.260  26.421  24.700  1.00  0.00     0.059 A 
ATOM     95  C   UNL A   1      51.576  25.658  26.984  1.00  0.00     0.059 A 
ATOM     96  F   UNL A   1      49.841  25.894  28.541  1.00  0.00    -0.206 F 
ATOM     97  C   UNL A   1      52.045  25.811  25.681  1.00  0.00     0.060 A 
BRANCH  97  98
ATOM     98  S   UNL A   1      53.689  25.219  25.229  1.00  0.00     0.124 S 
ATOM     99  O   UNL A   1      53.536  23.778  25.394  1.00  0.00    -0.237 OA
ATOM    100  O   UNL A   1      53.822  25.691  23.854  1.00  0.00    -0.237 OA
ATOM    101  O   UNL A   1      54.563  25.875  26.197  1.00  0.00    -0.744 OA
ENDBRANCH  97  98
ENDBRANCH  65  90
ENDBRANCH  39  40
ENDBRANCH  31  34
ENDBRANCH  29  30
ENDBRANCH  28  29
ENDBRANCH   1  28
TORSDOF 17
ENDMDL
MODEL 3
REMARK VINA RESULT:     -12.6      1.347      2.253
REMARK SMILES Cc1ccc(S(=O)(=O)N2C[C@@H](CC(=O)NCCCCNC(=O)c3ccc(-c4c5nc(c(-c6c(F)cc(S(=O)(=O)[O-])cc6F)c6ccc([nH]6)c(-c6c(F)cc(S(=O)(=O)[O-])cc6F)c6nc(c(-c7c(F)cc(S(=O)(=O)[O-])cc7F)c7ccc4[nH]7)C=C6)C=C5)cc3)c3ccccc32)c(C)c1
REMARK SMILES IDX 17 1 16 2 15 3 13 4 14 5 12 7 11 8 9 9 10 10 94 11 89 12
REMARK SMILES IDX 93 13 90 14 92 15 91 16 6 17 7 18 8 19 5 20 1 21 2 22 3 23
REMARK SMILES IDX 97 24 4 25 95 26 96 27 18 28 19 29 20 30 21 31 22 33 23 34
REMARK SMILES IDX 24 35 88 36 25 37 87 38 26 39 27 40 28 41 81 42 29 43 86 44
REMARK SMILES IDX 80 45 82 46 30 47 85 48 79 49 78 50 31 52 65 53 44 54 64 55
REMARK SMILES IDX 45 56 48 57 63 58 83 59 46 60 47 61 62 63 84 64 49 65 32 66
REMARK SMILES IDX 33 67 42 68 34 69 35 70 41 71 43 72 36 73 37 74 38 75 39 76
REMARK SMILES IDX 40 77 66 78 67 79 76 80 68 81 69 82 75 83 77 84 70 85 71 86
REMARK SMILES IDX 72 87 73 88 74 89 50 90 51 91 60 92 52 93 53 94 59 95 61 96
REMARK SMILES IDX 54 97 55 98 56 99 57 100 58 101
REMARK H PARENT 15 6 20 32 82 51 48 62
REMARK Flexibility Score: inf
ROOT
ATOM      1  C   UNL A   1      39.586  21.828  26.128  1.00  0.00     0.023 C 
ENDROOT
BRANCH   1   2
ATOM      2  C   UNL A   1      38.193  22.331  25.785  1.00  0.00     0.116 C 
BRANCH   2   3
ATOM      3  N   UNL A   1      37.420  21.238  25.222  1.00  0.00    -0.356 N 
ATOM      4  C   UNL A   1      36.061  21.145  25.115  1.00  0.00     0.220 C 
ATOM      5  O   UNL A   1      35.548  20.038  24.952  1.00  0.00    -0.275 OA
ATOM      6  H   UNL A   1      37.937  20.473  24.879  1.00  0.00     0.163 HD
BRANCH   4   7
ATOM      7  C   UNL A   1      35.218  22.403  25.104  1.00  0.00     0.110 C 
BRANCH   7   8
ATOM      8  C   UNL A   1      34.016  22.378  24.143  1.00  0.00     0.051 C 
ATOM      9  N   UNL A   1      33.361  24.714  23.901  1.00  0.00    -0.265 N 
ATOM     10  C   UNL A   1      34.119  23.604  23.207  1.00  0.00     0.144 C 
ATOM     11  C   UNL A   1      32.399  24.043  24.736  1.00  0.00     0.055 A 
ATOM     12  C   UNL A   1      32.686  22.677  24.782  1.00  0.00    -0.018 A 
ATOM     13  C   UNL A   1      31.338  24.576  25.451  1.00  0.00     0.027 A 
ATOM     14  C   UNL A   1      31.778  21.795  25.346  1.00  0.00     0.006 A 
ATOM     15  C   UNL A   1      30.481  23.699  26.120  1.00  0.00     0.002 A 
ATOM     16  C   UNL A   1      30.676  22.316  26.034  1.00  0.00     0.000 A 
BRANCH   9  17
ATOM     17  S   UNL A   1      32.740  25.865  22.787  1.00  0.00     0.264 S 
ATOM     18  O   UNL A   1      31.492  25.346  22.272  1.00  0.00    -0.201 OA
ATOM     19  O   UNL A   1      33.825  26.230  21.893  1.00  0.00    -0.201 OA
BRANCH  17  20
ATOM     20  C   UNL A   1      32.398  27.334  23.742  1.00  0.00     0.090 A 
ATOM     21  C   UNL A   1      31.425  30.854  26.029  1.00  0.00     0.044 C 
ATOM     22  C   UNL A   1      31.767  29.642  25.213  1.00  0.00    -0.051 A 
ATOM     23  C   UNL A   1      30.959  29.250  24.145  1.00  0.00     0.005 A 
ATOM     24  C   UNL A   1      32.880  28.861  25.551  1.00  0.00     0.008 A 
ATOM     25  C   UNL A   1      31.265  28.098  23.421  1.00  0.00     0.023 A 
ATOM     26  C   UNL A   1      33.219  27.702  24.825  1.00  0.00    -0.030 A 
ATOM     27  C   UNL A   1      34.391  26.905  25.330  1.00  0.00     0.046 C 
ENDBRANCH  17  20
ENDBRANCH   9  17
ENDBRANCH   7   8
ENDBRANCH   4   7
ENDBRANCH   2   3
ENDBRANCH   1   2
BRANCH   1  28
ATOM     28  C   UNL A   1      40.203  22.379  27.397  1.00  0.00     0.023 C 
BRANCH  28  29
ATOM     29  C   UNL A   1      41.525  23.079  27.180  1.00  0.00     0.116 C 
BRANCH  29  30
ATOM     30  N   UNL A   1      41.523  24.017  26.063  1.00  0.00    -0.352 N 
ATOM     31  C   UNL A   1      41.426  25.390  26.089  1.00  0.00     0.251 C 
ATOM     32  H   UNL A   1      41.600  23.612  25.169  1.00  0.00     0.163 HD
ATOM     33  O   UNL A   1      41.352  26.024  25.041  1.00  0.00    -0.269 OA
BRANCH  31  34
ATOM     34  C   UNL A   1      41.358  26.078  27.396  1.00  0.00     0.039 A 
ATOM     35  C   UNL A   1      42.369  26.970  27.752  1.00  0.00     0.014 A 
ATOM     36  C   UNL A   1      40.238  25.923  28.213  1.00  0.00     0.014 A 
ATOM     37  C   UNL A   1      42.203  27.773  28.882  1.00  0.00     0.010 A 
ATOM     38  C   UNL A   1      40.005  26.832  29.232  1.00  0.00     0.010 A 
ATOM     39  C   UNL A   1      40.993  27.753  29.598  1.00  0.00    -0.014 A 
BRANCH  39  40
ATOM     40  C   UNL A   1      40.751  28.671  30.741  1.00  0.00     0.031 A 
ATOM     41  C   UNL A   1      41.585  28.554  31.992  1.00  0.00     0.074 A 
ATOM     42  C   UNL A   1      39.748  29.572  30.672  1.00  0.00     0.049 A 
ATOM     43  N   UNL A   1      41.519  29.253  33.095  1.00  0.00    -0.248 NA
ATOM     44  C   UNL A   1      42.594  27.481  32.031  1.00  0.00     0.031 C 
ATOM     45  C   UNL A   1      38.809  29.715  29.555  1.00  0.00     0.029 A 
ATOM     46  N   UNL A   1      39.354  30.543  31.556  1.00  0.00    -0.354 N 
ATOM     47  C   UNL A   1      42.461  28.695  33.954  1.00  0.00     0.074 A 
ATOM     48  C   UNL A   1      43.018  27.545  33.283  1.00  0.00     0.031 C 
ATOM     49  C   UNL A   1      37.991  30.752  29.794  1.00  0.00     0.029 A 
ATOM     50  C   UNL A   1      38.318  31.323  31.095  1.00  0.00     0.049 A 
ATOM     51  H   UNL A   1      39.773  30.671  32.438  1.00  0.00     0.167 HD
ATOM     52  C   UNL A   1      42.861  29.126  35.173  1.00  0.00     0.037 A 
ATOM     53  C   UNL A   1      37.711  32.388  31.655  1.00  0.00     0.037 A 
ATOM     54  C   UNL A   1      42.328  30.299  35.814  1.00  0.00     0.049 A 
ATOM     55  C   UNL A   1      38.202  32.877  32.991  1.00  0.00     0.074 A 
ATOM     56  C   UNL A   1      42.705  30.869  37.017  1.00  0.00     0.029 A 
ATOM     57  N   UNL A   1      41.307  31.084  35.300  1.00  0.00    -0.354 N 
ATOM     58  N   UNL A   1      39.152  32.385  33.752  1.00  0.00    -0.248 NA
ATOM     59  C   UNL A   1      37.552  34.075  33.535  1.00  0.00     0.031 C 
ATOM     60  C   UNL A   1      41.877  31.971  37.253  1.00  0.00     0.029 A 
ATOM     61  C   UNL A   1      41.027  32.125  36.169  1.00  0.00     0.049 A 
ATOM     62  H   UNL A   1      40.849  30.925  34.443  1.00  0.00     0.167 HD
ATOM     63  C   UNL A   1      39.232  33.231  34.853  1.00  0.00     0.074 A 
ATOM     64  C   UNL A   1      38.251  34.276  34.644  1.00  0.00     0.031 C 
ATOM     65  C   UNL A   1      40.042  33.152  35.940  1.00  0.00     0.037 A 
BRANCH  52  66
ATOM     66  C   UNL A   1      43.937  28.339  35.874  1.00  0.00     0.058 A 
ATOM     67  C   UNL A   1      45.301  28.616  35.681  1.00  0.00     0.135 A 
ATOM     68  C   UNL A   1      43.602  27.307  36.765  1.00  0.00     0.135 A 
ATOM     69  F   UNL A   1      45.683  29.577  34.825  1.00  0.00    -0.206 F 
ATOM     70  C   UNL A   1      46.294  27.879  36.319  1.00  0.00     0.059 A 
ATOM     71  C   UNL A   1      44.577  26.579  37.442  1.00  0.00     0.059 A 
ATOM     72  F   UNL A   1      42.316  26.995  36.985  1.00  0.00    -0.206 F 
ATOM     73  C   UNL A   1      45.921  26.863  37.200  1.00  0.00     0.060 A 
BRANCH  73  74
ATOM     74  S   UNL A   1      47.221  25.927  38.030  1.00  0.00     0.124 S 
ATOM     75  O   UNL A   1      46.546  25.518  39.259  1.00  0.00    -0.237 OA
ATOM     76  O   UNL A   1      47.495  24.860  37.073  1.00  0.00    -0.237 OA
ATOM     77  O   UNL A   1      48.291  26.905  38.199  1.00  0.00    -0.744 OA
ENDBRANCH  73  74
ENDBRANCH  52  66
BRANCH  53  78
ATOM     78  C   UNL A   1      36.612  33.089  30.934  1.00  0.00     0.058 A 
ATOM     79  C   UNL A   1      35.282  32.994  31.371  1.00  0.00     0.135 A 
ATOM     80  C   UNL A   1      36.870  33.875  29.800  1.00  0.00     0.135 A 
ATOM     81  F   UNL A   1      34.981  32.254  32.449  1.00  0.00    -0.206 F 
ATOM     82  C   UNL A   1      34.244  33.633  30.700  1.00  0.00     0.059 A 
ATOM     83  C   UNL A   1      35.853  34.547  29.128  1.00  0.00     0.059 A 
ATOM     84  F   UNL A   1      38.127  34.016  29.351  1.00  0.00    -0.206 F 
ATOM     85  C   UNL A   1      34.541  34.410  29.579  1.00  0.00     0.060 A 
BRANCH  85  86
ATOM     86  S   UNL A   1      33.193  35.271  28.740  1.00  0.00     0.124 S 
ATOM     87  O   UNL A   1      32.330  35.628  29.860  1.00  0.00    -0.237 OA
ATOM     88  O   UNL A   1      33.891  36.377  28.093  1.00  0.00    -0.237 OA
ATOM     89  O   UNL A   1      32.662  34.257  27.833  1.00  0.00    -0.744 OA
ENDBRANCH  85  86
ENDBRANCH  53  78
BRANCH  65  90
ATOM     90  C   UNL A   1      39.919  34.247  36.962  1.00  0.00     0.058 A 
ATOM     91  C   UNL A   1      40.636  35.450  36.853  1.00  0.00     0.135 A 
ATOM     92  C   UNL A   1      39.061  34.094  38.065  1.00  0.00     0.135 A 
ATOM     93  F   UNL A   1      41.468  35.648  35.819  1.00  0.00    -0.206 F 
ATOM     94  C   UNL A   1      40.550  36.436  37.828  1.00  0.00     0.059 A 
ATOM     95  C   UNL A   1      38.932  35.083  39.032  1.00  0.00     0.059 A 
ATOM     96  F   UNL A   1      38.337  32.972  38.207  1.00  0.00    -0.206 F 
ATOM     97  C   UNL A   1      39.700  36.240  38.918  1.00  0.00     0.060 A 
BRANCH  97  98
ATOM     98  S   UNL A   1      39.612  37.520  40.187  1.00  0.00     0.124 S 
ATOM     99  O   UNL A   1      40.976  38.037  40.176  1.00  0.00    -0.237 OA
ATOM    100  O   UNL A   1      38.589  38.416  39.656  1.00  0.00    -0.237 OA
ATOM    101  O   UNL A   1      39.228  36.782  41.387  1.00  0.00    -0.744 OA
ENDBRANCH  97  98
ENDBRANCH  65  90
ENDBRANCH  39  40
ENDBRANCH  31  34
ENDBRANCH  29  30
ENDBRANCH  28  29
ENDBRANCH   1  28
TORSDOF 17
ENDMDL
