MODEL 1
REMARK VINA RESULT:      -8.8      0.000      0.000
REMARK SMILES CCCCOC(=O)c1ccc(N2C[C@H](C(=O)NCCCCNC(=O)c3ccc(-c4c5nc(c(-c6c(F)cc(S(=O)(=O)[O-])cc6F)c6ccc([nH]6)c(-c6c(F)cc(S(=O)(=O)[O-])cc6F)c6nc(c(-c7c(F)cc(S(=O)(=O)[O-])cc7F)c7ccc4[nH]7)C=C6)C=C5)cc3)CC2=O)cc1
REMARK SMILES IDX 18 1 17 2 15 3 16 4 14 6 12 7 13 8 92 9 91 10 93 11 11 12
REMARK SMILES IDX 8 13 9 14 95 15 10 16 94 17 6 18 7 19 5 20 4 21 3 22 2 23
REMARK SMILES IDX 1 24 19 25 20 26 21 27 22 28 23 29 24 31 25 32 26 33 90 34
REMARK SMILES IDX 27 35 89 36 28 37 29 38 30 39 83 40 31 41 88 42 82 43 84 44
REMARK SMILES IDX 32 45 87 46 81 47 80 48 33 50 67 51 46 52 66 53 47 54 50 55
REMARK SMILES IDX 65 56 85 57 48 58 49 59 64 61 86 62 51 63 34 64 35 65 44 66
REMARK SMILES IDX 36 67 37 68 43 69 45 70 38 71 39 72 40 73 41 74 42 75 68 76
REMARK SMILES IDX 69 77 78 78 70 79 71 80 77 81 79 82 72 83 73 84 74 85 75 86
REMARK SMILES IDX 76 87 52 88 53 89 62 90 54 91 55 92 61 93 63 94 56 95 57 96
REMARK SMILES IDX 58 97 59 98 60 99
REMARK H PARENT 17 5 22 30 84 49 50 60
REMARK Flexibility Score: inf
ROOT
ATOM      1  C   UNL A   1      34.709  35.093  32.214  1.00  0.00     0.116 C 
ENDROOT
BRANCH   1   2
ATOM      2  N   UNL A   1      36.139  35.199  32.436  1.00  0.00    -0.356 N 
ATOM      3  C   UNL A   1      37.029  34.306  32.945  1.00  0.00     0.225 C 
ATOM      4  O   UNL A   1      38.210  34.644  33.022  1.00  0.00    -0.275 OA
ATOM      5  H   UNL A   1      36.532  36.063  32.173  1.00  0.00     0.163 HD
BRANCH   3   6
ATOM      6  C   UNL A   1      36.562  32.942  33.406  1.00  0.00     0.107 C 
ATOM      7  N   UNL A   1      38.306  31.399  33.822  1.00  0.00    -0.312 N 
ATOM      8  C   UNL A   1      37.430  31.866  32.779  1.00  0.00     0.139 C 
ATOM      9  C   UNL A   1      37.921  31.870  35.077  1.00  0.00     0.227 C 
ATOM     10  C   UNL A   1      36.737  32.790  34.909  1.00  0.00     0.116 C 
ATOM     11  O   UNL A   1      38.403  31.613  36.172  1.00  0.00    -0.274 OA
BRANCH   7  12
ATOM     12  C   UNL A   1      39.385  30.517  33.568  1.00  0.00     0.044 A 
ATOM     13  C   UNL A   1      41.510  28.733  33.140  1.00  0.00     0.060 A 
ATOM     14  C   UNL A   1      41.765  29.982  33.706  1.00  0.00     0.018 A 
ATOM     15  C   UNL A   1      40.216  28.372  32.771  1.00  0.00     0.018 A 
ATOM     16  C   UNL A   1      40.703  30.872  33.905  1.00  0.00     0.027 A 
ATOM     17  C   UNL A   1      39.162  29.261  32.989  1.00  0.00     0.027 A 
BRANCH  13  18
ATOM     18  C   UNL A   1      42.578  27.741  32.989  1.00  0.00     0.338 C 
ATOM     19  O   UNL A   1      43.024  27.397  31.906  1.00  0.00    -0.246 OA
BRANCH  18  20
ATOM     20  O   UNL A   1      43.009  27.379  34.218  1.00  0.00    -0.462 OA
BRANCH  20  21
ATOM     21  C   UNL A   1      43.259  25.978  34.403  1.00  0.00     0.233 C 
BRANCH  21  22
ATOM     22  C   UNL A   1      44.756  25.696  34.315  1.00  0.00     0.041 C 
BRANCH  22  23
ATOM     23  C   UNL A   1      45.110  24.352  33.673  1.00  0.00     0.000 C 
ATOM     24  C   UNL A   1      44.605  24.212  32.246  1.00  0.00     0.004 C 
ENDBRANCH  22  23
ENDBRANCH  21  22
ENDBRANCH  20  21
ENDBRANCH  18  20
ENDBRANCH  13  18
ENDBRANCH   7  12
ENDBRANCH   3   6
ENDBRANCH   1   2
BRANCH   1  25
ATOM     25  C   UNL A   1      34.385  34.653  30.789  1.00  0.00     0.023 C 
BRANCH  25  26
ATOM     26  C   UNL A   1      34.575  33.160  30.508  1.00  0.00     0.023 C 
BRANCH  26  27
ATOM     27  C   UNL A   1      35.032  32.804  29.096  1.00  0.00     0.116 C 
BRANCH  27  28
ATOM     28  N   UNL A   1      34.215  31.773  28.477  1.00  0.00    -0.352 N 
ATOM     29  C   UNL A   1      34.578  30.519  28.044  1.00  0.00     0.251 C 
ATOM     30  H   UNL A   1      33.267  32.006  28.349  1.00  0.00     0.163 HD
ATOM     31  O   UNL A   1      33.765  29.830  27.433  1.00  0.00    -0.269 OA
BRANCH  29  32
ATOM     32  C   UNL A   1      35.948  30.017  28.283  1.00  0.00     0.039 A 
ATOM     33  C   UNL A   1      36.882  30.093  27.244  1.00  0.00     0.014 A 
ATOM     34  C   UNL A   1      36.319  29.483  29.521  1.00  0.00     0.014 A 
ATOM     35  C   UNL A   1      38.205  29.703  27.470  1.00  0.00     0.010 A 
ATOM     36  C   UNL A   1      37.650  29.147  29.761  1.00  0.00     0.010 A 
ATOM     37  C   UNL A   1      38.608  29.262  28.741  1.00  0.00    -0.014 A 
BRANCH  37  38
ATOM     38  C   UNL A   1      40.030  28.945  29.029  1.00  0.00     0.031 A 
ATOM     39  C   UNL A   1      40.936  29.986  29.623  1.00  0.00     0.074 A 
ATOM     40  C   UNL A   1      40.521  27.736  28.689  1.00  0.00     0.049 A 
ATOM     41  N   UNL A   1      42.220  29.921  29.865  1.00  0.00    -0.248 NA
ATOM     42  C   UNL A   1      40.325  31.279  29.966  1.00  0.00     0.031 C 
ATOM     43  C   UNL A   1      39.755  26.655  28.064  1.00  0.00     0.029 A 
ATOM     44  N   UNL A   1      41.787  27.219  28.808  1.00  0.00    -0.354 N 
ATOM     45  C   UNL A   1      42.574  31.165  30.372  1.00  0.00     0.074 A 
ATOM     46  C   UNL A   1      41.377  31.978  30.367  1.00  0.00     0.031 C 
ATOM     47  C   UNL A   1      40.562  25.600  27.868  1.00  0.00     0.029 A 
ATOM     48  C   UNL A   1      41.907  25.938  28.323  1.00  0.00     0.049 A 
ATOM     49  H   UNL A   1      42.538  27.718  29.202  1.00  0.00     0.167 HD
ATOM     50  C   UNL A   1      43.783  31.586  30.817  1.00  0.00     0.037 A 
ATOM     51  C   UNL A   1      42.982  25.129  28.246  1.00  0.00     0.037 A 
ATOM     52  C   UNL A   1      44.966  30.766  30.849  1.00  0.00     0.049 A 
ATOM     53  C   UNL A   1      44.308  25.613  28.761  1.00  0.00     0.074 A 
ATOM     54  C   UNL A   1      46.222  31.085  31.337  1.00  0.00     0.029 A 
ATOM     55  N   UNL A   1      45.040  29.465  30.376  1.00  0.00    -0.354 N 
ATOM     56  N   UNL A   1      44.613  26.775  29.285  1.00  0.00    -0.248 NA
ATOM     57  C   UNL A   1      45.436  24.675  28.678  1.00  0.00     0.031 C 
ATOM     58  C   UNL A   1      47.062  29.984  31.134  1.00  0.00     0.029 A 
ATOM     59  C   UNL A   1      46.322  28.970  30.549  1.00  0.00     0.049 A 
ATOM     60  H   UNL A   1      44.292  28.965  29.975  1.00  0.00     0.167 HD
ATOM     61  C   UNL A   1      45.961  26.702  29.612  1.00  0.00     0.074 A 
ATOM     62  C   UNL A   1      46.412  25.378  29.236  1.00  0.00     0.031 C 
ATOM     63  C   UNL A   1      46.755  27.647  30.173  1.00  0.00     0.037 A 
BRANCH  50  64
ATOM     64  C   UNL A   1      43.881  33.000  31.314  1.00  0.00     0.058 A 
ATOM     65  C   UNL A   1      43.757  33.308  32.678  1.00  0.00     0.135 A 
ATOM     66  C   UNL A   1      44.126  34.056  30.423  1.00  0.00     0.135 A 
ATOM     67  F   UNL A   1      43.508  32.336  33.570  1.00  0.00    -0.206 F 
ATOM     68  C   UNL A   1      43.841  34.618  33.137  1.00  0.00     0.059 A 
ATOM     69  C   UNL A   1      44.236  35.372  30.863  1.00  0.00     0.059 A 
ATOM     70  F   UNL A   1      44.253  33.816  29.107  1.00  0.00    -0.206 F 
ATOM     71  C   UNL A   1      44.076  35.644  32.221  1.00  0.00     0.060 A 
BRANCH  71  72
ATOM     72  S   UNL A   1      44.172  37.341  32.829  1.00  0.00     0.124 S 
ATOM     73  O   UNL A   1      45.583  37.440  33.188  1.00  0.00    -0.237 OA
ATOM     74  O   UNL A   1      43.760  38.118  31.664  1.00  0.00    -0.237 OA
ATOM     75  O   UNL A   1      43.236  37.353  33.948  1.00  0.00    -0.744 OA
ENDBRANCH  71  72
ENDBRANCH  50  64
BRANCH  51  76
ATOM     76  C   UNL A   1      42.839  23.764  27.679  1.00  0.00     0.058 A 
ATOM     77  C   UNL A   1      42.742  22.644  28.518  1.00  0.00     0.135 A 
ATOM     78  C   UNL A   1      42.774  23.553  26.294  1.00  0.00     0.135 A 
ATOM     79  F   UNL A   1      42.805  22.798  29.850  1.00  0.00    -0.206 F 
ATOM     80  C   UNL A   1      42.598  21.361  28.005  1.00  0.00     0.059 A 
ATOM     81  C   UNL A   1      42.609  22.280  25.757  1.00  0.00     0.059 A 
ATOM     82  F   UNL A   1      42.845  24.596  25.450  1.00  0.00    -0.206 F 
ATOM     83  C   UNL A   1      42.531  21.189  26.621  1.00  0.00     0.060 A 
BRANCH  83  84
ATOM     84  S   UNL A   1      42.281  19.524  25.964  1.00  0.00     0.124 S 
ATOM     85  O   UNL A   1      42.369  18.716  27.174  1.00  0.00    -0.237 OA
ATOM     86  O   UNL A   1      40.957  19.627  25.358  1.00  0.00    -0.237 OA
ATOM     87  O   UNL A   1      43.383  19.373  25.019  1.00  0.00    -0.744 OA
ENDBRANCH  83  84
ENDBRANCH  51  76
BRANCH  63  88
ATOM     88  C   UNL A   1      48.185  27.277  30.436  1.00  0.00     0.058 A 
ATOM     89  C   UNL A   1      49.190  27.511  29.486  1.00  0.00     0.135 A 
ATOM     90  C   UNL A   1      48.562  26.721  31.670  1.00  0.00     0.135 A 
ATOM     91  F   UNL A   1      48.879  28.032  28.289  1.00  0.00    -0.206 F 
ATOM     92  C   UNL A   1      50.520  27.193  29.743  1.00  0.00     0.059 A 
ATOM     93  C   UNL A   1      49.888  26.414  31.955  1.00  0.00     0.059 A 
ATOM     94  F   UNL A   1      47.638  26.485  32.614  1.00  0.00    -0.206 F 
ATOM     95  C   UNL A   1      50.859  26.643  30.981  1.00  0.00     0.060 A 
BRANCH  95  96
ATOM     96  S   UNL A   1      52.591  26.265  31.320  1.00  0.00     0.124 S 
ATOM     97  O   UNL A   1      53.165  26.290  29.979  1.00  0.00    -0.237 OA
ATOM     98  O   UNL A   1      52.988  27.363  32.198  1.00  0.00    -0.237 OA
ATOM     99  O   UNL A   1      52.533  24.953  31.956  1.00  0.00    -0.744 OA
ENDBRANCH  95  96
ENDBRANCH  63  88
ENDBRANCH  37  38
ENDBRANCH  29  32
ENDBRANCH  27  28
ENDBRANCH  26  27
ENDBRANCH  25  26
ENDBRANCH   1  25
TORSDOF 20
ENDMDL
MODEL 2
REMARK VINA RESULT:      -8.6      4.981     12.543
REMARK SMILES CCCCOC(=O)c1ccc(N2C[C@H](C(=O)NCCCCNC(=O)c3ccc(-c4c5nc(c(-c6c(F)cc(S(=O)(=O)[O-])cc6F)c6ccc([nH]6)c(-c6c(F)cc(S(=O)(=O)[O-])cc6F)c6nc(c(-c7c(F)cc(S(=O)(=O)[O-])cc7F)c7ccc4[nH]7)C=C6)C=C5)cc3)CC2=O)cc1
REMARK SMILES IDX 18 1 17 2 15 3 16 4 14 6 12 7 13 8 92 9 91 10 93 11 11 12
REMARK SMILES IDX 8 13 9 14 95 15 10 16 94 17 6 18 7 19 5 20 4 21 3 22 2 23
REMARK SMILES IDX 1 24 19 25 20 26 21 27 22 28 23 29 24 31 25 32 26 33 90 34
REMARK SMILES IDX 27 35 89 36 28 37 29 38 30 39 83 40 31 41 88 42 82 43 84 44
REMARK SMILES IDX 32 45 87 46 81 47 80 48 33 50 67 51 46 52 66 53 47 54 50 55
REMARK SMILES IDX 65 56 85 57 48 58 49 59 64 61 86 62 51 63 34 64 35 65 44 66
REMARK SMILES IDX 36 67 37 68 43 69 45 70 38 71 39 72 40 73 41 74 42 75 68 76
REMARK SMILES IDX 69 77 78 78 70 79 71 80 77 81 79 82 72 83 73 84 74 85 75 86
REMARK SMILES IDX 76 87 52 88 53 89 62 90 54 91 55 92 61 93 63 94 56 95 57 96
REMARK SMILES IDX 58 97 59 98 60 99
REMARK H PARENT 17 5 22 30 84 49 50 60
REMARK Flexibility Score: inf
ROOT
ATOM      1  C   UNL A   1      38.605  22.204  26.319  1.00  0.00     0.116 C 
ENDROOT
BRANCH   1   2
ATOM      2  N   UNL A   1      38.167  22.332  24.942  1.00  0.00    -0.356 N 
ATOM      3  C   UNL A   1      36.919  22.436  24.412  1.00  0.00     0.225 C 
ATOM      4  O   UNL A   1      36.815  22.544  23.190  1.00  0.00    -0.275 OA
ATOM      5  H   UNL A   1      38.895  22.347  24.280  1.00  0.00     0.163 HD
BRANCH   3   6
ATOM      6  C   UNL A   1      35.702  22.411  25.313  1.00  0.00     0.107 C 
ATOM      7  N   UNL A   1      34.082  24.061  24.815  1.00  0.00    -0.312 N 
ATOM      8  C   UNL A   1      35.259  23.831  25.613  1.00  0.00     0.139 C 
ATOM      9  C   UNL A   1      33.594  22.882  24.253  1.00  0.00     0.227 C 
ATOM     10  C   UNL A   1      34.525  21.750  24.612  1.00  0.00     0.116 C 
ATOM     11  O   UNL A   1      32.584  22.714  23.583  1.00  0.00    -0.274 OA
BRANCH   7  12
ATOM     12  C   UNL A   1      33.487  25.341  24.694  1.00  0.00     0.044 A 
ATOM     13  C   UNL A   1      32.239  27.840  24.416  1.00  0.00     0.060 A 
ATOM     14  C   UNL A   1      33.086  27.380  23.409  1.00  0.00     0.018 A 
ATOM     15  C   UNL A   1      32.021  27.079  25.563  1.00  0.00     0.018 A 
ATOM     16  C   UNL A   1      33.716  26.138  23.559  1.00  0.00     0.027 A 
ATOM     17  C   UNL A   1      32.641  25.835  25.695  1.00  0.00     0.027 A 
BRANCH  13  18
ATOM     18  C   UNL A   1      31.498  29.095  24.264  1.00  0.00     0.338 C 
ATOM     19  O   UNL A   1      31.341  29.895  25.173  1.00  0.00    -0.246 OA
BRANCH  18  20
ATOM     20  O   UNL A   1      31.131  29.226  22.970  1.00  0.00    -0.462 OA
BRANCH  20  21
ATOM     21  C   UNL A   1      29.808  28.772  22.648  1.00  0.00     0.233 C 
BRANCH  21  22
ATOM     22  C   UNL A   1      28.825  29.938  22.704  1.00  0.00     0.041 C 
BRANCH  22  23
ATOM     23  C   UNL A   1      28.257  30.353  21.344  1.00  0.00     0.000 C 
ATOM     24  C   UNL A   1      28.052  31.853  21.208  1.00  0.00     0.004 C 
ENDBRANCH  22  23
ENDBRANCH  21  22
ENDBRANCH  20  21
ENDBRANCH  18  20
ENDBRANCH  13  18
ENDBRANCH   7  12
ENDBRANCH   3   6
ENDBRANCH   1   2
BRANCH   1  25
ATOM     25  C   UNL A   1      40.042  21.699  26.415  1.00  0.00     0.023 C 
BRANCH  25  26
ATOM     26  C   UNL A   1      40.812  22.152  27.658  1.00  0.00     0.023 C 
BRANCH  26  27
ATOM     27  C   UNL A   1      42.019  23.051  27.400  1.00  0.00     0.116 C 
BRANCH  27  28
ATOM     28  N   UNL A   1      41.867  23.882  26.217  1.00  0.00    -0.352 N 
ATOM     29  C   UNL A   1      41.562  25.220  26.128  1.00  0.00     0.251 C 
ATOM     30  H   UNL A   1      42.000  23.421  25.358  1.00  0.00     0.163 HD
ATOM     31  O   UNL A   1      41.358  25.723  25.027  1.00  0.00    -0.269 OA
BRANCH  29  32
ATOM     32  C   UNL A   1      41.448  26.040  27.354  1.00  0.00     0.039 A 
ATOM     33  C   UNL A   1      42.479  26.933  27.662  1.00  0.00     0.014 A 
ATOM     34  C   UNL A   1      40.332  25.940  28.191  1.00  0.00     0.014 A 
ATOM     35  C   UNL A   1      42.357  27.778  28.768  1.00  0.00     0.010 A 
ATOM     36  C   UNL A   1      40.187  26.822  29.261  1.00  0.00     0.010 A 
ATOM     37  C   UNL A   1      41.194  27.756  29.554  1.00  0.00    -0.014 A 
BRANCH  37  38
ATOM     38  C   UNL A   1      40.999  28.718  30.669  1.00  0.00     0.031 A 
ATOM     39  C   UNL A   1      41.831  28.615  31.917  1.00  0.00     0.074 A 
ATOM     40  C   UNL A   1      40.022  29.643  30.583  1.00  0.00     0.049 A 
ATOM     41  N   UNL A   1      41.748  29.309  33.023  1.00  0.00    -0.248 NA
ATOM     42  C   UNL A   1      42.876  27.580  31.933  1.00  0.00     0.031 C 
ATOM     43  C   UNL A   1      39.117  29.815  29.444  1.00  0.00     0.029 A 
ATOM     44  N   UNL A   1      39.617  30.603  31.476  1.00  0.00    -0.354 N 
ATOM     45  C   UNL A   1      42.714  28.785  33.872  1.00  0.00     0.074 A 
ATOM     46  C   UNL A   1      43.347  27.691  33.167  1.00  0.00     0.031 C 
ATOM     47  C   UNL A   1      38.273  30.828  29.702  1.00  0.00     0.029 A 
ATOM     48  C   UNL A   1      38.557  31.356  31.033  1.00  0.00     0.049 A 
ATOM     49  H   UNL A   1      40.046  30.739  32.352  1.00  0.00     0.167 HD
ATOM     50  C   UNL A   1      43.057  29.191  35.119  1.00  0.00     0.037 A 
ATOM     51  C   UNL A   1      37.881  32.356  31.635  1.00  0.00     0.037 A 
ATOM     52  C   UNL A   1      42.447  30.299  35.807  1.00  0.00     0.049 A 
ATOM     53  C   UNL A   1      38.290  32.798  33.011  1.00  0.00     0.074 A 
ATOM     54  C   UNL A   1      42.766  30.823  37.049  1.00  0.00     0.029 A 
ATOM     55  N   UNL A   1      41.395  31.055  35.313  1.00  0.00    -0.354 N 
ATOM     56  N   UNL A   1      39.241  32.325  33.779  1.00  0.00    -0.248 NA
ATOM     57  C   UNL A   1      37.535  33.912  33.602  1.00  0.00     0.031 C 
ATOM     58  C   UNL A   1      41.889  31.880  37.316  1.00  0.00     0.029 A 
ATOM     59  C   UNL A   1      41.044  32.034  36.229  1.00  0.00     0.049 A 
ATOM     60  H   UNL A   1      40.961  30.918  34.440  1.00  0.00     0.167 HD
ATOM     61  C   UNL A   1      39.213  33.096  34.935  1.00  0.00     0.074 A 
ATOM     62  C   UNL A   1      38.158  34.072  34.762  1.00  0.00     0.031 C 
ATOM     63  C   UNL A   1      39.993  33.002  36.041  1.00  0.00     0.037 A 
BRANCH  50  64
ATOM     64  C   UNL A   1      44.150  28.432  35.816  1.00  0.00     0.058 A 
ATOM     65  C   UNL A   1      43.865  27.347  36.660  1.00  0.00     0.135 A 
ATOM     66  C   UNL A   1      45.496  28.777  35.621  1.00  0.00     0.135 A 
ATOM     67  F   UNL A   1      42.592  26.987  36.891  1.00  0.00    -0.206 F 
ATOM     68  C   UNL A   1      44.876  26.649  37.311  1.00  0.00     0.059 A 
ATOM     69  C   UNL A   1      46.525  28.077  36.245  1.00  0.00     0.059 A 
ATOM     70  F   UNL A   1      45.823  29.807  34.824  1.00  0.00    -0.206 F 
ATOM     71  C   UNL A   1      46.204  27.025  37.101  1.00  0.00     0.060 A 
BRANCH  71  72
ATOM     72  S   UNL A   1      47.506  26.117  37.960  1.00  0.00     0.124 S 
ATOM     73  O   UNL A   1      48.685  26.903  37.612  1.00  0.00    -0.237 OA
ATOM     74  O   UNL A   1      47.081  26.197  39.354  1.00  0.00    -0.237 OA
ATOM     75  O   UNL A   1      47.440  24.786  37.365  1.00  0.00    -0.744 OA
ENDBRANCH  71  72
ENDBRANCH  50  64
BRANCH  51  76
ATOM     76  C   UNL A   1      36.761  33.023  30.922  1.00  0.00     0.058 A 
ATOM     77  C   UNL A   1      35.429  32.724  31.241  1.00  0.00     0.135 A 
ATOM     78  C   UNL A   1      37.000  33.984  29.928  1.00  0.00     0.135 A 
ATOM     79  F   UNL A   1      35.154  31.807  32.181  1.00  0.00    -0.206 F 
ATOM     80  C   UNL A   1      34.369  33.346  30.591  1.00  0.00     0.059 A 
ATOM     81  C   UNL A   1      35.956  34.634  29.278  1.00  0.00     0.059 A 
ATOM     82  F   UNL A   1      38.259  34.315  29.601  1.00  0.00    -0.206 F 
ATOM     83  C   UNL A   1      34.643  34.303  29.611  1.00  0.00     0.060 A 
BRANCH  83  84
ATOM     84  S   UNL A   1      33.261  35.151  28.815  1.00  0.00     0.124 S 
ATOM     85  O   UNL A   1      32.499  35.615  29.968  1.00  0.00    -0.237 OA
ATOM     86  O   UNL A   1      33.939  36.184  28.038  1.00  0.00    -0.237 OA
ATOM     87  O   UNL A   1      32.635  34.095  28.024  1.00  0.00    -0.744 OA
ENDBRANCH  83  84
ENDBRANCH  51  76
BRANCH  63  88
ATOM     88  C   UNL A   1      39.749  33.994  37.140  1.00  0.00     0.058 A 
ATOM     89  C   UNL A   1      38.972  33.670  38.262  1.00  0.00     0.135 A 
ATOM     90  C   UNL A   1      40.336  35.270  37.091  1.00  0.00     0.135 A 
ATOM     91  F   UNL A   1      38.384  32.466  38.350  1.00  0.00    -0.206 F 
ATOM     92  C   UNL A   1      38.771  34.581  39.293  1.00  0.00     0.059 A 
ATOM     93  C   UNL A   1      40.164  36.189  38.120  1.00  0.00     0.059 A 
ATOM     94  F   UNL A   1      41.094  35.625  36.042  1.00  0.00    -0.206 F 
ATOM     95  C   UNL A   1      39.371  35.840  39.212  1.00  0.00     0.060 A 
BRANCH  95  96
ATOM     96  S   UNL A   1      39.134  37.005  40.571  1.00  0.00     0.124 S 
ATOM     97  O   UNL A   1      38.476  36.165  41.566  1.00  0.00    -0.237 OA
ATOM     98  O   UNL A   1      40.503  37.406  40.886  1.00  0.00    -0.237 OA
ATOM     99  O   UNL A   1      38.304  38.049  39.980  1.00  0.00    -0.744 OA
ENDBRANCH  95  96
ENDBRANCH  63  88
ENDBRANCH  37  38
ENDBRANCH  29  32
ENDBRANCH  27  28
ENDBRANCH  26  27
ENDBRANCH  25  26
ENDBRANCH   1  25
TORSDOF 20
ENDMDL
MODEL 3
REMARK VINA RESULT:      -8.6      0.449      8.092
REMARK SMILES CCCCOC(=O)c1ccc(N2C[C@H](C(=O)NCCCCNC(=O)c3ccc(-c4c5nc(c(-c6c(F)cc(S(=O)(=O)[O-])cc6F)c6ccc([nH]6)c(-c6c(F)cc(S(=O)(=O)[O-])cc6F)c6nc(c(-c7c(F)cc(S(=O)(=O)[O-])cc7F)c7ccc4[nH]7)C=C6)C=C5)cc3)CC2=O)cc1
REMARK SMILES IDX 18 1 17 2 15 3 16 4 14 6 12 7 13 8 92 9 91 10 93 11 11 12
REMARK SMILES IDX 8 13 9 14 95 15 10 16 94 17 6 18 7 19 5 20 4 21 3 22 2 23
REMARK SMILES IDX 1 24 19 25 20 26 21 27 22 28 23 29 24 31 25 32 26 33 90 34
REMARK SMILES IDX 27 35 89 36 28 37 29 38 30 39 83 40 31 41 88 42 82 43 84 44
REMARK SMILES IDX 32 45 87 46 81 47 80 48 33 50 67 51 46 52 66 53 47 54 50 55
REMARK SMILES IDX 65 56 85 57 48 58 49 59 64 61 86 62 51 63 34 64 35 65 44 66
REMARK SMILES IDX 36 67 37 68 43 69 45 70 38 71 39 72 40 73 41 74 42 75 68 76
REMARK SMILES IDX 69 77 78 78 70 79 71 80 77 81 79 82 72 83 73 84 74 85 75 86
REMARK SMILES IDX 76 87 52 88 53 89 62 90 54 91 55 92 61 93 63 94 56 95 57 96
REMARK SMILES IDX 58 97 59 98 60 99
REMARK H PARENT 17 5 22 30 84 49 50 60
REMARK Flexibility Score: inf
ROOT
ATOM      1  C   UNL A   1      34.693  34.928  32.128  1.00  0.00     0.116 C 
ENDROOT
BRANCH   1   2
ATOM      2  N   UNL A   1      36.115  35.087  32.367  1.00  0.00    -0.356 N 
ATOM      3  C   UNL A   1      37.013  34.265  32.972  1.00  0.00     0.225 C 
ATOM      4  O   UNL A   1      38.185  34.636  33.041  1.00  0.00    -0.275 OA
ATOM      5  H   UNL A   1      36.494  35.934  32.036  1.00  0.00     0.163 HD
BRANCH   3   6
ATOM      6  C   UNL A   1      36.566  32.936  33.545  1.00  0.00     0.107 C 
ATOM      7  N   UNL A   1      38.318  31.389  33.909  1.00  0.00    -0.312 N 
ATOM      8  C   UNL A   1      37.367  31.812  32.913  1.00  0.00     0.139 C 
ATOM      9  C   UNL A   1      38.039  31.935  35.162  1.00  0.00     0.227 C 
ATOM     10  C   UNL A   1      36.858  32.865  35.035  1.00  0.00     0.116 C 
ATOM     11  O   UNL A   1      38.604  31.730  36.228  1.00  0.00    -0.274 OA
BRANCH   7  12
ATOM     12  C   UNL A   1      39.361  30.474  33.621  1.00  0.00     0.044 A 
ATOM     13  C   UNL A   1      41.436  28.699  32.975  1.00  0.00     0.060 A 
ATOM     14  C   UNL A   1      40.120  28.352  32.679  1.00  0.00     0.018 A 
ATOM     15  C   UNL A   1      41.728  29.908  33.603  1.00  0.00     0.018 A 
ATOM     16  C   UNL A   1      39.087  29.235  33.014  1.00  0.00     0.027 A 
ATOM     17  C   UNL A   1      40.693  30.790  33.918  1.00  0.00     0.027 A 
BRANCH  13  18
ATOM     18  C   UNL A   1      42.554  27.841  32.568  1.00  0.00     0.338 C 
ATOM     19  O   UNL A   1      42.724  27.463  31.421  1.00  0.00    -0.246 OA
BRANCH  18  20
ATOM     20  O   UNL A   1      43.360  27.648  33.636  1.00  0.00    -0.462 OA
BRANCH  20  21
ATOM     21  C   UNL A   1      44.688  27.189  33.339  1.00  0.00     0.233 C 
BRANCH  21  22
ATOM     22  C   UNL A   1      45.117  26.132  34.351  1.00  0.00     0.041 C 
BRANCH  22  23
ATOM     23  C   UNL A   1      44.999  24.690  33.851  1.00  0.00     0.000 C 
ATOM     24  C   UNL A   1      44.902  24.583  32.337  1.00  0.00     0.004 C 
ENDBRANCH  22  23
ENDBRANCH  21  22
ENDBRANCH  20  21
ENDBRANCH  18  20
ENDBRANCH  13  18
ENDBRANCH   7  12
ENDBRANCH   3   6
ENDBRANCH   1   2
BRANCH   1  25
ATOM     25  C   UNL A   1      34.405  34.436  30.712  1.00  0.00     0.023 C 
BRANCH  25  26
ATOM     26  C   UNL A   1      34.788  32.979  30.437  1.00  0.00     0.023 C 
BRANCH  26  27
ATOM     27  C   UNL A   1      35.014  32.618  28.971  1.00  0.00     0.116 C 
BRANCH  27  28
ATOM     28  N   UNL A   1      34.200  31.498  28.529  1.00  0.00    -0.352 N 
ATOM     29  C   UNL A   1      34.586  30.222  28.191  1.00  0.00     0.251 C 
ATOM     30  H   UNL A   1      33.234  31.679  28.462  1.00  0.00     0.163 HD
ATOM     31  O   UNL A   1      33.760  29.443  27.723  1.00  0.00    -0.269 OA
BRANCH  29  32
ATOM     32  C   UNL A   1      35.994  29.802  28.358  1.00  0.00     0.039 A 
ATOM     33  C   UNL A   1      36.857  29.893  27.262  1.00  0.00     0.014 A 
ATOM     34  C   UNL A   1      36.468  29.330  29.586  1.00  0.00     0.014 A 
ATOM     35  C   UNL A   1      38.210  29.582  27.416  1.00  0.00     0.010 A 
ATOM     36  C   UNL A   1      37.828  29.074  29.752  1.00  0.00     0.010 A 
ATOM     37  C   UNL A   1      38.714  29.205  28.671  1.00  0.00    -0.014 A 
BRANCH  37  38
ATOM     38  C   UNL A   1      40.166  28.974  28.880  1.00  0.00     0.031 A 
ATOM     39  C   UNL A   1      40.781  27.645  28.539  1.00  0.00     0.074 A 
ATOM     40  C   UNL A   1      40.917  29.940  29.444  1.00  0.00     0.049 A 
ATOM     41  N   UNL A   1      42.007  27.230  28.729  1.00  0.00    -0.248 NA
ATOM     42  C   UNL A   1      39.895  26.642  27.927  1.00  0.00     0.031 C 
ATOM     43  C   UNL A   1      40.429  31.257  29.862  1.00  0.00     0.029 A 
ATOM     44  N   UNL A   1      42.249  29.960  29.776  1.00  0.00    -0.354 N 
ATOM     45  C   UNL A   1      42.038  25.917  28.278  1.00  0.00     0.074 A 
ATOM     46  C   UNL A   1      40.697  25.591  27.839  1.00  0.00     0.031 C 
ATOM     47  C   UNL A   1      41.448  31.959  30.382  1.00  0.00     0.029 A 
ATOM     48  C   UNL A   1      42.653  31.136  30.362  1.00  0.00     0.049 A 
ATOM     49  H   UNL A   1      42.857  29.204  29.611  1.00  0.00     0.167 HD
ATOM     50  C   UNL A   1      43.091  25.066  28.218  1.00  0.00     0.037 A 
ATOM     51  C   UNL A   1      43.859  31.507  30.838  1.00  0.00     0.037 A 
ATOM     52  C   UNL A   1      44.430  25.403  28.627  1.00  0.00     0.049 A 
ATOM     53  C   UNL A   1      45.014  30.551  30.745  1.00  0.00     0.074 A 
ATOM     54  C   UNL A   1      45.574  24.627  28.549  1.00  0.00     0.029 A 
ATOM     55  N   UNL A   1      44.805  26.613  29.188  1.00  0.00    -0.354 N 
ATOM     56  N   UNL A   1      45.036  29.331  30.268  1.00  0.00    -0.248 NA
ATOM     57  C   UNL A   1      46.310  31.024  31.253  1.00  0.00     0.031 C 
ATOM     58  C   UNL A   1      46.637  25.360  29.088  1.00  0.00     0.029 A 
ATOM     59  C   UNL A   1      46.161  26.603  29.473  1.00  0.00     0.049 A 
ATOM     60  H   UNL A   1      44.198  27.369  29.360  1.00  0.00     0.167 HD
ATOM     61  C   UNL A   1      46.350  28.896  30.399  1.00  0.00     0.074 A 
ATOM     62  C   UNL A   1      47.095  29.988  30.992  1.00  0.00     0.031 C 
ATOM     63  C   UNL A   1      46.890  27.700  30.060  1.00  0.00     0.037 A 
BRANCH  50  64
ATOM     64  C   UNL A   1      42.833  23.687  27.682  1.00  0.00     0.058 A 
ATOM     65  C   UNL A   1      42.501  22.620  28.532  1.00  0.00     0.135 A 
ATOM     66  C   UNL A   1      42.896  23.432  26.303  1.00  0.00     0.135 A 
ATOM     67  F   UNL A   1      42.443  22.808  29.860  1.00  0.00    -0.206 F 
ATOM     68  C   UNL A   1      42.270  21.341  28.036  1.00  0.00     0.059 A 
ATOM     69  C   UNL A   1      42.646  22.165  25.783  1.00  0.00     0.059 A 
ATOM     70  F   UNL A   1      43.210  24.418  25.446  1.00  0.00    -0.206 F 
ATOM     71  C   UNL A   1      42.350  21.123  26.660  1.00  0.00     0.060 A 
BRANCH  71  72
ATOM     72  S   UNL A   1      42.057  19.457  26.031  1.00  0.00     0.124 S 
ATOM     73  O   UNL A   1      42.931  19.430  24.862  1.00  0.00    -0.237 OA
ATOM     74  O   UNL A   1      42.473  18.618  27.150  1.00  0.00    -0.237 OA
ATOM     75  O   UNL A   1      40.626  19.449  25.745  1.00  0.00    -0.744 OA
ENDBRANCH  71  72
ENDBRANCH  50  64
BRANCH  51  76
ATOM     76  C   UNL A   1      44.036  32.861  31.422  1.00  0.00     0.058 A 
ATOM     77  C   UNL A   1      44.082  33.043  32.812  1.00  0.00     0.135 A 
ATOM     78  C   UNL A   1      44.184  33.993  30.607  1.00  0.00     0.135 A 
ATOM     79  F   UNL A   1      43.938  31.989  33.630  1.00  0.00    -0.206 F 
ATOM     80  C   UNL A   1      44.257  34.301  33.376  1.00  0.00     0.059 A 
ATOM     81  C   UNL A   1      44.381  35.260  31.148  1.00  0.00     0.059 A 
ATOM     82  F   UNL A   1      44.164  33.867  29.270  1.00  0.00    -0.206 F 
ATOM     83  C   UNL A   1      44.407  35.405  32.534  1.00  0.00     0.060 A 
BRANCH  83  84
ATOM     84  S   UNL A   1      44.696  37.028  33.274  1.00  0.00     0.124 S 
ATOM     85  O   UNL A   1      43.515  37.762  32.837  1.00  0.00    -0.237 OA
ATOM     86  O   UNL A   1      44.762  36.712  34.697  1.00  0.00    -0.237 OA
ATOM     87  O   UNL A   1      45.960  37.445  32.674  1.00  0.00    -0.744 OA
ENDBRANCH  83  84
ENDBRANCH  51  76
BRANCH  63  88
ATOM     88  C   UNL A   1      48.360  27.516  30.298  1.00  0.00     0.058 A 
ATOM     89  C   UNL A   1      48.847  26.988  31.503  1.00  0.00     0.135 A 
ATOM     90  C   UNL A   1      49.290  27.831  29.294  1.00  0.00     0.135 A 
ATOM     91  F   UNL A   1      47.998  26.680  32.497  1.00  0.00    -0.206 F 
ATOM     92  C   UNL A   1      50.208  26.792  31.712  1.00  0.00     0.059 A 
ATOM     93  C   UNL A   1      50.653  27.624  29.474  1.00  0.00     0.059 A 
ATOM     94  F   UNL A   1      48.872  28.332  28.120  1.00  0.00    -0.206 F 
ATOM     95  C   UNL A   1      51.104  27.114  30.690  1.00  0.00     0.060 A 
BRANCH  95  96
ATOM     96  S   UNL A   1      52.866  26.824  30.956  1.00  0.00     0.124 S 
ATOM     97  O   UNL A   1      53.391  26.950  29.601  1.00  0.00    -0.237 OA
ATOM     98  O   UNL A   1      53.228  27.898  31.877  1.00  0.00    -0.237 OA
ATOM     99  O   UNL A   1      52.905  25.481  31.525  1.00  0.00    -0.744 OA
ENDBRANCH  95  96
ENDBRANCH  63  88
ENDBRANCH  37  38
ENDBRANCH  29  32
ENDBRANCH  27  28
ENDBRANCH  26  27
ENDBRANCH  25  26
ENDBRANCH   1  25
TORSDOF 20
ENDMDL
