MODEL 1
REMARK VINA RESULT:     -10.3      0.000      0.000
REMARK SMILES [NH3+]C[C@@H]1CCCC[C@H]1CC(=O)NCCCCNC(=O)c1ccc(-c2c3nc(c(-c4c(F)cc(S(=O)(=O)[O-])cc4F)c4ccc([nH]4)c(-c4c(F)cc(S(=O)(=O)[O-])cc4F)c4nc(c(-c5c(F)cc(S(=O)(=O)[O-])cc5F)c5ccc2[nH]5)C=C4)C=C3)cc1
REMARK SMILES IDX 14 1 13 2 12 3 10 4 11 5 9 7 8 8 3 9 4 10 5 11 7 12 6 13
REMARK SMILES IDX 2 14 1 15 15 19 16 20 17 21 18 22 19 24 20 25 21 26 85 27
REMARK SMILES IDX 22 28 84 29 23 30 24 31 25 32 78 33 26 34 83 35 77 36 79 37
REMARK SMILES IDX 27 38 82 39 76 40 75 41 28 43 62 44 41 45 61 46 42 47 45 48
REMARK SMILES IDX 60 49 80 50 43 51 44 52 59 54 81 55 46 56 29 57 30 58 39 59
REMARK SMILES IDX 31 60 32 61 38 62 40 63 33 64 34 65 35 66 36 67 37 68 63 69
REMARK SMILES IDX 64 70 73 71 65 72 66 73 72 74 74 75 67 76 68 77 69 78 70 79
REMARK SMILES IDX 71 80 47 81 48 82 57 83 49 84 50 85 56 86 58 87 51 88 52 89
REMARK SMILES IDX 53 90 54 91 55 92
REMARK H PARENT 12 6 1 16 1 17 1 18 17 23 79 42 45 53
REMARK Flexibility Score: inf
ROOT
ATOM      1  C   UNL A   1      33.234  29.132  24.752  1.00  0.00     0.023 C 
ENDROOT
BRANCH   1   2
ATOM      2  C   UNL A   1      32.801  28.793  23.315  1.00  0.00     0.116 C 
BRANCH   2   3
ATOM      3  N   UNL A   1      33.414  27.639  22.665  1.00  0.00    -0.356 N 
ATOM      4  C   UNL A   1      32.845  26.619  21.943  1.00  0.00     0.220 C 
ATOM      5  O   UNL A   1      33.552  26.023  21.127  1.00  0.00    -0.275 OA
ATOM      6  H   UNL A   1      34.393  27.583  22.759  1.00  0.00     0.163 HD
BRANCH   4   7
ATOM      7  C   UNL A   1      31.384  26.251  22.119  1.00  0.00     0.104 C 
BRANCH   7   8
ATOM      8  C   UNL A   1      30.937  25.281  23.266  1.00  0.00     0.007 C 
ATOM      9  C   UNL A   1      32.107  24.569  23.996  1.00  0.00     0.048 C 
ATOM     10  C   UNL A   1      31.992  24.411  25.522  1.00  0.00     0.010 C 
ATOM     11  C   UNL A   1      31.348  25.595  26.207  1.00  0.00     0.001 C 
ATOM     12  C   UNL A   1      30.027  26.155  24.183  1.00  0.00     0.004 C 
ATOM     13  C   UNL A   1      29.952  25.760  25.647  1.00  0.00     0.000 C 
BRANCH   9  14
ATOM     14  C   UNL A   1      32.539  23.180  23.456  1.00  0.00     0.262 C 
BRANCH  14  15
ATOM     15  N   UNL A   1      31.541  22.452  22.704  1.00  0.00    -0.357 N 
ATOM     16  H   UNL A   1      31.997  21.742  22.131  1.00  0.00     0.344 HD
ATOM     17  H   UNL A   1      31.030  23.098  22.102  1.00  0.00     0.344 HD
ATOM     18  H   UNL A   1      30.891  22.002  23.349  1.00  0.00     0.344 HD
ENDBRANCH  14  15
ENDBRANCH   9  14
ENDBRANCH   7   8
ENDBRANCH   4   7
ENDBRANCH   2   3
ENDBRANCH   1   2
BRANCH   1  19
ATOM     19  C   UNL A   1      33.944  28.033  25.542  1.00  0.00     0.023 C 
BRANCH  19  20
ATOM     20  C   UNL A   1      33.816  28.217  27.041  1.00  0.00     0.116 C 
BRANCH  20  21
ATOM     21  N   UNL A   1      33.626  29.622  27.381  1.00  0.00    -0.352 N 
ATOM     22  C   UNL A   1      34.446  30.460  28.092  1.00  0.00     0.251 C 
ATOM     23  H   UNL A   1      32.792  30.027  27.051  1.00  0.00     0.163 HD
ATOM     24  O   UNL A   1      34.018  31.531  28.502  1.00  0.00    -0.269 OA
BRANCH  22  25
ATOM     25  C   UNL A   1      35.838  30.051  28.357  1.00  0.00     0.039 A 
ATOM     26  C   UNL A   1      36.186  29.582  29.626  1.00  0.00     0.014 A 
ATOM     27  C   UNL A   1      36.801  30.149  27.350  1.00  0.00     0.014 A 
ATOM     28  C   UNL A   1      37.500  29.188  29.874  1.00  0.00     0.010 A 
ATOM     29  C   UNL A   1      38.077  29.658  27.566  1.00  0.00     0.010 A 
ATOM     30  C   UNL A   1      38.450  29.211  28.841  1.00  0.00    -0.014 A 
BRANCH  30  31
ATOM     31  C   UNL A   1      39.870  28.861  29.072  1.00  0.00     0.031 A 
ATOM     32  C   UNL A   1      40.802  29.920  29.598  1.00  0.00     0.074 A 
ATOM     33  C   UNL A   1      40.327  27.640  28.737  1.00  0.00     0.049 A 
ATOM     34  N   UNL A   1      42.101  29.882  29.740  1.00  0.00    -0.248 NA
ATOM     35  C   UNL A   1      40.197  31.211  29.974  1.00  0.00     0.031 C 
ATOM     36  C   UNL A   1      39.516  26.553  28.185  1.00  0.00     0.029 A 
ATOM     37  N   UNL A   1      41.591  27.114  28.798  1.00  0.00    -0.354 N 
ATOM     38  C   UNL A   1      42.466  31.144  30.194  1.00  0.00     0.074 A 
ATOM     39  C   UNL A   1      41.265  31.946  30.240  1.00  0.00     0.031 C 
ATOM     40  C   UNL A   1      40.300  25.483  27.976  1.00  0.00     0.029 A 
ATOM     41  C   UNL A   1      41.674  25.824  28.332  1.00  0.00     0.049 A 
ATOM     42  H   UNL A   1      42.367  27.615  29.141  1.00  0.00     0.167 HD
ATOM     43  C   UNL A   1      43.689  31.585  30.567  1.00  0.00     0.037 A 
ATOM     44  C   UNL A   1      42.742  25.015  28.198  1.00  0.00     0.037 A 
ATOM     45  C   UNL A   1      44.867  30.760  30.551  1.00  0.00     0.049 A 
ATOM     46  C   UNL A   1      44.095  25.526  28.618  1.00  0.00     0.074 A 
ATOM     47  C   UNL A   1      46.149  31.083  30.957  1.00  0.00     0.029 A 
ATOM     48  N   UNL A   1      44.903  29.445  30.109  1.00  0.00    -0.354 N 
ATOM     49  N   UNL A   1      44.419  26.707  29.092  1.00  0.00    -0.248 NA
ATOM     50  C   UNL A   1      45.227  24.599  28.495  1.00  0.00     0.031 C 
ATOM     51  C   UNL A   1      46.970  29.979  30.715  1.00  0.00     0.029 A 
ATOM     52  C   UNL A   1      46.189  28.946  30.219  1.00  0.00     0.049 A 
ATOM     53  H   UNL A   1      44.128  28.942  29.769  1.00  0.00     0.167 HD
ATOM     54  C   UNL A   1      45.781  26.648  29.365  1.00  0.00     0.074 A 
ATOM     55  C   UNL A   1      46.221  25.317  29.000  1.00  0.00     0.031 C 
ATOM     56  C   UNL A   1      46.594  27.606  29.877  1.00  0.00     0.037 A 
BRANCH  43  57
ATOM     57  C   UNL A   1      43.813  33.013  31.027  1.00  0.00     0.058 A 
ATOM     58  C   UNL A   1      43.904  33.347  32.389  1.00  0.00     0.135 A 
ATOM     59  C   UNL A   1      43.869  34.060  30.093  1.00  0.00     0.135 A 
ATOM     60  F   UNL A   1      43.836  32.388  33.326  1.00  0.00    -0.206 F 
ATOM     61  C   UNL A   1      44.016  34.667  32.808  1.00  0.00     0.059 A 
ATOM     62  C   UNL A   1      44.015  35.387  30.490  1.00  0.00     0.059 A 
ATOM     63  F   UNL A   1      43.782  33.801  28.779  1.00  0.00    -0.206 F 
ATOM     64  C   UNL A   1      44.073  35.681  31.851  1.00  0.00     0.060 A 
BRANCH  64  65
ATOM     65  S   UNL A   1      44.229  37.388  32.415  1.00  0.00     0.124 S 
ATOM     66  O   UNL A   1      45.608  37.412  32.892  1.00  0.00    -0.237 OA
ATOM     67  O   UNL A   1      43.968  38.144  31.194  1.00  0.00    -0.237 OA
ATOM     68  O   UNL A   1      43.206  37.500  33.450  1.00  0.00    -0.744 OA
ENDBRANCH  64  65
ENDBRANCH  43  57
BRANCH  44  69
ATOM     69  C   UNL A   1      42.571  23.636  27.668  1.00  0.00     0.058 A 
ATOM     70  C   UNL A   1      42.595  23.386  26.287  1.00  0.00     0.135 A 
ATOM     71  C   UNL A   1      42.397  22.539  28.527  1.00  0.00     0.135 A 
ATOM     72  F   UNL A   1      42.758  24.401  25.425  1.00  0.00    -0.206 F 
ATOM     73  C   UNL A   1      42.429  22.103  25.775  1.00  0.00     0.059 A 
ATOM     74  C   UNL A   1      42.257  21.242  28.039  1.00  0.00     0.059 A 
ATOM     75  F   UNL A   1      42.388  22.719  29.856  1.00  0.00    -0.206 F 
ATOM     76  C   UNL A   1      42.263  21.037  26.660  1.00  0.00     0.060 A 
BRANCH  76  77
ATOM     77  S   UNL A   1      42.087  19.372  25.983  1.00  0.00     0.124 S 
ATOM     78  O   UNL A   1      40.647  19.294  25.769  1.00  0.00    -0.237 OA
ATOM     79  O   UNL A   1      42.909  19.444  24.780  1.00  0.00    -0.237 OA
ATOM     80  O   UNL A   1      42.615  18.521  27.045  1.00  0.00    -0.744 OA
ENDBRANCH  76  77
ENDBRANCH  44  69
BRANCH  56  81
ATOM     81  C   UNL A   1      48.027  27.238  30.145  1.00  0.00     0.058 A 
ATOM     82  C   UNL A   1      49.031  27.413  29.183  1.00  0.00     0.135 A 
ATOM     83  C   UNL A   1      48.407  26.793  31.422  1.00  0.00     0.135 A 
ATOM     84  F   UNL A   1      48.719  27.830  27.945  1.00  0.00    -0.206 F 
ATOM     85  C   UNL A   1      50.367  27.150  29.475  1.00  0.00     0.059 A 
ATOM     86  C   UNL A   1      49.738  26.554  31.744  1.00  0.00     0.059 A 
ATOM     87  F   UNL A   1      47.483  26.620  32.381  1.00  0.00    -0.206 F 
ATOM     88  C   UNL A   1      50.709  26.729  30.762  1.00  0.00     0.060 A 
BRANCH  88  89
ATOM     89  S   UNL A   1      52.452  26.456  31.145  1.00  0.00     0.124 S 
ATOM     90  O   UNL A   1      52.740  27.582  32.027  1.00  0.00    -0.237 OA
ATOM     91  O   UNL A   1      52.428  25.142  31.779  1.00  0.00    -0.237 OA
ATOM     92  O   UNL A   1      53.099  26.503  29.837  1.00  0.00    -0.744 OA
ENDBRANCH  88  89
ENDBRANCH  56  81
ENDBRANCH  30  31
ENDBRANCH  22  25
ENDBRANCH  20  21
ENDBRANCH  19  20
ENDBRANCH   1  19
TORSDOF 17
ENDMDL
MODEL 2
REMARK VINA RESULT:     -10.3      1.384      2.341
REMARK SMILES [NH3+]C[C@@H]1CCCC[C@H]1CC(=O)NCCCCNC(=O)c1ccc(-c2c3nc(c(-c4c(F)cc(S(=O)(=O)[O-])cc4F)c4ccc([nH]4)c(-c4c(F)cc(S(=O)(=O)[O-])cc4F)c4nc(c(-c5c(F)cc(S(=O)(=O)[O-])cc5F)c5ccc2[nH]5)C=C4)C=C3)cc1
REMARK SMILES IDX 14 1 13 2 12 3 10 4 11 5 9 7 8 8 3 9 4 10 5 11 7 12 6 13
REMARK SMILES IDX 2 14 1 15 15 19 16 20 17 21 18 22 19 24 20 25 21 26 85 27
REMARK SMILES IDX 22 28 84 29 23 30 24 31 25 32 78 33 26 34 83 35 77 36 79 37
REMARK SMILES IDX 27 38 82 39 76 40 75 41 28 43 62 44 41 45 61 46 42 47 45 48
REMARK SMILES IDX 60 49 80 50 43 51 44 52 59 54 81 55 46 56 29 57 30 58 39 59
REMARK SMILES IDX 31 60 32 61 38 62 40 63 33 64 34 65 35 66 36 67 37 68 63 69
REMARK SMILES IDX 64 70 73 71 65 72 66 73 72 74 74 75 67 76 68 77 69 78 70 79
REMARK SMILES IDX 71 80 47 81 48 82 57 83 49 84 50 85 56 86 58 87 51 88 52 89
REMARK SMILES IDX 53 90 54 91 55 92
REMARK H PARENT 12 6 1 16 1 17 1 18 17 23 79 42 45 53
REMARK Flexibility Score: inf
ROOT
ATOM      1  C   UNL A   1      32.075  27.655  25.257  1.00  0.00     0.023 C 
ENDROOT
BRANCH   1   2
ATOM      2  C   UNL A   1      30.991  26.644  24.841  1.00  0.00     0.116 C 
BRANCH   2   3
ATOM      3  N   UNL A   1      30.554  25.660  25.825  1.00  0.00    -0.356 N 
ATOM      4  C   UNL A   1      31.059  24.419  26.126  1.00  0.00     0.220 C 
ATOM      5  O   UNL A   1      30.841  23.964  27.251  1.00  0.00    -0.275 OA
ATOM      6  H   UNL A   1      29.771  25.928  26.358  1.00  0.00     0.163 HD
BRANCH   4   7
ATOM      7  C   UNL A   1      31.884  23.641  25.120  1.00  0.00     0.104 C 
BRANCH   7   8
ATOM      8  C   UNL A   1      33.266  23.021  25.528  1.00  0.00     0.007 C 
ATOM      9  C   UNL A   1      33.860  22.039  24.482  1.00  0.00     0.048 C 
ATOM     10  C   UNL A   1      35.378  22.106  24.238  1.00  0.00     0.010 C 
ATOM     11  C   UNL A   1      35.939  23.509  24.289  1.00  0.00     0.001 C 
ATOM     12  C   UNL A   1      34.164  24.253  25.855  1.00  0.00     0.004 C 
ATOM     13  C   UNL A   1      35.660  24.078  25.663  1.00  0.00     0.000 C 
BRANCH   9  14
ATOM     14  C   UNL A   1      33.522  20.535  24.651  1.00  0.00     0.262 C 
BRANCH  14  15
ATOM     15  N   UNL A   1      34.524  19.727  25.313  1.00  0.00    -0.357 N 
ATOM     16  H   UNL A   1      35.082  20.315  25.930  1.00  0.00     0.344 HD
ATOM     17  H   UNL A   1      35.130  19.297  24.613  1.00  0.00     0.344 HD
ATOM     18  H   UNL A   1      34.066  18.998  25.860  1.00  0.00     0.344 HD
ENDBRANCH  14  15
ENDBRANCH   9  14
ENDBRANCH   7   8
ENDBRANCH   4   7
ENDBRANCH   2   3
ENDBRANCH   1   2
BRANCH   1  19
ATOM     19  C   UNL A   1      32.594  27.566  26.691  1.00  0.00     0.023 C 
BRANCH  19  20
ATOM     20  C   UNL A   1      33.922  28.274  26.877  1.00  0.00     0.116 C 
BRANCH  20  21
ATOM     21  N   UNL A   1      33.721  29.666  27.264  1.00  0.00    -0.352 N 
ATOM     22  C   UNL A   1      34.529  30.483  28.012  1.00  0.00     0.251 C 
ATOM     23  H   UNL A   1      32.887  30.078  26.941  1.00  0.00     0.163 HD
ATOM     24  O   UNL A   1      34.090  31.536  28.456  1.00  0.00    -0.269 OA
BRANCH  22  25
ATOM     25  C   UNL A   1      35.921  30.072  28.275  1.00  0.00     0.039 A 
ATOM     26  C   UNL A   1      36.267  29.591  29.539  1.00  0.00     0.014 A 
ATOM     27  C   UNL A   1      36.886  30.183  27.270  1.00  0.00     0.014 A 
ATOM     28  C   UNL A   1      37.582  29.195  29.785  1.00  0.00     0.010 A 
ATOM     29  C   UNL A   1      38.162  29.691  27.483  1.00  0.00     0.010 A 
ATOM     30  C   UNL A   1      38.533  29.231  28.754  1.00  0.00    -0.014 A 
BRANCH  30  31
ATOM     31  C   UNL A   1      39.953  28.880  28.984  1.00  0.00     0.031 A 
ATOM     32  C   UNL A   1      40.889  29.942  29.498  1.00  0.00     0.074 A 
ATOM     33  C   UNL A   1      40.407  27.656  28.657  1.00  0.00     0.049 A 
ATOM     34  N   UNL A   1      42.188  29.903  29.637  1.00  0.00    -0.248 NA
ATOM     35  C   UNL A   1      40.288  31.237  29.865  1.00  0.00     0.031 C 
ATOM     36  C   UNL A   1      39.592  26.565  28.117  1.00  0.00     0.029 A 
ATOM     37  N   UNL A   1      41.670  27.128  28.718  1.00  0.00    -0.354 N 
ATOM     38  C   UNL A   1      42.556  31.167  30.079  1.00  0.00     0.074 A 
ATOM     39  C   UNL A   1      41.357  31.972  30.122  1.00  0.00     0.031 C 
ATOM     40  C   UNL A   1      40.374  25.492  27.913  1.00  0.00     0.029 A 
ATOM     41  C   UNL A   1      41.750  25.834  28.263  1.00  0.00     0.049 A 
ATOM     42  H   UNL A   1      42.448  27.630  29.055  1.00  0.00     0.167 HD
ATOM     43  C   UNL A   1      43.782  31.610  30.445  1.00  0.00     0.037 A 
ATOM     44  C   UNL A   1      42.816  25.021  28.132  1.00  0.00     0.037 A 
ATOM     45  C   UNL A   1      44.958  30.782  30.432  1.00  0.00     0.049 A 
ATOM     46  C   UNL A   1      44.171  25.534  28.544  1.00  0.00     0.074 A 
ATOM     47  C   UNL A   1      46.242  31.106  30.831  1.00  0.00     0.029 A 
ATOM     48  N   UNL A   1      44.990  29.463  30.001  1.00  0.00    -0.354 N 
ATOM     49  N   UNL A   1      44.499  26.718  29.007  1.00  0.00    -0.248 NA
ATOM     50  C   UNL A   1      45.301  24.603  28.425  1.00  0.00     0.031 C 
ATOM     51  C   UNL A   1      47.060  29.999  30.596  1.00  0.00     0.029 A 
ATOM     52  C   UNL A   1      46.275  28.963  30.111  1.00  0.00     0.049 A 
ATOM     53  H   UNL A   1      44.213  28.958  29.667  1.00  0.00     0.167 HD
ATOM     54  C   UNL A   1      45.861  26.659  29.276  1.00  0.00     0.074 A 
ATOM     55  C   UNL A   1      46.297  25.324  28.921  1.00  0.00     0.031 C 
ATOM     56  C   UNL A   1      46.677  27.619  29.779  1.00  0.00     0.037 A 
BRANCH  43  57
ATOM     57  C   UNL A   1      43.909  33.040  30.892  1.00  0.00     0.058 A 
ATOM     58  C   UNL A   1      44.217  34.073  29.990  1.00  0.00     0.135 A 
ATOM     59  C   UNL A   1      43.693  33.390  32.235  1.00  0.00     0.135 A 
ATOM     60  F   UNL A   1      44.454  33.795  28.699  1.00  0.00    -0.206 F 
ATOM     61  C   UNL A   1      44.337  35.393  30.409  1.00  0.00     0.059 A 
ATOM     62  C   UNL A   1      43.774  34.710  32.670  1.00  0.00     0.059 A 
ATOM     63  F   UNL A   1      43.400  32.444  33.141  1.00  0.00    -0.206 F 
ATOM     64  C   UNL A   1      44.111  35.703  31.751  1.00  0.00     0.060 A 
BRANCH  64  65
ATOM     65  S   UNL A   1      44.259  37.424  32.273  1.00  0.00     0.124 S 
ATOM     66  O   UNL A   1      43.382  37.451  33.439  1.00  0.00    -0.237 OA
ATOM     67  O   UNL A   1      45.687  37.543  32.552  1.00  0.00    -0.237 OA
ATOM     68  O   UNL A   1      43.785  38.173  31.114  1.00  0.00    -0.744 OA
ENDBRANCH  64  65
ENDBRANCH  43  57
BRANCH  44  69
ATOM     69  C   UNL A   1      42.641  23.639  27.614  1.00  0.00     0.058 A 
ATOM     70  C   UNL A   1      42.397  22.567  28.486  1.00  0.00     0.135 A 
ATOM     71  C   UNL A   1      42.697  23.360  26.239  1.00  0.00     0.135 A 
ATOM     72  F   UNL A   1      42.336  22.782  29.810  1.00  0.00    -0.206 F 
ATOM     73  C   UNL A   1      42.238  21.267  28.019  1.00  0.00     0.059 A 
ATOM     74  C   UNL A   1      42.512  22.072  25.745  1.00  0.00     0.059 A 
ATOM     75  F   UNL A   1      42.906  24.351  25.360  1.00  0.00    -0.206 F 
ATOM     76  C   UNL A   1      42.295  21.030  26.645  1.00  0.00     0.060 A 
BRANCH  76  77
ATOM     77  S   UNL A   1      42.049  19.343  26.048  1.00  0.00     0.124 S 
ATOM     78  O   UNL A   1      42.469  18.559  27.204  1.00  0.00    -0.237 OA
ATOM     79  O   UNL A   1      40.620  19.330  25.752  1.00  0.00    -0.237 OA
ATOM     80  O   UNL A   1      42.925  19.269  24.883  1.00  0.00    -0.744 OA
ENDBRANCH  76  77
ENDBRANCH  44  69
BRANCH  56  81
ATOM     81  C   UNL A   1      48.110  27.251  30.045  1.00  0.00     0.058 A 
ATOM     82  C   UNL A   1      49.128  27.504  29.115  1.00  0.00     0.135 A 
ATOM     83  C   UNL A   1      48.475  26.723  31.294  1.00  0.00     0.135 A 
ATOM     84  F   UNL A   1      48.831  28.002  27.904  1.00  0.00    -0.206 F 
ATOM     85  C   UNL A   1      50.462  27.238  29.411  1.00  0.00     0.059 A 
ATOM     86  C   UNL A   1      49.804  26.478  31.623  1.00  0.00     0.059 A 
ATOM     87  F   UNL A   1      47.538  26.473  32.223  1.00  0.00    -0.206 F 
ATOM     88  C   UNL A   1      50.789  26.733  30.671  1.00  0.00     0.060 A 
BRANCH  88  89
ATOM     89  S   UNL A   1      52.529  26.455  31.065  1.00  0.00     0.124 S 
ATOM     90  O   UNL A   1      52.861  27.667  31.805  1.00  0.00    -0.237 OA
ATOM     91  O   UNL A   1      52.477  25.225  31.850  1.00  0.00    -0.237 OA
ATOM     92  O   UNL A   1      53.158  26.328  29.753  1.00  0.00    -0.744 OA
ENDBRANCH  88  89
ENDBRANCH  56  81
ENDBRANCH  30  31
ENDBRANCH  22  25
ENDBRANCH  20  21
ENDBRANCH  19  20
ENDBRANCH   1  19
TORSDOF 17
ENDMDL
MODEL 3
REMARK VINA RESULT:     -10.0      3.225      9.414
REMARK SMILES [NH3+]C[C@@H]1CCCC[C@H]1CC(=O)NCCCCNC(=O)c1ccc(-c2c3nc(c(-c4c(F)cc(S(=O)(=O)[O-])cc4F)c4ccc([nH]4)c(-c4c(F)cc(S(=O)(=O)[O-])cc4F)c4nc(c(-c5c(F)cc(S(=O)(=O)[O-])cc5F)c5ccc2[nH]5)C=C4)C=C3)cc1
REMARK SMILES IDX 14 1 13 2 12 3 10 4 11 5 9 7 8 8 3 9 4 10 5 11 7 12 6 13
REMARK SMILES IDX 2 14 1 15 15 19 16 20 17 21 18 22 19 24 20 25 21 26 85 27
REMARK SMILES IDX 22 28 84 29 23 30 24 31 25 32 78 33 26 34 83 35 77 36 79 37
REMARK SMILES IDX 27 38 82 39 76 40 75 41 28 43 62 44 41 45 61 46 42 47 45 48
REMARK SMILES IDX 60 49 80 50 43 51 44 52 59 54 81 55 46 56 29 57 30 58 39 59
REMARK SMILES IDX 31 60 32 61 38 62 40 63 33 64 34 65 35 66 36 67 37 68 63 69
REMARK SMILES IDX 64 70 73 71 65 72 66 73 72 74 74 75 67 76 68 77 69 78 70 79
REMARK SMILES IDX 71 80 47 81 48 82 57 83 49 84 50 85 56 86 58 87 51 88 52 89
REMARK SMILES IDX 53 90 54 91 55 92
REMARK H PARENT 12 6 1 16 1 17 1 18 17 23 79 42 45 53
REMARK Flexibility Score: inf
ROOT
ATOM      1  C   UNL A   1      34.689  22.489  25.373  1.00  0.00     0.023 C 
ENDROOT
BRANCH   1   2
ATOM      2  C   UNL A   1      33.169  22.703  25.257  1.00  0.00     0.116 C 
BRANCH   2   3
ATOM      3  N   UNL A   1      32.524  23.595  26.215  1.00  0.00    -0.356 N 
ATOM      4  C   UNL A   1      31.819  24.756  26.013  1.00  0.00     0.220 C 
ATOM      5  O   UNL A   1      31.001  25.092  26.871  1.00  0.00    -0.275 OA
ATOM      6  H   UNL A   1      32.607  23.320  27.157  1.00  0.00     0.163 HD
BRANCH   4   7
ATOM      7  C   UNL A   1      32.016  25.587  24.760  1.00  0.00     0.104 C 
BRANCH   7   8
ATOM      8  C   UNL A   1      32.556  27.056  24.852  1.00  0.00     0.007 C 
ATOM      9  C   UNL A   1      31.469  28.120  25.166  1.00  0.00     0.048 C 
ATOM     10  C   UNL A   1      31.851  29.250  26.138  1.00  0.00     0.010 C 
ATOM     11  C   UNL A   1      32.746  28.799  27.270  1.00  0.00     0.001 C 
ATOM     12  C   UNL A   1      33.718  26.981  25.890  1.00  0.00     0.004 C 
ATOM     13  C   UNL A   1      34.021  28.248  26.670  1.00  0.00     0.000 C 
BRANCH   9  14
ATOM     14  C   UNL A   1      30.784  28.810  23.958  1.00  0.00     0.262 C 
BRANCH  14  15
ATOM     15  N   UNL A   1      31.668  29.410  22.982  1.00  0.00    -0.357 N 
ATOM     16  H   UNL A   1      31.618  28.886  22.110  1.00  0.00     0.344 HD
ATOM     17  H   UNL A   1      32.626  29.393  23.335  1.00  0.00     0.344 HD
ATOM     18  H   UNL A   1      31.386  30.376  22.815  1.00  0.00     0.344 HD
ENDBRANCH  14  15
ENDBRANCH   9  14
ENDBRANCH   7   8
ENDBRANCH   4   7
ENDBRANCH   2   3
ENDBRANCH   1   2
BRANCH   1  19
ATOM     19  C   UNL A   1      35.504  23.620  25.997  1.00  0.00     0.023 C 
BRANCH  19  20
ATOM     20  C   UNL A   1      36.784  23.906  25.236  1.00  0.00     0.116 C 
BRANCH  20  21
ATOM     21  N   UNL A   1      37.767  22.851  25.454  1.00  0.00    -0.352 N 
ATOM     22  C   UNL A   1      39.019  22.935  26.008  1.00  0.00     0.251 C 
ATOM     23  H   UNL A   1      37.493  21.952  25.164  1.00  0.00     0.163 HD
ATOM     24  O   UNL A   1      39.807  22.007  25.880  1.00  0.00    -0.269 OA
BRANCH  22  25
ATOM     25  C   UNL A   1      39.399  24.153  26.748  1.00  0.00     0.039 A 
ATOM     26  C   UNL A   1      40.175  25.126  26.115  1.00  0.00     0.014 A 
ATOM     27  C   UNL A   1      38.999  24.318  28.076  1.00  0.00     0.014 A 
ATOM     28  C   UNL A   1      40.527  26.281  26.813  1.00  0.00     0.010 A 
ATOM     29  C   UNL A   1      39.258  25.510  28.731  1.00  0.00     0.010 A 
ATOM     30  C   UNL A   1      40.059  26.485  28.120  1.00  0.00    -0.014 A 
BRANCH  30  31
ATOM     31  C   UNL A   1      40.457  27.665  28.922  1.00  0.00     0.031 A 
ATOM     32  C   UNL A   1      41.765  27.629  29.667  1.00  0.00     0.074 A 
ATOM     33  C   UNL A   1      39.620  28.712  29.042  1.00  0.00     0.049 A 
ATOM     34  N   UNL A   1      42.247  28.479  30.535  1.00  0.00    -0.248 NA
ATOM     35  C   UNL A   1      42.629  26.456  29.437  1.00  0.00     0.031 C 
ATOM     36  C   UNL A   1      38.313  28.832  28.392  1.00  0.00     0.029 A 
ATOM     37  N   UNL A   1      39.739  29.869  29.767  1.00  0.00    -0.354 N 
ATOM     38  C   UNL A   1      43.448  27.932  30.969  1.00  0.00     0.074 A 
ATOM     39  C   UNL A   1      43.593  26.648  30.323  1.00  0.00     0.031 C 
ATOM     40  C   UNL A   1      37.760  30.008  28.734  1.00  0.00     0.029 A 
ATOM     41  C   UNL A   1      38.649  30.700  29.662  1.00  0.00     0.049 A 
ATOM     42  H   UNL A   1      40.530  30.084  30.313  1.00  0.00     0.167 HD
ATOM     43  C   UNL A   1      44.364  28.467  31.810  1.00  0.00     0.037 A 
ATOM     44  C   UNL A   1      38.394  31.880  30.259  1.00  0.00     0.037 A 
ATOM     45  C   UNL A   1      44.221  29.764  32.413  1.00  0.00     0.049 A 
ATOM     46  C   UNL A   1      39.427  32.457  31.192  1.00  0.00     0.074 A 
ATOM     47  C   UNL A   1      45.107  30.431  33.239  1.00  0.00     0.029 A 
ATOM     48  N   UNL A   1      43.119  30.593  32.252  1.00  0.00    -0.354 N 
ATOM     49  N   UNL A   1      40.582  31.952  31.557  1.00  0.00    -0.248 NA
ATOM     50  C   UNL A   1      39.129  33.765  31.789  1.00  0.00     0.031 C 
ATOM     51  C   UNL A   1      44.521  31.643  33.615  1.00  0.00     0.029 A 
ATOM     52  C   UNL A   1      43.297  31.760  32.973  1.00  0.00     0.049 A 
ATOM     53  H   UNL A   1      42.328  30.382  31.704  1.00  0.00     0.167 HD
ATOM     54  C   UNL A   1      41.167  32.899  32.389  1.00  0.00     0.074 A 
ATOM     55  C   UNL A   1      40.237  34.006  32.476  1.00  0.00     0.031 C 
ATOM     56  C   UNL A   1      42.368  32.861  33.019  1.00  0.00     0.037 A 
BRANCH  43  57
ATOM     57  C   UNL A   1      45.594  27.658  32.118  1.00  0.00     0.058 A 
ATOM     58  C   UNL A   1      46.765  27.770  31.349  1.00  0.00     0.135 A 
ATOM     59  C   UNL A   1      45.614  26.779  33.213  1.00  0.00     0.135 A 
ATOM     60  F   UNL A   1      46.797  28.580  30.279  1.00  0.00    -0.206 F 
ATOM     61  C   UNL A   1      47.899  27.019  31.636  1.00  0.00     0.059 A 
ATOM     62  C   UNL A   1      46.749  26.042  33.539  1.00  0.00     0.059 A 
ATOM     63  F   UNL A   1      44.523  26.629  33.979  1.00  0.00    -0.206 F 
ATOM     64  C   UNL A   1      47.882  26.159  32.735  1.00  0.00     0.060 A 
BRANCH  64  65
ATOM     65  S   UNL A   1      49.368  25.200  33.098  1.00  0.00     0.124 S 
ATOM     66  O   UNL A   1      50.169  26.173  33.834  1.00  0.00    -0.237 OA
ATOM     67  O   UNL A   1      48.837  24.091  33.885  1.00  0.00    -0.237 OA
ATOM     68  O   UNL A   1      49.874  24.842  31.777  1.00  0.00    -0.744 OA
ENDBRANCH  64  65
ENDBRANCH  43  57
BRANCH  44  69
ATOM     69  C   UNL A   1      37.126  32.601  29.973  1.00  0.00     0.058 A 
ATOM     70  C   UNL A   1      37.080  33.627  29.016  1.00  0.00     0.135 A 
ATOM     71  C   UNL A   1      35.932  32.273  30.635  1.00  0.00     0.135 A 
ATOM     72  F   UNL A   1      38.194  33.979  28.357  1.00  0.00    -0.206 F 
ATOM     73  C   UNL A   1      35.903  34.317  28.741  1.00  0.00     0.059 A 
ATOM     74  C   UNL A   1      34.736  32.930  30.357  1.00  0.00     0.059 A 
ATOM     75  F   UNL A   1      35.916  31.287  31.543  1.00  0.00    -0.206 F 
ATOM     76  C   UNL A   1      34.736  33.958  29.416  1.00  0.00     0.060 A 
BRANCH  76  77
ATOM     77  S   UNL A   1      33.207  34.836  29.023  1.00  0.00     0.124 S 
ATOM     78  O   UNL A   1      32.572  34.919  30.333  1.00  0.00    -0.237 OA
ATOM     79  O   UNL A   1      33.709  36.092  28.476  1.00  0.00    -0.237 OA
ATOM     80  O   UNL A   1      32.553  33.956  28.059  1.00  0.00    -0.744 OA
ENDBRANCH  76  77
ENDBRANCH  44  69
BRANCH  56  81
ATOM     81  C   UNL A   1      42.786  34.074  33.802  1.00  0.00     0.058 A 
ATOM     82  C   UNL A   1      42.470  34.228  35.159  1.00  0.00     0.135 A 
ATOM     83  C   UNL A   1      43.599  35.049  33.200  1.00  0.00     0.135 A 
ATOM     84  F   UNL A   1      41.691  33.327  35.780  1.00  0.00    -0.206 F 
ATOM     85  C   UNL A   1      42.939  35.313  35.893  1.00  0.00     0.059 A 
ATOM     86  C   UNL A   1      44.103  36.125  33.921  1.00  0.00     0.059 A 
ATOM     87  F   UNL A   1      43.938  34.940  31.905  1.00  0.00    -0.206 F 
ATOM     88  C   UNL A   1      43.762  36.251  35.266  1.00  0.00     0.060 A 
BRANCH  88  89
ATOM     89  S   UNL A   1      44.417  37.618  36.247  1.00  0.00     0.124 S 
ATOM     90  O   UNL A   1      43.704  37.444  37.507  1.00  0.00    -0.237 OA
ATOM     91  O   UNL A   1      45.846  37.321  36.279  1.00  0.00    -0.237 OA
ATOM     92  O   UNL A   1      44.046  38.800  35.474  1.00  0.00    -0.744 OA
ENDBRANCH  88  89
ENDBRANCH  56  81
ENDBRANCH  30  31
ENDBRANCH  22  25
ENDBRANCH  20  21
ENDBRANCH  19  20
ENDBRANCH   1  19
TORSDOF 17
ENDMDL
