MODEL 1
REMARK VINA RESULT:     -10.9      0.000      0.000
REMARK SMILES CC(C)c1ccc(CCCC(=O)NCCCCNC(=O)c2ccc(-c3c4nc(c(-c5c(F)cc(S(=O)(=O)[O-])cc5F)c5ccc([nH]5)c(-c5c(F)cc(S(=O)(=O)[O-])cc5F)c5nc(c(-c6c(F)cc(S(=O)(=O)[O-])cc6F)c6ccc3[nH]6)C=C5)C=C4)cc2)cc1
REMARK SMILES IDX 15 1 14 2 13 3 11 4 12 5 10 7 9 8 8 9 7 10 4 11 5 12 88 13
REMARK SMILES IDX 6 14 87 15 2 16 1 17 3 18 16 19 17 20 18 21 19 22 20 24
REMARK SMILES IDX 21 25 22 26 86 27 23 28 85 29 24 30 25 31 26 32 79 33 27 34
REMARK SMILES IDX 84 35 78 36 80 37 28 38 83 39 77 40 76 41 29 43 63 44 42 45
REMARK SMILES IDX 62 46 43 47 46 48 61 49 81 50 44 51 45 52 60 54 82 55 47 56
REMARK SMILES IDX 30 57 31 58 40 59 32 60 33 61 39 62 41 63 34 64 35 65 36 66
REMARK SMILES IDX 37 67 38 68 64 69 65 70 74 71 66 72 67 73 73 74 75 75 68 76
REMARK SMILES IDX 69 77 70 78 71 79 72 80 48 81 49 82 58 83 50 84 51 85 57 86
REMARK SMILES IDX 59 87 52 88 53 89 54 90 55 91 56 92
REMARK H PARENT 13 6 18 23 80 42 46 53
REMARK Flexibility Score: inf
ROOT
ATOM      1  C   UNL A   1      32.825  29.647  24.911  1.00  0.00     0.023 C 
ENDROOT
BRANCH   1   2
ATOM      2  C   UNL A   1      31.323  29.376  24.990  1.00  0.00     0.116 C 
BRANCH   2   3
ATOM      3  N   UNL A   1      30.673  29.800  23.766  1.00  0.00    -0.356 N 
ATOM      4  C   UNL A   1      30.406  29.078  22.642  1.00  0.00     0.220 C 
ATOM      5  O   UNL A   1      29.980  29.662  21.646  1.00  0.00    -0.275 OA
ATOM      6  H   UNL A   1      30.383  30.741  23.744  1.00  0.00     0.163 HD
BRANCH   4   7
ATOM      7  C   UNL A   1      30.558  27.571  22.657  1.00  0.00     0.100 C 
BRANCH   7   8
ATOM      8  C   UNL A   1      29.639  26.792  23.603  1.00  0.00     0.015 C 
BRANCH   8   9
ATOM      9  C   UNL A   1      30.202  25.640  24.451  1.00  0.00     0.036 C 
BRANCH   9  10
ATOM     10  C   UNL A   1      31.676  25.286  24.445  1.00  0.00    -0.048 A 
ATOM     11  C   UNL A   1      34.400  24.456  24.643  1.00  0.00    -0.045 A 
ATOM     12  C   UNL A   1      33.715  24.441  23.420  1.00  0.00     0.004 A 
ATOM     13  C   UNL A   1      33.710  24.920  25.766  1.00  0.00     0.004 A 
ATOM     14  C   UNL A   1      32.391  24.881  23.318  1.00  0.00     0.004 A 
ATOM     15  C   UNL A   1      32.367  25.311  25.669  1.00  0.00     0.004 A 
BRANCH  11  16
ATOM     16  C   UNL A   1      35.852  24.001  24.666  1.00  0.00     0.013 C 
ATOM     17  C   UNL A   1      36.190  23.395  26.034  1.00  0.00     0.012 C 
ATOM     18  C   UNL A   1      36.257  23.027  23.556  1.00  0.00     0.012 C 
ENDBRANCH  11  16
ENDBRANCH   9  10
ENDBRANCH   8   9
ENDBRANCH   7   8
ENDBRANCH   4   7
ENDBRANCH   2   3
ENDBRANCH   1   2
BRANCH   1  19
ATOM     19  C   UNL A   1      33.662  28.697  25.759  1.00  0.00     0.023 C 
BRANCH  19  20
ATOM     20  C   UNL A   1      33.421  28.828  27.257  1.00  0.00     0.116 C 
BRANCH  20  21
ATOM     21  N   UNL A   1      33.500  30.202  27.740  1.00  0.00    -0.352 N 
ATOM     22  C   UNL A   1      34.578  30.838  28.320  1.00  0.00     0.251 C 
ATOM     23  H   UNL A   1      32.683  30.743  27.640  1.00  0.00     0.163 HD
ATOM     24  O   UNL A   1      34.481  31.973  28.762  1.00  0.00    -0.269 OA
BRANCH  22  25
ATOM     25  C   UNL A   1      35.844  30.085  28.438  1.00  0.00     0.039 A 
ATOM     26  C   UNL A   1      36.715  30.054  27.348  1.00  0.00     0.014 A 
ATOM     27  C   UNL A   1      36.219  29.546  29.671  1.00  0.00     0.014 A 
ATOM     28  C   UNL A   1      38.014  29.575  27.526  1.00  0.00     0.010 A 
ATOM     29  C   UNL A   1      37.534  29.142  29.864  1.00  0.00     0.010 A 
ATOM     30  C   UNL A   1      38.451  29.177  28.801  1.00  0.00    -0.014 A 
BRANCH  30  31
ATOM     31  C   UNL A   1      39.875  28.848  29.067  1.00  0.00     0.031 A 
ATOM     32  C   UNL A   1      40.807  29.906  29.583  1.00  0.00     0.074 A 
ATOM     33  C   UNL A   1      40.348  27.628  28.736  1.00  0.00     0.049 A 
ATOM     34  N   UNL A   1      42.103  29.853  29.748  1.00  0.00    -0.248 NA
ATOM     35  C   UNL A   1      40.208  31.205  29.927  1.00  0.00     0.031 C 
ATOM     36  C   UNL A   1      39.556  26.535  28.167  1.00  0.00     0.029 A 
ATOM     37  N   UNL A   1      41.618  27.110  28.809  1.00  0.00    -0.354 N 
ATOM     38  C   UNL A   1      42.478  31.115  30.191  1.00  0.00     0.074 A 
ATOM     39  C   UNL A   1      41.279  31.924  30.228  1.00  0.00     0.031 C 
ATOM     40  C   UNL A   1      40.353  25.474  27.957  1.00  0.00     0.029 A 
ATOM     41  C   UNL A   1      41.718  25.822  28.336  1.00  0.00     0.049 A 
ATOM     42  H   UNL A   1      42.384  27.612  29.166  1.00  0.00     0.167 HD
ATOM     43  C   UNL A   1      43.706  31.553  30.553  1.00  0.00     0.037 A 
ATOM     44  C   UNL A   1      42.790  25.017  28.206  1.00  0.00     0.037 A 
ATOM     45  C   UNL A   1      44.888  30.732  30.553  1.00  0.00     0.049 A 
ATOM     46  C   UNL A   1      44.143  25.522  28.624  1.00  0.00     0.074 A 
ATOM     47  C   UNL A   1      46.160  31.056  30.990  1.00  0.00     0.029 A 
ATOM     48  N   UNL A   1      44.943  29.424  30.094  1.00  0.00    -0.354 N 
ATOM     49  N   UNL A   1      44.468  26.696  29.112  1.00  0.00    -0.248 NA
ATOM     50  C   UNL A   1      45.277  24.600  28.470  1.00  0.00     0.031 C 
ATOM     51  C   UNL A   1      46.994  29.956  30.761  1.00  0.00     0.029 A 
ATOM     52  C   UNL A   1      46.233  28.935  30.214  1.00  0.00     0.049 A 
ATOM     53  H   UNL A   1      44.178  28.917  29.736  1.00  0.00     0.167 HD
ATOM     54  C   UNL A   1      45.838  26.649  29.335  1.00  0.00     0.074 A 
ATOM     55  C   UNL A   1      46.282  25.326  28.944  1.00  0.00     0.031 C 
ATOM     56  C   UNL A   1      46.656  27.615  29.818  1.00  0.00     0.037 A 
BRANCH  43  57
ATOM     57  C   UNL A   1      43.833  32.984  30.991  1.00  0.00     0.058 A 
ATOM     58  C   UNL A   1      43.664  33.357  32.334  1.00  0.00     0.135 A 
ATOM     59  C   UNL A   1      44.156  33.988  30.065  1.00  0.00     0.135 A 
ATOM     60  F   UNL A   1      43.339  32.437  33.255  1.00  0.00    -0.206 F 
ATOM     61  C   UNL A   1      43.784  34.682  32.739  1.00  0.00     0.059 A 
ATOM     62  C   UNL A   1      44.304  35.317  30.453  1.00  0.00     0.059 A 
ATOM     63  F   UNL A   1      44.326  33.684  28.769  1.00  0.00    -0.206 F 
ATOM     64  C   UNL A   1      44.101  35.655  31.791  1.00  0.00     0.060 A 
BRANCH  64  65
ATOM     65  S   UNL A   1      44.254  37.370  32.333  1.00  0.00     0.124 S 
ATOM     66  O   UNL A   1      45.679  37.450  32.643  1.00  0.00    -0.237 OA
ATOM     67  O   UNL A   1      43.821  38.112  31.153  1.00  0.00    -0.237 OA
ATOM     68  O   UNL A   1      43.356  37.445  33.481  1.00  0.00    -0.744 OA
ENDBRANCH  64  65
ENDBRANCH  43  57
BRANCH  44  69
ATOM     69  C   UNL A   1      42.627  23.644  27.659  1.00  0.00     0.058 A 
ATOM     70  C   UNL A   1      42.647  23.414  26.276  1.00  0.00     0.135 A 
ATOM     71  C   UNL A   1      42.464  22.536  28.505  1.00  0.00     0.135 A 
ATOM     72  F   UNL A   1      42.792  24.444  25.428  1.00  0.00    -0.206 F 
ATOM     73  C   UNL A   1      42.498  22.137  25.747  1.00  0.00     0.059 A 
ATOM     74  C   UNL A   1      42.336  21.245  28.000  1.00  0.00     0.059 A 
ATOM     75  F   UNL A   1      42.455  22.701  29.836  1.00  0.00    -0.206 F 
ATOM     76  C   UNL A   1      42.346  21.057  26.618  1.00  0.00     0.060 A 
BRANCH  76  77
ATOM     77  S   UNL A   1      42.208  19.394  25.924  1.00  0.00     0.124 S 
ATOM     78  O   UNL A   1      43.061  19.497  24.747  1.00  0.00    -0.237 OA
ATOM     79  O   UNL A   1      42.717  18.564  27.011  1.00  0.00    -0.237 OA
ATOM     80  O   UNL A   1      40.778  19.261  25.661  1.00  0.00    -0.744 OA
ENDBRANCH  76  77
ENDBRANCH  44  69
BRANCH  56  81
ATOM     81  C   UNL A   1      48.113  27.282  29.960  1.00  0.00     0.058 A 
ATOM     82  C   UNL A   1      49.027  27.550  28.929  1.00  0.00     0.135 A 
ATOM     83  C   UNL A   1      48.613  26.759  31.163  1.00  0.00     0.135 A 
ATOM     84  F   UNL A   1      48.596  28.042  27.756  1.00  0.00    -0.206 F 
ATOM     85  C   UNL A   1      50.387  27.307  29.083  1.00  0.00     0.059 A 
ATOM     86  C   UNL A   1      49.972  26.528  31.347  1.00  0.00     0.059 A 
ATOM     87  F   UNL A   1      47.780  26.492  32.181  1.00  0.00    -0.206 F 
ATOM     88  C   UNL A   1      50.851  26.800  30.300  1.00  0.00     0.060 A 
BRANCH  88  89
ATOM     89  S   UNL A   1      52.626  26.544  30.509  1.00  0.00     0.124 S 
ATOM     90  O   UNL A   1      52.653  25.408  31.424  1.00  0.00    -0.237 OA
ATOM     91  O   UNL A   1      53.067  26.269  29.145  1.00  0.00    -0.237 OA
ATOM     92  O   UNL A   1      53.088  27.811  31.066  1.00  0.00    -0.744 OA
ENDBRANCH  88  89
ENDBRANCH  56  81
ENDBRANCH  30  31
ENDBRANCH  22  25
ENDBRANCH  20  21
ENDBRANCH  19  20
ENDBRANCH   1  19
TORSDOF 18
ENDMDL
MODEL 2
REMARK VINA RESULT:     -10.7      3.509      9.639
REMARK SMILES CC(C)c1ccc(CCCC(=O)NCCCCNC(=O)c2ccc(-c3c4nc(c(-c5c(F)cc(S(=O)(=O)[O-])cc5F)c5ccc([nH]5)c(-c5c(F)cc(S(=O)(=O)[O-])cc5F)c5nc(c(-c6c(F)cc(S(=O)(=O)[O-])cc6F)c6ccc3[nH]6)C=C5)C=C4)cc2)cc1
REMARK SMILES IDX 15 1 14 2 13 3 11 4 12 5 10 7 9 8 8 9 7 10 4 11 5 12 88 13
REMARK SMILES IDX 6 14 87 15 2 16 1 17 3 18 16 19 17 20 18 21 19 22 20 24
REMARK SMILES IDX 21 25 22 26 86 27 23 28 85 29 24 30 25 31 26 32 79 33 27 34
REMARK SMILES IDX 84 35 78 36 80 37 28 38 83 39 77 40 76 41 29 43 63 44 42 45
REMARK SMILES IDX 62 46 43 47 46 48 61 49 81 50 44 51 45 52 60 54 82 55 47 56
REMARK SMILES IDX 30 57 31 58 40 59 32 60 33 61 39 62 41 63 34 64 35 65 36 66
REMARK SMILES IDX 37 67 38 68 64 69 65 70 74 71 66 72 67 73 73 74 75 75 68 76
REMARK SMILES IDX 69 77 70 78 71 79 72 80 48 81 49 82 58 83 50 84 51 85 57 86
REMARK SMILES IDX 59 87 52 88 53 89 54 90 55 91 56 92
REMARK H PARENT 13 6 18 23 80 42 46 53
REMARK Flexibility Score: inf
ROOT
ATOM      1  C   UNL A   1      35.223  21.771  25.791  1.00  0.00     0.023 C 
ENDROOT
BRANCH   1   2
ATOM      2  C   UNL A   1      33.790  21.738  26.322  1.00  0.00     0.116 C 
BRANCH   2   3
ATOM      3  N   UNL A   1      33.363  20.368  26.524  1.00  0.00    -0.356 N 
ATOM      4  C   UNL A   1      33.015  19.433  25.598  1.00  0.00     0.220 C 
ATOM      5  O   UNL A   1      32.532  18.367  25.980  1.00  0.00    -0.275 OA
ATOM      6  H   UNL A   1      33.318  20.073  27.463  1.00  0.00     0.163 HD
BRANCH   4   7
ATOM      7  C   UNL A   1      33.299  19.679  24.131  1.00  0.00     0.100 C 
BRANCH   7   8
ATOM      8  C   UNL A   1      32.096  19.995  23.236  1.00  0.00     0.015 C 
BRANCH   8   9
ATOM      9  C   UNL A   1      32.113  21.236  22.330  1.00  0.00     0.036 C 
BRANCH   9  10
ATOM     10  C   UNL A   1      32.573  22.590  22.832  1.00  0.00    -0.048 A 
ATOM     11  C   UNL A   1      33.383  25.053  24.028  1.00  0.00    -0.045 A 
ATOM     12  C   UNL A   1      34.197  24.381  23.106  1.00  0.00     0.004 A 
ATOM     13  C   UNL A   1      32.139  24.488  24.325  1.00  0.00     0.004 A 
ATOM     14  C   UNL A   1      33.785  23.193  22.494  1.00  0.00     0.004 A 
ATOM     15  C   UNL A   1      31.751  23.269  23.749  1.00  0.00     0.004 A 
BRANCH  11  16
ATOM     16  C   UNL A   1      33.883  26.361  24.620  1.00  0.00     0.013 C 
ATOM     17  C   UNL A   1      33.520  27.530  23.695  1.00  0.00     0.012 C 
ATOM     18  C   UNL A   1      33.410  26.666  26.045  1.00  0.00     0.012 C 
ENDBRANCH  11  16
ENDBRANCH   9  10
ENDBRANCH   8   9
ENDBRANCH   7   8
ENDBRANCH   4   7
ENDBRANCH   2   3
ENDBRANCH   1   2
BRANCH   1  19
ATOM     19  C   UNL A   1      35.973  23.052  26.137  1.00  0.00     0.023 C 
BRANCH  19  20
ATOM     20  C   UNL A   1      37.143  23.355  25.210  1.00  0.00     0.116 C 
BRANCH  20  21
ATOM     21  N   UNL A   1      38.326  22.547  25.485  1.00  0.00    -0.352 N 
ATOM     22  C   UNL A   1      39.455  22.908  26.190  1.00  0.00     0.251 C 
ATOM     23  H   UNL A   1      38.317  21.632  25.123  1.00  0.00     0.163 HD
ATOM     24  O   UNL A   1      40.416  22.158  26.272  1.00  0.00    -0.269 OA
BRANCH  22  25
ATOM     25  C   UNL A   1      39.489  24.251  26.803  1.00  0.00     0.039 A 
ATOM     26  C   UNL A   1      38.926  24.431  28.067  1.00  0.00     0.014 A 
ATOM     27  C   UNL A   1      40.206  25.279  26.185  1.00  0.00     0.014 A 
ATOM     28  C   UNL A   1      39.177  25.614  28.764  1.00  0.00     0.010 A 
ATOM     29  C   UNL A   1      40.517  26.422  26.911  1.00  0.00     0.010 A 
ATOM     30  C   UNL A   1      40.027  26.590  28.217  1.00  0.00    -0.014 A 
BRANCH  30  31
ATOM     31  C   UNL A   1      40.470  27.767  29.006  1.00  0.00     0.031 A 
ATOM     32  C   UNL A   1      41.771  27.724  29.756  1.00  0.00     0.074 A 
ATOM     33  C   UNL A   1      39.647  28.829  29.136  1.00  0.00     0.049 A 
ATOM     34  N   UNL A   1      42.263  28.589  30.603  1.00  0.00    -0.248 NA
ATOM     35  C   UNL A   1      42.612  26.533  29.553  1.00  0.00     0.031 C 
ATOM     36  C   UNL A   1      38.330  28.965  28.508  1.00  0.00     0.029 A 
ATOM     37  N   UNL A   1      39.787  29.988  29.858  1.00  0.00    -0.354 N 
ATOM     38  C   UNL A   1      43.458  28.040  31.051  1.00  0.00     0.074 A 
ATOM     39  C   UNL A   1      43.594  26.747  30.415  1.00  0.00     0.031 C 
ATOM     40  C   UNL A   1      37.791  30.143  28.860  1.00  0.00     0.029 A 
ATOM     41  C   UNL A   1      38.702  30.829  29.771  1.00  0.00     0.049 A 
ATOM     42  H   UNL A   1      40.588  30.197  30.390  1.00  0.00     0.167 HD
ATOM     43  C   UNL A   1      44.366  28.573  31.900  1.00  0.00     0.037 A 
ATOM     44  C   UNL A   1      38.459  32.012  30.368  1.00  0.00     0.037 A 
ATOM     45  C   UNL A   1      44.245  29.876  32.498  1.00  0.00     0.049 A 
ATOM     46  C   UNL A   1      39.488  32.589  31.300  1.00  0.00     0.074 A 
ATOM     47  C   UNL A   1      45.155  30.544  33.297  1.00  0.00     0.029 A 
ATOM     48  N   UNL A   1      43.144  30.710  32.362  1.00  0.00    -0.354 N 
ATOM     49  N   UNL A   1      40.648  32.090  31.655  1.00  0.00    -0.248 NA
ATOM     50  C   UNL A   1      39.178  33.886  31.917  1.00  0.00     0.031 C 
ATOM     51  C   UNL A   1      44.590  31.767  33.676  1.00  0.00     0.029 A 
ATOM     52  C   UNL A   1      43.342  31.876  33.083  1.00  0.00     0.049 A 
ATOM     53  H   UNL A   1      42.341  30.504  31.831  1.00  0.00     0.167 HD
ATOM     54  C   UNL A   1      41.211  33.014  32.525  1.00  0.00     0.074 A 
ATOM     55  C   UNL A   1      40.272  34.113  32.633  1.00  0.00     0.031 C 
ATOM     56  C   UNL A   1      42.396  32.959  33.179  1.00  0.00     0.037 A 
BRANCH  43  57
ATOM     57  C   UNL A   1      45.580  27.751  32.225  1.00  0.00     0.058 A 
ATOM     58  C   UNL A   1      45.599  26.874  33.322  1.00  0.00     0.135 A 
ATOM     59  C   UNL A   1      46.725  27.817  31.417  1.00  0.00     0.135 A 
ATOM     60  F   UNL A   1      44.536  26.786  34.136  1.00  0.00    -0.206 F 
ATOM     61  C   UNL A   1      46.722  26.111  33.622  1.00  0.00     0.059 A 
ATOM     62  C   UNL A   1      47.852  27.045  31.685  1.00  0.00     0.059 A 
ATOM     63  F   UNL A   1      46.759  28.641  30.358  1.00  0.00    -0.206 F 
ATOM     64  C   UNL A   1      47.845  26.206  32.799  1.00  0.00     0.060 A 
BRANCH  64  65
ATOM     65  S   UNL A   1      49.295  25.208  33.200  1.00  0.00     0.124 S 
ATOM     66  O   UNL A   1      48.690  24.096  33.927  1.00  0.00    -0.237 OA
ATOM     67  O   UNL A   1      49.829  24.885  31.881  1.00  0.00    -0.237 OA
ATOM     68  O   UNL A   1      50.117  26.110  34.002  1.00  0.00    -0.744 OA
ENDBRANCH  64  65
ENDBRANCH  43  57
BRANCH  44  69
ATOM     69  C   UNL A   1      37.187  32.734  30.099  1.00  0.00     0.058 A 
ATOM     70  C   UNL A   1      36.053  32.510  30.892  1.00  0.00     0.135 A 
ATOM     71  C   UNL A   1      37.085  33.669  29.058  1.00  0.00     0.135 A 
ATOM     72  F   UNL A   1      36.101  31.618  31.894  1.00  0.00    -0.206 F 
ATOM     73  C   UNL A   1      34.856  33.178  30.657  1.00  0.00     0.059 A 
ATOM     74  C   UNL A   1      35.905  34.366  28.817  1.00  0.00     0.059 A 
ATOM     75  F   UNL A   1      38.148  33.931  28.281  1.00  0.00    -0.206 F 
ATOM     76  C   UNL A   1      34.793  34.107  29.617  1.00  0.00     0.060 A 
BRANCH  76  77
ATOM     77  S   UNL A   1      33.250  35.010  29.352  1.00  0.00     0.124 S 
ATOM     78  O   UNL A   1      32.656  34.972  30.683  1.00  0.00    -0.237 OA
ATOM     79  O   UNL A   1      33.730  36.314  28.905  1.00  0.00    -0.237 OA
ATOM     80  O   UNL A   1      32.570  34.217  28.332  1.00  0.00    -0.744 OA
ENDBRANCH  76  77
ENDBRANCH  44  69
BRANCH  56  81
ATOM     81  C   UNL A   1      42.755  34.117  34.064  1.00  0.00     0.058 A 
ATOM     82  C   UNL A   1      42.486  34.094  35.441  1.00  0.00     0.135 A 
ATOM     83  C   UNL A   1      43.439  35.228  33.545  1.00  0.00     0.135 A 
ATOM     84  F   UNL A   1      41.825  33.058  35.982  1.00  0.00    -0.206 F 
ATOM     85  C   UNL A   1      42.878  35.135  36.274  1.00  0.00     0.059 A 
ATOM     86  C   UNL A   1      43.860  36.270  34.363  1.00  0.00     0.059 A 
ATOM     87  F   UNL A   1      43.726  35.293  32.235  1.00  0.00    -0.206 F 
ATOM     88  C   UNL A   1      43.571  36.218  35.726  1.00  0.00     0.060 A 
BRANCH  88  89
ATOM     89  S   UNL A   1      44.128  37.536  36.827  1.00  0.00     0.124 S 
ATOM     90  O   UNL A   1      45.416  37.019  37.277  1.00  0.00    -0.237 OA
ATOM     91  O   UNL A   1      44.185  38.689  35.933  1.00  0.00    -0.237 OA
ATOM     92  O   UNL A   1      43.083  37.592  37.844  1.00  0.00    -0.744 OA
ENDBRANCH  88  89
ENDBRANCH  56  81
ENDBRANCH  30  31
ENDBRANCH  22  25
ENDBRANCH  20  21
ENDBRANCH  19  20
ENDBRANCH   1  19
TORSDOF 18
ENDMDL
MODEL 3
REMARK VINA RESULT:     -10.5      1.622      3.351
REMARK SMILES CC(C)c1ccc(CCCC(=O)NCCCCNC(=O)c2ccc(-c3c4nc(c(-c5c(F)cc(S(=O)(=O)[O-])cc5F)c5ccc([nH]5)c(-c5c(F)cc(S(=O)(=O)[O-])cc5F)c5nc(c(-c6c(F)cc(S(=O)(=O)[O-])cc6F)c6ccc3[nH]6)C=C5)C=C4)cc2)cc1
REMARK SMILES IDX 15 1 14 2 13 3 11 4 12 5 10 7 9 8 8 9 7 10 4 11 5 12 88 13
REMARK SMILES IDX 6 14 87 15 2 16 1 17 3 18 16 19 17 20 18 21 19 22 20 24
REMARK SMILES IDX 21 25 22 26 86 27 23 28 85 29 24 30 25 31 26 32 79 33 27 34
REMARK SMILES IDX 84 35 78 36 80 37 28 38 83 39 77 40 76 41 29 43 63 44 42 45
REMARK SMILES IDX 62 46 43 47 46 48 61 49 81 50 44 51 45 52 60 54 82 55 47 56
REMARK SMILES IDX 30 57 31 58 40 59 32 60 33 61 39 62 41 63 34 64 35 65 36 66
REMARK SMILES IDX 37 67 38 68 64 69 65 70 74 71 66 72 67 73 73 74 75 75 68 76
REMARK SMILES IDX 69 77 70 78 71 79 72 80 48 81 49 82 58 83 50 84 51 85 57 86
REMARK SMILES IDX 59 87 52 88 53 89 54 90 55 91 56 92
REMARK H PARENT 13 6 18 23 80 42 46 53
REMARK Flexibility Score: inf
ROOT
ATOM      1  C   UNL A   1      32.879  27.522  26.246  1.00  0.00     0.023 C 
ENDROOT
BRANCH   1   2
ATOM      2  C   UNL A   1      31.358  27.658  26.327  1.00  0.00     0.116 C 
BRANCH   2   3
ATOM      3  N   UNL A   1      30.771  26.429  26.822  1.00  0.00    -0.356 N 
ATOM      4  C   UNL A   1      30.418  25.309  26.133  1.00  0.00     0.220 C 
ATOM      5  O   UNL A   1      29.790  24.424  26.715  1.00  0.00    -0.275 OA
ATOM      6  H   UNL A   1      30.605  26.400  27.792  1.00  0.00     0.163 HD
BRANCH   4   7
ATOM      7  C   UNL A   1      30.866  25.132  24.697  1.00  0.00     0.100 C 
BRANCH   7   8
ATOM      8  C   UNL A   1      29.835  25.435  23.607  1.00  0.00     0.015 C 
BRANCH   8   9
ATOM      9  C   UNL A   1      28.739  26.486  23.851  1.00  0.00     0.036 C 
BRANCH   9  10
ATOM     10  C   UNL A   1      28.814  27.876  23.251  1.00  0.00    -0.048 A 
ATOM     11  C   UNL A   1      28.821  30.581  22.339  1.00  0.00    -0.045 A 
ATOM     12  C   UNL A   1      29.993  29.814  22.370  1.00  0.00     0.004 A 
ATOM     13  C   UNL A   1      27.633  29.966  22.747  1.00  0.00     0.004 A 
ATOM     14  C   UNL A   1      29.982  28.477  22.784  1.00  0.00     0.004 A 
ATOM     15  C   UNL A   1      27.636  28.643  23.210  1.00  0.00     0.004 A 
BRANCH  11  16
ATOM     16  C   UNL A   1      28.905  32.015  21.838  1.00  0.00     0.013 C 
ATOM     17  C   UNL A   1      27.871  32.245  20.729  1.00  0.00     0.012 C 
ATOM     18  C   UNL A   1      28.762  33.099  22.910  1.00  0.00     0.012 C 
ENDBRANCH  11  16
ENDBRANCH   9  10
ENDBRANCH   8   9
ENDBRANCH   7   8
ENDBRANCH   4   7
ENDBRANCH   2   3
ENDBRANCH   1   2
BRANCH   1  19
ATOM     19  C   UNL A   1      33.622  28.380  27.263  1.00  0.00     0.023 C 
BRANCH  19  20
ATOM     20  C   UNL A   1      33.960  29.779  26.766  1.00  0.00     0.116 C 
BRANCH  20  21
ATOM     21  N   UNL A   1      33.863  30.802  27.801  1.00  0.00    -0.352 N 
ATOM     22  C   UNL A   1      34.775  31.095  28.793  1.00  0.00     0.251 C 
ATOM     23  H   UNL A   1      33.045  31.350  27.791  1.00  0.00     0.163 HD
ATOM     24  O   UNL A   1      34.528  31.924  29.655  1.00  0.00    -0.269 OA
BRANCH  22  25
ATOM     25  C   UNL A   1      36.044  30.338  28.813  1.00  0.00     0.039 A 
ATOM     26  C   UNL A   1      36.860  30.358  27.681  1.00  0.00     0.014 A 
ATOM     27  C   UNL A   1      36.478  29.740  29.998  1.00  0.00     0.014 A 
ATOM     28  C   UNL A   1      38.165  29.872  27.772  1.00  0.00     0.010 A 
ATOM     29  C   UNL A   1      37.800  29.327  30.107  1.00  0.00     0.010 A 
ATOM     30  C   UNL A   1      38.664  29.413  29.003  1.00  0.00    -0.014 A 
BRANCH  30  31
ATOM     31  C   UNL A   1      40.098  29.072  29.183  1.00  0.00     0.031 A 
ATOM     32  C   UNL A   1      41.071  30.125  29.631  1.00  0.00     0.074 A 
ATOM     33  C   UNL A   1      40.538  27.845  28.834  1.00  0.00     0.049 A 
ATOM     34  N   UNL A   1      42.374  30.060  29.716  1.00  0.00    -0.248 NA
ATOM     35  C   UNL A   1      40.507  31.433  30.000  1.00  0.00     0.031 C 
ATOM     36  C   UNL A   1      39.701  26.754  28.326  1.00  0.00     0.029 A 
ATOM     37  N   UNL A   1      41.804  27.314  28.833  1.00  0.00    -0.354 N 
ATOM     38  C   UNL A   1      42.788  31.322  30.123  1.00  0.00     0.074 A 
ATOM     39  C   UNL A   1      41.601  32.144  30.227  1.00  0.00     0.031 C 
ATOM     40  C   UNL A   1      40.473  25.684  28.077  1.00  0.00     0.029 A 
ATOM     41  C   UNL A   1      41.863  26.021  28.367  1.00  0.00     0.049 A 
ATOM     42  H   UNL A   1      42.597  27.812  29.138  1.00  0.00     0.167 HD
ATOM     43  C   UNL A   1      44.041  31.750  30.403  1.00  0.00     0.037 A 
ATOM     44  C   UNL A   1      42.916  25.204  28.177  1.00  0.00     0.037 A 
ATOM     45  C   UNL A   1      45.212  30.917  30.337  1.00  0.00     0.049 A 
ATOM     46  C   UNL A   1      44.298  25.699  28.505  1.00  0.00     0.074 A 
ATOM     47  C   UNL A   1      46.511  31.231  30.691  1.00  0.00     0.029 A 
ATOM     48  N   UNL A   1      45.226  29.605  29.888  1.00  0.00    -0.354 N 
ATOM     49  N   UNL A   1      44.664  26.873  28.962  1.00  0.00    -0.248 NA
ATOM     50  C   UNL A   1      45.411  24.764  28.290  1.00  0.00     0.031 C 
ATOM     51  C   UNL A   1      47.319  30.121  30.421  1.00  0.00     0.029 A 
ATOM     52  C   UNL A   1      46.516  29.103  29.931  1.00  0.00     0.049 A 
ATOM     53  H   UNL A   1      44.435  29.103  29.583  1.00  0.00     0.167 HD
ATOM     54  C   UNL A   1      46.045  26.815  29.100  1.00  0.00     0.074 A 
ATOM     55  C   UNL A   1      46.450  25.484  28.694  1.00  0.00     0.031 C 
ATOM     56  C   UNL A   1      46.901  27.776  29.523  1.00  0.00     0.037 A 
BRANCH  43  57
ATOM     57  C   UNL A   1      44.208  33.183  30.819  1.00  0.00     0.058 A 
ATOM     58  C   UNL A   1      44.261  33.552  32.173  1.00  0.00     0.135 A 
ATOM     59  C   UNL A   1      44.348  34.195  29.857  1.00  0.00     0.135 A 
ATOM     60  F   UNL A   1      44.117  32.625  33.133  1.00  0.00    -0.206 F 
ATOM     61  C   UNL A   1      44.419  34.879  32.559  1.00  0.00     0.059 A 
ATOM     62  C   UNL A   1      44.530  35.527  30.220  1.00  0.00     0.059 A 
ATOM     63  F   UNL A   1      44.301  33.896  28.550  1.00  0.00    -0.206 F 
ATOM     64  C   UNL A   1      44.549  35.859  31.574  1.00  0.00     0.060 A 
BRANCH  64  65
ATOM     65  S   UNL A   1      44.755  37.577  32.090  1.00  0.00     0.124 S 
ATOM     66  O   UNL A   1      43.505  37.816  32.806  1.00  0.00    -0.237 OA
ATOM     67  O   UNL A   1      45.956  37.515  32.916  1.00  0.00    -0.237 OA
ATOM     68  O   UNL A   1      44.902  38.295  30.828  1.00  0.00    -0.744 OA
ENDBRANCH  64  65
ENDBRANCH  43  57
BRANCH  44  69
ATOM     69  C   UNL A   1      42.707  23.828  27.654  1.00  0.00     0.058 A 
ATOM     70  C   UNL A   1      42.585  22.739  28.527  1.00  0.00     0.135 A 
ATOM     71  C   UNL A   1      42.609  23.578  26.277  1.00  0.00     0.135 A 
ATOM     72  F   UNL A   1      42.679  22.929  29.853  1.00  0.00    -0.206 F 
ATOM     73  C   UNL A   1      42.386  21.445  28.057  1.00  0.00     0.059 A 
ATOM     74  C   UNL A   1      42.389  22.295  25.782  1.00  0.00     0.059 A 
ATOM     75  F   UNL A   1      42.704  24.589  25.400  1.00  0.00    -0.206 F 
ATOM     76  C   UNL A   1      42.288  21.234  26.680  1.00  0.00     0.060 A 
BRANCH  76  77
ATOM     77  S   UNL A   1      41.975  19.559  26.079  1.00  0.00     0.124 S 
ATOM     78  O   UNL A   1      42.351  18.757  27.237  1.00  0.00    -0.237 OA
ATOM     79  O   UNL A   1      40.550  19.604  25.769  1.00  0.00    -0.237 OA
ATOM     80  O   UNL A   1      42.858  19.451  24.920  1.00  0.00    -0.744 OA
ENDBRANCH  76  77
ENDBRANCH  44  69
BRANCH  56  81
ATOM     81  C   UNL A   1      48.361  27.429  29.576  1.00  0.00     0.058 A 
ATOM     82  C   UNL A   1      49.214  27.697  28.495  1.00  0.00     0.135 A 
ATOM     83  C   UNL A   1      48.925  26.894  30.745  1.00  0.00     0.135 A 
ATOM     84  F   UNL A   1      48.720  28.200  27.353  1.00  0.00    -0.206 F 
ATOM     85  C   UNL A   1      50.579  27.440  28.568  1.00  0.00     0.059 A 
ATOM     86  C   UNL A   1      50.290  26.649  30.847  1.00  0.00     0.059 A 
ATOM     87  F   UNL A   1      48.151  26.627  31.808  1.00  0.00    -0.206 F 
ATOM     88  C   UNL A   1      51.109  26.921  29.751  1.00  0.00     0.060 A 
BRANCH  88  89
ATOM     89  S   UNL A   1      52.891  26.648  29.855  1.00  0.00     0.124 S 
ATOM     90  O   UNL A   1      53.161  25.986  28.584  1.00  0.00    -0.237 OA
ATOM     91  O   UNL A   1      53.410  28.007  29.986  1.00  0.00    -0.237 OA
ATOM     92  O   UNL A   1      53.036  25.812  31.043  1.00  0.00    -0.744 OA
ENDBRANCH  88  89
ENDBRANCH  56  81
ENDBRANCH  30  31
ENDBRANCH  22  25
ENDBRANCH  20  21
ENDBRANCH  19  20
ENDBRANCH   1  19
TORSDOF 18
ENDMDL
