MODEL 1
REMARK VINA RESULT:     -12.5      0.000      0.000
REMARK SMILES COc1ccc(-c2cc(C(=O)NCCCCNC(=O)c3ccc(-c4c5nc(c(-c6c(F)cc(S(=O)(=O)[O-])cc6F)c6ccc([nH]6)c(-c6c(F)cc(S(=O)(=O)[O-])cc6F)c6nc(c(-c7c(F)cc(S(=O)(=O)[O-])cc7F)c7ccc4[nH]7)C=C6)C=C5)cc3)nc(=O)n2C)cc1
REMARK SMILES IDX 15 1 14 2 13 3 12 4 10 5 11 6 9 8 7 9 8 10 89 11 87 12 90 13
REMARK SMILES IDX 86 14 88 15 6 16 3 17 4 18 92 19 5 20 91 21 2 22 1 23 16 24
REMARK SMILES IDX 17 25 18 26 19 28 20 29 21 30 85 31 22 32 84 33 23 34 24 35
REMARK SMILES IDX 25 36 78 37 26 38 83 39 77 40 79 41 27 42 82 43 76 44 75 45
REMARK SMILES IDX 28 47 62 48 41 49 61 50 42 51 45 52 60 53 80 54 43 55 44 56
REMARK SMILES IDX 59 58 81 59 46 60 29 61 30 62 39 63 31 64 32 65 38 66 40 67
REMARK SMILES IDX 33 68 34 69 35 70 36 71 37 72 63 73 64 74 73 75 65 76 66 77
REMARK SMILES IDX 72 78 74 79 67 80 68 81 69 82 70 83 71 84 47 85 48 86 57 87
REMARK SMILES IDX 49 88 50 89 56 90 58 91 51 92 52 93 53 94 54 95 55 96
REMARK H PARENT 12 7 17 27 79 46 45 57
REMARK Flexibility Score: inf
ROOT
ATOM      1  C   UNL A   1      37.636  23.396  25.790  1.00  0.00     0.023 C 
ENDROOT
BRANCH   1   2
ATOM      2  C   UNL A   1      37.958  21.901  25.689  1.00  0.00     0.023 C 
BRANCH   2   3
ATOM      3  C   UNL A   1      36.951  21.106  24.859  1.00  0.00     0.116 C 
BRANCH   3   4
ATOM      4  N   UNL A   1      35.797  20.732  25.657  1.00  0.00    -0.351 N 
ATOM      5  C   UNL A   1      34.551  21.301  25.753  1.00  0.00     0.270 C 
ATOM      6  O   UNL A   1      33.741  20.843  26.556  1.00  0.00    -0.268 OA
ATOM      7  H   UNL A   1      35.930  19.937  26.223  1.00  0.00     0.163 HD
BRANCH   5   8
ATOM      8  C   UNL A   1      34.120  22.476  24.868  1.00  0.00     0.136 A 
ATOM      9  C   UNL A   1      33.380  24.738  24.829  1.00  0.00     0.055 A 
ATOM     10  C   UNL A   1      33.754  23.706  25.592  1.00  0.00     0.061 A 
ATOM     11  N   UNL A   1      33.330  24.612  23.451  1.00  0.00    -0.295 N 
ATOM     12  C   UNL A   1      33.653  23.404  22.819  1.00  0.00     0.348 A 
ATOM     13  C   UNL A   1      32.912  25.692  22.572  1.00  0.00     0.155 C 
ATOM     14  N   UNL A   1      34.090  22.360  23.584  1.00  0.00    -0.188 NA
ATOM     15  O   UNL A   1      33.539  23.271  21.601  1.00  0.00    -0.246 OA
BRANCH   9  16
ATOM     16  C   UNL A   1      33.025  25.990  25.519  1.00  0.00    -0.001 A 
ATOM     17  C   UNL A   1      32.326  28.395  26.788  1.00  0.00     0.118 A 
ATOM     18  C   UNL A   1      31.359  27.419  26.552  1.00  0.00     0.047 A 
ATOM     19  C   UNL A   1      33.649  28.164  26.408  1.00  0.00     0.047 A 
ATOM     20  C   UNL A   1      31.702  26.225  25.915  1.00  0.00     0.014 A 
ATOM     21  C   UNL A   1      33.994  26.971  25.765  1.00  0.00     0.014 A 
BRANCH  17  22
ATOM     22  O   UNL A   1      31.883  29.516  27.435  1.00  0.00    -0.497 OA
ATOM     23  C   UNL A   1      32.091  30.738  26.735  1.00  0.00     0.278 C 
ENDBRANCH  17  22
ENDBRANCH   9  16
ENDBRANCH   5   8
ENDBRANCH   3   4
ENDBRANCH   2   3
ENDBRANCH   1   2
BRANCH   1  24
ATOM     24  C   UNL A   1      38.634  24.222  26.598  1.00  0.00     0.116 C 
BRANCH  24  25
ATOM     25  N   UNL A   1      39.816  24.592  25.837  1.00  0.00    -0.352 N 
ATOM     26  C   UNL A   1      40.739  25.577  26.089  1.00  0.00     0.251 C 
ATOM     27  H   UNL A   1      39.977  24.061  25.023  1.00  0.00     0.163 HD
ATOM     28  O   UNL A   1      41.600  25.832  25.253  1.00  0.00    -0.269 OA
BRANCH  26  29
ATOM     29  C   UNL A   1      40.673  26.347  27.348  1.00  0.00     0.039 A 
ATOM     30  C   UNL A   1      41.490  27.471  27.484  1.00  0.00     0.014 A 
ATOM     31  C   UNL A   1      39.813  25.975  28.386  1.00  0.00     0.014 A 
ATOM     32  C   UNL A   1      41.401  28.252  28.637  1.00  0.00     0.010 A 
ATOM     33  C   UNL A   1      39.666  26.803  29.498  1.00  0.00     0.010 A 
ATOM     34  C   UNL A   1      40.460  27.948  29.637  1.00  0.00    -0.014 A 
BRANCH  34  35
ATOM     35  C   UNL A   1      40.298  28.848  30.809  1.00  0.00     0.031 A 
ATOM     36  C   UNL A   1      41.168  28.696  32.027  1.00  0.00     0.074 A 
ATOM     37  C   UNL A   1      39.345  29.801  30.774  1.00  0.00     0.049 A 
ATOM     38  N   UNL A   1      41.206  29.433  33.108  1.00  0.00    -0.248 NA
ATOM     39  C   UNL A   1      42.101  27.559  32.049  1.00  0.00     0.031 C 
ATOM     40  C   UNL A   1      38.391  29.999  29.680  1.00  0.00     0.029 A 
ATOM     41  N   UNL A   1      39.027  30.788  31.672  1.00  0.00    -0.354 N 
ATOM     42  C   UNL A   1      42.162  28.853  33.934  1.00  0.00     0.074 A 
ATOM     43  C   UNL A   1      42.634  27.664  33.257  1.00  0.00     0.031 C 
ATOM     44  C   UNL A   1      37.630  31.071  29.948  1.00  0.00     0.029 A 
ATOM     45  C   UNL A   1      38.014  31.615  31.246  1.00  0.00     0.049 A 
ATOM     46  H   UNL A   1      39.480  30.893  32.540  1.00  0.00     0.167 HD
ATOM     47  C   UNL A   1      42.625  29.286  35.131  1.00  0.00     0.037 A 
ATOM     48  C   UNL A   1      37.465  32.697  31.829  1.00  0.00     0.037 A 
ATOM     49  C   UNL A   1      42.154  30.476  35.795  1.00  0.00     0.049 A 
ATOM     50  C   UNL A   1      38.005  33.166  33.152  1.00  0.00     0.074 A 
ATOM     51  C   UNL A   1      42.595  31.031  36.983  1.00  0.00     0.029 A 
ATOM     52  N   UNL A   1      41.130  31.290  35.333  1.00  0.00    -0.354 N 
ATOM     53  N   UNL A   1      38.969  32.651  33.879  1.00  0.00    -0.248 NA
ATOM     54  C   UNL A   1      37.393  34.370  33.726  1.00  0.00     0.031 C 
ATOM     55  C   UNL A   1      41.802  32.148  37.268  1.00  0.00     0.029 A 
ATOM     56  C   UNL A   1      40.906  32.328  36.225  1.00  0.00     0.049 A 
ATOM     57  H   UNL A   1      40.634  31.152  34.493  1.00  0.00     0.167 HD
ATOM     58  C   UNL A   1      39.093  33.482  34.987  1.00  0.00     0.074 A 
ATOM     59  C   UNL A   1      38.124  34.548  34.816  1.00  0.00     0.031 C 
ATOM     60  C   UNL A   1      39.927  33.373  36.052  1.00  0.00     0.037 A 
BRANCH  47  61
ATOM     61  C   UNL A   1      43.699  28.468  35.803  1.00  0.00     0.058 A 
ATOM     62  C   UNL A   1      45.064  28.717  35.581  1.00  0.00     0.135 A 
ATOM     63  C   UNL A   1      43.362  27.448  36.707  1.00  0.00     0.135 A 
ATOM     64  F   UNL A   1      45.447  29.669  34.717  1.00  0.00    -0.206 F 
ATOM     65  C   UNL A   1      46.054  27.964  36.207  1.00  0.00     0.059 A 
ATOM     66  C   UNL A   1      44.336  26.704  37.368  1.00  0.00     0.059 A 
ATOM     67  F   UNL A   1      42.074  27.165  36.958  1.00  0.00    -0.206 F 
ATOM     68  C   UNL A   1      45.679  26.959  37.099  1.00  0.00     0.060 A 
BRANCH  68  69
ATOM     69  S   UNL A   1      46.977  25.998  37.907  1.00  0.00     0.124 S 
ATOM     70  O   UNL A   1      47.373  25.087  36.838  1.00  0.00    -0.237 OA
ATOM     71  O   UNL A   1      47.952  27.025  38.259  1.00  0.00    -0.237 OA
ATOM     72  O   UNL A   1      46.289  25.378  39.036  1.00  0.00    -0.744 OA
ENDBRANCH  68  69
ENDBRANCH  47  61
BRANCH  48  73
ATOM     73  C   UNL A   1      36.364  33.431  31.146  1.00  0.00     0.058 A 
ATOM     74  C   UNL A   1      35.070  33.464  31.686  1.00  0.00     0.135 A 
ATOM     75  C   UNL A   1      36.588  34.125  29.948  1.00  0.00     0.135 A 
ATOM     76  F   UNL A   1      34.802  32.812  32.828  1.00  0.00    -0.206 F 
ATOM     77  C   UNL A   1      34.032  34.142  31.053  1.00  0.00     0.059 A 
ATOM     78  C   UNL A   1      35.575  34.836  29.312  1.00  0.00     0.059 A 
ATOM     79  F   UNL A   1      37.813  34.142  29.398  1.00  0.00    -0.206 F 
ATOM     80  C   UNL A   1      34.296  34.828  29.868  1.00  0.00     0.060 A 
BRANCH  80  81
ATOM     81  S   UNL A   1      32.955  35.746  29.080  1.00  0.00     0.124 S 
ATOM     82  O   UNL A   1      32.427  34.756  28.150  1.00  0.00    -0.237 OA
ATOM     83  O   UNL A   1      32.101  36.075  30.218  1.00  0.00    -0.237 OA
ATOM     84  O   UNL A   1      33.639  36.884  28.471  1.00  0.00    -0.744 OA
ENDBRANCH  80  81
ENDBRANCH  48  73
BRANCH  60  85
ATOM     85  C   UNL A   1      39.839  34.450  37.101  1.00  0.00     0.058 A 
ATOM     86  C   UNL A   1      39.007  34.322  38.226  1.00  0.00     0.135 A 
ATOM     87  C   UNL A   1      40.590  35.631  36.976  1.00  0.00     0.135 A 
ATOM     88  F   UNL A   1      38.266  33.216  38.395  1.00  0.00    -0.206 F 
ATOM     89  C   UNL A   1      38.877  35.348  39.155  1.00  0.00     0.059 A 
ATOM     90  C   UNL A   1      40.505  36.655  37.914  1.00  0.00     0.059 A 
ATOM     91  F   UNL A   1      41.416  35.801  35.931  1.00  0.00    -0.206 F 
ATOM     92  C   UNL A   1      39.625  36.515  38.986  1.00  0.00     0.060 A 
BRANCH  92  93
ATOM     93  S   UNL A   1      39.429  37.851  40.184  1.00  0.00     0.124 S 
ATOM     94  O   UNL A   1      40.706  38.547  40.058  1.00  0.00    -0.237 OA
ATOM     95  O   UNL A   1      38.264  38.565  39.670  1.00  0.00    -0.237 OA
ATOM     96  O   UNL A   1      39.219  37.148  41.446  1.00  0.00    -0.744 OA
ENDBRANCH  92  93
ENDBRANCH  60  85
ENDBRANCH  34  35
ENDBRANCH  26  29
ENDBRANCH  24  25
ENDBRANCH   1  24
TORSDOF 16
ENDMDL
MODEL 2
REMARK VINA RESULT:     -12.4      0.620      1.795
REMARK SMILES COc1ccc(-c2cc(C(=O)NCCCCNC(=O)c3ccc(-c4c5nc(c(-c6c(F)cc(S(=O)(=O)[O-])cc6F)c6ccc([nH]6)c(-c6c(F)cc(S(=O)(=O)[O-])cc6F)c6nc(c(-c7c(F)cc(S(=O)(=O)[O-])cc7F)c7ccc4[nH]7)C=C6)C=C5)cc3)nc(=O)n2C)cc1
REMARK SMILES IDX 15 1 14 2 13 3 12 4 10 5 11 6 9 8 7 9 8 10 89 11 87 12 90 13
REMARK SMILES IDX 86 14 88 15 6 16 3 17 4 18 92 19 5 20 91 21 2 22 1 23 16 24
REMARK SMILES IDX 17 25 18 26 19 28 20 29 21 30 85 31 22 32 84 33 23 34 24 35
REMARK SMILES IDX 25 36 78 37 26 38 83 39 77 40 79 41 27 42 82 43 76 44 75 45
REMARK SMILES IDX 28 47 62 48 41 49 61 50 42 51 45 52 60 53 80 54 43 55 44 56
REMARK SMILES IDX 59 58 81 59 46 60 29 61 30 62 39 63 31 64 32 65 38 66 40 67
REMARK SMILES IDX 33 68 34 69 35 70 36 71 37 72 63 73 64 74 73 75 65 76 66 77
REMARK SMILES IDX 72 78 74 79 67 80 68 81 69 82 70 83 71 84 47 85 48 86 57 87
REMARK SMILES IDX 49 88 50 89 56 90 58 91 51 92 52 93 53 94 54 95 55 96
REMARK H PARENT 12 7 17 27 79 46 45 57
REMARK Flexibility Score: inf
ROOT
ATOM      1  C   UNL A   1      37.465  23.601  25.804  1.00  0.00     0.023 C 
ENDROOT
BRANCH   1   2
ATOM      2  C   UNL A   1      37.669  22.147  25.363  1.00  0.00     0.023 C 
BRANCH   2   3
ATOM      3  C   UNL A   1      36.371  21.417  25.020  1.00  0.00     0.116 C 
BRANCH   3   4
ATOM      4  N   UNL A   1      35.577  21.177  26.211  1.00  0.00    -0.351 N 
ATOM      5  C   UNL A   1      34.405  21.751  26.638  1.00  0.00     0.270 C 
ATOM      6  O   UNL A   1      33.941  21.430  27.731  1.00  0.00    -0.268 OA
ATOM      7  H   UNL A   1      35.938  20.486  26.813  1.00  0.00     0.163 HD
BRANCH   5   8
ATOM      8  C   UNL A   1      33.634  22.764  25.785  1.00  0.00     0.136 A 
ATOM      9  C   UNL A   1      32.955  25.035  25.564  1.00  0.00     0.055 A 
ATOM     10  C   UNL A   1      33.622  24.143  26.304  1.00  0.00     0.061 A 
ATOM     11  N   UNL A   1      32.309  24.643  24.404  1.00  0.00    -0.295 N 
ATOM     12  C   UNL A   1      32.322  23.308  23.979  1.00  0.00     0.348 A 
ATOM     13  C   UNL A   1      31.552  25.563  23.571  1.00  0.00     0.155 C 
ATOM     14  N   UNL A   1      33.048  22.399  24.696  1.00  0.00    -0.188 NA
ATOM     15  O   UNL A   1      31.689  22.947  22.988  1.00  0.00    -0.246 OA
BRANCH   9  16
ATOM     16  C   UNL A   1      32.938  26.427  26.044  1.00  0.00    -0.001 A 
ATOM     17  C   UNL A   1      32.942  29.069  26.995  1.00  0.00     0.118 A 
ATOM     18  C   UNL A   1      33.972  28.618  26.172  1.00  0.00     0.047 A 
ATOM     19  C   UNL A   1      31.897  28.207  27.330  1.00  0.00     0.047 A 
ATOM     20  C   UNL A   1      33.977  27.303  25.703  1.00  0.00     0.014 A 
ATOM     21  C   UNL A   1      31.901  26.888  26.865  1.00  0.00     0.014 A 
BRANCH  17  22
ATOM     22  O   UNL A   1      33.029  30.379  27.380  1.00  0.00    -0.497 OA
ATOM     23  C   UNL A   1      34.352  30.853  27.609  1.00  0.00     0.278 C 
ENDBRANCH  17  22
ENDBRANCH   9  16
ENDBRANCH   5   8
ENDBRANCH   3   4
ENDBRANCH   2   3
ENDBRANCH   1   2
BRANCH   1  24
ATOM     24  C   UNL A   1      38.583  24.180  26.667  1.00  0.00     0.116 C 
BRANCH  24  25
ATOM     25  N   UNL A   1      39.760  24.551  25.899  1.00  0.00    -0.352 N 
ATOM     26  C   UNL A   1      40.683  25.538  26.145  1.00  0.00     0.251 C 
ATOM     27  H   UNL A   1      39.918  24.020  25.084  1.00  0.00     0.163 HD
ATOM     28  O   UNL A   1      41.539  25.793  25.304  1.00  0.00    -0.269 OA
BRANCH  26  29
ATOM     29  C   UNL A   1      40.623  26.309  27.403  1.00  0.00     0.039 A 
ATOM     30  C   UNL A   1      41.467  27.411  27.549  1.00  0.00     0.014 A 
ATOM     31  C   UNL A   1      39.742  25.959  28.432  1.00  0.00     0.014 A 
ATOM     32  C   UNL A   1      41.385  28.194  28.702  1.00  0.00     0.010 A 
ATOM     33  C   UNL A   1      39.603  26.790  29.543  1.00  0.00     0.010 A 
ATOM     34  C   UNL A   1      40.426  27.915  29.691  1.00  0.00    -0.014 A 
BRANCH  34  35
ATOM     35  C   UNL A   1      40.274  28.818  30.862  1.00  0.00     0.031 A 
ATOM     36  C   UNL A   1      41.146  28.662  32.078  1.00  0.00     0.074 A 
ATOM     37  C   UNL A   1      39.327  29.778  30.827  1.00  0.00     0.049 A 
ATOM     38  N   UNL A   1      41.192  29.401  33.157  1.00  0.00    -0.248 NA
ATOM     39  C   UNL A   1      42.070  27.518  32.099  1.00  0.00     0.031 C 
ATOM     40  C   UNL A   1      38.371  29.981  29.736  1.00  0.00     0.029 A 
ATOM     41  N   UNL A   1      39.019  30.768  31.725  1.00  0.00    -0.354 N 
ATOM     42  C   UNL A   1      42.146  28.815  33.981  1.00  0.00     0.074 A 
ATOM     43  C   UNL A   1      42.607  27.621  33.305  1.00  0.00     0.031 C 
ATOM     44  C   UNL A   1      37.619  31.058  30.004  1.00  0.00     0.029 A 
ATOM     45  C   UNL A   1      38.011  31.603  31.299  1.00  0.00     0.049 A 
ATOM     46  H   UNL A   1      39.475  30.872  32.591  1.00  0.00     0.167 HD
ATOM     47  C   UNL A   1      42.615  29.247  35.176  1.00  0.00     0.037 A 
ATOM     48  C   UNL A   1      37.471  32.690  31.881  1.00  0.00     0.037 A 
ATOM     49  C   UNL A   1      42.156  30.442  35.839  1.00  0.00     0.049 A 
ATOM     50  C   UNL A   1      38.019  33.157  33.202  1.00  0.00     0.074 A 
ATOM     51  C   UNL A   1      42.604  30.996  37.025  1.00  0.00     0.029 A 
ATOM     52  N   UNL A   1      41.136  31.263  35.378  1.00  0.00    -0.354 N 
ATOM     53  N   UNL A   1      38.980  32.637  33.927  1.00  0.00    -0.248 NA
ATOM     54  C   UNL A   1      37.417  34.367  33.776  1.00  0.00     0.031 C 
ATOM     55  C   UNL A   1      41.819  32.120  37.310  1.00  0.00     0.029 A 
ATOM     56  C   UNL A   1      40.922  32.304  36.269  1.00  0.00     0.049 A 
ATOM     57  H   UNL A   1      40.636  31.126  34.540  1.00  0.00     0.167 HD
ATOM     58  C   UNL A   1      39.114  33.468  35.034  1.00  0.00     0.074 A 
ATOM     59  C   UNL A   1      38.153  34.541  34.864  1.00  0.00     0.031 C 
ATOM     60  C   UNL A   1      39.951  33.356  36.096  1.00  0.00     0.037 A 
BRANCH  47  61
ATOM     61  C   UNL A   1      43.686  28.422  35.847  1.00  0.00     0.058 A 
ATOM     62  C   UNL A   1      43.368  27.379  36.733  1.00  0.00     0.135 A 
ATOM     63  C   UNL A   1      45.043  28.652  35.571  1.00  0.00     0.135 A 
ATOM     64  F   UNL A   1      42.088  27.123  37.046  1.00  0.00    -0.206 F 
ATOM     65  C   UNL A   1      44.357  26.616  37.346  1.00  0.00     0.059 A 
ATOM     66  C   UNL A   1      46.048  27.880  36.148  1.00  0.00     0.059 A 
ATOM     67  F   UNL A   1      45.406  29.635  34.732  1.00  0.00    -0.206 F 
ATOM     68  C   UNL A   1      45.696  26.874  37.046  1.00  0.00     0.060 A 
BRANCH  68  69
ATOM     69  S   UNL A   1      46.965  25.869  37.845  1.00  0.00     0.124 S 
ATOM     70  O   UNL A   1      46.173  25.108  38.806  1.00  0.00    -0.237 OA
ATOM     71  O   UNL A   1      47.509  25.107  36.726  1.00  0.00    -0.237 OA
ATOM     72  O   UNL A   1      47.870  26.859  38.424  1.00  0.00    -0.744 OA
ENDBRANCH  68  69
ENDBRANCH  47  61
BRANCH  48  73
ATOM     73  C   UNL A   1      36.374  33.430  31.201  1.00  0.00     0.058 A 
ATOM     74  C   UNL A   1      36.606  34.143  30.015  1.00  0.00     0.135 A 
ATOM     75  C   UNL A   1      35.069  33.427  31.714  1.00  0.00     0.135 A 
ATOM     76  F   UNL A   1      37.838  34.182  29.485  1.00  0.00    -0.206 F 
ATOM     77  C   UNL A   1      35.589  34.843  29.373  1.00  0.00     0.059 A 
ATOM     78  C   UNL A   1      34.028  34.093  31.075  1.00  0.00     0.059 A 
ATOM     79  F   UNL A   1      34.788  32.744  32.836  1.00  0.00    -0.206 F 
ATOM     80  C   UNL A   1      34.301  34.809  29.910  1.00  0.00     0.060 A 
BRANCH  80  81
ATOM     81  S   UNL A   1      32.977  35.679  29.044  1.00  0.00     0.124 S 
ATOM     82  O   UNL A   1      32.446  34.627  28.185  1.00  0.00    -0.237 OA
ATOM     83  O   UNL A   1      32.117  36.101  30.145  1.00  0.00    -0.237 OA
ATOM     84  O   UNL A   1      33.679  36.761  28.357  1.00  0.00    -0.744 OA
ENDBRANCH  80  81
ENDBRANCH  48  73
BRANCH  60  85
ATOM     85  C   UNL A   1      39.873  34.436  37.144  1.00  0.00     0.058 A 
ATOM     86  C   UNL A   1      40.617  35.623  37.041  1.00  0.00     0.135 A 
ATOM     87  C   UNL A   1      39.049  34.278  38.271  1.00  0.00     0.135 A 
ATOM     88  F   UNL A   1      41.422  35.826  35.985  1.00  0.00    -0.206 F 
ATOM     89  C   UNL A   1      40.594  36.585  38.044  1.00  0.00     0.059 A 
ATOM     90  C   UNL A   1      38.982  35.245  39.269  1.00  0.00     0.059 A 
ATOM     91  F   UNL A   1      38.301  33.172  38.413  1.00  0.00    -0.206 F 
ATOM     92  C   UNL A   1      39.779  36.384  39.158  1.00  0.00     0.060 A 
BRANCH  92  93
ATOM     93  S   UNL A   1      39.777  37.627  40.467  1.00  0.00     0.124 S 
ATOM     94  O   UNL A   1      39.873  36.795  41.662  1.00  0.00    -0.237 OA
ATOM     95  O   UNL A   1      40.962  38.419  40.148  1.00  0.00    -0.237 OA
ATOM     96  O   UNL A   1      38.503  38.315  40.281  1.00  0.00    -0.744 OA
ENDBRANCH  92  93
ENDBRANCH  60  85
ENDBRANCH  34  35
ENDBRANCH  26  29
ENDBRANCH  24  25
ENDBRANCH   1  24
TORSDOF 16
ENDMDL
MODEL 3
REMARK VINA RESULT:     -12.2      3.325      9.585
REMARK SMILES COc1ccc(-c2cc(C(=O)NCCCCNC(=O)c3ccc(-c4c5nc(c(-c6c(F)cc(S(=O)(=O)[O-])cc6F)c6ccc([nH]6)c(-c6c(F)cc(S(=O)(=O)[O-])cc6F)c6nc(c(-c7c(F)cc(S(=O)(=O)[O-])cc7F)c7ccc4[nH]7)C=C6)C=C5)cc3)nc(=O)n2C)cc1
REMARK SMILES IDX 15 1 14 2 13 3 12 4 10 5 11 6 9 8 7 9 8 10 89 11 87 12 90 13
REMARK SMILES IDX 86 14 88 15 6 16 3 17 4 18 92 19 5 20 91 21 2 22 1 23 16 24
REMARK SMILES IDX 17 25 18 26 19 28 20 29 21 30 85 31 22 32 84 33 23 34 24 35
REMARK SMILES IDX 25 36 78 37 26 38 83 39 77 40 79 41 27 42 82 43 76 44 75 45
REMARK SMILES IDX 28 47 62 48 41 49 61 50 42 51 45 52 60 53 80 54 43 55 44 56
REMARK SMILES IDX 59 58 81 59 46 60 29 61 30 62 39 63 31 64 32 65 38 66 40 67
REMARK SMILES IDX 33 68 34 69 35 70 36 71 37 72 63 73 64 74 73 75 65 76 66 77
REMARK SMILES IDX 72 78 74 79 67 80 68 81 69 82 70 83 71 84 47 85 48 86 57 87
REMARK SMILES IDX 49 88 50 89 56 90 58 91 51 92 52 93 53 94 54 95 55 96
REMARK H PARENT 12 7 17 27 79 46 45 57
REMARK Flexibility Score: inf
ROOT
ATOM      1  C   UNL A   1      34.015  28.240  24.542  1.00  0.00     0.023 C 
ENDROOT
BRANCH   1   2
ATOM      2  C   UNL A   1      32.886  28.924  23.762  1.00  0.00     0.023 C 
BRANCH   2   3
ATOM      3  C   UNL A   1      31.844  27.955  23.205  1.00  0.00     0.116 C 
BRANCH   3   4
ATOM      4  N   UNL A   1      32.326  27.307  21.999  1.00  0.00    -0.351 N 
ATOM      5  C   UNL A   1      32.831  26.046  21.798  1.00  0.00     0.270 C 
ATOM      6  O   UNL A   1      33.243  25.733  20.684  1.00  0.00    -0.268 OA
ATOM      7  H   UNL A   1      32.282  27.865  21.188  1.00  0.00     0.163 HD
BRANCH   5   8
ATOM      8  C   UNL A   1      32.873  24.997  22.916  1.00  0.00     0.136 A 
ATOM      9  C   UNL A   1      34.269  23.706  24.347  1.00  0.00     0.055 A 
ATOM     10  C   UNL A   1      34.222  24.618  23.371  1.00  0.00     0.061 A 
ATOM     11  N   UNL A   1      33.103  23.159  24.855  1.00  0.00    -0.295 N 
ATOM     12  C   UNL A   1      31.848  23.530  24.355  1.00  0.00     0.348 A 
ATOM     13  C   UNL A   1      33.093  22.150  25.902  1.00  0.00     0.155 C 
ATOM     14  N   UNL A   1      31.784  24.502  23.397  1.00  0.00    -0.188 NA
ATOM     15  O   UNL A   1      30.817  22.991  24.757  1.00  0.00    -0.246 OA
BRANCH   9  16
ATOM     16  C   UNL A   1      35.602  23.317  24.840  1.00  0.00    -0.001 A 
ATOM     17  C   UNL A   1      38.164  22.612  25.746  1.00  0.00     0.118 A 
ATOM     18  C   UNL A   1      37.540  23.762  26.229  1.00  0.00     0.047 A 
ATOM     19  C   UNL A   1      37.501  21.802  24.823  1.00  0.00     0.047 A 
ATOM     20  C   UNL A   1      36.269  24.119  25.775  1.00  0.00     0.014 A 
ATOM     21  C   UNL A   1      36.230  22.160  24.364  1.00  0.00     0.014 A 
BRANCH  17  22
ATOM     22  O   UNL A   1      39.399  22.349  26.273  1.00  0.00    -0.497 OA
ATOM     23  C   UNL A   1      39.844  21.006  26.123  1.00  0.00     0.278 C 
ENDBRANCH  17  22
ENDBRANCH   9  16
ENDBRANCH   5   8
ENDBRANCH   3   4
ENDBRANCH   2   3
ENDBRANCH   1   2
BRANCH   1  24
ATOM     24  C   UNL A   1      33.981  28.453  26.053  1.00  0.00     0.116 C 
BRANCH  24  25
ATOM     25  N   UNL A   1      33.707  29.830  26.428  1.00  0.00    -0.352 N 
ATOM     26  C   UNL A   1      34.370  30.636  27.320  1.00  0.00     0.251 C 
ATOM     27  H   UNL A   1      32.935  30.244  25.979  1.00  0.00     0.163 HD
ATOM     28  O   UNL A   1      33.906  31.734  27.610  1.00  0.00    -0.269 OA
BRANCH  26  29
ATOM     29  C   UNL A   1      35.620  30.167  27.954  1.00  0.00     0.039 A 
ATOM     30  C   UNL A   1      36.822  30.347  27.268  1.00  0.00     0.014 A 
ATOM     31  C   UNL A   1      35.616  29.559  29.213  1.00  0.00     0.014 A 
ATOM     32  C   UNL A   1      38.023  29.970  27.870  1.00  0.00     0.010 A 
ATOM     33  C   UNL A   1      36.821  29.261  29.846  1.00  0.00     0.010 A 
ATOM     34  C   UNL A   1      38.038  29.460  29.181  1.00  0.00    -0.014 A 
BRANCH  34  35
ATOM     35  C   UNL A   1      39.330  29.165  29.853  1.00  0.00     0.031 A 
ATOM     36  C   UNL A   1      39.749  29.916  31.087  1.00  0.00     0.074 A 
ATOM     37  C   UNL A   1      40.136  28.218  29.332  1.00  0.00     0.049 A 
ATOM     38  N   UNL A   1      40.809  29.743  31.836  1.00  0.00    -0.248 NA
ATOM     39  C   UNL A   1      38.882  31.020  31.528  1.00  0.00     0.031 C 
ATOM     40  C   UNL A   1      39.873  27.473  28.098  1.00  0.00     0.029 A 
ATOM     41  N   UNL A   1      41.330  27.710  29.777  1.00  0.00    -0.354 N 
ATOM     42  C   UNL A   1      40.736  30.709  32.832  1.00  0.00     0.074 A 
ATOM     43  C   UNL A   1      39.562  31.509  32.555  1.00  0.00     0.031 C 
ATOM     44  C   UNL A   1      40.849  26.572  27.911  1.00  0.00     0.029 A 
ATOM     45  C   UNL A   1      41.824  26.695  28.989  1.00  0.00     0.049 A 
ATOM     46  H   UNL A   1      41.790  28.040  30.582  1.00  0.00     0.167 HD
ATOM     47  C   UNL A   1      41.554  30.895  33.896  1.00  0.00     0.037 A 
ATOM     48  C   UNL A   1      42.932  25.943  29.126  1.00  0.00     0.037 A 
ATOM     49  C   UNL A   1      42.717  30.088  34.169  1.00  0.00     0.049 A 
ATOM     50  C   UNL A   1      43.817  26.159  30.323  1.00  0.00     0.074 A 
ATOM     51  C   UNL A   1      43.581  30.159  35.248  1.00  0.00     0.029 A 
ATOM     52  N   UNL A   1      43.186  29.068  33.352  1.00  0.00    -0.354 N 
ATOM     53  N   UNL A   1      43.686  27.023  31.301  1.00  0.00    -0.248 NA
ATOM     54  C   UNL A   1      44.993  25.288  30.441  1.00  0.00     0.031 C 
ATOM     55  C   UNL A   1      44.602  29.221  35.056  1.00  0.00     0.029 A 
ATOM     56  C   UNL A   1      44.341  28.521  33.888  1.00  0.00     0.049 A 
ATOM     57  H   UNL A   1      42.760  28.776  32.513  1.00  0.00     0.167 HD
ATOM     58  C   UNL A   1      44.751  26.786  32.163  1.00  0.00     0.074 A 
ATOM     59  C   UNL A   1      45.497  25.677  31.602  1.00  0.00     0.031 C 
ATOM     60  C   UNL A   1      45.085  27.427  33.311  1.00  0.00     0.037 A 
BRANCH  47  61
ATOM     61  C   UNL A   1      41.219  32.014  34.849  1.00  0.00     0.058 A 
ATOM     62  C   UNL A   1      40.347  31.825  35.935  1.00  0.00     0.135 A 
ATOM     63  C   UNL A   1      41.805  33.282  34.698  1.00  0.00     0.135 A 
ATOM     64  F   UNL A   1      39.746  30.639  36.121  1.00  0.00    -0.206 F 
ATOM     65  C   UNL A   1      40.044  32.858  36.816  1.00  0.00     0.059 A 
ATOM     66  C   UNL A   1      41.540  34.321  35.587  1.00  0.00     0.059 A 
ATOM     67  F   UNL A   1      42.645  33.522  33.679  1.00  0.00    -0.206 F 
ATOM     68  C   UNL A   1      40.646  34.104  36.633  1.00  0.00     0.060 A 
BRANCH  68  69
ATOM     69  S   UNL A   1      40.247  35.430  37.791  1.00  0.00     0.124 S 
ATOM     70  O   UNL A   1      41.473  35.510  38.579  1.00  0.00    -0.237 OA
ATOM     71  O   UNL A   1      39.992  36.556  36.898  1.00  0.00    -0.237 OA
ATOM     72  O   UNL A   1      39.077  34.921  38.502  1.00  0.00    -0.744 OA
ENDBRANCH  68  69
ENDBRANCH  47  61
BRANCH  48  73
ATOM     73  C   UNL A   1      43.244  24.891  28.120  1.00  0.00     0.058 A 
ATOM     74  C   UNL A   1      44.015  25.180  26.984  1.00  0.00     0.135 A 
ATOM     75  C   UNL A   1      42.792  23.573  28.283  1.00  0.00     0.135 A 
ATOM     76  F   UNL A   1      44.468  26.426  26.779  1.00  0.00    -0.206 F 
ATOM     77  C   UNL A   1      44.308  24.205  26.034  1.00  0.00     0.059 A 
ATOM     78  C   UNL A   1      43.097  22.574  27.364  1.00  0.00     0.059 A 
ATOM     79  F   UNL A   1      42.067  23.239  29.363  1.00  0.00    -0.206 F 
ATOM     80  C   UNL A   1      43.848  22.904  26.236  1.00  0.00     0.060 A 
BRANCH  80  81
ATOM     81  S   UNL A   1      44.276  21.635  25.024  1.00  0.00     0.124 S 
ATOM     82  O   UNL A   1      45.670  21.371  25.355  1.00  0.00    -0.237 OA
ATOM     83  O   UNL A   1      43.329  20.572  25.347  1.00  0.00    -0.237 OA
ATOM     84  O   UNL A   1      44.045  22.301  23.745  1.00  0.00    -0.744 OA
ENDBRANCH  80  81
ENDBRANCH  48  73
BRANCH  60  85
ATOM     85  C   UNL A   1      46.302  26.925  34.044  1.00  0.00     0.058 A 
ATOM     86  C   UNL A   1      46.217  25.914  35.015  1.00  0.00     0.135 A 
ATOM     87  C   UNL A   1      47.569  27.470  33.778  1.00  0.00     0.135 A 
ATOM     88  F   UNL A   1      45.030  25.359  35.310  1.00  0.00    -0.206 F 
ATOM     89  C   UNL A   1      47.332  25.503  35.737  1.00  0.00     0.059 A 
ATOM     90  C   UNL A   1      48.705  27.047  34.461  1.00  0.00     0.059 A 
ATOM     91  F   UNL A   1      47.714  28.426  32.847  1.00  0.00    -0.206 F 
ATOM     92  C   UNL A   1      48.571  26.081  35.458  1.00  0.00     0.060 A 
BRANCH  92  93
ATOM     93  S   UNL A   1      50.007  25.559  36.419  1.00  0.00     0.124 S 
ATOM     94  O   UNL A   1      51.049  25.532  35.397  1.00  0.00    -0.237 OA
ATOM     95  O   UNL A   1      50.121  26.622  37.413  1.00  0.00    -0.237 OA
ATOM     96  O   UNL A   1      49.609  24.258  36.944  1.00  0.00    -0.744 OA
ENDBRANCH  92  93
ENDBRANCH  60  85
ENDBRANCH  34  35
ENDBRANCH  26  29
ENDBRANCH  24  25
ENDBRANCH   1  24
TORSDOF 16
ENDMDL
