MODEL 1
REMARK VINA RESULT:     -11.7      0.000      0.000
REMARK SMILES Cc1cc2c(c(C)c1Cl)C=C(C(=O)NCCCCNC(=O)c1ccc(-c3c4nc(c(-c5c(F)cc(S(=O)(=O)[O-])cc5F)c5ccc([nH]5)c(-c5c(F)cc(S(=O)(=O)[O-])cc5F)c5nc(c(-c6c(F)cc(S(=O)(=O)[O-])cc6F)c6ccc3[nH]6)C=C5)C=C4)cc1)[C@@H](C(F)(F)F)O2
REMARK SMILES IDX 17 1 16 2 15 3 14 4 12 5 13 6 11 8 1 9 2 10 3 11 8 12 4 13
REMARK SMILES IDX 6 14 9 15 5 16 93 17 7 18 10 19 88 20 89 21 90 22 91 23
REMARK SMILES IDX 92 24 18 25 19 26 20 27 21 29 22 30 23 31 87 32 24 33 86 34
REMARK SMILES IDX 25 35 26 36 27 37 80 38 28 39 85 40 79 41 81 42 29 43 84 44
REMARK SMILES IDX 78 45 77 46 30 48 64 49 43 50 63 51 44 52 47 53 62 54 82 55
REMARK SMILES IDX 45 56 46 57 61 59 83 60 48 61 31 62 32 63 41 64 33 65 34 66
REMARK SMILES IDX 40 67 42 68 35 69 36 70 37 71 38 72 39 73 65 74 66 75 75 76
REMARK SMILES IDX 67 77 68 78 74 79 76 80 69 81 70 82 71 83 72 84 73 85 49 86
REMARK SMILES IDX 50 87 59 88 51 89 52 90 58 91 60 92 53 93 54 94 55 95 56 96
REMARK SMILES IDX 57 97
REMARK H PARENT 14 7 19 28 81 47 47 58
REMARK Flexibility Score: inf
ROOT
ATOM      1  C   UNL A   1      32.661  27.848  26.304  1.00  0.00     0.023 C 
ENDROOT
BRANCH   1   2
ATOM      2  C   UNL A   1      32.856  27.319  24.881  1.00  0.00     0.023 C 
BRANCH   2   3
ATOM      3  C   UNL A   1      31.766  26.358  24.419  1.00  0.00     0.116 C 
BRANCH   3   4
ATOM      4  N   UNL A   1      31.159  25.651  25.532  1.00  0.00    -0.352 N 
ATOM      5  C   UNL A   1      31.299  24.447  26.132  1.00  0.00     0.251 C 
ATOM      6  O   UNL A   1      30.539  24.242  27.084  1.00  0.00    -0.270 OA
ATOM      7  H   UNL A   1      30.459  26.192  25.965  1.00  0.00     0.163 HD
BRANCH   5   8
ATOM      8  C   UNL A   1      32.276  23.389  25.733  1.00  0.00     0.067 C 
ATOM      9  C   UNL A   1      37.421  19.532  24.699  1.00  0.00     0.046 C 
ATOM     10  C   UNL A   1      36.468  20.629  25.088  1.00  0.00    -0.028 A 
ATOM     11  C   UNL A   1      35.099  20.415  24.905  1.00  0.00     0.052 A 
ATOM     12  C   UNL A   1      36.902  21.873  25.591  1.00  0.00     0.047 A 
ATOM     13  C   UNL A   1      34.179  21.408  25.226  1.00  0.00     0.128 A 
ATOM     14  C   UNL A   1      35.975  22.887  25.939  1.00  0.00    -0.021 A 
ATOM     15  Cl  UNL A   1      38.611  22.137  25.776  1.00  0.00    -0.084 Cl
ATOM     16  C   UNL A   1      34.593  22.634  25.757  1.00  0.00     0.022 A 
ATOM     17  O   UNL A   1      32.868  21.081  25.030  1.00  0.00    -0.475 OA
ATOM     18  C   UNL A   1      36.418  24.217  26.501  1.00  0.00     0.047 C 
ATOM     19  C   UNL A   1      33.545  23.590  26.133  1.00  0.00     0.026 C 
ATOM     20  C   UNL A   1      31.937  22.187  24.903  1.00  0.00     0.314 C 
BRANCH  20  21
ATOM     21  C   UNL A   1      31.744  22.528  23.414  1.00  0.00     0.429 C 
ATOM     22  F   UNL A   1      31.738  21.394  22.667  1.00  0.00    -0.167 F 
ATOM     23  F   UNL A   1      30.570  23.153  23.170  1.00  0.00    -0.167 F 
ATOM     24  F   UNL A   1      32.724  23.325  22.931  1.00  0.00    -0.167 F 
ENDBRANCH  20  21
ENDBRANCH   5   8
ENDBRANCH   3   4
ENDBRANCH   2   3
ENDBRANCH   1   2
BRANCH   1  25
ATOM     25  C   UNL A   1      33.916  28.407  26.973  1.00  0.00     0.116 C 
BRANCH  25  26
ATOM     26  N   UNL A   1      33.739  29.741  27.528  1.00  0.00    -0.352 N 
ATOM     27  C   UNL A   1      34.659  30.507  28.202  1.00  0.00     0.251 C 
ATOM     28  H   UNL A   1      32.848  30.144  27.406  1.00  0.00     0.163 HD
ATOM     29  O   UNL A   1      34.338  31.588  28.684  1.00  0.00    -0.269 OA
BRANCH  27  30
ATOM     30  C   UNL A   1      36.026  29.982  28.370  1.00  0.00     0.039 A 
ATOM     31  C   UNL A   1      36.927  30.098  27.311  1.00  0.00     0.014 A 
ATOM     32  C   UNL A   1      36.427  29.448  29.598  1.00  0.00     0.014 A 
ATOM     33  C   UNL A   1      38.259  29.738  27.506  1.00  0.00     0.010 A 
ATOM     34  C   UNL A   1      37.767  29.148  29.809  1.00  0.00     0.010 A 
ATOM     35  C   UNL A   1      38.695  29.291  28.765  1.00  0.00    -0.014 A 
BRANCH  35  36
ATOM     36  C   UNL A   1      40.117  28.952  29.000  1.00  0.00     0.031 A 
ATOM     37  C   UNL A   1      41.032  29.966  29.622  1.00  0.00     0.074 A 
ATOM     38  C   UNL A   1      40.589  27.750  28.617  1.00  0.00     0.049 A 
ATOM     39  N   UNL A   1      42.309  29.875  29.882  1.00  0.00    -0.248 NA
ATOM     40  C   UNL A   1      40.436  31.265  29.977  1.00  0.00     0.031 C 
ATOM     41  C   UNL A   1      39.803  26.701  27.963  1.00  0.00     0.029 A 
ATOM     42  N   UNL A   1      41.843  27.206  28.724  1.00  0.00    -0.354 N 
ATOM     43  C   UNL A   1      42.671  31.100  30.425  1.00  0.00     0.074 A 
ATOM     44  C   UNL A   1      41.493  31.940  30.402  1.00  0.00     0.031 C 
ATOM     45  C   UNL A   1      40.585  25.627  27.760  1.00  0.00     0.029 A 
ATOM     46  C   UNL A   1      41.931  25.920  28.246  1.00  0.00     0.049 A 
ATOM     47  H   UNL A   1      42.609  27.690  29.108  1.00  0.00     0.167 HD
ATOM     48  C   UNL A   1      43.867  31.482  30.929  1.00  0.00     0.037 A 
ATOM     49  C   UNL A   1      42.977  25.072  28.212  1.00  0.00     0.037 A 
ATOM     50  C   UNL A   1      45.026  30.632  30.977  1.00  0.00     0.049 A 
ATOM     51  C   UNL A   1      44.300  25.520  28.769  1.00  0.00     0.074 A 
ATOM     52  C   UNL A   1      46.271  30.904  31.515  1.00  0.00     0.029 A 
ATOM     53  N   UNL A   1      45.079  29.342  30.472  1.00  0.00    -0.354 N 
ATOM     54  N   UNL A   1      44.613  26.667  29.323  1.00  0.00    -0.248 NA
ATOM     55  C   UNL A   1      45.412  24.562  28.693  1.00  0.00     0.031 C 
ATOM     56  C   UNL A   1      47.086  29.785  31.310  1.00  0.00     0.029 A 
ATOM     57  C   UNL A   1      46.340  28.807  30.671  1.00  0.00     0.049 A 
ATOM     58  H   UNL A   1      44.329  28.875  30.037  1.00  0.00     0.167 HD
ATOM     59  C   UNL A   1      45.954  26.566  29.673  1.00  0.00     0.074 A 
ATOM     60  C   UNL A   1      46.390  25.240  29.280  1.00  0.00     0.031 C 
ATOM     61  C   UNL A   1      46.753  27.488  30.265  1.00  0.00     0.037 A 
BRANCH  48  62
ATOM     62  C   UNL A   1      43.964  32.873  31.483  1.00  0.00     0.058 A 
ATOM     63  C   UNL A   1      44.404  33.945  30.689  1.00  0.00     0.135 A 
ATOM     64  C   UNL A   1      43.619  33.142  32.817  1.00  0.00     0.135 A 
ATOM     65  F   UNL A   1      44.765  33.735  29.412  1.00  0.00    -0.206 F 
ATOM     66  C   UNL A   1      44.534  35.228  31.206  1.00  0.00     0.059 A 
ATOM     67  C   UNL A   1      43.719  34.424  33.349  1.00  0.00     0.059 A 
ATOM     68  F   UNL A   1      43.198  32.153  33.619  1.00  0.00    -0.206 F 
ATOM     69  C   UNL A   1      44.195  35.457  32.541  1.00  0.00     0.060 A 
BRANCH  69  70
ATOM     70  S   UNL A   1      44.389  37.124  33.204  1.00  0.00     0.124 S 
ATOM     71  O   UNL A   1      43.885  37.936  32.101  1.00  0.00    -0.237 OA
ATOM     72  O   UNL A   1      43.548  37.086  34.397  1.00  0.00    -0.237 OA
ATOM     73  O   UNL A   1      45.823  37.225  33.456  1.00  0.00    -0.744 OA
ENDBRANCH  69  70
ENDBRANCH  48  62
BRANCH  49  74
ATOM     74  C   UNL A   1      42.797  23.701  27.671  1.00  0.00     0.058 A 
ATOM     75  C   UNL A   1      42.629  22.610  28.536  1.00  0.00     0.135 A 
ATOM     76  C   UNL A   1      42.750  23.457  26.291  1.00  0.00     0.135 A 
ATOM     77  F   UNL A   1      42.673  22.796  29.865  1.00  0.00    -0.206 F 
ATOM     78  C   UNL A   1      42.418  21.324  28.053  1.00  0.00     0.059 A 
ATOM     79  C   UNL A   1      42.525  22.181  25.783  1.00  0.00     0.059 A 
ATOM     80  F   UNL A   1      42.892  24.471  25.423  1.00  0.00    -0.206 F 
ATOM     81  C   UNL A   1      42.362  21.120  26.673  1.00  0.00     0.060 A 
BRANCH  81  82
ATOM     82  S   UNL A   1      42.016  19.456  26.059  1.00  0.00     0.124 S 
ATOM     83  O   UNL A   1      42.464  18.631  27.174  1.00  0.00    -0.237 OA
ATOM     84  O   UNL A   1      40.574  19.505  25.840  1.00  0.00    -0.237 OA
ATOM     85  O   UNL A   1      42.823  19.373  24.845  1.00  0.00    -0.744 OA
ENDBRANCH  81  82
ENDBRANCH  49  74
BRANCH  61  86
ATOM     86  C   UNL A   1      48.180  27.104  30.521  1.00  0.00     0.058 A 
ATOM     87  C   UNL A   1      49.173  27.313  29.553  1.00  0.00     0.135 A 
ATOM     88  C   UNL A   1      48.573  26.604  31.773  1.00  0.00     0.135 A 
ATOM     89  F   UNL A   1      48.843  27.781  28.338  1.00  0.00    -0.206 F 
ATOM     90  C   UNL A   1      50.510  27.041  29.816  1.00  0.00     0.059 A 
ATOM     91  C   UNL A   1      49.907  26.342  32.064  1.00  0.00     0.059 A 
ATOM     92  F   UNL A   1      47.659  26.393  32.734  1.00  0.00    -0.206 F 
ATOM     93  C   UNL A   1      50.869  26.561  31.078  1.00  0.00     0.060 A 
BRANCH  93  94
ATOM     94  S   UNL A   1      52.616  26.273  31.427  1.00  0.00     0.124 S 
ATOM     95  O   UNL A   1      53.201  26.357  30.093  1.00  0.00    -0.237 OA
ATOM     96  O   UNL A   1      52.939  27.372  32.332  1.00  0.00    -0.237 OA
ATOM     97  O   UNL A   1      52.626  24.947  32.036  1.00  0.00    -0.744 OA
ENDBRANCH  93  94
ENDBRANCH  61  86
ENDBRANCH  35  36
ENDBRANCH  27  30
ENDBRANCH  25  26
ENDBRANCH   1  25
TORSDOF 15
ENDMDL
MODEL 2
REMARK VINA RESULT:     -11.3      3.454      9.141
REMARK SMILES Cc1cc2c(c(C)c1Cl)C=C(C(=O)NCCCCNC(=O)c1ccc(-c3c4nc(c(-c5c(F)cc(S(=O)(=O)[O-])cc5F)c5ccc([nH]5)c(-c5c(F)cc(S(=O)(=O)[O-])cc5F)c5nc(c(-c6c(F)cc(S(=O)(=O)[O-])cc6F)c6ccc3[nH]6)C=C5)C=C4)cc1)[C@@H](C(F)(F)F)O2
REMARK SMILES IDX 17 1 16 2 15 3 14 4 12 5 13 6 11 8 1 9 2 10 3 11 8 12 4 13
REMARK SMILES IDX 6 14 9 15 5 16 93 17 7 18 10 19 88 20 89 21 90 22 91 23
REMARK SMILES IDX 92 24 18 25 19 26 20 27 21 29 22 30 23 31 87 32 24 33 86 34
REMARK SMILES IDX 25 35 26 36 27 37 80 38 28 39 85 40 79 41 81 42 29 43 84 44
REMARK SMILES IDX 78 45 77 46 30 48 64 49 43 50 63 51 44 52 47 53 62 54 82 55
REMARK SMILES IDX 45 56 46 57 61 59 83 60 48 61 31 62 32 63 41 64 33 65 34 66
REMARK SMILES IDX 40 67 42 68 35 69 36 70 37 71 38 72 39 73 65 74 66 75 75 76
REMARK SMILES IDX 67 77 68 78 74 79 76 80 69 81 70 82 71 83 72 84 73 85 49 86
REMARK SMILES IDX 50 87 59 88 51 89 52 90 58 91 60 92 53 93 54 94 55 95 56 96
REMARK SMILES IDX 57 97
REMARK H PARENT 14 7 19 28 81 47 47 58
REMARK Flexibility Score: inf
ROOT
ATOM      1  C   UNL A   1      34.027  28.923  27.034  1.00  0.00     0.023 C 
ENDROOT
BRANCH   1   2
ATOM      2  C   UNL A   1      33.248  29.960  26.221  1.00  0.00     0.023 C 
BRANCH   2   3
ATOM      3  C   UNL A   1      31.738  29.908  26.430  1.00  0.00     0.116 C 
BRANCH   3   4
ATOM      4  N   UNL A   1      31.010  30.230  25.216  1.00  0.00    -0.352 N 
ATOM      5  C   UNL A   1      30.719  29.617  24.047  1.00  0.00     0.251 C 
ATOM      6  O   UNL A   1      30.051  30.287  23.253  1.00  0.00    -0.270 OA
ATOM      7  H   UNL A   1      30.628  31.137  25.255  1.00  0.00     0.163 HD
BRANCH   5   8
ATOM      8  C   UNL A   1      31.136  28.233  23.668  1.00  0.00     0.067 C 
ATOM      9  C   UNL A   1      32.153  21.830  23.051  1.00  0.00     0.046 C 
ATOM     10  C   UNL A   1      31.742  23.213  23.478  1.00  0.00    -0.028 A 
ATOM     11  C   UNL A   1      32.010  24.280  22.616  1.00  0.00     0.052 A 
ATOM     12  C   UNL A   1      31.136  23.479  24.722  1.00  0.00     0.047 A 
ATOM     13  C   UNL A   1      31.672  25.580  22.975  1.00  0.00     0.128 A 
ATOM     14  C   UNL A   1      30.771  24.797  25.094  1.00  0.00    -0.021 A 
ATOM     15  Cl  UNL A   1      30.845  22.144  25.800  1.00  0.00    -0.084 Cl
ATOM     16  C   UNL A   1      31.041  25.855  24.192  1.00  0.00     0.022 A 
ATOM     17  O   UNL A   1      31.958  26.540  22.046  1.00  0.00    -0.475 OA
ATOM     18  C   UNL A   1      30.100  25.099  26.413  1.00  0.00     0.047 C 
ATOM     19  C   UNL A   1      30.658  27.247  24.450  1.00  0.00     0.026 C 
ATOM     20  C   UNL A   1      32.060  27.904  22.534  1.00  0.00     0.314 C 
BRANCH  20  21
ATOM     21  C   UNL A   1      33.532  28.226  22.853  1.00  0.00     0.429 C 
ATOM     22  F   UNL A   1      34.326  27.898  21.802  1.00  0.00    -0.167 F 
ATOM     23  F   UNL A   1      33.737  29.541  23.091  1.00  0.00    -0.167 F 
ATOM     24  F   UNL A   1      33.990  27.552  23.932  1.00  0.00    -0.167 F 
ENDBRANCH  20  21
ENDBRANCH   5   8
ENDBRANCH   3   4
ENDBRANCH   2   3
ENDBRANCH   1   2
BRANCH   1  25
ATOM     25  C   UNL A   1      35.410  29.367  27.508  1.00  0.00     0.116 C 
BRANCH  25  26
ATOM     26  N   UNL A   1      35.388  30.103  28.764  1.00  0.00    -0.352 N 
ATOM     27  C   UNL A   1      36.428  30.322  29.635  1.00  0.00     0.251 C 
ATOM     28  H   UNL A   1      34.521  30.493  29.022  1.00  0.00     0.163 HD
ATOM     29  O   UNL A   1      36.239  30.897  30.701  1.00  0.00    -0.269 OA
BRANCH  27  30
ATOM     30  C   UNL A   1      37.765  29.811  29.280  1.00  0.00     0.039 A 
ATOM     31  C   UNL A   1      38.139  29.782  27.936  1.00  0.00     0.014 A 
ATOM     32  C   UNL A   1      38.663  29.436  30.284  1.00  0.00     0.014 A 
ATOM     33  C   UNL A   1      39.448  29.438  27.600  1.00  0.00     0.010 A 
ATOM     34  C   UNL A   1      39.982  29.155  29.951  1.00  0.00     0.010 A 
ATOM     35  C   UNL A   1      40.386  29.154  28.607  1.00  0.00    -0.014 A 
BRANCH  35  36
ATOM     36  C   UNL A   1      41.792  28.836  28.266  1.00  0.00     0.031 A 
ATOM     37  C   UNL A   1      42.170  27.428  27.907  1.00  0.00     0.074 A 
ATOM     38  C   UNL A   1      42.728  29.802  28.321  1.00  0.00     0.049 A 
ATOM     39  N   UNL A   1      43.345  26.941  27.609  1.00  0.00    -0.248 NA
ATOM     40  C   UNL A   1      41.087  26.431  27.907  1.00  0.00     0.031 C 
ATOM     41  C   UNL A   1      42.484  31.196  28.700  1.00  0.00     0.029 A 
ATOM     42  N   UNL A   1      44.072  29.761  28.055  1.00  0.00    -0.354 N 
ATOM     43  C   UNL A   1      43.146  25.585  27.390  1.00  0.00     0.074 A 
ATOM     44  C   UNL A   1      41.749  25.313  27.649  1.00  0.00     0.031 C 
ATOM     45  C   UNL A   1      43.635  31.884  28.607  1.00  0.00     0.029 A 
ATOM     46  C   UNL A   1      44.700  30.977  28.187  1.00  0.00     0.049 A 
ATOM     47  H   UNL A   1      44.545  28.938  27.793  1.00  0.00     0.167 HD
ATOM     48  C   UNL A   1      44.038  24.654  26.979  1.00  0.00     0.037 A 
ATOM     49  C   UNL A   1      45.986  31.321  27.983  1.00  0.00     0.037 A 
ATOM     50  C   UNL A   1      45.418  24.936  26.693  1.00  0.00     0.049 A 
ATOM     51  C   UNL A   1      46.962  30.270  27.535  1.00  0.00     0.074 A 
ATOM     52  C   UNL A   1      46.392  24.076  26.220  1.00  0.00     0.029 A 
ATOM     53  N   UNL A   1      46.019  26.177  26.851  1.00  0.00    -0.354 N 
ATOM     54  N   UNL A   1      46.747  29.000  27.286  1.00  0.00    -0.248 NA
ATOM     55  C   UNL A   1      48.356  30.695  27.342  1.00  0.00     0.031 C 
ATOM     56  C   UNL A   1      47.591  24.792  26.116  1.00  0.00     0.029 A 
ATOM     57  C   UNL A   1      47.354  26.104  26.498  1.00  0.00     0.049 A 
ATOM     58  H   UNL A   1      45.560  26.989  27.166  1.00  0.00     0.167 HD
ATOM     59  C   UNL A   1      47.973  28.475  26.897  1.00  0.00     0.074 A 
ATOM     60  C   UNL A   1      48.925  29.569  26.930  1.00  0.00     0.031 C 
ATOM     61  C   UNL A   1      48.284  27.204  26.546  1.00  0.00     0.037 A 
BRANCH  48  62
ATOM     62  C   UNL A   1      43.531  23.253  26.796  1.00  0.00     0.058 A 
ATOM     63  C   UNL A   1      43.325  22.405  27.896  1.00  0.00     0.135 A 
ATOM     64  C   UNL A   1      43.250  22.751  25.517  1.00  0.00     0.135 A 
ATOM     65  F   UNL A   1      43.598  22.832  29.140  1.00  0.00    -0.206 F 
ATOM     66  C   UNL A   1      42.893  21.094  27.732  1.00  0.00     0.059 A 
ATOM     67  C   UNL A   1      42.794  21.448  25.331  1.00  0.00     0.059 A 
ATOM     68  F   UNL A   1      43.433  23.519  24.433  1.00  0.00    -0.206 F 
ATOM     69  C   UNL A   1      42.637  20.622  26.444  1.00  0.00     0.060 A 
BRANCH  69  70
ATOM     70  S   UNL A   1      42.097  18.911  26.245  1.00  0.00     0.124 S 
ATOM     71  O   UNL A   1      42.160  18.426  27.620  1.00  0.00    -0.237 OA
ATOM     72  O   UNL A   1      40.756  19.069  25.690  1.00  0.00    -0.237 OA
ATOM     73  O   UNL A   1      43.087  18.347  25.333  1.00  0.00    -0.744 OA
ENDBRANCH  69  70
ENDBRANCH  48  62
BRANCH  49  74
ATOM     74  C   UNL A   1      46.408  32.734  28.159  1.00  0.00     0.058 A 
ATOM     75  C   UNL A   1      46.271  33.655  27.110  1.00  0.00     0.135 A 
ATOM     76  C   UNL A   1      46.915  33.202  29.380  1.00  0.00     0.135 A 
ATOM     77  F   UNL A   1      45.794  33.250  25.922  1.00  0.00    -0.206 F 
ATOM     78  C   UNL A   1      46.620  34.992  27.264  1.00  0.00     0.059 A 
ATOM     79  C   UNL A   1      47.258  34.538  29.564  1.00  0.00     0.059 A 
ATOM     80  F   UNL A   1      47.052  32.362  30.418  1.00  0.00    -0.206 F 
ATOM     81  C   UNL A   1      47.108  35.426  28.498  1.00  0.00     0.060 A 
BRANCH  81  82
ATOM     82  S   UNL A   1      47.491  37.178  28.707  1.00  0.00     0.124 S 
ATOM     83  O   UNL A   1      48.927  37.200  28.451  1.00  0.00    -0.237 OA
ATOM     84  O   UNL A   1      46.651  37.799  27.687  1.00  0.00    -0.237 OA
ATOM     85  O   UNL A   1      47.089  37.447  30.085  1.00  0.00    -0.744 OA
ENDBRANCH  81  82
ENDBRANCH  49  74
BRANCH  61  86
ATOM     86  C   UNL A   1      49.709  26.918  26.173  1.00  0.00     0.058 A 
ATOM     87  C   UNL A   1      50.615  26.403  27.112  1.00  0.00     0.135 A 
ATOM     88  C   UNL A   1      50.148  27.076  24.849  1.00  0.00     0.135 A 
ATOM     89  F   UNL A   1      50.243  26.243  28.392  1.00  0.00    -0.206 F 
ATOM     90  C   UNL A   1      51.911  26.054  26.752  1.00  0.00     0.059 A 
ATOM     91  C   UNL A   1      51.434  26.716  24.462  1.00  0.00     0.059 A 
ATOM     92  F   UNL A   1      49.314  27.559  23.914  1.00  0.00    -0.206 F 
ATOM     93  C   UNL A   1      52.310  26.209  25.422  1.00  0.00     0.060 A 
BRANCH  93  94
ATOM     94  S   UNL A   1      53.975  25.691  24.954  1.00  0.00     0.124 S 
ATOM     95  O   UNL A   1      54.783  26.331  25.987  1.00  0.00    -0.237 OA
ATOM     96  O   UNL A   1      53.884  24.236  25.032  1.00  0.00    -0.237 OA
ATOM     97  O   UNL A   1      54.132  26.231  23.608  1.00  0.00    -0.744 OA
ENDBRANCH  93  94
ENDBRANCH  61  86
ENDBRANCH  35  36
ENDBRANCH  27  30
ENDBRANCH  25  26
ENDBRANCH   1  25
TORSDOF 15
ENDMDL
MODEL 3
REMARK VINA RESULT:     -11.3      4.576     10.680
REMARK SMILES Cc1cc2c(c(C)c1Cl)C=C(C(=O)NCCCCNC(=O)c1ccc(-c3c4nc(c(-c5c(F)cc(S(=O)(=O)[O-])cc5F)c5ccc([nH]5)c(-c5c(F)cc(S(=O)(=O)[O-])cc5F)c5nc(c(-c6c(F)cc(S(=O)(=O)[O-])cc6F)c6ccc3[nH]6)C=C5)C=C4)cc1)[C@@H](C(F)(F)F)O2
REMARK SMILES IDX 17 1 16 2 15 3 14 4 12 5 13 6 11 8 1 9 2 10 3 11 8 12 4 13
REMARK SMILES IDX 6 14 9 15 5 16 93 17 7 18 10 19 88 20 89 21 90 22 91 23
REMARK SMILES IDX 92 24 18 25 19 26 20 27 21 29 22 30 23 31 87 32 24 33 86 34
REMARK SMILES IDX 25 35 26 36 27 37 80 38 28 39 85 40 79 41 81 42 29 43 84 44
REMARK SMILES IDX 78 45 77 46 30 48 64 49 43 50 63 51 44 52 47 53 62 54 82 55
REMARK SMILES IDX 45 56 46 57 61 59 83 60 48 61 31 62 32 63 41 64 33 65 34 66
REMARK SMILES IDX 40 67 42 68 35 69 36 70 37 71 38 72 39 73 65 74 66 75 75 76
REMARK SMILES IDX 67 77 68 78 74 79 76 80 69 81 70 82 71 83 72 84 73 85 49 86
REMARK SMILES IDX 50 87 59 88 51 89 52 90 58 91 60 92 53 93 54 94 55 95 56 96
REMARK SMILES IDX 57 97
REMARK H PARENT 14 7 19 28 81 47 47 58
REMARK Flexibility Score: inf
ROOT
ATOM      1  C   UNL A   1      40.893  20.298  26.805  1.00  0.00     0.023 C 
ENDROOT
BRANCH   1   2
ATOM      2  C   UNL A   1      41.886  19.435  26.022  1.00  0.00     0.023 C 
BRANCH   2   3
ATOM      3  C   UNL A   1      43.334  19.901  26.128  1.00  0.00     0.116 C 
BRANCH   3   4
ATOM      4  N   UNL A   1      43.735  20.691  24.978  1.00  0.00    -0.352 N 
ATOM      5  C   UNL A   1      44.431  21.829  24.754  1.00  0.00     0.251 C 
ATOM      6  O   UNL A   1      44.530  22.161  23.569  1.00  0.00    -0.270 OA
ATOM      7  H   UNL A   1      43.413  20.292  24.136  1.00  0.00     0.163 HD
BRANCH   5   8
ATOM      8  C   UNL A   1      45.064  22.677  25.809  1.00  0.00     0.067 C 
ATOM      9  C   UNL A   1      46.706  26.078  31.115  1.00  0.00     0.046 C 
ATOM     10  C   UNL A   1      46.028  25.247  30.060  1.00  0.00    -0.028 A 
ATOM     11  C   UNL A   1      46.780  24.828  28.960  1.00  0.00     0.052 A 
ATOM     12  C   UNL A   1      44.660  24.911  30.117  1.00  0.00     0.047 A 
ATOM     13  C   UNL A   1      46.193  24.079  27.945  1.00  0.00     0.128 A 
ATOM     14  C   UNL A   1      44.052  24.134  29.099  1.00  0.00    -0.021 A 
ATOM     15  Cl  UNL A   1      43.728  25.475  31.474  1.00  0.00    -0.084 Cl
ATOM     16  C   UNL A   1      44.845  23.710  28.005  1.00  0.00     0.022 A 
ATOM     17  O   UNL A   1      47.028  23.703  26.932  1.00  0.00    -0.475 OA
ATOM     18  C   UNL A   1      42.594  23.744  29.154  1.00  0.00     0.047 C 
ATOM     19  C   UNL A   1      44.334  22.859  26.925  1.00  0.00     0.026 C 
ATOM     20  C   UNL A   1      46.400  23.345  25.674  1.00  0.00     0.314 C 
BRANCH  20  21
ATOM     21  C   UNL A   1      46.357  24.578  24.753  1.00  0.00     0.429 C 
ATOM     22  F   UNL A   1      46.766  24.248  23.501  1.00  0.00    -0.167 F 
ATOM     23  F   UNL A   1      45.112  25.090  24.626  1.00  0.00    -0.167 F 
ATOM     24  F   UNL A   1      47.154  25.580  25.187  1.00  0.00    -0.167 F 
ENDBRANCH  20  21
ENDBRANCH   5   8
ENDBRANCH   3   4
ENDBRANCH   2   3
ENDBRANCH   1   2
BRANCH   1  25
ATOM     25  C   UNL A   1      40.632  21.687  26.224  1.00  0.00     0.116 C 
BRANCH  25  26
ATOM     26  N   UNL A   1      39.222  21.974  26.008  1.00  0.00    -0.352 N 
ATOM     27  C   UNL A   1      38.549  23.147  26.254  1.00  0.00     0.251 C 
ATOM     28  H   UNL A   1      38.682  21.237  25.640  1.00  0.00     0.163 HD
ATOM     29  O   UNL A   1      37.335  23.216  26.096  1.00  0.00    -0.269 OA
BRANCH  27  30
ATOM     30  C   UNL A   1      39.312  24.305  26.755  1.00  0.00     0.039 A 
ATOM     31  C   UNL A   1      40.039  25.076  25.846  1.00  0.00     0.014 A 
ATOM     32  C   UNL A   1      39.240  24.663  28.104  1.00  0.00     0.014 A 
ATOM     33  C   UNL A   1      40.645  26.253  26.282  1.00  0.00     0.010 A 
ATOM     34  C   UNL A   1      39.792  25.868  28.522  1.00  0.00     0.010 A 
ATOM     35  C   UNL A   1      40.498  26.674  27.615  1.00  0.00    -0.014 A 
BRANCH  35  36
ATOM     36  C   UNL A   1      41.095  27.947  28.079  1.00  0.00     0.031 A 
ATOM     37  C   UNL A   1      42.575  28.165  27.954  1.00  0.00     0.074 A 
ATOM     38  C   UNL A   1      40.312  28.883  28.649  1.00  0.00     0.049 A 
ATOM     39  N   UNL A   1      43.290  29.192  28.326  1.00  0.00    -0.248 NA
ATOM     40  C   UNL A   1      43.356  27.072  27.351  1.00  0.00     0.031 C 
ATOM     41  C   UNL A   1      38.867  28.763  28.864  1.00  0.00     0.029 A 
ATOM     42  N   UNL A   1      40.619  30.123  29.148  1.00  0.00    -0.354 N 
ATOM     43  C   UNL A   1      44.603  28.871  28.008  1.00  0.00     0.074 A 
ATOM     44  C   UNL A   1      44.594  27.529  27.469  1.00  0.00     0.031 C 
ATOM     45  C   UNL A   1      38.410  29.898  29.418  1.00  0.00     0.029 A 
ATOM     46  C   UNL A   1      39.529  30.814  29.621  1.00  0.00     0.049 A 
ATOM     47  H   UNL A   1      41.534  30.485  29.166  1.00  0.00     0.167 HD
ATOM     48  C   UNL A   1      45.713  29.636  28.124  1.00  0.00     0.037 A 
ATOM     49  C   UNL A   1      39.442  32.050  30.149  1.00  0.00     0.037 A 
ATOM     50  C   UNL A   1      45.712  30.980  28.633  1.00  0.00     0.049 A 
ATOM     51  C   UNL A   1      40.689  32.880  30.277  1.00  0.00     0.074 A 
ATOM     52  C   UNL A   1      46.774  31.860  28.743  1.00  0.00     0.029 A 
ATOM     53  N   UNL A   1      44.591  31.641  29.113  1.00  0.00    -0.354 N 
ATOM     54  N   UNL A   1      41.917  32.579  29.927  1.00  0.00    -0.248 NA
ATOM     55  C   UNL A   1      40.542  34.215  30.874  1.00  0.00     0.031 C 
ATOM     56  C   UNL A   1      46.299  33.045  29.315  1.00  0.00     0.029 A 
ATOM     57  C   UNL A   1      44.936  32.913  29.535  1.00  0.00     0.049 A 
ATOM     58  H   UNL A   1      43.684  31.260  29.148  1.00  0.00     0.167 HD
ATOM     59  C   UNL A   1      42.688  33.689  30.250  1.00  0.00     0.074 A 
ATOM     60  C   UNL A   1      41.786  34.675  30.812  1.00  0.00     0.031 C 
ATOM     61  C   UNL A   1      44.022  33.875  30.097  1.00  0.00     0.037 A 
BRANCH  48  62
ATOM     62  C   UNL A   1      47.011  29.033  27.671  1.00  0.00     0.058 A 
ATOM     63  C   UNL A   1      47.325  28.924  26.306  1.00  0.00     0.135 A 
ATOM     64  C   UNL A   1      47.947  28.557  28.601  1.00  0.00     0.135 A 
ATOM     65  F   UNL A   1      46.454  29.347  25.376  1.00  0.00    -0.206 F 
ATOM     66  C   UNL A   1      48.507  28.331  25.878  1.00  0.00     0.059 A 
ATOM     67  C   UNL A   1      49.147  27.980  28.195  1.00  0.00     0.059 A 
ATOM     68  F   UNL A   1      47.694  28.633  29.916  1.00  0.00    -0.206 F 
ATOM     69  C   UNL A   1      49.409  27.856  26.830  1.00  0.00     0.060 A 
BRANCH  69  70
ATOM     70  S   UNL A   1      50.930  27.069  26.258  1.00  0.00     0.124 S 
ATOM     71  O   UNL A   1      51.701  26.995  27.496  1.00  0.00    -0.237 OA
ATOM     72  O   UNL A   1      50.447  25.794  25.737  1.00  0.00    -0.237 OA
ATOM     73  O   UNL A   1      51.438  28.000  25.256  1.00  0.00    -0.744 OA
ENDBRANCH  69  70
ENDBRANCH  48  62
BRANCH  49  74
ATOM     74  C   UNL A   1      38.119  32.589  30.551  1.00  0.00     0.058 A 
ATOM     75  C   UNL A   1      37.664  32.451  31.871  1.00  0.00     0.135 A 
ATOM     76  C   UNL A   1      37.302  33.283  29.646  1.00  0.00     0.135 A 
ATOM     77  F   UNL A   1      38.410  31.791  32.771  1.00  0.00    -0.206 F 
ATOM     78  C   UNL A   1      36.447  32.983  32.282  1.00  0.00     0.059 A 
ATOM     79  C   UNL A   1      36.087  33.838  30.036  1.00  0.00     0.059 A 
ATOM     80  F   UNL A   1      37.700  33.452  28.375  1.00  0.00    -0.206 F 
ATOM     81  C   UNL A   1      35.667  33.681  31.357  1.00  0.00     0.060 A 
BRANCH  81  82
ATOM     82  S   UNL A   1      34.122  34.429  31.920  1.00  0.00     0.124 S 
ATOM     83  O   UNL A   1      33.631  33.423  32.855  1.00  0.00    -0.237 OA
ATOM     84  O   UNL A   1      34.586  35.680  32.512  1.00  0.00    -0.237 OA
ATOM     85  O   UNL A   1      33.353  34.577  30.688  1.00  0.00    -0.744 OA
ENDBRANCH  81  82
ENDBRANCH  49  74
BRANCH  61  86
ATOM     86  C   UNL A   1      44.593  35.187  30.545  1.00  0.00     0.058 A 
ATOM     87  C   UNL A   1      44.616  36.298  29.689  1.00  0.00     0.135 A 
ATOM     88  C   UNL A   1      45.041  35.361  31.865  1.00  0.00     0.135 A 
ATOM     89  F   UNL A   1      44.206  36.178  28.416  1.00  0.00    -0.206 F 
ATOM     90  C   UNL A   1      45.063  37.539  30.125  1.00  0.00     0.059 A 
ATOM     91  C   UNL A   1      45.475  36.598  32.327  1.00  0.00     0.059 A 
ATOM     92  F   UNL A   1      45.032  34.328  32.722  1.00  0.00    -0.206 F 
ATOM     93  C   UNL A   1      45.486  37.682  31.449  1.00  0.00     0.060 A 
BRANCH  93  94
ATOM     94  S   UNL A   1      46.003  39.313  32.020  1.00  0.00     0.124 S 
ATOM     95  O   UNL A   1      44.719  39.985  32.193  1.00  0.00    -0.237 OA
ATOM     96  O   UNL A   1      46.725  39.000  33.250  1.00  0.00    -0.237 OA
ATOM     97  O   UNL A   1      46.831  39.810  30.926  1.00  0.00    -0.744 OA
ENDBRANCH  93  94
ENDBRANCH  61  86
ENDBRANCH  35  36
ENDBRANCH  27  30
ENDBRANCH  25  26
ENDBRANCH   1  25
TORSDOF 15
ENDMDL
