MODEL 1
REMARK VINA RESULT:     -12.7      0.000      0.000
REMARK SMILES O=C(NCCCCNC(=O)[C@@H]1CCCC[C@@H]1NS(=O)(=O)c1ccc2ccccc2c1)c1ccc(-c2c3nc(c(-c4c(F)cc(S(=O)(=O)[O-])cc4F)c4ccc([nH]4)c(-c4c(F)cc(S(=O)(=O)[O-])cc4F)c4nc(c(-c5c(F)cc(S(=O)(=O)[O-])cc5F)c5ccc2[nH]5)C=C4)C=C3)cc1
REMARK SMILES IDX 5 1 4 2 3 3 1 4 2 5 31 7 32 8 96 9 33 10 95 11 34 12 35 13
REMARK SMILES IDX 36 14 89 15 37 16 94 17 88 18 90 19 38 20 93 21 87 22 86 23
REMARK SMILES IDX 39 25 73 26 52 27 72 28 53 29 56 30 71 31 91 32 54 33 55 34
REMARK SMILES IDX 70 36 92 37 57 38 40 39 41 40 50 41 42 42 43 43 49 44 51 45
REMARK SMILES IDX 44 46 45 47 46 48 47 49 48 50 74 51 75 52 84 53 76 54 77 55
REMARK SMILES IDX 83 56 85 57 78 58 79 59 80 60 81 61 82 62 58 63 59 64 68 65
REMARK SMILES IDX 60 66 61 67 67 68 69 69 62 70 63 71 64 72 65 73 66 74 6 75
REMARK SMILES IDX 7 76 8 77 9 78 10 80 11 81 12 82 16 83 13 84 15 85 14 86
REMARK SMILES IDX 17 87 18 89 19 90 20 91 21 92 22 93 30 94 23 95 29 96 24 97
REMARK SMILES IDX 28 98 25 99 27 100 26 101
REMARK H PARENT 3 6 90 24 56 35 8 79 17 88
REMARK Flexibility Score: inf
ROOT
ATOM      1  C   UNL A   1      33.975  29.236  26.904  1.00  0.00     0.023 C 
ENDROOT
BRANCH   1   2
ATOM      2  C   UNL A   1      35.311  29.322  27.637  1.00  0.00     0.116 C 
BRANCH   2   3
ATOM      3  N   UNL A   1      35.231  30.085  28.872  1.00  0.00    -0.352 N 
ATOM      4  O   UNL A   1      35.967  30.931  30.828  1.00  0.00    -0.269 OA
ATOM      5  C   UNL A   1      36.236  30.388  29.761  1.00  0.00     0.251 C 
ATOM      6  H   UNL A   1      34.339  30.432  29.104  1.00  0.00     0.163 HD
BRANCH   5   7
ATOM      7  C   UNL A   1      37.633  30.030  29.433  1.00  0.00     0.039 A 
ATOM      8  C   UNL A   1      38.069  30.008  28.105  1.00  0.00     0.014 A 
ATOM      9  C   UNL A   1      38.515  29.711  30.469  1.00  0.00     0.014 A 
ATOM     10  C   UNL A   1      39.347  29.549  27.805  1.00  0.00     0.010 A 
ATOM     11  C   UNL A   1      39.823  29.321  30.169  1.00  0.00     0.010 A 
ATOM     12  C   UNL A   1      40.243  29.216  28.835  1.00  0.00    -0.014 A 
BRANCH  12  13
ATOM     13  C   UNL A   1      41.637  28.836  28.495  1.00  0.00     0.031 A 
ATOM     14  C   UNL A   1      42.743  29.853  28.490  1.00  0.00     0.074 A 
ATOM     15  C   UNL A   1      41.894  27.548  28.189  1.00  0.00     0.049 A 
ATOM     16  N   UNL A   1      44.008  29.687  28.199  1.00  0.00    -0.248 NA
ATOM     17  C   UNL A   1      42.387  31.234  28.849  1.00  0.00     0.031 C 
ATOM     18  C   UNL A   1      40.892  26.479  28.146  1.00  0.00     0.029 A 
ATOM     19  N   UNL A   1      43.066  26.918  27.862  1.00  0.00    -0.354 N 
ATOM     20  C   UNL A   1      44.596  30.941  28.320  1.00  0.00     0.074 A 
ATOM     21  C   UNL A   1      43.545  31.863  28.694  1.00  0.00     0.031 C 
ATOM     22  C   UNL A   1      41.496  25.322  27.837  1.00  0.00     0.029 A 
ATOM     23  C   UNL A   1      42.913  25.576  27.603  1.00  0.00     0.049 A 
ATOM     24  H   UNL A   1      43.933  27.380  27.816  1.00  0.00     0.167 HD
ATOM     25  C   UNL A   1      45.895  31.284  28.138  1.00  0.00     0.037 A 
ATOM     26  C   UNL A   1      43.805  24.655  27.197  1.00  0.00     0.037 A 
ATOM     27  C   UNL A   1      46.936  30.352  27.785  1.00  0.00     0.049 A 
ATOM     28  C   UNL A   1      45.232  25.067  26.984  1.00  0.00     0.074 A 
ATOM     29  C   UNL A   1      48.292  30.592  27.636  1.00  0.00     0.029 A 
ATOM     30  N   UNL A   1      46.739  29.006  27.514  1.00  0.00    -0.354 N 
ATOM     31  N   UNL A   1      45.779  26.248  27.151  1.00  0.00    -0.248 NA
ATOM     32  C   UNL A   1      46.162  24.030  26.522  1.00  0.00     0.031 C 
ATOM     33  C   UNL A   1      48.906  29.402  27.231  1.00  0.00     0.029 A 
ATOM     34  C   UNL A   1      47.941  28.410  27.171  1.00  0.00     0.049 A 
ATOM     35  H   UNL A   1      45.871  28.542  27.560  1.00  0.00     0.167 HD
ATOM     36  C   UNL A   1      47.119  26.093  26.823  1.00  0.00     0.074 A 
ATOM     37  C   UNL A   1      47.306  24.701  26.467  1.00  0.00     0.031 C 
ATOM     38  C   UNL A   1      48.107  27.022  26.815  1.00  0.00     0.037 A 
BRANCH  25  39
ATOM     39  C   UNL A   1      46.271  32.732  28.301  1.00  0.00     0.058 A 
ATOM     40  C   UNL A   1      46.120  33.658  27.257  1.00  0.00     0.135 A 
ATOM     41  C   UNL A   1      46.728  33.212  29.540  1.00  0.00     0.135 A 
ATOM     42  F   UNL A   1      45.697  33.252  26.049  1.00  0.00    -0.206 F 
ATOM     43  C   UNL A   1      46.428  35.004  27.429  1.00  0.00     0.059 A 
ATOM     44  C   UNL A   1      47.022  34.557  29.740  1.00  0.00     0.059 A 
ATOM     45  F   UNL A   1      46.889  32.369  30.573  1.00  0.00    -0.206 F 
ATOM     46  C   UNL A   1      46.879  35.444  28.675  1.00  0.00     0.060 A 
BRANCH  46  47
ATOM     47  S   UNL A   1      47.267  37.196  28.885  1.00  0.00     0.124 S 
ATOM     48  O   UNL A   1      48.632  37.255  28.373  1.00  0.00    -0.237 OA
ATOM     49  O   UNL A   1      46.253  37.843  28.058  1.00  0.00    -0.237 OA
ATOM     50  O   UNL A   1      47.126  37.406  30.321  1.00  0.00    -0.744 OA
ENDBRANCH  46  47
ENDBRANCH  25  39
BRANCH  26  51
ATOM     51  C   UNL A   1      43.359  23.261  26.946  1.00  0.00     0.058 A 
ATOM     52  C   UNL A   1      43.227  22.765  25.643  1.00  0.00     0.135 A 
ATOM     53  C   UNL A   1      43.090  22.385  28.012  1.00  0.00     0.135 A 
ATOM     54  F   UNL A   1      43.469  23.565  24.593  1.00  0.00    -0.206 F 
ATOM     55  C   UNL A   1      42.832  21.453  25.400  1.00  0.00     0.059 A 
ATOM     56  C   UNL A   1      42.722  21.063  27.795  1.00  0.00     0.059 A 
ATOM     57  F   UNL A   1      43.223  22.808  29.279  1.00  0.00    -0.206 F 
ATOM     58  C   UNL A   1      42.585  20.608  26.485  1.00  0.00     0.060 A 
BRANCH  58  59
ATOM     59  S   UNL A   1      42.130  18.892  26.163  1.00  0.00     0.124 S 
ATOM     60  O   UNL A   1      40.734  19.029  25.763  1.00  0.00    -0.237 OA
ATOM     61  O   UNL A   1      43.063  18.517  25.105  1.00  0.00    -0.237 OA
ATOM     62  O   UNL A   1      42.358  18.239  27.449  1.00  0.00    -0.744 OA
ENDBRANCH  58  59
ENDBRANCH  26  51
BRANCH  38  63
ATOM     63  C   UNL A   1      49.480  26.559  26.419  1.00  0.00     0.058 A 
ATOM     64  C   UNL A   1      49.983  26.780  25.128  1.00  0.00     0.135 A 
ATOM     65  C   UNL A   1      50.319  25.933  27.355  1.00  0.00     0.135 A 
ATOM     66  F   UNL A   1      49.216  27.364  24.194  1.00  0.00    -0.206 F 
ATOM     67  C   UNL A   1      51.267  26.383  24.772  1.00  0.00     0.059 A 
ATOM     68  C   UNL A   1      51.615  25.549  27.028  1.00  0.00     0.059 A 
ATOM     69  F   UNL A   1      49.886  25.705  28.605  1.00  0.00    -0.206 F 
ATOM     70  C   UNL A   1      52.077  25.769  25.730  1.00  0.00     0.060 A 
BRANCH  70  71
ATOM     71  S   UNL A   1      53.757  25.296  25.270  1.00  0.00     0.124 S 
ATOM     72  O   UNL A   1      54.553  26.148  26.146  1.00  0.00    -0.237 OA
ATOM     73  O   UNL A   1      53.777  23.870  25.584  1.00  0.00    -0.237 OA
ATOM     74  O   UNL A   1      53.824  25.618  23.848  1.00  0.00    -0.744 OA
ENDBRANCH  70  71
ENDBRANCH  38  63
ENDBRANCH  12  13
ENDBRANCH   5   7
ENDBRANCH   2   3
ENDBRANCH   1   2
BRANCH   1  75
ATOM     75  C   UNL A   1      32.994  28.196  27.451  1.00  0.00     0.023 C 
BRANCH  75  76
ATOM     76  C   UNL A   1      31.600  28.253  26.833  1.00  0.00     0.116 C 
BRANCH  76  77
ATOM     77  N   UNL A   1      31.238  27.005  26.182  1.00  0.00    -0.356 N 
ATOM     78  C   UNL A   1      30.648  26.767  24.977  1.00  0.00     0.224 C 
ATOM     79  H   UNL A   1      31.456  26.196  26.698  1.00  0.00     0.163 HD
ATOM     80  O   UNL A   1      30.506  25.597  24.617  1.00  0.00    -0.275 OA
BRANCH  78  81
ATOM     81  C   UNL A   1      30.221  27.927  24.094  1.00  0.00     0.096 C 
ATOM     82  C   UNL A   1      28.900  27.665  23.372  1.00  0.00     0.015 C 
ATOM     83  C   UNL A   1      31.324  28.324  23.096  1.00  0.00     0.082 C 
ATOM     84  C   UNL A   1      28.424  28.956  22.705  1.00  0.00     0.001 C 
ATOM     85  C   UNL A   1      30.884  29.614  22.400  1.00  0.00     0.021 C 
ATOM     86  C   UNL A   1      29.478  29.588  21.798  1.00  0.00     0.002 C 
BRANCH  83  87
ATOM     87  N   UNL A   1      31.725  27.183  22.251  1.00  0.00    -0.207 NA
ATOM     88  H   UNL A   1      31.281  27.381  21.355  1.00  0.00     0.141 HD
BRANCH  87  89
ATOM     89  S   UNL A   1      33.216  26.590  21.827  1.00  0.00     0.240 S 
ATOM     90  O   UNL A   1      33.000  25.712  20.702  1.00  0.00    -0.207 OA
ATOM     91  O   UNL A   1      34.148  27.696  21.727  1.00  0.00    -0.207 OA
BRANCH  89  92
ATOM     92  C   UNL A   1      33.698  25.566  23.188  1.00  0.00     0.083 A 
ATOM     93  C   UNL A   1      34.093  26.158  24.389  1.00  0.00     0.022 A 
ATOM     94  C   UNL A   1      33.633  24.177  23.058  1.00  0.00     0.030 A 
ATOM     95  C   UNL A   1      34.365  25.352  25.494  1.00  0.00     0.010 A 
ATOM     96  C   UNL A   1      33.918  23.359  24.162  1.00  0.00    -0.017 A 
ATOM     97  C   UNL A   1      34.271  23.955  25.399  1.00  0.00    -0.018 A 
ATOM     98  C   UNL A   1      33.846  21.961  24.071  1.00  0.00     0.009 A 
ATOM     99  C   UNL A   1      34.517  23.136  26.511  1.00  0.00     0.009 A 
ATOM    100  C   UNL A   1      34.103  21.162  25.187  1.00  0.00     0.001 A 
ATOM    101  C   UNL A   1      34.431  21.748  26.406  1.00  0.00     0.001 A 
ENDBRANCH  89  92
ENDBRANCH  87  89
ENDBRANCH  83  87
ENDBRANCH  78  81
ENDBRANCH  76  77
ENDBRANCH  75  76
ENDBRANCH   1  75
TORSDOF 17
ENDMDL
MODEL 2
REMARK VINA RESULT:     -12.6      6.598     12.000
REMARK SMILES O=C(NCCCCNC(=O)[C@@H]1CCCC[C@@H]1NS(=O)(=O)c1ccc2ccccc2c1)c1ccc(-c2c3nc(c(-c4c(F)cc(S(=O)(=O)[O-])cc4F)c4ccc([nH]4)c(-c4c(F)cc(S(=O)(=O)[O-])cc4F)c4nc(c(-c5c(F)cc(S(=O)(=O)[O-])cc5F)c5ccc2[nH]5)C=C4)C=C3)cc1
REMARK SMILES IDX 5 1 4 2 3 3 1 4 2 5 31 7 32 8 96 9 33 10 95 11 34 12 35 13
REMARK SMILES IDX 36 14 89 15 37 16 94 17 88 18 90 19 38 20 93 21 87 22 86 23
REMARK SMILES IDX 39 25 73 26 52 27 72 28 53 29 56 30 71 31 91 32 54 33 55 34
REMARK SMILES IDX 70 36 92 37 57 38 40 39 41 40 50 41 42 42 43 43 49 44 51 45
REMARK SMILES IDX 44 46 45 47 46 48 47 49 48 50 74 51 75 52 84 53 76 54 77 55
REMARK SMILES IDX 83 56 85 57 78 58 79 59 80 60 81 61 82 62 58 63 59 64 68 65
REMARK SMILES IDX 60 66 61 67 67 68 69 69 62 70 63 71 64 72 65 73 66 74 6 75
REMARK SMILES IDX 7 76 8 77 9 78 10 80 11 81 12 82 16 83 13 84 15 85 14 86
REMARK SMILES IDX 17 87 18 89 19 90 20 91 21 92 22 93 30 94 23 95 29 96 24 97
REMARK SMILES IDX 28 98 25 99 27 100 26 101
REMARK H PARENT 3 6 90 24 56 35 8 79 17 88
REMARK Flexibility Score: inf
ROOT
ATOM      1  C   UNL A   1      37.227  23.387  26.002  1.00  0.00     0.023 C 
ENDROOT
BRANCH   1   2
ATOM      2  C   UNL A   1      38.211  24.392  26.594  1.00  0.00     0.116 C 
BRANCH   2   3
ATOM      3  N   UNL A   1      39.569  24.209  26.107  1.00  0.00    -0.352 N 
ATOM      4  O   UNL A   1      41.762  24.679  25.881  1.00  0.00    -0.269 OA
ATOM      5  C   UNL A   1      40.715  24.864  26.493  1.00  0.00     0.251 C 
ATOM      6  H   UNL A   1      39.685  23.524  25.410  1.00  0.00     0.163 HD
BRANCH   5   7
ATOM      7  C   UNL A   1      40.668  25.812  27.628  1.00  0.00     0.039 A 
ATOM      8  C   UNL A   1      39.737  25.644  28.656  1.00  0.00     0.014 A 
ATOM      9  C   UNL A   1      41.566  26.881  27.659  1.00  0.00     0.014 A 
ATOM     10  C   UNL A   1      39.622  26.611  29.649  1.00  0.00     0.010 A 
ATOM     11  C   UNL A   1      41.498  27.813  28.699  1.00  0.00     0.010 A 
ATOM     12  C   UNL A   1      40.512  27.698  29.690  1.00  0.00    -0.014 A 
BRANCH  12  13
ATOM     13  C   UNL A   1      40.443  28.656  30.821  1.00  0.00     0.031 A 
ATOM     14  C   UNL A   1      41.352  28.526  32.010  1.00  0.00     0.074 A 
ATOM     15  C   UNL A   1      39.539  29.655  30.760  1.00  0.00     0.049 A 
ATOM     16  N   UNL A   1      41.406  29.269  33.086  1.00  0.00    -0.248 NA
ATOM     17  C   UNL A   1      42.321  27.419  31.997  1.00  0.00     0.031 C 
ATOM     18  C   UNL A   1      38.593  29.867  29.660  1.00  0.00     0.029 A 
ATOM     19  N   UNL A   1      39.270  30.678  31.630  1.00  0.00    -0.354 N 
ATOM     20  C   UNL A   1      42.396  28.712  33.886  1.00  0.00     0.074 A 
ATOM     21  C   UNL A   1      42.907  27.556  33.179  1.00  0.00     0.031 C 
ATOM     22  C   UNL A   1      37.866  30.965  29.909  1.00  0.00     0.029 A 
ATOM     23  C   UNL A   1      38.251  31.501  31.210  1.00  0.00     0.049 A 
ATOM     24  H   UNL A   1      39.756  30.812  32.474  1.00  0.00     0.167 HD
ATOM     25  C   UNL A   1      42.838  29.132  35.097  1.00  0.00     0.037 A 
ATOM     26  C   UNL A   1      37.670  32.554  31.814  1.00  0.00     0.037 A 
ATOM     27  C   UNL A   1      42.335  30.297  35.781  1.00  0.00     0.049 A 
ATOM     28  C   UNL A   1      38.166  32.985  33.162  1.00  0.00     0.074 A 
ATOM     29  C   UNL A   1      42.759  30.838  36.984  1.00  0.00     0.029 A 
ATOM     30  N   UNL A   1      41.292  31.093  35.333  1.00  0.00    -0.354 N 
ATOM     31  N   UNL A   1      39.137  32.475  33.882  1.00  0.00    -0.248 NA
ATOM     32  C   UNL A   1      37.487  34.127  33.787  1.00  0.00     0.031 C 
ATOM     33  C   UNL A   1      41.942  31.933  37.283  1.00  0.00     0.029 A 
ATOM     34  C   UNL A   1      41.038  32.102  36.247  1.00  0.00     0.049 A 
ATOM     35  H   UNL A   1      40.803  30.961  34.488  1.00  0.00     0.167 HD
ATOM     36  C   UNL A   1      39.191  33.239  35.040  1.00  0.00     0.074 A 
ATOM     37  C   UNL A   1      38.169  34.259  34.917  1.00  0.00     0.031 C 
ATOM     38  C   UNL A   1      40.012  33.107  36.110  1.00  0.00     0.037 A 
BRANCH  25  39
ATOM     39  C   UNL A   1      43.911  28.324  35.776  1.00  0.00     0.058 A 
ATOM     40  C   UNL A   1      45.275  28.561  35.545  1.00  0.00     0.135 A 
ATOM     41  C   UNL A   1      43.568  27.342  36.720  1.00  0.00     0.135 A 
ATOM     42  F   UNL A   1      45.658  29.480  34.644  1.00  0.00    -0.206 F 
ATOM     43  C   UNL A   1      46.261  27.838  36.209  1.00  0.00     0.059 A 
ATOM     44  C   UNL A   1      44.538  26.622  37.412  1.00  0.00     0.059 A 
ATOM     45  F   UNL A   1      42.278  27.076  36.981  1.00  0.00    -0.206 F 
ATOM     46  C   UNL A   1      45.883  26.870  37.141  1.00  0.00     0.060 A 
BRANCH  46  47
ATOM     47  S   UNL A   1      47.174  25.947  38.004  1.00  0.00     0.124 S 
ATOM     48  O   UNL A   1      48.332  26.813  37.803  1.00  0.00    -0.237 OA
ATOM     49  O   UNL A   1      46.658  25.887  39.368  1.00  0.00    -0.237 OA
ATOM     50  O   UNL A   1      47.214  24.674  37.295  1.00  0.00    -0.744 OA
ENDBRANCH  46  47
ENDBRANCH  25  39
BRANCH  26  51
ATOM     51  C   UNL A   1      36.541  33.252  31.147  1.00  0.00     0.058 A 
ATOM     52  C   UNL A   1      36.751  34.062  30.023  1.00  0.00     0.135 A 
ATOM     53  C   UNL A   1      35.222  33.091  31.603  1.00  0.00     0.135 A 
ATOM     54  F   UNL A   1      37.995  34.248  29.554  1.00  0.00    -0.206 F 
ATOM     55  C   UNL A   1      35.696  34.699  29.379  1.00  0.00     0.059 A 
ATOM     56  C   UNL A   1      34.148  33.695  30.959  1.00  0.00     0.059 A 
ATOM     57  F   UNL A   1      34.967  32.308  32.663  1.00  0.00    -0.206 F 
ATOM     58  C   UNL A   1      34.397  34.506  29.853  1.00  0.00     0.060 A 
BRANCH  58  59
ATOM     59  S   UNL A   1      33.027  35.290  28.977  1.00  0.00     0.124 S 
ATOM     60  O   UNL A   1      32.101  35.567  30.069  1.00  0.00    -0.237 OA
ATOM     61  O   UNL A   1      33.669  36.453  28.375  1.00  0.00    -0.237 OA
ATOM     62  O   UNL A   1      32.601  34.260  28.034  1.00  0.00    -0.744 OA
ENDBRANCH  58  59
ENDBRANCH  26  51
BRANCH  38  63
ATOM     63  C   UNL A   1      39.846  34.096  37.228  1.00  0.00     0.058 A 
ATOM     64  C   UNL A   1      38.994  33.839  38.313  1.00  0.00     0.135 A 
ATOM     65  C   UNL A   1      40.585  35.290  37.240  1.00  0.00     0.135 A 
ATOM     66  F   UNL A   1      38.257  32.716  38.342  1.00  0.00    -0.206 F 
ATOM     67  C   UNL A   1      38.866  34.739  39.365  1.00  0.00     0.059 A 
ATOM     68  C   UNL A   1      40.491  36.193  38.293  1.00  0.00     0.059 A 
ATOM     69  F   UNL A   1      41.419  35.579  36.229  1.00  0.00    -0.206 F 
ATOM     70  C   UNL A   1      39.621  35.913  39.348  1.00  0.00     0.060 A 
BRANCH  70  71
ATOM     71  S   UNL A   1      39.481  37.055  40.739  1.00  0.00     0.124 S 
ATOM     72  O   UNL A   1      38.561  38.054  40.206  1.00  0.00    -0.237 OA
ATOM     73  O   UNL A   1      38.945  36.199  41.793  1.00  0.00    -0.237 OA
ATOM     74  O   UNL A   1      40.852  37.509  40.946  1.00  0.00    -0.744 OA
ENDBRANCH  70  71
ENDBRANCH  38  63
ENDBRANCH  12  13
ENDBRANCH   5   7
ENDBRANCH   2   3
ENDBRANCH   1   2
BRANCH   1  75
ATOM     75  C   UNL A   1      35.979  23.994  25.357  1.00  0.00     0.023 C 
BRANCH  75  76
ATOM     76  C   UNL A   1      35.660  23.457  23.965  1.00  0.00     0.116 C 
BRANCH  76  77
ATOM     77  N   UNL A   1      34.319  23.817  23.533  1.00  0.00    -0.356 N 
ATOM     78  C   UNL A   1      33.180  23.074  23.453  1.00  0.00     0.224 C 
ATOM     79  H   UNL A   1      34.218  24.755  23.251  1.00  0.00     0.163 HD
ATOM     80  O   UNL A   1      32.138  23.638  23.113  1.00  0.00    -0.275 OA
BRANCH  78  81
ATOM     81  C   UNL A   1      33.202  21.601  23.817  1.00  0.00     0.096 C 
ATOM     82  C   UNL A   1      32.233  20.769  22.977  1.00  0.00     0.015 C 
ATOM     83  C   UNL A   1      32.956  21.378  25.321  1.00  0.00     0.082 C 
ATOM     84  C   UNL A   1      32.488  19.283  23.233  1.00  0.00     0.001 C 
ATOM     85  C   UNL A   1      33.197  19.897  25.621  1.00  0.00     0.021 C 
ATOM     86  C   UNL A   1      32.452  18.914  24.715  1.00  0.00     0.002 C 
BRANCH  83  87
ATOM     87  N   UNL A   1      31.678  21.974  25.754  1.00  0.00    -0.207 NA
ATOM     88  H   UNL A   1      31.078  21.164  25.912  1.00  0.00     0.141 HD
BRANCH  87  89
ATOM     89  S   UNL A   1      31.300  22.992  27.008  1.00  0.00     0.240 S 
ATOM     90  O   UNL A   1      29.913  22.752  27.325  1.00  0.00    -0.207 OA
ATOM     91  O   UNL A   1      32.319  22.871  28.032  1.00  0.00    -0.207 OA
BRANCH  89  92
ATOM     92  C   UNL A   1      31.389  24.618  26.311  1.00  0.00     0.083 A 
ATOM     93  C   UNL A   1      30.252  25.180  25.729  1.00  0.00     0.022 A 
ATOM     94  C   UNL A   1      32.585  25.334  26.394  1.00  0.00     0.030 A 
ATOM     95  C   UNL A   1      30.293  26.500  25.282  1.00  0.00     0.010 A 
ATOM     96  C   UNL A   1      32.637  26.659  25.934  1.00  0.00    -0.017 A 
ATOM     97  C   UNL A   1      31.472  27.254  25.388  1.00  0.00    -0.018 A 
ATOM     98  C   UNL A   1      33.816  27.413  26.017  1.00  0.00     0.009 A 
ATOM     99  C   UNL A   1      31.517  28.590  24.964  1.00  0.00     0.009 A 
ATOM    100  C   UNL A   1      33.844  28.740  25.583  1.00  0.00     0.001 A 
ATOM    101  C   UNL A   1      32.695  29.329  25.063  1.00  0.00     0.001 A 
ENDBRANCH  89  92
ENDBRANCH  87  89
ENDBRANCH  83  87
ENDBRANCH  78  81
ENDBRANCH  76  77
ENDBRANCH  75  76
ENDBRANCH   1  75
TORSDOF 17
ENDMDL
MODEL 3
REMARK VINA RESULT:     -12.6      6.460     11.980
REMARK SMILES O=C(NCCCCNC(=O)[C@@H]1CCCC[C@@H]1NS(=O)(=O)c1ccc2ccccc2c1)c1ccc(-c2c3nc(c(-c4c(F)cc(S(=O)(=O)[O-])cc4F)c4ccc([nH]4)c(-c4c(F)cc(S(=O)(=O)[O-])cc4F)c4nc(c(-c5c(F)cc(S(=O)(=O)[O-])cc5F)c5ccc2[nH]5)C=C4)C=C3)cc1
REMARK SMILES IDX 5 1 4 2 3 3 1 4 2 5 31 7 32 8 96 9 33 10 95 11 34 12 35 13
REMARK SMILES IDX 36 14 89 15 37 16 94 17 88 18 90 19 38 20 93 21 87 22 86 23
REMARK SMILES IDX 39 25 73 26 52 27 72 28 53 29 56 30 71 31 91 32 54 33 55 34
REMARK SMILES IDX 70 36 92 37 57 38 40 39 41 40 50 41 42 42 43 43 49 44 51 45
REMARK SMILES IDX 44 46 45 47 46 48 47 49 48 50 74 51 75 52 84 53 76 54 77 55
REMARK SMILES IDX 83 56 85 57 78 58 79 59 80 60 81 61 82 62 58 63 59 64 68 65
REMARK SMILES IDX 60 66 61 67 67 68 69 69 62 70 63 71 64 72 65 73 66 74 6 75
REMARK SMILES IDX 7 76 8 77 9 78 10 80 11 81 12 82 16 83 13 84 15 85 14 86
REMARK SMILES IDX 17 87 18 89 19 90 20 91 21 92 22 93 30 94 23 95 29 96 24 97
REMARK SMILES IDX 28 98 25 99 27 100 26 101
REMARK H PARENT 3 6 90 24 56 35 8 79 17 88
REMARK Flexibility Score: inf
ROOT
ATOM      1  C   UNL A   1      39.933  21.854  26.877  1.00  0.00     0.023 C 
ENDROOT
BRANCH   1   2
ATOM      2  C   UNL A   1      40.325  23.294  27.193  1.00  0.00     0.116 C 
BRANCH   2   3
ATOM      3  N   UNL A   1      41.113  23.913  26.139  1.00  0.00    -0.352 N 
ATOM      4  O   UNL A   1      42.107  25.600  25.023  1.00  0.00    -0.269 OA
ATOM      5  C   UNL A   1      41.565  25.208  26.051  1.00  0.00     0.251 C 
ATOM      6  H   UNL A   1      41.358  23.324  25.388  1.00  0.00     0.163 HD
BRANCH   5   7
ATOM      7  C   UNL A   1      41.367  26.129  27.192  1.00  0.00     0.039 A 
ATOM      8  C   UNL A   1      42.238  27.203  27.399  1.00  0.00     0.014 A 
ATOM      9  C   UNL A   1      40.299  25.911  28.065  1.00  0.00     0.014 A 
ATOM     10  C   UNL A   1      42.114  27.983  28.543  1.00  0.00     0.010 A 
ATOM     11  C   UNL A   1      40.132  26.742  29.176  1.00  0.00     0.010 A 
ATOM     12  C   UNL A   1      41.050  27.771  29.436  1.00  0.00    -0.014 A 
BRANCH  12  13
ATOM     13  C   UNL A   1      40.872  28.686  30.591  1.00  0.00     0.031 A 
ATOM     14  C   UNL A   1      41.726  28.565  31.821  1.00  0.00     0.074 A 
ATOM     15  C   UNL A   1      39.920  29.638  30.513  1.00  0.00     0.049 A 
ATOM     16  N   UNL A   1      41.686  29.274  32.921  1.00  0.00    -0.248 NA
ATOM     17  C   UNL A   1      42.753  27.512  31.825  1.00  0.00     0.031 C 
ATOM     18  C   UNL A   1      39.021  29.837  29.373  1.00  0.00     0.029 A 
ATOM     19  N   UNL A   1      39.553  30.617  31.399  1.00  0.00    -0.354 N 
ATOM     20  C   UNL A   1      42.664  28.743  33.754  1.00  0.00     0.074 A 
ATOM     21  C   UNL A   1      43.271  27.640  33.040  1.00  0.00     0.031 C 
ATOM     22  C   UNL A   1      38.224  30.886  29.617  1.00  0.00     0.029 A 
ATOM     23  C   UNL A   1      38.513  31.398  30.952  1.00  0.00     0.049 A 
ATOM     24  H   UNL A   1      39.988  30.748  32.271  1.00  0.00     0.167 HD
ATOM     25  C   UNL A   1      43.021  29.146  34.998  1.00  0.00     0.037 A 
ATOM     26  C   UNL A   1      37.847  32.399  31.556  1.00  0.00     0.037 A 
ATOM     27  C   UNL A   1      42.422  30.260  35.691  1.00  0.00     0.049 A 
ATOM     28  C   UNL A   1      38.250  32.811  32.941  1.00  0.00     0.074 A 
ATOM     29  C   UNL A   1      42.755  30.782  36.929  1.00  0.00     0.029 A 
ATOM     30  N   UNL A   1      41.361  31.015  35.213  1.00  0.00    -0.354 N 
ATOM     31  N   UNL A   1      39.210  32.328  33.694  1.00  0.00    -0.248 NA
ATOM     32  C   UNL A   1      37.480  33.894  33.564  1.00  0.00     0.031 C 
ATOM     33  C   UNL A   1      41.866  31.823  37.219  1.00  0.00     0.029 A 
ATOM     34  C   UNL A   1      41.007  31.978  36.143  1.00  0.00     0.049 A 
ATOM     35  H   UNL A   1      40.923  30.885  34.340  1.00  0.00     0.167 HD
ATOM     36  C   UNL A   1      39.165  33.056  34.876  1.00  0.00     0.074 A 
ATOM     37  C   UNL A   1      38.097  34.024  34.731  1.00  0.00     0.031 C 
ATOM     38  C   UNL A   1      39.937  32.932  35.983  1.00  0.00     0.037 A 
BRANCH  25  39
ATOM     39  C   UNL A   1      44.100  28.373  35.707  1.00  0.00     0.058 A 
ATOM     40  C   UNL A   1      43.804  27.292  36.551  1.00  0.00     0.135 A 
ATOM     41  C   UNL A   1      45.453  28.679  35.487  1.00  0.00     0.135 A 
ATOM     42  F   UNL A   1      42.526  26.963  36.806  1.00  0.00    -0.206 F 
ATOM     43  C   UNL A   1      44.809  26.554  37.169  1.00  0.00     0.059 A 
ATOM     44  C   UNL A   1      46.476  27.941  36.076  1.00  0.00     0.059 A 
ATOM     45  F   UNL A   1      45.793  29.702  34.686  1.00  0.00    -0.206 F 
ATOM     46  C   UNL A   1      46.143  26.887  36.925  1.00  0.00     0.060 A 
BRANCH  46  47
ATOM     47  S   UNL A   1      47.438  25.915  37.726  1.00  0.00     0.124 S 
ATOM     48  O   UNL A   1      46.917  25.803  39.085  1.00  0.00    -0.237 OA
ATOM     49  O   UNL A   1      47.433  24.682  36.944  1.00  0.00    -0.237 OA
ATOM     50  O   UNL A   1      48.628  26.743  37.576  1.00  0.00    -0.744 OA
ENDBRANCH  46  47
ENDBRANCH  25  39
BRANCH  26  51
ATOM     51  C   UNL A   1      36.717  33.058  30.853  1.00  0.00     0.058 A 
ATOM     52  C   UNL A   1      35.388  32.790  31.205  1.00  0.00     0.135 A 
ATOM     53  C   UNL A   1      36.949  33.999  29.835  1.00  0.00     0.135 A 
ATOM     54  F   UNL A   1      35.117  31.896  32.169  1.00  0.00    -0.206 F 
ATOM     55  C   UNL A   1      34.325  33.421  30.567  1.00  0.00     0.059 A 
ATOM     56  C   UNL A   1      35.905  34.663  29.203  1.00  0.00     0.059 A 
ATOM     57  F   UNL A   1      38.206  34.305  29.476  1.00  0.00    -0.206 F 
ATOM     58  C   UNL A   1      34.595  34.359  29.569  1.00  0.00     0.060 A 
BRANCH  58  59
ATOM     59  S   UNL A   1      33.212  35.217  28.786  1.00  0.00     0.124 S 
ATOM     60  O   UNL A   1      33.904  36.233  28.002  1.00  0.00    -0.237 OA
ATOM     61  O   UNL A   1      32.576  34.147  28.025  1.00  0.00    -0.237 OA
ATOM     62  O   UNL A   1      32.440  35.712  29.923  1.00  0.00    -0.744 OA
ENDBRANCH  58  59
ENDBRANCH  26  51
BRANCH  38  63
ATOM     63  C   UNL A   1      39.662  33.873  37.121  1.00  0.00     0.058 A 
ATOM     64  C   UNL A   1      38.812  33.515  38.178  1.00  0.00     0.135 A 
ATOM     65  C   UNL A   1      40.294  35.125  37.179  1.00  0.00     0.135 A 
ATOM     66  F   UNL A   1      38.174  32.334  38.162  1.00  0.00    -0.206 F 
ATOM     67  C   UNL A   1      38.584  34.374  39.248  1.00  0.00     0.059 A 
ATOM     68  C   UNL A   1      40.100  35.990  38.251  1.00  0.00     0.059 A 
ATOM     69  F   UNL A   1      41.122  35.511  36.196  1.00  0.00    -0.206 F 
ATOM     70  C   UNL A   1      39.235  35.608  39.277  1.00  0.00     0.060 A 
BRANCH  70  71
ATOM     71  S   UNL A   1      38.966  36.697  40.692  1.00  0.00     0.124 S 
ATOM     72  O   UNL A   1      38.108  35.873  41.537  1.00  0.00    -0.237 OA
ATOM     73  O   UNL A   1      40.323  36.911  41.184  1.00  0.00    -0.237 OA
ATOM     74  O   UNL A   1      38.328  37.869  40.102  1.00  0.00    -0.744 OA
ENDBRANCH  70  71
ENDBRANCH  38  63
ENDBRANCH  12  13
ENDBRANCH   5   7
ENDBRANCH   2   3
ENDBRANCH   1   2
BRANCH   1  75
ATOM     75  C   UNL A   1      38.910  21.686  25.751  1.00  0.00     0.023 C 
BRANCH  75  76
ATOM     76  C   UNL A   1      37.827  22.761  25.714  1.00  0.00     0.116 C 
BRANCH  76  77
ATOM     77  N   UNL A   1      37.243  22.904  24.390  1.00  0.00    -0.356 N 
ATOM     78  C   UNL A   1      35.989  23.272  24.005  1.00  0.00     0.224 C 
ATOM     79  H   UNL A   1      37.857  22.702  23.648  1.00  0.00     0.163 HD
ATOM     80  O   UNL A   1      35.758  23.384  22.800  1.00  0.00    -0.275 OA
BRANCH  78  81
ATOM     81  C   UNL A   1      34.928  23.573  25.048  1.00  0.00     0.096 C 
ATOM     82  C   UNL A   1      33.798  22.543  25.057  1.00  0.00     0.015 C 
ATOM     83  C   UNL A   1      34.369  25.001  24.903  1.00  0.00     0.082 C 
ATOM     84  C   UNL A   1      32.909  22.778  26.279  1.00  0.00     0.001 C 
ATOM     85  C   UNL A   1      33.467  25.276  26.108  1.00  0.00     0.021 C 
ATOM     86  C   UNL A   1      32.400  24.214  26.385  1.00  0.00     0.002 C 
BRANCH  83  87
ATOM     87  N   UNL A   1      33.815  25.230  23.555  1.00  0.00    -0.207 NA
ATOM     88  H   UNL A   1      32.928  24.726  23.573  1.00  0.00     0.141 HD
BRANCH  87  89
ATOM     89  S   UNL A   1      33.459  26.623  22.727  1.00  0.00     0.240 S 
ATOM     90  O   UNL A   1      34.095  27.699  23.447  1.00  0.00    -0.207 OA
ATOM     91  O   UNL A   1      33.737  26.415  21.319  1.00  0.00    -0.207 OA
BRANCH  89  92
ATOM     92  C   UNL A   1      31.713  26.835  22.933  1.00  0.00     0.083 A 
ATOM     93  C   UNL A   1      30.963  25.824  23.536  1.00  0.00     0.022 A 
ATOM     94  C   UNL A   1      31.116  28.032  22.530  1.00  0.00     0.030 A 
ATOM     95  C   UNL A   1      29.610  26.038  23.798  1.00  0.00     0.010 A 
ATOM     96  C   UNL A   1      29.752  28.248  22.779  1.00  0.00    -0.017 A 
ATOM     97  C   UNL A   1      28.995  27.246  23.436  1.00  0.00    -0.018 A 
ATOM     98  C   UNL A   1      29.124  29.445  22.403  1.00  0.00     0.009 A 
ATOM     99  C   UNL A   1      27.641  27.481  23.718  1.00  0.00     0.009 A 
ATOM    100  C   UNL A   1      27.773  29.658  22.684  1.00  0.00     0.001 A 
ATOM    101  C   UNL A   1      27.035  28.682  23.346  1.00  0.00     0.001 A 
ENDBRANCH  89  92
ENDBRANCH  87  89
ENDBRANCH  83  87
ENDBRANCH  78  81
ENDBRANCH  76  77
ENDBRANCH  75  76
ENDBRANCH   1  75
TORSDOF 17
ENDMDL
