MODEL 1
REMARK VINA RESULT:     -11.9      0.000      0.000
REMARK SMILES COc1ccccc1-c1ccc(C(=O)NCCCCNC(=O)c2ccc(-c3c4nc(c(-c5c(F)cc(S(=O)(=O)[O-])cc5F)c5ccc([nH]5)c(-c5c(F)cc(S(=O)(=O)[O-])cc5F)c5nc(c(-c6c(F)cc(S(=O)(=O)[O-])cc6F)c6ccc3[nH]6)C=C5)C=C4)cc2)c(O)c1
REMARK SMILES IDX 18 1 17 2 16 3 15 4 13 5 14 6 12 8 9 9 10 10 91 11 11 12
REMARK SMILES IDX 89 13 8 14 3 15 4 16 5 17 7 18 6 19 2 20 1 21 90 22 19 24
REMARK SMILES IDX 20 25 21 26 22 28 23 29 24 30 88 31 25 32 87 33 26 34 27 35
REMARK SMILES IDX 28 36 81 37 29 38 86 39 80 40 82 41 30 42 85 43 79 44 78 45
REMARK SMILES IDX 31 47 65 48 44 49 64 50 45 51 48 52 63 53 83 54 46 55 47 56
REMARK SMILES IDX 62 58 84 59 49 60 32 61 33 62 42 63 34 64 35 65 41 66 43 67
REMARK SMILES IDX 36 68 37 69 38 70 39 71 40 72 66 73 67 74 76 75 68 76 69 77
REMARK SMILES IDX 75 78 77 79 70 80 71 81 72 82 73 83 74 84 50 85 51 86 60 87
REMARK SMILES IDX 52 88 53 89 59 90 61 91 54 92 55 93 56 94 57 95 58 96
REMARK H PARENT 15 7 90 23 20 27 82 46 48 57
REMARK Flexibility Score: inf
ROOT
ATOM      1  C   UNL A   1      40.776  22.158  27.632  1.00  0.00     0.023 C 
ENDROOT
BRANCH   1   2
ATOM      2  C   UNL A   1      40.120  21.596  26.375  1.00  0.00     0.023 C 
BRANCH   2   3
ATOM      3  C   UNL A   1      38.740  22.175  26.048  1.00  0.00     0.116 C 
BRANCH   3   4
ATOM      4  N   UNL A   1      37.874  21.142  25.520  1.00  0.00    -0.352 N 
ATOM      5  C   UNL A   1      36.511  21.086  25.377  1.00  0.00     0.255 C 
ATOM      6  O   UNL A   1      36.037  20.036  24.937  1.00  0.00    -0.269 OA
ATOM      7  H   UNL A   1      38.348  20.338  25.208  1.00  0.00     0.163 HD
BRANCH   5   8
ATOM      8  C   UNL A   1      35.586  22.234  25.611  1.00  0.00     0.081 A 
ATOM      9  C   UNL A   1      33.957  24.554  25.779  1.00  0.00    -0.011 A 
ATOM     10  C   UNL A   1      34.843  24.390  24.711  1.00  0.00     0.010 A 
ATOM     11  C   UNL A   1      33.859  23.532  26.728  1.00  0.00     0.055 A 
ATOM     12  C   UNL A   1      35.652  23.252  24.637  1.00  0.00     0.018 A 
ATOM     13  C   UNL A   1      34.641  22.377  26.631  1.00  0.00     0.128 A 
BRANCH   9  14
ATOM     14  C   UNL A   1      33.127  25.752  25.929  1.00  0.00     0.024 A 
ATOM     15  C   UNL A   1      31.731  25.736  25.740  1.00  0.00     0.126 A 
ATOM     16  C   UNL A   1      31.003  26.929  25.727  1.00  0.00     0.047 A 
ATOM     17  C   UNL A   1      31.646  28.147  25.935  1.00  0.00     0.004 A 
ATOM     18  C   UNL A   1      33.755  26.991  26.149  1.00  0.00     0.012 A 
ATOM     19  C   UNL A   1      33.020  28.180  26.151  1.00  0.00     0.001 A 
BRANCH  15  20
ATOM     20  O   UNL A   1      31.007  24.606  25.443  1.00  0.00    -0.496 OA
ATOM     21  C   UNL A   1      30.701  24.482  24.053  1.00  0.00     0.278 C 
ENDBRANCH  15  20
ENDBRANCH   9  14
BRANCH  13  22
ATOM     22  O   UNL A   1      34.388  21.399  27.544  1.00  0.00    -0.507 OA
ATOM     23  H   UNL A   1      33.572  20.940  27.524  1.00  0.00     0.293 HD
ENDBRANCH  13  22
ENDBRANCH   5   8
ENDBRANCH   3   4
ENDBRANCH   2   3
ENDBRANCH   1   2
BRANCH   1  24
ATOM     24  C   UNL A   1      41.925  23.119  27.372  1.00  0.00     0.116 C 
BRANCH  24  25
ATOM     25  N   UNL A   1      41.744  23.928  26.176  1.00  0.00    -0.352 N 
ATOM     26  C   UNL A   1      41.462  25.271  26.094  1.00  0.00     0.251 C 
ATOM     27  H   UNL A   1      41.836  23.455  25.318  1.00  0.00     0.163 HD
ATOM     28  O   UNL A   1      41.245  25.795  25.006  1.00  0.00    -0.269 OA
BRANCH  26  29
ATOM     29  C   UNL A   1      41.378  26.059  27.340  1.00  0.00     0.039 A 
ATOM     30  C   UNL A   1      42.372  27.001  27.608  1.00  0.00     0.014 A 
ATOM     31  C   UNL A   1      40.286  25.911  28.200  1.00  0.00     0.014 A 
ATOM     32  C   UNL A   1      42.234  27.847  28.707  1.00  0.00     0.010 A 
ATOM     33  C   UNL A   1      40.112  26.807  29.248  1.00  0.00     0.010 A 
ATOM     34  C   UNL A   1      41.084  27.782  29.513  1.00  0.00    -0.014 A 
BRANCH  34  35
ATOM     35  C   UNL A   1      40.884  28.727  30.637  1.00  0.00     0.031 A 
ATOM     36  C   UNL A   1      41.724  28.608  31.878  1.00  0.00     0.074 A 
ATOM     37  C   UNL A   1      39.904  29.648  30.564  1.00  0.00     0.049 A 
ATOM     38  N   UNL A   1      41.673  29.311  32.980  1.00  0.00    -0.248 NA
ATOM     39  C   UNL A   1      42.738  27.540  31.894  1.00  0.00     0.031 C 
ATOM     40  C   UNL A   1      38.980  29.815  29.439  1.00  0.00     0.029 A 
ATOM     41  N   UNL A   1      39.516  30.616  31.456  1.00  0.00    -0.354 N 
ATOM     42  C   UNL A   1      42.633  28.762  33.823  1.00  0.00     0.074 A 
ATOM     43  C   UNL A   1      43.212  27.634  33.127  1.00  0.00     0.031 C 
ATOM     44  C   UNL A   1      38.151  30.839  29.697  1.00  0.00     0.029 A 
ATOM     45  C   UNL A   1      38.463  31.384  31.015  1.00  0.00     0.049 A 
ATOM     46  H   UNL A   1      39.949  30.747  32.329  1.00  0.00     0.167 HD
ATOM     47  C   UNL A   1      43.014  29.178  35.053  1.00  0.00     0.037 A 
ATOM     48  C   UNL A   1      37.827  32.413  31.606  1.00  0.00     0.037 A 
ATOM     49  C   UNL A   1      42.455  30.321  35.725  1.00  0.00     0.049 A 
ATOM     50  C   UNL A   1      38.290  32.876  32.960  1.00  0.00     0.074 A 
ATOM     51  C   UNL A   1      42.816  30.867  36.945  1.00  0.00     0.029 A 
ATOM     52  N   UNL A   1      41.415  31.096  35.232  1.00  0.00    -0.354 N 
ATOM     53  N   UNL A   1      39.248  32.391  33.714  1.00  0.00    -0.248 NA
ATOM     54  C   UNL A   1      37.593  34.032  33.539  1.00  0.00     0.031 C 
ATOM     55  C   UNL A   1      41.970  31.952  37.204  1.00  0.00     0.029 A 
ATOM     56  C   UNL A   1      41.111  32.108  36.128  1.00  0.00     0.049 A 
ATOM     57  H   UNL A   1      40.959  30.950  34.372  1.00  0.00     0.167 HD
ATOM     58  C   UNL A   1      39.285  33.196  34.846  1.00  0.00     0.074 A 
ATOM     59  C   UNL A   1      38.263  34.208  34.671  1.00  0.00     0.031 C 
ATOM     60  C   UNL A   1      40.090  33.106  35.934  1.00  0.00     0.037 A 
BRANCH  47  61
ATOM     61  C   UNL A   1      44.098  28.397  35.742  1.00  0.00     0.058 A 
ATOM     62  C   UNL A   1      45.458  28.692  35.543  1.00  0.00     0.135 A 
ATOM     63  C   UNL A   1      43.779  27.354  36.626  1.00  0.00     0.135 A 
ATOM     64  F   UNL A   1      45.820  29.668  34.695  1.00  0.00    -0.206 F 
ATOM     65  C   UNL A   1      46.461  27.961  36.168  1.00  0.00     0.059 A 
ATOM     66  C   UNL A   1      44.767  26.627  37.284  1.00  0.00     0.059 A 
ATOM     67  F   UNL A   1      42.497  27.029  36.853  1.00  0.00    -0.206 F 
ATOM     68  C   UNL A   1      46.106  26.927  37.036  1.00  0.00     0.060 A 
BRANCH  68  69
ATOM     69  S   UNL A   1      47.419  25.985  37.840  1.00  0.00     0.124 S 
ATOM     70  O   UNL A   1      47.402  24.746  37.067  1.00  0.00    -0.237 OA
ATOM     71  O   UNL A   1      48.585  26.840  37.639  1.00  0.00    -0.237 OA
ATOM     72  O   UNL A   1      46.959  25.871  39.220  1.00  0.00    -0.744 OA
ENDBRANCH  68  69
ENDBRANCH  47  61
BRANCH  48  73
ATOM     73  C   UNL A   1      36.711  33.099  30.902  1.00  0.00     0.058 A 
ATOM     74  C   UNL A   1      35.377  32.850  31.255  1.00  0.00     0.135 A 
ATOM     75  C   UNL A   1      36.956  34.028  29.880  1.00  0.00     0.135 A 
ATOM     76  F   UNL A   1      35.094  31.966  32.224  1.00  0.00    -0.206 F 
ATOM     77  C   UNL A   1      34.321  33.483  30.609  1.00  0.00     0.059 A 
ATOM     78  C   UNL A   1      35.917  34.693  29.233  1.00  0.00     0.059 A 
ATOM     79  F   UNL A   1      38.215  34.315  29.518  1.00  0.00    -0.206 F 
ATOM     80  C   UNL A   1      34.602  34.406  29.598  1.00  0.00     0.060 A 
BRANCH  80  81
ATOM     81  S   UNL A   1      33.227  35.262  28.800  1.00  0.00     0.124 S 
ATOM     82  O   UNL A   1      32.609  34.181  28.043  1.00  0.00    -0.237 OA
ATOM     83  O   UNL A   1      32.467  35.757  29.943  1.00  0.00    -0.237 OA
ATOM     84  O   UNL A   1      33.891  36.291  28.005  1.00  0.00    -0.744 OA
ENDBRANCH  80  81
ENDBRANCH  48  73
BRANCH  60  85
ATOM     85  C   UNL A   1      39.915  34.146  37.005  1.00  0.00     0.058 A 
ATOM     86  C   UNL A   1      40.630  35.353  36.983  1.00  0.00     0.135 A 
ATOM     87  C   UNL A   1      38.993  33.945  38.045  1.00  0.00     0.135 A 
ATOM     88  F   UNL A   1      41.527  35.589  36.012  1.00  0.00    -0.206 F 
ATOM     89  C   UNL A   1      40.459  36.315  37.972  1.00  0.00     0.059 A 
ATOM     90  C   UNL A   1      38.788  34.905  39.031  1.00  0.00     0.059 A 
ATOM     91  F   UNL A   1      38.276  32.812  38.105  1.00  0.00    -0.206 F 
ATOM     92  C   UNL A   1      39.537  36.081  38.994  1.00  0.00     0.060 A 
BRANCH  92  93
ATOM     93  S   UNL A   1      39.308  37.345  40.263  1.00  0.00     0.124 S 
ATOM     94  O   UNL A   1      38.686  36.575  41.334  1.00  0.00    -0.237 OA
ATOM     95  O   UNL A   1      40.675  37.790  40.513  1.00  0.00    -0.237 OA
ATOM     96  O   UNL A   1      38.446  38.326  39.611  1.00  0.00    -0.744 OA
ENDBRANCH  92  93
ENDBRANCH  60  85
ENDBRANCH  34  35
ENDBRANCH  26  29
ENDBRANCH  24  25
ENDBRANCH   1  24
TORSDOF 17
ENDMDL
MODEL 2
REMARK VINA RESULT:     -11.8      4.904     10.509
REMARK SMILES COc1ccccc1-c1ccc(C(=O)NCCCCNC(=O)c2ccc(-c3c4nc(c(-c5c(F)cc(S(=O)(=O)[O-])cc5F)c5ccc([nH]5)c(-c5c(F)cc(S(=O)(=O)[O-])cc5F)c5nc(c(-c6c(F)cc(S(=O)(=O)[O-])cc6F)c6ccc3[nH]6)C=C5)C=C4)cc2)c(O)c1
REMARK SMILES IDX 18 1 17 2 16 3 15 4 13 5 14 6 12 8 9 9 10 10 91 11 11 12
REMARK SMILES IDX 89 13 8 14 3 15 4 16 5 17 7 18 6 19 2 20 1 21 90 22 19 24
REMARK SMILES IDX 20 25 21 26 22 28 23 29 24 30 88 31 25 32 87 33 26 34 27 35
REMARK SMILES IDX 28 36 81 37 29 38 86 39 80 40 82 41 30 42 85 43 79 44 78 45
REMARK SMILES IDX 31 47 65 48 44 49 64 50 45 51 48 52 63 53 83 54 46 55 47 56
REMARK SMILES IDX 62 58 84 59 49 60 32 61 33 62 42 63 34 64 35 65 41 66 43 67
REMARK SMILES IDX 36 68 37 69 38 70 39 71 40 72 66 73 67 74 76 75 68 76 69 77
REMARK SMILES IDX 75 78 77 79 70 80 71 81 72 82 73 83 74 84 50 85 51 86 60 87
REMARK SMILES IDX 52 88 53 89 59 90 61 91 54 92 55 93 56 94 57 95 58 96
REMARK H PARENT 15 7 90 23 20 27 82 46 48 57
REMARK Flexibility Score: inf
ROOT
ATOM      1  C   UNL A   1      33.938  28.506  25.669  1.00  0.00     0.023 C 
ENDROOT
BRANCH   1   2
ATOM      2  C   UNL A   1      32.998  29.354  24.819  1.00  0.00     0.023 C 
BRANCH   2   3
ATOM      3  C   UNL A   1      31.505  29.107  25.057  1.00  0.00     0.116 C 
BRANCH   3   4
ATOM      4  N   UNL A   1      30.860  28.703  23.826  1.00  0.00    -0.352 N 
ATOM      5  C   UNL A   1      31.118  27.667  22.964  1.00  0.00     0.255 C 
ATOM      6  O   UNL A   1      30.424  27.600  21.946  1.00  0.00    -0.269 OA
ATOM      7  H   UNL A   1      30.102  29.272  23.561  1.00  0.00     0.163 HD
BRANCH   5   8
ATOM      8  C   UNL A   1      32.095  26.569  23.226  1.00  0.00     0.081 A 
ATOM      9  C   UNL A   1      33.771  24.412  24.000  1.00  0.00    -0.011 A 
ATOM     10  C   UNL A   1      32.638  24.728  24.751  1.00  0.00     0.010 A 
ATOM     11  C   UNL A   1      34.030  25.148  22.839  1.00  0.00     0.055 A 
ATOM     12  C   UNL A   1      31.820  25.798  24.374  1.00  0.00     0.018 A 
ATOM     13  C   UNL A   1      33.190  26.193  22.443  1.00  0.00     0.128 A 
BRANCH   9  14
ATOM     14  C   UNL A   1      34.687  23.335  24.382  1.00  0.00     0.024 A 
ATOM     15  C   UNL A   1      34.333  21.973  24.299  1.00  0.00     0.126 A 
ATOM     16  C   UNL A   1      35.172  20.989  24.831  1.00  0.00     0.047 A 
ATOM     17  C   UNL A   1      36.385  21.341  25.419  1.00  0.00     0.004 A 
ATOM     18  C   UNL A   1      35.921  23.667  24.970  1.00  0.00     0.012 A 
ATOM     19  C   UNL A   1      36.763  22.678  25.485  1.00  0.00     0.001 A 
BRANCH  15  20
ATOM     20  O   UNL A   1      33.130  21.518  23.818  1.00  0.00    -0.496 OA
ATOM     21  C   UNL A   1      32.311  20.920  24.824  1.00  0.00     0.278 C 
ENDBRANCH  15  20
ENDBRANCH   9  14
BRANCH  13  22
ATOM     22  O   UNL A   1      33.470  26.770  21.243  1.00  0.00    -0.507 OA
ATOM     23  H   UNL A   1      34.318  26.665  20.859  1.00  0.00     0.293 HD
ENDBRANCH  13  22
ENDBRANCH   5   8
ENDBRANCH   3   4
ENDBRANCH   2   3
ENDBRANCH   1   2
BRANCH   1  24
ATOM     24  C   UNL A   1      33.678  28.577  27.165  1.00  0.00     0.116 C 
BRANCH  24  25
ATOM     25  N   UNL A   1      33.554  29.938  27.667  1.00  0.00    -0.352 N 
ATOM     26  C   UNL A   1      34.506  30.698  28.303  1.00  0.00     0.251 C 
ATOM     27  H   UNL A   1      32.678  30.368  27.535  1.00  0.00     0.163 HD
ATOM     28  O   UNL A   1      34.220  31.803  28.754  1.00  0.00    -0.269 OA
BRANCH  26  29
ATOM     29  C   UNL A   1      35.863  30.143  28.475  1.00  0.00     0.039 A 
ATOM     30  C   UNL A   1      36.752  30.193  27.400  1.00  0.00     0.014 A 
ATOM     31  C   UNL A   1      36.272  29.640  29.714  1.00  0.00     0.014 A 
ATOM     32  C   UNL A   1      38.076  29.800  27.588  1.00  0.00     0.010 A 
ATOM     33  C   UNL A   1      37.610  29.324  29.919  1.00  0.00     0.010 A 
ATOM     34  C   UNL A   1      38.523  29.399  28.858  1.00  0.00    -0.014 A 
BRANCH  34  35
ATOM     35  C   UNL A   1      39.946  29.055  29.095  1.00  0.00     0.031 A 
ATOM     36  C   UNL A   1      40.883  30.082  29.668  1.00  0.00     0.074 A 
ATOM     37  C   UNL A   1      40.405  27.841  28.734  1.00  0.00     0.049 A 
ATOM     38  N   UNL A   1      42.164  29.987  29.909  1.00  0.00    -0.248 NA
ATOM     39  C   UNL A   1      40.308  31.400  29.986  1.00  0.00     0.031 C 
ATOM     40  C   UNL A   1      39.606  26.785  28.106  1.00  0.00     0.029 A 
ATOM     41  N   UNL A   1      41.657  27.290  28.837  1.00  0.00    -0.354 N 
ATOM     42  C   UNL A   1      42.552  31.232  30.391  1.00  0.00     0.074 A 
ATOM     43  C   UNL A   1      41.382  32.082  30.355  1.00  0.00     0.031 C 
ATOM     44  C   UNL A   1      40.380  25.707  27.904  1.00  0.00     0.029 A 
ATOM     45  C   UNL A   1      41.735  26.001  28.361  1.00  0.00     0.049 A 
ATOM     46  H   UNL A   1      42.427  27.771  29.215  1.00  0.00     0.167 HD
ATOM     47  C   UNL A   1      43.765  31.621  30.847  1.00  0.00     0.037 A 
ATOM     48  C   UNL A   1      42.780  25.155  28.304  1.00  0.00     0.037 A 
ATOM     49  C   UNL A   1      44.916  30.759  30.909  1.00  0.00     0.049 A 
ATOM     50  C   UNL A   1      44.111  25.600  28.845  1.00  0.00     0.074 A 
ATOM     51  C   UNL A   1      46.174  31.036  31.414  1.00  0.00     0.029 A 
ATOM     52  N   UNL A   1      44.947  29.450  30.450  1.00  0.00    -0.354 N 
ATOM     53  N   UNL A   1      44.443  26.759  29.364  1.00  0.00    -0.248 NA
ATOM     54  C   UNL A   1      45.206  24.622  28.802  1.00  0.00     0.031 C 
ATOM     55  C   UNL A   1      46.976  29.904  31.230  1.00  0.00     0.029 A 
ATOM     56  C   UNL A   1      46.207  28.909  30.648  1.00  0.00     0.049 A 
ATOM     57  H   UNL A   1      44.187  28.975  30.044  1.00  0.00     0.167 HD
ATOM     58  C   UNL A   1      45.778  26.641  29.731  1.00  0.00     0.074 A 
ATOM     59  C   UNL A   1      46.188  25.295  29.388  1.00  0.00     0.031 C 
ATOM     60  C   UNL A   1      46.593  27.565  30.300  1.00  0.00     0.037 A 
BRANCH  47  61
ATOM     61  C   UNL A   1      43.901  33.039  31.327  1.00  0.00     0.058 A 
ATOM     62  C   UNL A   1      44.321  34.069  30.468  1.00  0.00     0.135 A 
ATOM     63  C   UNL A   1      43.593  33.380  32.653  1.00  0.00     0.135 A 
ATOM     64  F   UNL A   1      44.646  33.796  29.194  1.00  0.00    -0.206 F 
ATOM     65  C   UNL A   1      44.462  35.379  30.914  1.00  0.00     0.059 A 
ATOM     66  C   UNL A   1      43.700  34.689  33.114  1.00  0.00     0.059 A 
ATOM     67  F   UNL A   1      43.189  32.436  33.517  1.00  0.00    -0.206 F 
ATOM     68  C   UNL A   1      44.152  35.679  32.242  1.00  0.00     0.060 A 
BRANCH  68  69
ATOM     69  S   UNL A   1      44.340  37.382  32.808  1.00  0.00     0.124 S 
ATOM     70  O   UNL A   1      45.772  37.438  33.088  1.00  0.00    -0.237 OA
ATOM     71  O   UNL A   1      43.891  38.148  31.650  1.00  0.00    -0.237 OA
ATOM     72  O   UNL A   1      43.468  37.450  33.976  1.00  0.00    -0.744 OA
ENDBRANCH  68  69
ENDBRANCH  47  61
BRANCH  48  73
ATOM     73  C   UNL A   1      42.599  23.787  27.750  1.00  0.00     0.058 A 
ATOM     74  C   UNL A   1      42.459  22.679  28.597  1.00  0.00     0.135 A 
ATOM     75  C   UNL A   1      42.542  23.564  26.365  1.00  0.00     0.135 A 
ATOM     76  F   UNL A   1      42.511  22.844  29.928  1.00  0.00    -0.206 F 
ATOM     77  C   UNL A   1      42.288  21.394  28.096  1.00  0.00     0.059 A 
ATOM     78  C   UNL A   1      42.348  22.289  25.839  1.00  0.00     0.059 A 
ATOM     79  F   UNL A   1      42.652  24.592  25.512  1.00  0.00    -0.206 F 
ATOM     80  C   UNL A   1      42.232  21.209  26.713  1.00  0.00     0.060 A 
BRANCH  80  81
ATOM     81  S   UNL A   1      41.957  19.543  26.072  1.00  0.00     0.124 S 
ATOM     82  O   UNL A   1      42.831  19.530  24.905  1.00  0.00    -0.237 OA
ATOM     83  O   UNL A   1      42.375  18.708  27.193  1.00  0.00    -0.237 OA
ATOM     84  O   UNL A   1      40.525  19.527  25.789  1.00  0.00    -0.744 OA
ENDBRANCH  80  81
ENDBRANCH  48  73
BRANCH  60  85
ATOM     85  C   UNL A   1      48.001  27.138  30.610  1.00  0.00     0.058 A 
ATOM     86  C   UNL A   1      49.035  27.278  29.673  1.00  0.00     0.135 A 
ATOM     87  C   UNL A   1      48.323  26.616  31.874  1.00  0.00     0.135 A 
ATOM     88  F   UNL A   1      48.777  27.767  28.450  1.00  0.00    -0.206 F 
ATOM     89  C   UNL A   1      50.338  26.889  29.967  1.00  0.00     0.059 A 
ATOM     90  C   UNL A   1      49.623  26.244  32.198  1.00  0.00     0.059 A 
ATOM     91  F   UNL A   1      47.371  26.473  32.809  1.00  0.00    -0.206 F 
ATOM     92  C   UNL A   1      50.622  26.370  31.232  1.00  0.00     0.060 A 
BRANCH  92  93
ATOM     93  S   UNL A   1      52.319  25.886  31.611  1.00  0.00     0.124 S 
ATOM     94  O   UNL A   1      52.144  24.494  32.008  1.00  0.00    -0.237 OA
ATOM     95  O   UNL A   1      52.999  26.101  30.337  1.00  0.00    -0.237 OA
ATOM     96  O   UNL A   1      52.702  26.802  32.680  1.00  0.00    -0.744 OA
ENDBRANCH  92  93
ENDBRANCH  60  85
ENDBRANCH  34  35
ENDBRANCH  26  29
ENDBRANCH  24  25
ENDBRANCH   1  24
TORSDOF 17
ENDMDL
MODEL 3
REMARK VINA RESULT:     -11.6      3.080      4.223
REMARK SMILES COc1ccccc1-c1ccc(C(=O)NCCCCNC(=O)c2ccc(-c3c4nc(c(-c5c(F)cc(S(=O)(=O)[O-])cc5F)c5ccc([nH]5)c(-c5c(F)cc(S(=O)(=O)[O-])cc5F)c5nc(c(-c6c(F)cc(S(=O)(=O)[O-])cc6F)c6ccc3[nH]6)C=C5)C=C4)cc2)c(O)c1
REMARK SMILES IDX 18 1 17 2 16 3 15 4 13 5 14 6 12 8 9 9 10 10 91 11 11 12
REMARK SMILES IDX 89 13 8 14 3 15 4 16 5 17 7 18 6 19 2 20 1 21 90 22 19 24
REMARK SMILES IDX 20 25 21 26 22 28 23 29 24 30 88 31 25 32 87 33 26 34 27 35
REMARK SMILES IDX 28 36 81 37 29 38 86 39 80 40 82 41 30 42 85 43 79 44 78 45
REMARK SMILES IDX 31 47 65 48 44 49 64 50 45 51 48 52 63 53 83 54 46 55 47 56
REMARK SMILES IDX 62 58 84 59 49 60 32 61 33 62 42 63 34 64 35 65 41 66 43 67
REMARK SMILES IDX 36 68 37 69 38 70 39 71 40 72 66 73 67 74 76 75 68 76 69 77
REMARK SMILES IDX 75 78 77 79 70 80 71 81 72 82 73 83 74 84 50 85 51 86 60 87
REMARK SMILES IDX 52 88 53 89 59 90 61 91 54 92 55 93 56 94 57 95 58 96
REMARK H PARENT 15 7 90 23 20 27 82 46 48 57
REMARK Flexibility Score: inf
ROOT
ATOM      1  C   UNL A   1      35.422  23.330  25.728  1.00  0.00     0.023 C 
ENDROOT
BRANCH   1   2
ATOM      2  C   UNL A   1      35.512  22.091  26.614  1.00  0.00     0.023 C 
BRANCH   2   3
ATOM      3  C   UNL A   1      34.195  21.665  27.271  1.00  0.00     0.116 C 
BRANCH   3   4
ATOM      4  N   UNL A   1      33.500  20.714  26.430  1.00  0.00    -0.352 N 
ATOM      5  C   UNL A   1      32.434  20.864  25.579  1.00  0.00     0.255 C 
ATOM      6  O   UNL A   1      32.013  19.845  25.025  1.00  0.00    -0.269 OA
ATOM      7  H   UNL A   1      33.855  19.797  26.478  1.00  0.00     0.163 HD
BRANCH   5   8
ATOM      8  C   UNL A   1      31.829  22.175  25.200  1.00  0.00     0.081 A 
ATOM      9  C   UNL A   1      30.768  24.595  24.162  1.00  0.00    -0.011 A 
ATOM     10  C   UNL A   1      31.332  23.648  23.304  1.00  0.00     0.010 A 
ATOM     11  C   UNL A   1      30.696  24.301  25.527  1.00  0.00     0.055 A 
ATOM     12  C   UNL A   1      31.865  22.462  23.820  1.00  0.00     0.018 A 
ATOM     13  C   UNL A   1      31.194  23.098  26.035  1.00  0.00     0.128 A 
BRANCH   9  14
ATOM     14  C   UNL A   1      30.245  25.874  23.677  1.00  0.00     0.024 A 
ATOM     15  C   UNL A   1      31.070  26.867  23.114  1.00  0.00     0.126 A 
ATOM     16  C   UNL A   1      30.558  28.134  22.820  1.00  0.00     0.047 A 
ATOM     17  C   UNL A   1      29.213  28.419  23.050  1.00  0.00     0.004 A 
ATOM     18  C   UNL A   1      28.888  26.179  23.890  1.00  0.00     0.012 A 
ATOM     19  C   UNL A   1      28.376  27.442  23.579  1.00  0.00     0.001 A 
BRANCH  15  20
ATOM     20  O   UNL A   1      32.424  26.726  22.923  1.00  0.00    -0.496 OA
ATOM     21  C   UNL A   1      33.122  27.972  22.898  1.00  0.00     0.278 C 
ENDBRANCH  15  20
ENDBRANCH   9  14
BRANCH  13  22
ATOM     22  O   UNL A   1      30.974  22.865  27.358  1.00  0.00    -0.507 OA
ATOM     23  H   UNL A   1      30.606  22.050  27.636  1.00  0.00     0.293 HD
ENDBRANCH  13  22
ENDBRANCH   5   8
ENDBRANCH   3   4
ENDBRANCH   2   3
ENDBRANCH   1   2
BRANCH   1  24
ATOM     24  C   UNL A   1      36.750  23.798  25.155  1.00  0.00     0.116 C 
BRANCH  24  25
ATOM     25  N   UNL A   1      37.825  22.830  25.321  1.00  0.00    -0.352 N 
ATOM     26  C   UNL A   1      39.015  22.989  25.991  1.00  0.00     0.251 C 
ATOM     27  H   UNL A   1      37.682  21.952  24.900  1.00  0.00     0.163 HD
ATOM     28  O   UNL A   1      39.866  22.107  25.963  1.00  0.00    -0.269 OA
BRANCH  26  29
ATOM     29  C   UNL A   1      39.267  24.258  26.704  1.00  0.00     0.039 A 
ATOM     30  C   UNL A   1      38.773  24.410  28.000  1.00  0.00     0.014 A 
ATOM     31  C   UNL A   1      40.045  25.259  26.116  1.00  0.00     0.014 A 
ATOM     32  C   UNL A   1      39.119  25.543  28.736  1.00  0.00     0.010 A 
ATOM     33  C   UNL A   1      40.453  26.348  26.877  1.00  0.00     0.010 A 
ATOM     34  C   UNL A   1      39.993  26.501  28.193  1.00  0.00    -0.014 A 
BRANCH  34  35
ATOM     35  C   UNL A   1      40.436  27.671  28.989  1.00  0.00     0.031 A 
ATOM     36  C   UNL A   1      41.774  27.650  29.674  1.00  0.00     0.074 A 
ATOM     37  C   UNL A   1      39.606  28.720  29.146  1.00  0.00     0.049 A 
ATOM     38  N   UNL A   1      42.320  28.554  30.445  1.00  0.00    -0.248 NA
ATOM     39  C   UNL A   1      42.595  26.441  29.492  1.00  0.00     0.031 C 
ATOM     40  C   UNL A   1      38.256  28.825  28.585  1.00  0.00     0.029 A 
ATOM     41  N   UNL A   1      39.772  29.899  29.828  1.00  0.00    -0.354 N 
ATOM     42  C   UNL A   1      43.538  28.019  30.851  1.00  0.00     0.074 A 
ATOM     43  C   UNL A   1      43.625  26.691  30.286  1.00  0.00     0.031 C 
ATOM     44  C   UNL A   1      37.729  30.013  28.924  1.00  0.00     0.029 A 
ATOM     45  C   UNL A   1      38.688  30.742  29.748  1.00  0.00     0.049 A 
ATOM     46  H   UNL A   1      40.590  30.120  30.328  1.00  0.00     0.167 HD
ATOM     47  C   UNL A   1      44.506  28.595  31.602  1.00  0.00     0.037 A 
ATOM     48  C   UNL A   1      38.493  31.964  30.276  1.00  0.00     0.037 A 
ATOM     49  C   UNL A   1      44.424  29.930  32.132  1.00  0.00     0.049 A 
ATOM     50  C   UNL A   1      39.596  32.596  31.081  1.00  0.00     0.074 A 
ATOM     51  C   UNL A   1      45.376  30.632  32.851  1.00  0.00     0.029 A 
ATOM     52  N   UNL A   1      43.325  30.767  32.001  1.00  0.00    -0.354 N 
ATOM     53  N   UNL A   1      40.771  32.104  31.396  1.00  0.00    -0.248 NA
ATOM     54  C   UNL A   1      39.351  33.950  31.595  1.00  0.00     0.031 C 
ATOM     55  C   UNL A   1      44.839  31.881  33.182  1.00  0.00     0.029 A 
ATOM     56  C   UNL A   1      43.569  31.974  32.636  1.00  0.00     0.049 A 
ATOM     57  H   UNL A   1      42.494  30.538  31.526  1.00  0.00     0.167 HD
ATOM     58  C   UNL A   1      41.415  33.098  32.125  1.00  0.00     0.074 A 
ATOM     59  C   UNL A   1      40.504  34.222  32.192  1.00  0.00     0.031 C 
ATOM     60  C   UNL A   1      42.649  33.081  32.689  1.00  0.00     0.037 A 
BRANCH  47  61
ATOM     61  C   UNL A   1      45.740  27.784  31.880  1.00  0.00     0.058 A 
ATOM     62  C   UNL A   1      45.843  26.969  33.020  1.00  0.00     0.135 A 
ATOM     63  C   UNL A   1      46.826  27.804  30.991  1.00  0.00     0.135 A 
ATOM     64  F   UNL A   1      44.841  26.926  33.912  1.00  0.00    -0.206 F 
ATOM     65  C   UNL A   1      46.991  26.230  33.285  1.00  0.00     0.059 A 
ATOM     66  C   UNL A   1      47.974  27.051  31.223  1.00  0.00     0.059 A 
ATOM     67  F   UNL A   1      46.782  28.566  29.887  1.00  0.00    -0.206 F 
ATOM     68  C   UNL A   1      48.053  26.280  32.382  1.00  0.00     0.060 A 
BRANCH  68  69
ATOM     69  S   UNL A   1      49.537  25.316  32.740  1.00  0.00     0.124 S 
ATOM     70  O   UNL A   1      49.002  24.273  33.610  1.00  0.00    -0.237 OA
ATOM     71  O   UNL A   1      49.955  24.879  31.412  1.00  0.00    -0.237 OA
ATOM     72  O   UNL A   1      50.421  26.281  33.386  1.00  0.00    -0.744 OA
ENDBRANCH  68  69
ENDBRANCH  47  61
BRANCH  48  73
ATOM     73  C   UNL A   1      37.218  32.687  30.026  1.00  0.00     0.058 A 
ATOM     74  C   UNL A   1      37.120  33.637  28.999  1.00  0.00     0.135 A 
ATOM     75  C   UNL A   1      36.072  32.430  30.793  1.00  0.00     0.135 A 
ATOM     76  F   UNL A   1      38.191  33.919  28.242  1.00  0.00    -0.206 F 
ATOM     77  C   UNL A   1      35.935  34.322  28.750  1.00  0.00     0.059 A 
ATOM     78  C   UNL A   1      34.868  33.085  30.548  1.00  0.00     0.059 A 
ATOM     79  F   UNL A   1      36.110  31.517  31.774  1.00  0.00    -0.206 F 
ATOM     80  C   UNL A   1      34.812  34.037  29.531  1.00  0.00     0.060 A 
BRANCH  80  81
ATOM     81  S   UNL A   1      33.265  34.893  29.167  1.00  0.00     0.124 S 
ATOM     82  O   UNL A   1      33.748  36.183  28.688  1.00  0.00    -0.237 OA
ATOM     83  O   UNL A   1      32.660  34.025  28.162  1.00  0.00    -0.237 OA
ATOM     84  O   UNL A   1      32.583  34.914  30.458  1.00  0.00    -0.744 OA
ENDBRANCH  80  81
ENDBRANCH  48  73
BRANCH  60  85
ATOM     85  C   UNL A   1      43.092  34.327  33.404  1.00  0.00     0.058 A 
ATOM     86  C   UNL A   1      43.759  35.363  32.732  1.00  0.00     0.135 A 
ATOM     87  C   UNL A   1      42.815  34.499  34.770  1.00  0.00     0.135 A 
ATOM     88  F   UNL A   1      44.052  35.243  31.428  1.00  0.00    -0.206 F 
ATOM     89  C   UNL A   1      44.161  36.517  33.396  1.00  0.00     0.059 A 
ATOM     90  C   UNL A   1      43.186  35.655  35.448  1.00  0.00     0.059 A 
ATOM     91  F   UNL A   1      42.170  33.541  35.455  1.00  0.00    -0.206 F 
ATOM     92  C   UNL A   1      43.872  36.653  34.756  1.00  0.00     0.060 A 
BRANCH  92  93
ATOM     93  S   UNL A   1      44.381  38.162  35.604  1.00  0.00     0.124 S 
ATOM     94  O   UNL A   1      43.777  37.977  36.919  1.00  0.00    -0.237 OA
ATOM     95  O   UNL A   1      45.837  38.074  35.557  1.00  0.00    -0.237 OA
ATOM     96  O   UNL A   1      43.797  39.223  34.788  1.00  0.00    -0.744 OA
ENDBRANCH  92  93
ENDBRANCH  60  85
ENDBRANCH  34  35
ENDBRANCH  26  29
ENDBRANCH  24  25
ENDBRANCH   1  24
TORSDOF 17
ENDMDL
