MODEL 1
REMARK VINA RESULT:     -11.4      0.000      0.000
REMARK SMILES CCc1c(C)nc(Nc2cc(Cl)ccc2C)nc1OCC(=O)NCCCCNC(=O)c1ccc(-c2c3nc(c(-c4c(F)cc(S(=O)(=O)[O-])cc4F)c4ccc([nH]4)c(-c4c(F)cc(S(=O)(=O)[O-])cc4F)c4nc(c(-c5c(F)cc(S(=O)(=O)[O-])cc5F)c5ccc2[nH]5)C=C4)C=C3)cc1
REMARK SMILES IDX 25 1 24 2 23 3 21 4 22 5 20 7 19 8 18 9 3 10 4 11 5 12 6 13
REMARK SMILES IDX 17 14 7 15 2 16 1 17 8 18 9 20 10 21 15 22 11 23 14 24 16 25
REMARK SMILES IDX 12 26 13 27 26 28 27 29 28 30 29 31 30 33 31 34 32 35 96 36
REMARK SMILES IDX 33 37 95 38 34 39 35 40 36 41 89 42 37 43 94 44 88 45 90 46
REMARK SMILES IDX 38 47 93 48 87 49 86 50 39 52 73 53 52 54 72 55 53 56 56 57
REMARK SMILES IDX 71 58 91 59 54 60 55 61 70 63 92 64 57 65 40 66 41 67 50 68
REMARK SMILES IDX 42 69 43 70 49 71 51 72 44 73 45 74 46 75 47 76 48 77 74 78
REMARK SMILES IDX 75 79 84 80 76 81 77 82 83 83 85 84 78 85 79 86 80 87 81 88
REMARK SMILES IDX 82 89 58 90 59 91 68 92 60 93 61 94 67 95 69 96 62 97 63 98
REMARK SMILES IDX 64 99 65 100 66 101
REMARK H PARENT 23 6 8 19 28 32 90 51 56 62
REMARK Flexibility Score: inf
ROOT
ATOM      1  C   UNL A   1      39.737  22.031  26.179  1.00  0.00     0.023 C 
ENDROOT
BRANCH   1   2
ATOM      2  C   UNL A   1      38.258  22.397  26.111  1.00  0.00     0.116 C 
BRANCH   2   3
ATOM      3  N   UNL A   1      37.716  22.397  24.766  1.00  0.00    -0.353 N 
ATOM      4  C   UNL A   1      36.752  23.216  24.252  1.00  0.00     0.258 C 
ATOM      5  O   UNL A   1      36.606  23.262  23.029  1.00  0.00    -0.271 OA
ATOM      6  H   UNL A   1      38.087  21.726  24.150  1.00  0.00     0.163 HD
BRANCH   4   7
ATOM      7  C   UNL A   1      35.909  24.081  25.193  1.00  0.00     0.331 C 
BRANCH   7   8
ATOM      8  O   UNL A   1      34.681  24.530  24.680  1.00  0.00    -0.467 OA
BRANCH   8   9
ATOM      9  C   UNL A   1      33.455  24.281  25.192  1.00  0.00     0.222 A 
ATOM     10  C   UNL A   1      32.711  23.102  25.248  1.00  0.00     0.035 A 
ATOM     11  C   UNL A   1      31.480  23.229  25.899  1.00  0.00     0.050 A 
ATOM     12  C   UNL A   1      30.519  22.104  26.161  1.00  0.00     0.067 C 
ATOM     13  N   UNL A   1      31.064  24.380  26.449  1.00  0.00    -0.218 NA
ATOM     14  N   UNL A   1      33.015  25.440  25.739  1.00  0.00    -0.177 NA
ATOM     15  C   UNL A   1      31.853  25.446  26.386  1.00  0.00     0.230 A 
BRANCH  10  16
ATOM     16  C   UNL A   1      33.117  21.743  24.752  1.00  0.00     0.040 C 
ATOM     17  C   UNL A   1      34.069  21.037  25.712  1.00  0.00     0.009 C 
ENDBRANCH  10  16
BRANCH  15  18
ATOM     18  N   UNL A   1      31.448  26.626  27.006  1.00  0.00    -0.324 N 
ATOM     19  H   UNL A   1      30.855  26.538  27.787  1.00  0.00     0.170 HD
BRANCH  18  20
ATOM     20  C   UNL A   1      31.805  27.929  26.625  1.00  0.00     0.045 A 
ATOM     21  C   UNL A   1      32.676  28.655  27.449  1.00  0.00     0.047 A 
ATOM     22  C   UNL A   1      31.417  28.481  25.383  1.00  0.00    -0.027 A 
ATOM     23  C   UNL A   1      33.200  29.876  27.022  1.00  0.00     0.043 A 
ATOM     24  C   UNL A   1      31.963  29.706  24.965  1.00  0.00     0.007 A 
ATOM     25  C   UNL A   1      30.420  27.794  24.483  1.00  0.00     0.046 C 
ATOM     26  Cl  UNL A   1      34.309  30.727  28.026  1.00  0.00    -0.084 Cl
ATOM     27  C   UNL A   1      32.857  30.398  25.779  1.00  0.00     0.021 A 
ENDBRANCH  18  20
ENDBRANCH  15  18
ENDBRANCH   8   9
ENDBRANCH   7   8
ENDBRANCH   4   7
ENDBRANCH   2   3
ENDBRANCH   1   2
BRANCH   1  28
ATOM     28  C   UNL A   1      40.417  22.243  27.533  1.00  0.00     0.023 C 
BRANCH  28  29
ATOM     29  C   UNL A   1      41.681  23.096  27.527  1.00  0.00     0.116 C 
BRANCH  29  30
ATOM     30  N   UNL A   1      41.862  23.851  26.300  1.00  0.00    -0.352 N 
ATOM     31  C   UNL A   1      41.783  25.206  26.083  1.00  0.00     0.251 C 
ATOM     32  H   UNL A   1      42.076  23.312  25.504  1.00  0.00     0.163 HD
ATOM     33  O   UNL A   1      41.878  25.637  24.939  1.00  0.00    -0.269 OA
BRANCH  31  34
ATOM     34  C   UNL A   1      41.548  26.139  27.210  1.00  0.00     0.039 A 
ATOM     35  C   UNL A   1      40.426  25.938  28.020  1.00  0.00     0.014 A 
ATOM     36  C   UNL A   1      42.403  27.215  27.465  1.00  0.00     0.014 A 
ATOM     37  C   UNL A   1      40.187  26.787  29.105  1.00  0.00     0.010 A 
ATOM     38  C   UNL A   1      42.210  28.008  28.595  1.00  0.00     0.010 A 
ATOM     39  C   UNL A   1      41.090  27.816  29.417  1.00  0.00    -0.014 A 
BRANCH  39  40
ATOM     40  C   UNL A   1      40.851  28.715  30.579  1.00  0.00     0.031 A 
ATOM     41  C   UNL A   1      41.689  28.581  31.825  1.00  0.00     0.074 A 
ATOM     42  C   UNL A   1      39.864  29.631  30.526  1.00  0.00     0.049 A 
ATOM     43  N   UNL A   1      41.628  29.263  32.940  1.00  0.00    -0.248 NA
ATOM     44  C   UNL A   1      42.712  27.522  31.829  1.00  0.00     0.031 C 
ATOM     45  C   UNL A   1      38.947  29.824  29.401  1.00  0.00     0.029 A 
ATOM     46  N   UNL A   1      39.466  30.574  31.442  1.00  0.00    -0.354 N 
ATOM     47  C   UNL A   1      42.592  28.712  33.777  1.00  0.00     0.074 A 
ATOM     48  C   UNL A   1      43.178  27.597  33.067  1.00  0.00     0.031 C 
ATOM     49  C   UNL A   1      38.116  30.841  29.679  1.00  0.00     0.029 A 
ATOM     50  C   UNL A   1      38.417  31.353  31.012  1.00  0.00     0.049 A 
ATOM     51  H   UNL A   1      39.890  30.681  32.323  1.00  0.00     0.167 HD
ATOM     52  C   UNL A   1      42.976  29.114  35.013  1.00  0.00     0.037 A 
ATOM     53  C   UNL A   1      37.774  32.369  31.622  1.00  0.00     0.037 A 
ATOM     54  C   UNL A   1      42.406  30.241  35.706  1.00  0.00     0.049 A 
ATOM     55  C   UNL A   1      38.230  32.810  32.987  1.00  0.00     0.074 A 
ATOM     56  C   UNL A   1      42.759  30.762  36.939  1.00  0.00     0.029 A 
ATOM     57  N   UNL A   1      41.364  31.022  35.228  1.00  0.00    -0.354 N 
ATOM     58  N   UNL A   1      39.188  32.317  33.738  1.00  0.00    -0.248 NA
ATOM     59  C   UNL A   1      37.530  33.955  33.582  1.00  0.00     0.031 C 
ATOM     60  C   UNL A   1      41.901  31.830  37.225  1.00  0.00     0.029 A 
ATOM     61  C   UNL A   1      41.051  32.011  36.146  1.00  0.00     0.049 A 
ATOM     62  H   UNL A   1      40.913  30.892  34.361  1.00  0.00     0.167 HD
ATOM     63  C   UNL A   1      39.228  33.115  34.877  1.00  0.00     0.074 A 
ATOM     64  C   UNL A   1      38.207  34.129  34.709  1.00  0.00     0.031 C 
ATOM     65  C   UNL A   1      40.036  33.019  35.963  1.00  0.00     0.037 A 
BRANCH  52  66
ATOM     66  C   UNL A   1      44.072  28.335  35.691  1.00  0.00     0.058 A 
ATOM     67  C   UNL A   1      43.791  27.262  36.553  1.00  0.00     0.135 A 
ATOM     68  C   UNL A   1      45.422  28.645  35.455  1.00  0.00     0.135 A 
ATOM     69  F   UNL A   1      42.520  26.930  36.829  1.00  0.00    -0.206 F 
ATOM     70  C   UNL A   1      44.805  26.548  37.183  1.00  0.00     0.059 A 
ATOM     71  C   UNL A   1      46.453  27.923  36.049  1.00  0.00     0.059 A 
ATOM     72  F   UNL A   1      45.751  29.659  34.640  1.00  0.00    -0.206 F 
ATOM     73  C   UNL A   1      46.134  26.886  36.926  1.00  0.00     0.060 A 
BRANCH  73  74
ATOM     74  S   UNL A   1      47.437  25.948  37.748  1.00  0.00     0.124 S 
ATOM     75  O   UNL A   1      48.587  26.237  36.896  1.00  0.00    -0.237 OA
ATOM     76  O   UNL A   1      47.466  26.550  39.076  1.00  0.00    -0.237 OA
ATOM     77  O   UNL A   1      46.950  24.572  37.698  1.00  0.00    -0.744 OA
ENDBRANCH  73  74
ENDBRANCH  52  66
BRANCH  53  78
ATOM     78  C   UNL A   1      36.657  33.066  30.930  1.00  0.00     0.058 A 
ATOM     79  C   UNL A   1      36.901  33.955  29.873  1.00  0.00     0.135 A 
ATOM     80  C   UNL A   1      35.321  32.854  31.308  1.00  0.00     0.135 A 
ATOM     81  F   UNL A   1      38.160  34.197  29.477  1.00  0.00    -0.206 F 
ATOM     82  C   UNL A   1      35.867  34.628  29.230  1.00  0.00     0.059 A 
ATOM     83  C   UNL A   1      34.268  33.493  30.662  1.00  0.00     0.059 A 
ATOM     84  F   UNL A   1      35.031  32.000  32.301  1.00  0.00    -0.206 F 
ATOM     85  C   UNL A   1      34.551  34.389  29.632  1.00  0.00     0.060 A 
BRANCH  85  86
ATOM     86  S   UNL A   1      33.214  35.235  28.763  1.00  0.00     0.124 S 
ATOM     87  O   UNL A   1      32.615  34.141  28.007  1.00  0.00    -0.237 OA
ATOM     88  O   UNL A   1      32.416  35.761  29.866  1.00  0.00    -0.237 OA
ATOM     89  O   UNL A   1      33.914  36.241  27.970  1.00  0.00    -0.744 OA
ENDBRANCH  85  86
ENDBRANCH  53  78
BRANCH  65  90
ATOM     90  C   UNL A   1      39.883  34.068  37.030  1.00  0.00     0.058 A 
ATOM     91  C   UNL A   1      39.047  33.884  38.142  1.00  0.00     0.135 A 
ATOM     92  C   UNL A   1      40.601  35.273  36.945  1.00  0.00     0.135 A 
ATOM     93  F   UNL A   1      38.336  32.752  38.273  1.00  0.00    -0.206 F 
ATOM     94  C   UNL A   1      38.891  34.874  39.107  1.00  0.00     0.059 A 
ATOM     95  C   UNL A   1      40.486  36.263  37.916  1.00  0.00     0.059 A 
ATOM     96  F   UNL A   1      41.429  35.497  35.912  1.00  0.00    -0.206 F 
ATOM     97  C   UNL A   1      39.611  36.063  38.982  1.00  0.00     0.060 A 
BRANCH  97  98
ATOM     98  S   UNL A   1      39.396  37.344  40.236  1.00  0.00     0.124 S 
ATOM     99  O   UNL A   1      40.774  37.766  40.463  1.00  0.00    -0.237 OA
ATOM    100  O   UNL A   1      38.542  38.311  39.552  1.00  0.00    -0.237 OA
ATOM    101  O   UNL A   1      38.765  36.633  41.343  1.00  0.00    -0.744 OA
ENDBRANCH  97  98
ENDBRANCH  65  90
ENDBRANCH  39  40
ENDBRANCH  31  34
ENDBRANCH  29  30
ENDBRANCH  28  29
ENDBRANCH   1  28
TORSDOF 19
ENDMDL
MODEL 2
REMARK VINA RESULT:     -10.9      1.235      2.099
REMARK SMILES CCc1c(C)nc(Nc2cc(Cl)ccc2C)nc1OCC(=O)NCCCCNC(=O)c1ccc(-c2c3nc(c(-c4c(F)cc(S(=O)(=O)[O-])cc4F)c4ccc([nH]4)c(-c4c(F)cc(S(=O)(=O)[O-])cc4F)c4nc(c(-c5c(F)cc(S(=O)(=O)[O-])cc5F)c5ccc2[nH]5)C=C4)C=C3)cc1
REMARK SMILES IDX 25 1 24 2 23 3 21 4 22 5 20 7 19 8 18 9 3 10 4 11 5 12 6 13
REMARK SMILES IDX 17 14 7 15 2 16 1 17 8 18 9 20 10 21 15 22 11 23 14 24 16 25
REMARK SMILES IDX 12 26 13 27 26 28 27 29 28 30 29 31 30 33 31 34 32 35 96 36
REMARK SMILES IDX 33 37 95 38 34 39 35 40 36 41 89 42 37 43 94 44 88 45 90 46
REMARK SMILES IDX 38 47 93 48 87 49 86 50 39 52 73 53 52 54 72 55 53 56 56 57
REMARK SMILES IDX 71 58 91 59 54 60 55 61 70 63 92 64 57 65 40 66 41 67 50 68
REMARK SMILES IDX 42 69 43 70 49 71 51 72 44 73 45 74 46 75 47 76 48 77 74 78
REMARK SMILES IDX 75 79 84 80 76 81 77 82 83 83 85 84 78 85 79 86 80 87 81 88
REMARK SMILES IDX 82 89 58 90 59 91 68 92 60 93 61 94 67 95 69 96 62 97 63 98
REMARK SMILES IDX 64 99 65 100 66 101
REMARK H PARENT 23 6 8 19 28 32 90 51 56 62
REMARK Flexibility Score: inf
ROOT
ATOM      1  C   UNL A   1      39.376  22.919  26.433  1.00  0.00     0.023 C 
ENDROOT
BRANCH   1   2
ATOM      2  C   UNL A   1      38.143  22.270  25.809  1.00  0.00     0.116 C 
BRANCH   2   3
ATOM      3  N   UNL A   1      36.891  22.855  26.246  1.00  0.00    -0.353 N 
ATOM      4  C   UNL A   1      35.725  22.958  25.542  1.00  0.00     0.258 C 
ATOM      5  O   UNL A   1      34.689  23.232  26.152  1.00  0.00    -0.271 OA
ATOM      6  H   UNL A   1      36.879  23.223  27.159  1.00  0.00     0.163 HD
BRANCH   4   7
ATOM      7  C   UNL A   1      35.721  22.695  24.035  1.00  0.00     0.331 C 
BRANCH   7   8
ATOM      8  O   UNL A   1      35.280  23.755  23.226  1.00  0.00    -0.467 OA
BRANCH   8   9
ATOM      9  C   UNL A   1      34.049  24.312  23.229  1.00  0.00     0.222 A 
ATOM     10  C   UNL A   1      32.783  23.731  23.167  1.00  0.00     0.035 A 
ATOM     11  C   UNL A   1      31.726  24.645  23.233  1.00  0.00     0.050 A 
ATOM     12  C   UNL A   1      30.268  24.282  23.260  1.00  0.00     0.067 C 
ATOM     13  N   UNL A   1      31.915  25.966  23.373  1.00  0.00    -0.218 NA
ATOM     14  N   UNL A   1      34.225  25.650  23.355  1.00  0.00    -0.177 NA
ATOM     15  C   UNL A   1      33.155  26.432  23.465  1.00  0.00     0.230 A 
BRANCH  10  16
ATOM     16  C   UNL A   1      32.454  22.266  23.104  1.00  0.00     0.040 C 
ATOM     17  C   UNL A   1      32.210  21.668  24.485  1.00  0.00     0.009 C 
ENDBRANCH  10  16
BRANCH  15  18
ATOM     18  N   UNL A   1      33.351  27.797  23.668  1.00  0.00    -0.324 N 
ATOM     19  H   UNL A   1      33.678  28.319  22.901  1.00  0.00     0.170 HD
BRANCH  18  20
ATOM     20  C   UNL A   1      33.126  28.497  24.863  1.00  0.00     0.045 A 
ATOM     21  C   UNL A   1      34.135  28.508  25.836  1.00  0.00     0.047 A 
ATOM     22  C   UNL A   1      31.973  29.290  25.063  1.00  0.00    -0.027 A 
ATOM     23  C   UNL A   1      34.030  29.335  26.955  1.00  0.00     0.043 A 
ATOM     24  C   UNL A   1      31.889  30.124  26.191  1.00  0.00     0.007 A 
ATOM     25  C   UNL A   1      30.813  29.265  24.100  1.00  0.00     0.046 C 
ATOM     26  Cl  UNL A   1      35.304  29.373  28.112  1.00  0.00    -0.084 Cl
ATOM     27  C   UNL A   1      32.918  30.152  27.130  1.00  0.00     0.021 A 
ENDBRANCH  18  20
ENDBRANCH  15  18
ENDBRANCH   8   9
ENDBRANCH   7   8
ENDBRANCH   4   7
ENDBRANCH   2   3
ENDBRANCH   1   2
BRANCH   1  28
ATOM     28  C   UNL A   1      39.365  24.447  26.499  1.00  0.00     0.023 C 
BRANCH  28  29
ATOM     29  C   UNL A   1      40.399  25.166  25.640  1.00  0.00     0.116 C 
BRANCH  29  30
ATOM     30  N   UNL A   1      41.752  24.671  25.829  1.00  0.00    -0.352 N 
ATOM     31  C   UNL A   1      42.695  25.030  26.762  1.00  0.00     0.251 C 
ATOM     32  H   UNL A   1      42.035  23.973  25.195  1.00  0.00     0.163 HD
ATOM     33  O   UNL A   1      43.822  24.551  26.690  1.00  0.00    -0.269 OA
BRANCH  31  34
ATOM     34  C   UNL A   1      42.371  26.009  27.826  1.00  0.00     0.039 A 
ATOM     35  C   UNL A   1      41.383  25.678  28.759  1.00  0.00     0.014 A 
ATOM     36  C   UNL A   1      43.009  27.250  27.902  1.00  0.00     0.014 A 
ATOM     37  C   UNL A   1      41.069  26.571  29.788  1.00  0.00     0.010 A 
ATOM     38  C   UNL A   1      42.754  28.102  28.976  1.00  0.00     0.010 A 
ATOM     39  C   UNL A   1      41.768  27.782  29.921  1.00  0.00    -0.014 A 
BRANCH  39  40
ATOM     40  C   UNL A   1      41.450  28.730  31.022  1.00  0.00     0.031 A 
ATOM     41  C   UNL A   1      42.257  28.712  32.295  1.00  0.00     0.074 A 
ATOM     42  C   UNL A   1      40.419  29.588  30.890  1.00  0.00     0.049 A 
ATOM     43  N   UNL A   1      42.128  29.452  33.367  1.00  0.00    -0.248 NA
ATOM     44  C   UNL A   1      43.333  27.711  32.387  1.00  0.00     0.031 C 
ATOM     45  C   UNL A   1      39.526  29.669  29.733  1.00  0.00     0.029 A 
ATOM     46  N   UNL A   1      39.946  30.558  31.740  1.00  0.00    -0.354 N 
ATOM     47  C   UNL A   1      43.095  29.001  34.259  1.00  0.00     0.074 A 
ATOM     48  C   UNL A   1      43.759  27.880  33.630  1.00  0.00     0.031 C 
ATOM     49  C   UNL A   1      38.636  30.654  29.930  1.00  0.00     0.029 A 
ATOM     50  C   UNL A   1      38.871  31.256  31.239  1.00  0.00     0.049 A 
ATOM     51  H   UNL A   1      40.339  30.738  32.624  1.00  0.00     0.167 HD
ATOM     52  C   UNL A   1      43.423  29.492  35.478  1.00  0.00     0.037 A 
ATOM     53  C   UNL A   1      38.159  32.268  31.772  1.00  0.00     0.037 A 
ATOM     54  C   UNL A   1      42.775  30.625  36.090  1.00  0.00     0.049 A 
ATOM     55  C   UNL A   1      38.552  32.809  33.121  1.00  0.00     0.074 A 
ATOM     56  C   UNL A   1      43.065  31.233  37.300  1.00  0.00     0.029 A 
ATOM     57  N   UNL A   1      41.708  31.321  35.541  1.00  0.00    -0.354 N 
ATOM     58  N   UNL A   1      39.512  32.411  33.923  1.00  0.00    -0.248 NA
ATOM     59  C   UNL A   1      37.777  33.948  33.629  1.00  0.00     0.031 C 
ATOM     60  C   UNL A   1      42.145  32.267  37.501  1.00  0.00     0.029 A 
ATOM     61  C   UNL A   1      41.318  32.342  36.392  1.00  0.00     0.049 A 
ATOM     62  H   UNL A   1      41.290  31.118  34.672  1.00  0.00     0.167 HD
ATOM     63  C   UNL A   1      39.478  33.273  35.014  1.00  0.00     0.074 A 
ATOM     64  C   UNL A   1      38.411  34.221  34.762  1.00  0.00     0.031 C 
ATOM     65  C   UNL A   1      40.258  33.282  36.124  1.00  0.00     0.037 A 
BRANCH  52  66
ATOM     66  C   UNL A   1      44.538  28.812  36.228  1.00  0.00     0.058 A 
ATOM     67  C   UNL A   1      45.865  29.264  36.149  1.00  0.00     0.135 A 
ATOM     68  C   UNL A   1      44.273  27.710  37.058  1.00  0.00     0.135 A 
ATOM     69  F   UNL A   1      46.180  30.303  35.359  1.00  0.00    -0.206 F 
ATOM     70  C   UNL A   1      46.894  28.630  36.837  1.00  0.00     0.059 A 
ATOM     71  C   UNL A   1      45.282  27.080  37.781  1.00  0.00     0.059 A 
ATOM     72  F   UNL A   1      43.024  27.234  37.172  1.00  0.00    -0.206 F 
ATOM     73  C   UNL A   1      46.593  27.537  37.651  1.00  0.00     0.060 A 
BRANCH  73  74
ATOM     74  S   UNL A   1      47.939  26.728  38.540  1.00  0.00     0.124 S 
ATOM     75  O   UNL A   1      48.333  25.692  37.589  1.00  0.00    -0.237 OA
ATOM     76  O   UNL A   1      48.893  27.816  38.721  1.00  0.00    -0.237 OA
ATOM     77  O   UNL A   1      47.301  26.247  39.761  1.00  0.00    -0.744 OA
ENDBRANCH  73  74
ENDBRANCH  52  66
BRANCH  53  78
ATOM     78  C   UNL A   1      37.028  32.864  31.012  1.00  0.00     0.058 A 
ATOM     79  C   UNL A   1      35.699  32.505  31.288  1.00  0.00     0.135 A 
ATOM     80  C   UNL A   1      37.250  33.808  29.995  1.00  0.00     0.135 A 
ATOM     81  F   UNL A   1      35.434  31.603  32.245  1.00  0.00    -0.206 F 
ATOM     82  C   UNL A   1      34.634  33.040  30.571  1.00  0.00     0.059 A 
ATOM     83  C   UNL A   1      36.199  34.379  29.285  1.00  0.00     0.059 A 
ATOM     84  F   UNL A   1      38.499  34.199  29.703  1.00  0.00    -0.206 F 
ATOM     85  C   UNL A   1      34.895  33.979  29.571  1.00  0.00     0.060 A 
BRANCH  85  86
ATOM     86  S   UNL A   1      33.501  34.699  28.676  1.00  0.00     0.124 S 
ATOM     87  O   UNL A   1      32.563  34.968  29.760  1.00  0.00    -0.237 OA
ATOM     88  O   UNL A   1      34.110  35.870  28.052  1.00  0.00    -0.237 OA
ATOM     89  O   UNL A   1      33.111  33.637  27.753  1.00  0.00    -0.744 OA
ENDBRANCH  85  86
ENDBRANCH  53  78
BRANCH  65  90
ATOM     90  C   UNL A   1      40.021  34.380  37.125  1.00  0.00     0.058 A 
ATOM     91  C   UNL A   1      40.609  35.648  36.995  1.00  0.00     0.135 A 
ATOM     92  C   UNL A   1      39.176  34.163  38.226  1.00  0.00     0.135 A 
ATOM     93  F   UNL A   1      41.427  35.911  35.962  1.00  0.00    -0.206 F 
ATOM     94  C   UNL A   1      40.406  36.646  37.943  1.00  0.00     0.059 A 
ATOM     95  C   UNL A   1      38.931  35.156  39.169  1.00  0.00     0.059 A 
ATOM     96  F   UNL A   1      38.574  32.975  38.393  1.00  0.00    -0.206 F 
ATOM     97  C   UNL A   1      39.569  36.388  39.030  1.00  0.00     0.060 A 
BRANCH  97  98
ATOM     98  S   UNL A   1      39.317  37.687  40.258  1.00  0.00     0.124 S 
ATOM     99  O   UNL A   1      40.629  38.325  40.282  1.00  0.00    -0.237 OA
ATOM    100  O   UNL A   1      38.239  38.473  39.666  1.00  0.00    -0.237 OA
ATOM    101  O   UNL A   1      38.955  36.949  41.465  1.00  0.00    -0.744 OA
ENDBRANCH  97  98
ENDBRANCH  65  90
ENDBRANCH  39  40
ENDBRANCH  31  34
ENDBRANCH  29  30
ENDBRANCH  28  29
ENDBRANCH   1  28
TORSDOF 19
ENDMDL
MODEL 3
REMARK VINA RESULT:     -10.8      6.667      9.301
REMARK SMILES CCc1c(C)nc(Nc2cc(Cl)ccc2C)nc1OCC(=O)NCCCCNC(=O)c1ccc(-c2c3nc(c(-c4c(F)cc(S(=O)(=O)[O-])cc4F)c4ccc([nH]4)c(-c4c(F)cc(S(=O)(=O)[O-])cc4F)c4nc(c(-c5c(F)cc(S(=O)(=O)[O-])cc5F)c5ccc2[nH]5)C=C4)C=C3)cc1
REMARK SMILES IDX 25 1 24 2 23 3 21 4 22 5 20 7 19 8 18 9 3 10 4 11 5 12 6 13
REMARK SMILES IDX 17 14 7 15 2 16 1 17 8 18 9 20 10 21 15 22 11 23 14 24 16 25
REMARK SMILES IDX 12 26 13 27 26 28 27 29 28 30 29 31 30 33 31 34 32 35 96 36
REMARK SMILES IDX 33 37 95 38 34 39 35 40 36 41 89 42 37 43 94 44 88 45 90 46
REMARK SMILES IDX 38 47 93 48 87 49 86 50 39 52 73 53 52 54 72 55 53 56 56 57
REMARK SMILES IDX 71 58 91 59 54 60 55 61 70 63 92 64 57 65 40 66 41 67 50 68
REMARK SMILES IDX 42 69 43 70 49 71 51 72 44 73 45 74 46 75 47 76 48 77 74 78
REMARK SMILES IDX 75 79 84 80 76 81 77 82 83 83 85 84 78 85 79 86 80 87 81 88
REMARK SMILES IDX 82 89 58 90 59 91 68 92 60 93 61 94 67 95 69 96 62 97 63 98
REMARK SMILES IDX 64 99 65 100 66 101
REMARK H PARENT 23 6 8 19 28 32 90 51 56 62
REMARK Flexibility Score: inf
ROOT
ATOM      1  C   UNL A   1      40.507  21.608  26.949  1.00  0.00     0.023 C 
ENDROOT
BRANCH   1   2
ATOM      2  C   UNL A   1      39.381  22.517  26.465  1.00  0.00     0.116 C 
BRANCH   2   3
ATOM      3  N   UNL A   1      38.566  21.932  25.419  1.00  0.00    -0.353 N 
ATOM      4  C   UNL A   1      37.373  22.387  24.933  1.00  0.00     0.258 C 
ATOM      5  O   UNL A   1      36.955  21.928  23.869  1.00  0.00    -0.271 OA
ATOM      6  H   UNL A   1      38.913  21.107  25.009  1.00  0.00     0.163 HD
BRANCH   4   7
ATOM      7  C   UNL A   1      36.609  23.474  25.693  1.00  0.00     0.331 C 
BRANCH   7   8
ATOM      8  O   UNL A   1      35.550  23.031  26.501  1.00  0.00    -0.467 OA
BRANCH   8   9
ATOM      9  C   UNL A   1      34.260  22.880  26.127  1.00  0.00     0.222 A 
ATOM     10  C   UNL A   1      33.308  23.818  25.727  1.00  0.00     0.035 A 
ATOM     11  C   UNL A   1      32.071  23.269  25.375  1.00  0.00     0.050 A 
ATOM     12  C   UNL A   1      30.900  24.045  24.842  1.00  0.00     0.067 C 
ATOM     13  N   UNL A   1      31.830  21.949  25.393  1.00  0.00    -0.218 NA
ATOM     14  N   UNL A   1      33.996  21.550  26.155  1.00  0.00    -0.177 NA
ATOM     15  C   UNL A   1      32.805  21.121  25.749  1.00  0.00     0.230 A 
BRANCH  10  16
ATOM     16  C   UNL A   1      33.497  25.301  25.579  1.00  0.00     0.040 C 
ATOM     17  C   UNL A   1      34.017  25.684  24.198  1.00  0.00     0.009 C 
ENDBRANCH  10  16
BRANCH  15  18
ATOM     18  N   UNL A   1      32.574  19.747  25.713  1.00  0.00    -0.324 N 
ATOM     19  H   UNL A   1      31.923  19.389  26.358  1.00  0.00     0.170 HD
BRANCH  18  20
ATOM     20  C   UNL A   1      33.180  18.827  24.844  1.00  0.00     0.045 A 
ATOM     21  C   UNL A   1      34.007  17.834  25.389  1.00  0.00     0.047 A 
ATOM     22  C   UNL A   1      32.886  18.793  23.462  1.00  0.00    -0.027 A 
ATOM     23  C   UNL A   1      34.482  16.794  24.589  1.00  0.00     0.043 A 
ATOM     24  C   UNL A   1      33.365  17.732  22.675  1.00  0.00     0.007 A 
ATOM     25  C   UNL A   1      32.072  19.873  22.795  1.00  0.00     0.046 C 
ATOM     26  Cl  UNL A   1      35.453  15.556  25.287  1.00  0.00    -0.084 Cl
ATOM     27  C   UNL A   1      34.154  16.732  23.238  1.00  0.00     0.021 A 
ENDBRANCH  18  20
ENDBRANCH  15  18
ENDBRANCH   8   9
ENDBRANCH   7   8
ENDBRANCH   4   7
ENDBRANCH   2   3
ENDBRANCH   1   2
BRANCH   1  28
ATOM     28  C   UNL A   1      40.749  20.345  26.119  1.00  0.00     0.023 C 
BRANCH  28  29
ATOM     29  C   UNL A   1      41.980  19.523  26.487  1.00  0.00     0.116 C 
BRANCH  29  30
ATOM     30  N   UNL A   1      42.835  19.224  25.352  1.00  0.00    -0.352 N 
ATOM     31  C   UNL A   1      43.768  20.015  24.724  1.00  0.00     0.251 C 
ATOM     32  H   UNL A   1      42.734  18.319  24.978  1.00  0.00     0.163 HD
ATOM     33  O   UNL A   1      44.323  19.599  23.713  1.00  0.00    -0.269 OA
BRANCH  31  34
ATOM     34  C   UNL A   1      44.078  21.370  25.237  1.00  0.00     0.039 A 
ATOM     35  C   UNL A   1      44.944  21.487  26.330  1.00  0.00     0.014 A 
ATOM     36  C   UNL A   1      43.514  22.517  24.674  1.00  0.00     0.014 A 
ATOM     37  C   UNL A   1      45.274  22.752  26.824  1.00  0.00     0.010 A 
ATOM     38  C   UNL A   1      43.910  23.779  25.114  1.00  0.00     0.010 A 
ATOM     39  C   UNL A   1      44.779  23.912  26.207  1.00  0.00    -0.014 A 
BRANCH  39  40
ATOM     40  C   UNL A   1      45.138  25.262  26.718  1.00  0.00     0.031 A 
ATOM     41  C   UNL A   1      46.496  25.847  26.426  1.00  0.00     0.074 A 
ATOM     42  C   UNL A   1      44.256  25.951  27.470  1.00  0.00     0.049 A 
ATOM     43  N   UNL A   1      46.996  27.000  26.789  1.00  0.00    -0.248 NA
ATOM     44  C   UNL A   1      47.426  25.014  25.644  1.00  0.00     0.031 C 
ATOM     45  C   UNL A   1      42.932  25.473  27.872  1.00  0.00     0.029 A 
ATOM     46  N   UNL A   1      44.341  27.201  28.032  1.00  0.00    -0.354 N 
ATOM     47  C   UNL A   1      48.295  27.026  26.292  1.00  0.00     0.074 A 
ATOM     48  C   UNL A   1      48.529  25.748  25.658  1.00  0.00     0.031 C 
ATOM     49  C   UNL A   1      42.316  26.429  28.586  1.00  0.00     0.029 A 
ATOM     50  C   UNL A   1      43.211  27.574  28.722  1.00  0.00     0.049 A 
ATOM     51  H   UNL A   1      45.135  27.775  27.949  1.00  0.00     0.167 HD
ATOM     52  C   UNL A   1      49.201  28.033  26.332  1.00  0.00     0.037 A 
ATOM     53  C   UNL A   1      42.927  28.712  29.385  1.00  0.00     0.037 A 
ATOM     54  C   UNL A   1      48.954  29.315  26.942  1.00  0.00     0.049 A 
ATOM     55  C   UNL A   1      43.942  29.824  29.401  1.00  0.00     0.074 A 
ATOM     56  C   UNL A   1      49.787  30.420  26.992  1.00  0.00     0.029 A 
ATOM     57  N   UNL A   1      47.788  29.664  27.609  1.00  0.00    -0.354 N 
ATOM     58  N   UNL A   1      45.143  29.855  28.870  1.00  0.00    -0.248 NA
ATOM     59  C   UNL A   1      43.559  31.062  30.093  1.00  0.00     0.031 C 
ATOM     60  C   UNL A   1      49.142  31.421  27.728  1.00  0.00     0.029 A 
ATOM     61  C   UNL A   1      47.885  30.962  28.086  1.00  0.00     0.049 A 
ATOM     62  H   UNL A   1      47.007  29.076  27.724  1.00  0.00     0.167 HD
ATOM     63  C   UNL A   1      45.642  31.126  29.132  1.00  0.00     0.074 A 
ATOM     64  C   UNL A   1      44.609  31.837  29.858  1.00  0.00     0.031 C 
ATOM     65  C   UNL A   1      46.846  31.659  28.801  1.00  0.00     0.037 A 
BRANCH  52  66
ATOM     66  C   UNL A   1      50.541  27.791  25.689  1.00  0.00     0.058 A 
ATOM     67  C   UNL A   1      51.683  27.493  26.451  1.00  0.00     0.135 A 
ATOM     68  C   UNL A   1      50.682  27.831  24.292  1.00  0.00     0.135 A 
ATOM     69  F   UNL A   1      51.612  27.457  27.791  1.00  0.00    -0.206 F 
ATOM     70  C   UNL A   1      52.921  27.276  25.855  1.00  0.00     0.059 A 
ATOM     71  C   UNL A   1      51.904  27.585  23.672  1.00  0.00     0.059 A 
ATOM     72  F   UNL A   1      49.626  28.111  23.513  1.00  0.00    -0.206 F 
ATOM     73  C   UNL A   1      53.023  27.325  24.464  1.00  0.00     0.060 A 
BRANCH  73  74
ATOM     74  S   UNL A   1      54.635  27.038  23.707  1.00  0.00     0.124 S 
ATOM     75  O   UNL A   1      55.270  28.343  23.872  1.00  0.00    -0.237 OA
ATOM     76  O   UNL A   1      55.179  25.962  24.528  1.00  0.00    -0.237 OA
ATOM     77  O   UNL A   1      54.307  26.671  22.333  1.00  0.00    -0.744 OA
ENDBRANCH  73  74
ENDBRANCH  52  66
BRANCH  53  78
ATOM     78  C   UNL A   1      41.608  28.875  30.055  1.00  0.00     0.058 A 
ATOM     79  C   UNL A   1      41.408  28.445  31.376  1.00  0.00     0.135 A 
ATOM     80  C   UNL A   1      40.522  29.467  29.390  1.00  0.00     0.135 A 
ATOM     81  F   UNL A   1      42.412  27.867  32.052  1.00  0.00    -0.206 F 
ATOM     82  C   UNL A   1      40.174  28.573  32.006  1.00  0.00     0.059 A 
ATOM     83  C   UNL A   1      39.287  29.632  30.010  1.00  0.00     0.059 A 
ATOM     84  F   UNL A   1      40.665  29.912  28.132  1.00  0.00    -0.206 F 
ATOM     85  C   UNL A   1      39.119  29.170  31.314  1.00  0.00     0.060 A 
BRANCH  85  86
ATOM     86  S   UNL A   1      37.535  29.371  32.157  1.00  0.00     0.124 S 
ATOM     87  O   UNL A   1      37.659  30.717  32.702  1.00  0.00    -0.237 OA
ATOM     88  O   UNL A   1      36.583  29.209  31.062  1.00  0.00    -0.237 OA
ATOM     89  O   UNL A   1      37.539  28.290  33.139  1.00  0.00    -0.744 OA
ENDBRANCH  85  86
ENDBRANCH  53  78
BRANCH  65  90
ATOM     90  C   UNL A   1      47.090  33.095  29.177  1.00  0.00     0.058 A 
ATOM     91  C   UNL A   1      47.627  33.459  30.422  1.00  0.00     0.135 A 
ATOM     92  C   UNL A   1      46.796  34.124  28.267  1.00  0.00     0.135 A 
ATOM     93  F   UNL A   1      47.926  32.516  31.331  1.00  0.00    -0.206 F 
ATOM     94  C   UNL A   1      47.820  34.793  30.770  1.00  0.00     0.059 A 
ATOM     95  C   UNL A   1      47.012  35.463  28.580  1.00  0.00     0.059 A 
ATOM     96  F   UNL A   1      46.295  33.834  27.056  1.00  0.00    -0.206 F 
ATOM     97  C   UNL A   1      47.504  35.787  29.843  1.00  0.00     0.060 A 
BRANCH  97  98
ATOM     98  S   UNL A   1      47.752  37.514  30.306  1.00  0.00     0.124 S 
ATOM     99  O   UNL A   1      46.724  38.181  29.514  1.00  0.00    -0.237 OA
ATOM    100  O   UNL A   1      47.524  37.488  31.748  1.00  0.00    -0.237 OA
ATOM    101  O   UNL A   1      49.129  37.781  29.901  1.00  0.00    -0.744 OA
ENDBRANCH  97  98
ENDBRANCH  65  90
ENDBRANCH  39  40
ENDBRANCH  31  34
ENDBRANCH  29  30
ENDBRANCH  28  29
ENDBRANCH   1  28
TORSDOF 19
ENDMDL
