MODEL 1
REMARK VINA RESULT:     -11.7      0.000      0.000
REMARK SMILES O=Cc1ccc2c(c1)C=C(C(=O)NCCCCNC(=O)c1ccc(-c3c4nc(c(-c5c(F)cc(S(=O)(=O)[O-])cc5F)c5ccc([nH]5)c(-c5c(F)cc(S(=O)(=O)[O-])cc5F)c5nc(c(-c6c(F)cc(S(=O)(=O)[O-])cc6F)c6ccc3[nH]6)C=C5)C=C4)cc1)[C@H](C(F)(F)F)O2
REMARK SMILES IDX 16 1 15 2 14 3 13 4 11 5 12 6 10 8 3 9 4 10 8 11 5 12 7 13
REMARK SMILES IDX 6 14 9 15 92 16 87 17 2 18 1 19 88 20 89 21 90 22 91 23
REMARK SMILES IDX 17 24 18 25 19 26 20 28 21 29 22 30 86 31 23 32 85 33 24 34
REMARK SMILES IDX 25 35 26 36 79 37 27 38 84 39 78 40 80 41 28 42 83 43 77 44
REMARK SMILES IDX 76 45 29 47 63 48 42 49 62 50 43 51 46 52 61 53 81 54 44 55
REMARK SMILES IDX 45 56 60 58 82 59 47 60 30 61 31 62 40 63 32 64 33 65 39 66
REMARK SMILES IDX 41 67 34 68 35 69 36 70 37 71 38 72 64 73 65 74 74 75 66 76
REMARK SMILES IDX 67 77 73 78 75 79 68 80 69 81 70 82 71 83 72 84 48 85 49 86
REMARK SMILES IDX 58 87 50 88 51 89 57 90 59 91 52 92 53 93 54 94 55 95 56 96
REMARK H PARENT 13 7 18 27 80 46 46 57
REMARK Flexibility Score: inf
ROOT
ATOM      1  C   UNL A   1      33.051  28.041  25.693  1.00  0.00     0.023 C 
ENDROOT
BRANCH   1   2
ATOM      2  C   UNL A   1      31.524  28.156  25.749  1.00  0.00     0.023 C 
BRANCH   2   3
ATOM      3  C   UNL A   1      30.779  26.949  25.169  1.00  0.00     0.116 C 
BRANCH   3   4
ATOM      4  N   UNL A   1      30.630  25.917  26.181  1.00  0.00    -0.352 N 
ATOM      5  C   UNL A   1      31.265  24.734  26.390  1.00  0.00     0.251 C 
ATOM      6  O   UNL A   1      30.818  23.980  27.252  1.00  0.00    -0.270 OA
ATOM      7  H   UNL A   1      29.931  26.113  26.846  1.00  0.00     0.163 HD
BRANCH   5   8
ATOM      8  C   UNL A   1      32.510  24.339  25.674  1.00  0.00     0.067 C 
ATOM      9  C   UNL A   1      37.222  23.318  25.395  1.00  0.00     0.015 A 
ATOM     10  C   UNL A   1      37.069  22.927  24.062  1.00  0.00     0.015 A 
ATOM     11  C   UNL A   1      36.130  23.802  26.118  1.00  0.00     0.023 A 
ATOM     12  C   UNL A   1      35.812  23.010  23.458  1.00  0.00     0.048 A 
ATOM     13  C   UNL A   1      34.873  23.885  25.505  1.00  0.00     0.018 A 
ATOM     14  C   UNL A   1      34.718  23.486  24.180  1.00  0.00     0.128 A 
ATOM     15  C   UNL A   1      33.713  24.316  26.264  1.00  0.00     0.025 C 
ATOM     16  O   UNL A   1      33.518  23.478  23.537  1.00  0.00    -0.475 OA
ATOM     17  C   UNL A   1      32.368  24.118  24.168  1.00  0.00     0.314 C 
BRANCH   9  18
ATOM     18  C   UNL A   1      38.534  23.196  26.062  1.00  0.00     0.260 C 
ATOM     19  O   UNL A   1      39.104  22.120  26.182  1.00  0.00    -0.298 OA
ENDBRANCH   9  18
BRANCH  17  20
ATOM     20  C   UNL A   1      31.110  23.344  23.710  1.00  0.00     0.429 C 
ATOM     21  F   UNL A   1      31.344  22.531  22.658  1.00  0.00    -0.167 F 
ATOM     22  F   UNL A   1      30.656  22.528  24.702  1.00  0.00    -0.167 F 
ATOM     23  F   UNL A   1      30.086  24.169  23.390  1.00  0.00    -0.167 F 
ENDBRANCH  17  20
ENDBRANCH   5   8
ENDBRANCH   3   4
ENDBRANCH   2   3
ENDBRANCH   1   2
BRANCH   1  24
ATOM     24  C   UNL A   1      33.759  28.322  27.013  1.00  0.00     0.116 C 
BRANCH  24  25
ATOM     25  N   UNL A   1      33.602  29.695  27.464  1.00  0.00    -0.352 N 
ATOM     26  C   UNL A   1      34.524  30.497  28.098  1.00  0.00     0.251 C 
ATOM     27  H   UNL A   1      32.724  30.105  27.294  1.00  0.00     0.163 HD
ATOM     28  O   UNL A   1      34.196  31.601  28.510  1.00  0.00    -0.269 OA
BRANCH  26  29
ATOM     29  C   UNL A   1      35.896  29.989  28.311  1.00  0.00     0.039 A 
ATOM     30  C   UNL A   1      36.822  30.104  27.271  1.00  0.00     0.014 A 
ATOM     31  C   UNL A   1      36.274  29.438  29.538  1.00  0.00     0.014 A 
ATOM     32  C   UNL A   1      38.147  29.722  27.484  1.00  0.00     0.010 A 
ATOM     33  C   UNL A   1      37.608  29.120  29.770  1.00  0.00     0.010 A 
ATOM     34  C   UNL A   1      38.557  29.260  28.746  1.00  0.00    -0.014 A 
BRANCH  34  35
ATOM     35  C   UNL A   1      39.975  28.916  29.015  1.00  0.00     0.031 A 
ATOM     36  C   UNL A   1      40.902  29.948  29.597  1.00  0.00     0.074 A 
ATOM     37  C   UNL A   1      40.442  27.699  28.671  1.00  0.00     0.049 A 
ATOM     38  N   UNL A   1      42.186  29.866  29.829  1.00  0.00    -0.248 NA
ATOM     39  C   UNL A   1      40.312  31.253  29.936  1.00  0.00     0.031 C 
ATOM     40  C   UNL A   1      39.651  26.632  28.052  1.00  0.00     0.029 A 
ATOM     41  N   UNL A   1      41.697  27.157  28.784  1.00  0.00    -0.354 N 
ATOM     42  C   UNL A   1      42.560  31.109  30.327  1.00  0.00     0.074 A 
ATOM     43  C   UNL A   1      41.378  31.943  30.316  1.00  0.00     0.031 C 
ATOM     44  C   UNL A   1      40.436  25.559  27.856  1.00  0.00     0.029 A 
ATOM     45  C   UNL A   1      41.789  25.871  28.305  1.00  0.00     0.049 A 
ATOM     46  H   UNL A   1      42.461  27.643  29.170  1.00  0.00     0.167 HD
ATOM     47  C   UNL A   1      43.774  31.511  30.776  1.00  0.00     0.037 A 
ATOM     48  C   UNL A   1      42.846  25.040  28.233  1.00  0.00     0.037 A 
ATOM     49  C   UNL A   1      44.938  30.665  30.813  1.00  0.00     0.049 A 
ATOM     50  C   UNL A   1      44.180  25.504  28.753  1.00  0.00     0.074 A 
ATOM     51  C   UNL A   1      46.201  30.961  31.297  1.00  0.00     0.029 A 
ATOM     52  N   UNL A   1      44.982  29.357  30.355  1.00  0.00    -0.354 N 
ATOM     53  N   UNL A   1      44.502  26.665  29.273  1.00  0.00    -0.248 NA
ATOM     54  C   UNL A   1      45.291  24.545  28.686  1.00  0.00     0.031 C 
ATOM     55  C   UNL A   1      47.016  29.841  31.105  1.00  0.00     0.029 A 
ATOM     56  C   UNL A   1      46.251  28.835  30.537  1.00  0.00     0.049 A 
ATOM     57  H   UNL A   1      44.222  28.871  29.960  1.00  0.00     0.167 HD
ATOM     58  C   UNL A   1      45.845  26.565  29.621  1.00  0.00     0.074 A 
ATOM     59  C   UNL A   1      46.271  25.228  29.262  1.00  0.00     0.031 C 
ATOM     60  C   UNL A   1      46.651  27.495  30.187  1.00  0.00     0.037 A 
BRANCH  47  61
ATOM     61  C   UNL A   1      43.898  32.921  31.277  1.00  0.00     0.058 A 
ATOM     62  C   UNL A   1      44.180  33.987  30.407  1.00  0.00     0.135 A 
ATOM     63  C   UNL A   1      43.696  33.220  32.634  1.00  0.00     0.135 A 
ATOM     64  F   UNL A   1      44.398  33.755  29.102  1.00  0.00    -0.206 F 
ATOM     65  C   UNL A   1      44.283  35.294  30.867  1.00  0.00     0.059 A 
ATOM     66  C   UNL A   1      43.770  34.526  33.112  1.00  0.00     0.059 A 
ATOM     67  F   UNL A   1      43.427  32.240  33.510  1.00  0.00    -0.206 F 
ATOM     68  C   UNL A   1      44.077  35.554  32.223  1.00  0.00     0.060 A 
BRANCH  68  69
ATOM     69  S   UNL A   1      44.205  37.259  32.804  1.00  0.00     0.124 S 
ATOM     70  O   UNL A   1      44.152  37.998  31.546  1.00  0.00    -0.237 OA
ATOM     71  O   UNL A   1      43.030  37.385  33.662  1.00  0.00    -0.237 OA
ATOM     72  O   UNL A   1      45.489  37.287  33.496  1.00  0.00    -0.744 OA
ENDBRANCH  68  69
ENDBRANCH  47  61
BRANCH  48  73
ATOM     73  C   UNL A   1      42.685  23.673  27.670  1.00  0.00     0.058 A 
ATOM     74  C   UNL A   1      42.444  22.574  28.507  1.00  0.00     0.135 A 
ATOM     75  C   UNL A   1      42.772  23.438  26.290  1.00  0.00     0.135 A 
ATOM     76  F   UNL A   1      42.356  22.749  29.834  1.00  0.00    -0.206 F 
ATOM     77  C   UNL A   1      42.316  21.285  27.999  1.00  0.00     0.059 A 
ATOM     78  C   UNL A   1      42.624  22.161  25.755  1.00  0.00     0.059 A 
ATOM     79  F   UNL A   1      42.982  24.460  25.444  1.00  0.00    -0.206 F 
ATOM     80  C   UNL A   1      42.410  21.089  26.620  1.00  0.00     0.060 A 
BRANCH  80  81
ATOM     81  S   UNL A   1      42.209  19.417  25.965  1.00  0.00     0.124 S 
ATOM     82  O   UNL A   1      42.710  18.609  27.070  1.00  0.00    -0.237 OA
ATOM     83  O   UNL A   1      40.770  19.351  25.725  1.00  0.00    -0.237 OA
ATOM     84  O   UNL A   1      43.035  19.429  24.762  1.00  0.00    -0.744 OA
ENDBRANCH  80  81
ENDBRANCH  48  73
BRANCH  60  85
ATOM     85  C   UNL A   1      48.066  27.089  30.492  1.00  0.00     0.058 A 
ATOM     86  C   UNL A   1      49.123  27.388  29.618  1.00  0.00     0.135 A 
ATOM     87  C   UNL A   1      48.372  26.438  31.697  1.00  0.00     0.135 A 
ATOM     88  F   UNL A   1      48.881  28.003  28.450  1.00  0.00    -0.206 F 
ATOM     89  C   UNL A   1      50.433  27.036  29.920  1.00  0.00     0.059 A 
ATOM     90  C   UNL A   1      49.678  26.098  32.031  1.00  0.00     0.059 A 
ATOM     91  F   UNL A   1      47.398  26.140  32.571  1.00  0.00    -0.206 F 
ATOM     92  C   UNL A   1      50.702  26.392  31.129  1.00  0.00     0.060 A 
BRANCH  92  93
ATOM     93  S   UNL A   1      52.412  25.970  31.527  1.00  0.00     0.124 S 
ATOM     94  O   UNL A   1      52.259  24.637  32.102  1.00  0.00    -0.237 OA
ATOM     95  O   UNL A   1      53.062  26.027  30.222  1.00  0.00    -0.237 OA
ATOM     96  O   UNL A   1      52.809  27.016  32.464  1.00  0.00    -0.744 OA
ENDBRANCH  92  93
ENDBRANCH  60  85
ENDBRANCH  34  35
ENDBRANCH  26  29
ENDBRANCH  24  25
ENDBRANCH   1  24
TORSDOF 16
ENDMDL
MODEL 2
REMARK VINA RESULT:     -11.4      5.058     10.364
REMARK SMILES O=Cc1ccc2c(c1)C=C(C(=O)NCCCCNC(=O)c1ccc(-c3c4nc(c(-c5c(F)cc(S(=O)(=O)[O-])cc5F)c5ccc([nH]5)c(-c5c(F)cc(S(=O)(=O)[O-])cc5F)c5nc(c(-c6c(F)cc(S(=O)(=O)[O-])cc6F)c6ccc3[nH]6)C=C5)C=C4)cc1)[C@H](C(F)(F)F)O2
REMARK SMILES IDX 16 1 15 2 14 3 13 4 11 5 12 6 10 8 3 9 4 10 8 11 5 12 7 13
REMARK SMILES IDX 6 14 9 15 92 16 87 17 2 18 1 19 88 20 89 21 90 22 91 23
REMARK SMILES IDX 17 24 18 25 19 26 20 28 21 29 22 30 86 31 23 32 85 33 24 34
REMARK SMILES IDX 25 35 26 36 79 37 27 38 84 39 78 40 80 41 28 42 83 43 77 44
REMARK SMILES IDX 76 45 29 47 63 48 42 49 62 50 43 51 46 52 61 53 81 54 44 55
REMARK SMILES IDX 45 56 60 58 82 59 47 60 30 61 31 62 40 63 32 64 33 65 39 66
REMARK SMILES IDX 41 67 34 68 35 69 36 70 37 71 38 72 64 73 65 74 74 75 66 76
REMARK SMILES IDX 67 77 73 78 75 79 68 80 69 81 70 82 71 83 72 84 48 85 49 86
REMARK SMILES IDX 58 87 50 88 51 89 57 90 59 91 52 92 53 93 54 94 55 95 56 96
REMARK H PARENT 13 7 18 27 80 46 46 57
REMARK Flexibility Score: inf
ROOT
ATOM      1  C   UNL A   1      37.390  23.139  25.852  1.00  0.00     0.023 C 
ENDROOT
BRANCH   1   2
ATOM      2  C   UNL A   1      36.553  23.544  24.635  1.00  0.00     0.023 C 
BRANCH   2   3
ATOM      3  C   UNL A   1      35.351  24.437  24.964  1.00  0.00     0.116 C 
BRANCH   3   4
ATOM      4  N   UNL A   1      34.717  23.993  26.193  1.00  0.00    -0.352 N 
ATOM      5  C   UNL A   1      33.830  23.001  26.465  1.00  0.00     0.251 C 
ATOM      6  O   UNL A   1      33.340  22.953  27.591  1.00  0.00    -0.270 OA
ATOM      7  H   UNL A   1      34.980  24.516  26.985  1.00  0.00     0.163 HD
BRANCH   5   8
ATOM      8  C   UNL A   1      33.479  21.932  25.489  1.00  0.00     0.067 C 
ATOM      9  C   UNL A   1      33.641  17.441  23.719  1.00  0.00     0.015 A 
ATOM     10  C   UNL A   1      32.671  17.770  22.769  1.00  0.00     0.015 A 
ATOM     11  C   UNL A   1      34.111  18.408  24.610  1.00  0.00     0.023 A 
ATOM     12  C   UNL A   1      32.162  19.069  22.723  1.00  0.00     0.048 A 
ATOM     13  C   UNL A   1      33.597  19.710  24.557  1.00  0.00     0.018 A 
ATOM     14  C   UNL A   1      32.623  20.035  23.617  1.00  0.00     0.128 A 
ATOM     15  C   UNL A   1      34.020  20.706  25.525  1.00  0.00     0.025 C 
ATOM     16  O   UNL A   1      32.032  21.259  23.546  1.00  0.00    -0.475 OA
ATOM     17  C   UNL A   1      32.580  22.362  24.330  1.00  0.00     0.314 C 
BRANCH   9  18
ATOM     18  C   UNL A   1      34.160  16.061  23.809  1.00  0.00     0.260 C 
ATOM     19  O   UNL A   1      34.267  15.477  24.879  1.00  0.00    -0.298 OA
ENDBRANCH   9  18
BRANCH  17  20
ATOM     20  C   UNL A   1      31.398  23.291  24.694  1.00  0.00     0.429 C 
ATOM     21  F   UNL A   1      31.780  24.564  24.927  1.00  0.00    -0.167 F 
ATOM     22  F   UNL A   1      30.507  23.364  23.666  1.00  0.00    -0.167 F 
ATOM     23  F   UNL A   1      30.710  22.850  25.772  1.00  0.00    -0.167 F 
ENDBRANCH  17  20
ENDBRANCH   5   8
ENDBRANCH   3   4
ENDBRANCH   2   3
ENDBRANCH   1   2
BRANCH   1  24
ATOM     24  C   UNL A   1      38.304  24.234  26.389  1.00  0.00     0.116 C 
BRANCH  24  25
ATOM     25  N   UNL A   1      39.710  23.989  26.112  1.00  0.00    -0.352 N 
ATOM     26  C   UNL A   1      40.807  24.671  26.589  1.00  0.00     0.251 C 
ATOM     27  H   UNL A   1      39.904  23.239  25.506  1.00  0.00     0.163 HD
ATOM     28  O   UNL A   1      41.924  24.404  26.172  1.00  0.00    -0.269 OA
BRANCH  26  29
ATOM     29  C   UNL A   1      40.608  25.755  27.575  1.00  0.00     0.039 A 
ATOM     30  C   UNL A   1      39.615  25.604  28.545  1.00  0.00     0.014 A 
ATOM     31  C   UNL A   1      41.420  26.892  27.563  1.00  0.00     0.014 A 
ATOM     32  C   UNL A   1      39.477  26.569  29.545  1.00  0.00     0.010 A 
ATOM     33  C   UNL A   1      41.324  27.819  28.596  1.00  0.00     0.010 A 
ATOM     34  C   UNL A   1      40.354  27.665  29.597  1.00  0.00    -0.014 A 
BRANCH  34  35
ATOM     35  C   UNL A   1      40.271  28.664  30.692  1.00  0.00     0.031 A 
ATOM     36  C   UNL A   1      41.149  28.526  31.905  1.00  0.00     0.074 A 
ATOM     37  C   UNL A   1      39.357  29.653  30.622  1.00  0.00     0.049 A 
ATOM     38  N   UNL A   1      41.169  29.246  32.995  1.00  0.00    -0.248 NA
ATOM     39  C   UNL A   1      42.113  27.413  31.902  1.00  0.00     0.031 C 
ATOM     40  C   UNL A   1      38.414  29.860  29.520  1.00  0.00     0.029 A 
ATOM     41  N   UNL A   1      39.065  30.665  31.502  1.00  0.00    -0.354 N 
ATOM     42  C   UNL A   1      42.134  28.669  33.813  1.00  0.00     0.074 A 
ATOM     43  C   UNL A   1      42.642  27.509  33.113  1.00  0.00     0.031 C 
ATOM     44  C   UNL A   1      37.660  30.940  29.782  1.00  0.00     0.029 A 
ATOM     45  C   UNL A   1      38.044  31.484  31.081  1.00  0.00     0.049 A 
ATOM     46  H   UNL A   1      39.540  30.791  32.354  1.00  0.00     0.167 HD
ATOM     47  C   UNL A   1      42.574  29.082  35.025  1.00  0.00     0.037 A 
ATOM     48  C   UNL A   1      37.478  32.551  31.678  1.00  0.00     0.037 A 
ATOM     49  C   UNL A   1      42.086  30.256  35.701  1.00  0.00     0.049 A 
ATOM     50  C   UNL A   1      37.996  33.001  33.018  1.00  0.00     0.074 A 
ATOM     51  C   UNL A   1      42.503  30.790  36.908  1.00  0.00     0.029 A 
ATOM     52  N   UNL A   1      41.079  31.082  35.225  1.00  0.00    -0.354 N 
ATOM     53  N   UNL A   1      38.948  32.474  33.751  1.00  0.00    -0.248 NA
ATOM     54  C   UNL A   1      37.370  34.192  33.607  1.00  0.00     0.031 C 
ATOM     55  C   UNL A   1      41.727  31.922  37.176  1.00  0.00     0.029 A 
ATOM     56  C   UNL A   1      40.854  32.116  36.118  1.00  0.00     0.049 A 
ATOM     57  H   UNL A   1      40.595  30.953  34.377  1.00  0.00     0.167 HD
ATOM     58  C   UNL A   1      39.055  33.287  34.874  1.00  0.00     0.074 A 
ATOM     59  C   UNL A   1      38.078  34.345  34.719  1.00  0.00     0.031 C 
ATOM     60  C   UNL A   1      39.887  33.169  35.937  1.00  0.00     0.037 A 
BRANCH  47  61
ATOM     61  C   UNL A   1      43.646  28.269  35.691  1.00  0.00     0.058 A 
ATOM     62  C   UNL A   1      45.008  28.522  35.461  1.00  0.00     0.135 A 
ATOM     63  C   UNL A   1      43.314  27.249  36.597  1.00  0.00     0.135 A 
ATOM     64  F   UNL A   1      45.381  29.475  34.592  1.00  0.00    -0.206 F 
ATOM     65  C   UNL A   1      46.002  27.778  36.086  1.00  0.00     0.059 A 
ATOM     66  C   UNL A   1      44.293  26.508  37.253  1.00  0.00     0.059 A 
ATOM     67  F   UNL A   1      42.028  26.963  36.851  1.00  0.00    -0.206 F 
ATOM     68  C   UNL A   1      45.635  26.772  36.981  1.00  0.00     0.060 A 
BRANCH  68  69
ATOM     69  S   UNL A   1      46.938  25.821  37.792  1.00  0.00     0.124 S 
ATOM     70  O   UNL A   1      48.080  26.099  36.928  1.00  0.00    -0.237 OA
ATOM     71  O   UNL A   1      46.985  26.425  39.119  1.00  0.00    -0.237 OA
ATOM     72  O   UNL A   1      46.436  24.451  37.748  1.00  0.00    -0.744 OA
ENDBRANCH  68  69
ENDBRANCH  47  61
BRANCH  48  73
ATOM     73  C   UNL A   1      36.375  33.286  31.005  1.00  0.00     0.058 A 
ATOM     74  C   UNL A   1      36.631  34.122  29.907  1.00  0.00     0.135 A 
ATOM     75  C   UNL A   1      35.047  33.172  31.444  1.00  0.00     0.135 A 
ATOM     76  F   UNL A   1      37.885  34.264  29.453  1.00  0.00    -0.206 F 
ATOM     77  C   UNL A   1      35.615  34.836  29.282  1.00  0.00     0.059 A 
ATOM     78  C   UNL A   1      34.009  33.859  30.821  1.00  0.00     0.059 A 
ATOM     79  F   UNL A   1      34.747  32.370  32.479  1.00  0.00    -0.206 F 
ATOM     80  C   UNL A   1      34.306  34.700  29.749  1.00  0.00     0.060 A 
BRANCH  80  81
ATOM     81  S   UNL A   1      32.987  35.605  28.910  1.00  0.00     0.124 S 
ATOM     82  O   UNL A   1      33.742  36.630  28.199  1.00  0.00    -0.237 OA
ATOM     83  O   UNL A   1      32.380  34.568  28.081  1.00  0.00    -0.237 OA
ATOM     84  O   UNL A   1      32.156  36.079  30.012  1.00  0.00    -0.744 OA
ENDBRANCH  80  81
ENDBRANCH  48  73
BRANCH  60  85
ATOM     85  C   UNL A   1      39.807  34.231  36.998  1.00  0.00     0.058 A 
ATOM     86  C   UNL A   1      40.445  35.472  36.848  1.00  0.00     0.135 A 
ATOM     87  C   UNL A   1      39.041  34.021  38.155  1.00  0.00     0.135 A 
ATOM     88  F   UNL A   1      41.195  35.719  35.762  1.00  0.00    -0.206 F 
ATOM     89  C   UNL A   1      40.344  36.461  37.819  1.00  0.00     0.059 A 
ATOM     90  C   UNL A   1      38.905  35.005  39.129  1.00  0.00     0.059 A 
ATOM     91  F   UNL A   1      38.403  32.854  38.341  1.00  0.00    -0.206 F 
ATOM     92  C   UNL A   1      39.571  36.219  38.956  1.00  0.00     0.060 A 
BRANCH  92  93
ATOM     93  S   UNL A   1      39.416  37.523  40.195  1.00  0.00     0.124 S 
ATOM     94  O   UNL A   1      38.753  36.814  41.286  1.00  0.00    -0.237 OA
ATOM     95  O   UNL A   1      40.807  37.896  40.434  1.00  0.00    -0.237 OA
ATOM     96  O   UNL A   1      38.609  38.536  39.522  1.00  0.00    -0.744 OA
ENDBRANCH  92  93
ENDBRANCH  60  85
ENDBRANCH  34  35
ENDBRANCH  26  29
ENDBRANCH  24  25
ENDBRANCH   1  24
TORSDOF 16
ENDMDL
MODEL 3
REMARK VINA RESULT:     -11.3      2.825      9.190
REMARK SMILES O=Cc1ccc2c(c1)C=C(C(=O)NCCCCNC(=O)c1ccc(-c3c4nc(c(-c5c(F)cc(S(=O)(=O)[O-])cc5F)c5ccc([nH]5)c(-c5c(F)cc(S(=O)(=O)[O-])cc5F)c5nc(c(-c6c(F)cc(S(=O)(=O)[O-])cc6F)c6ccc3[nH]6)C=C5)C=C4)cc1)[C@H](C(F)(F)F)O2
REMARK SMILES IDX 16 1 15 2 14 3 13 4 11 5 12 6 10 8 3 9 4 10 8 11 5 12 7 13
REMARK SMILES IDX 6 14 9 15 92 16 87 17 2 18 1 19 88 20 89 21 90 22 91 23
REMARK SMILES IDX 17 24 18 25 19 26 20 28 21 29 22 30 86 31 23 32 85 33 24 34
REMARK SMILES IDX 25 35 26 36 79 37 27 38 84 39 78 40 80 41 28 42 83 43 77 44
REMARK SMILES IDX 76 45 29 47 63 48 42 49 62 50 43 51 46 52 61 53 81 54 44 55
REMARK SMILES IDX 45 56 60 58 82 59 47 60 30 61 31 62 40 63 32 64 33 65 39 66
REMARK SMILES IDX 41 67 34 68 35 69 36 70 37 71 38 72 64 73 65 74 74 75 66 76
REMARK SMILES IDX 67 77 73 78 75 79 68 80 69 81 70 82 71 83 72 84 48 85 49 86
REMARK SMILES IDX 58 87 50 88 51 89 57 90 59 91 52 92 53 93 54 94 55 95 56 96
REMARK H PARENT 13 7 18 27 80 46 46 57
REMARK Flexibility Score: inf
ROOT
ATOM      1  C   UNL A   1      35.343  23.089  25.704  1.00  0.00     0.023 C 
ENDROOT
BRANCH   1   2
ATOM      2  C   UNL A   1      34.946  22.153  24.559  1.00  0.00     0.023 C 
BRANCH   2   3
ATOM      3  C   UNL A   1      33.626  22.521  23.872  1.00  0.00     0.116 C 
BRANCH   3   4
ATOM      4  N   UNL A   1      33.864  23.482  22.809  1.00  0.00    -0.352 N 
ATOM      5  C   UNL A   1      33.582  24.806  22.685  1.00  0.00     0.251 C 
ATOM      6  O   UNL A   1      33.766  25.337  21.592  1.00  0.00    -0.270 OA
ATOM      7  H   UNL A   1      34.318  23.099  22.024  1.00  0.00     0.163 HD
BRANCH   5   8
ATOM      8  C   UNL A   1      33.129  25.653  23.823  1.00  0.00     0.067 C 
ATOM      9  C   UNL A   1      33.653  29.147  27.116  1.00  0.00     0.015 A 
ATOM     10  C   UNL A   1      32.319  28.999  27.500  1.00  0.00     0.015 A 
ATOM     11  C   UNL A   1      34.198  28.324  26.128  1.00  0.00     0.023 A 
ATOM     12  C   UNL A   1      31.525  28.031  26.882  1.00  0.00     0.048 A 
ATOM     13  C   UNL A   1      33.397  27.353  25.513  1.00  0.00     0.018 A 
ATOM     14  C   UNL A   1      32.064  27.212  25.889  1.00  0.00     0.128 A 
ATOM     15  C   UNL A   1      33.927  26.541  24.433  1.00  0.00     0.025 C 
ATOM     16  O   UNL A   1      31.208  26.336  25.295  1.00  0.00    -0.475 OA
ATOM     17  C   UNL A   1      31.739  25.336  24.373  1.00  0.00     0.314 C 
BRANCH   9  18
ATOM     18  C   UNL A   1      34.495  30.195  27.729  1.00  0.00     0.260 C 
ATOM     19  O   UNL A   1      34.310  31.385  27.514  1.00  0.00    -0.298 OA
ENDBRANCH   9  18
BRANCH  17  20
ATOM     20  C   UNL A   1      30.638  25.057  23.323  1.00  0.00     0.429 C 
ATOM     21  F   UNL A   1      30.518  23.748  23.018  1.00  0.00    -0.167 F 
ATOM     22  F   UNL A   1      29.416  25.432  23.793  1.00  0.00    -0.167 F 
ATOM     23  F   UNL A   1      30.838  25.744  22.174  1.00  0.00    -0.167 F 
ENDBRANCH  17  20
ENDBRANCH   5   8
ENDBRANCH   3   4
ENDBRANCH   2   3
ENDBRANCH   1   2
BRANCH   1  24
ATOM     24  C   UNL A   1      36.696  23.769  25.531  1.00  0.00     0.116 C 
BRANCH  24  25
ATOM     25  N   UNL A   1      37.812  22.839  25.572  1.00  0.00    -0.352 N 
ATOM     26  C   UNL A   1      39.068  23.033  26.101  1.00  0.00     0.251 C 
ATOM     27  H   UNL A   1      37.649  21.955  25.170  1.00  0.00     0.163 HD
ATOM     28  O   UNL A   1      39.932  22.180  25.958  1.00  0.00    -0.269 OA
BRANCH  26  29
ATOM     29  C   UNL A   1      39.366  24.299  26.802  1.00  0.00     0.039 A 
ATOM     30  C   UNL A   1      38.928  24.455  28.120  1.00  0.00     0.014 A 
ATOM     31  C   UNL A   1      40.103  25.309  26.177  1.00  0.00     0.014 A 
ATOM     32  C   UNL A   1      39.285  25.601  28.833  1.00  0.00     0.010 A 
ATOM     33  C   UNL A   1      40.512  26.419  26.909  1.00  0.00     0.010 A 
ATOM     34  C   UNL A   1      40.108  26.574  28.244  1.00  0.00    -0.014 A 
BRANCH  34  35
ATOM     35  C   UNL A   1      40.557  27.765  29.007  1.00  0.00     0.031 A 
ATOM     36  C   UNL A   1      41.907  27.768  29.671  1.00  0.00     0.074 A 
ATOM     37  C   UNL A   1      39.722  28.813  29.158  1.00  0.00     0.049 A 
ATOM     38  N   UNL A   1      42.444  28.675  30.444  1.00  0.00    -0.248 NA
ATOM     39  C   UNL A   1      42.751  26.581  29.461  1.00  0.00     0.031 C 
ATOM     40  C   UNL A   1      38.369  28.905  28.604  1.00  0.00     0.029 A 
ATOM     41  N   UNL A   1      39.885  29.997  29.831  1.00  0.00    -0.354 N 
ATOM     42  C   UNL A   1      43.681  28.166  30.822  1.00  0.00     0.074 A 
ATOM     43  C   UNL A   1      43.793  26.848  30.236  1.00  0.00     0.031 C 
ATOM     44  C   UNL A   1      37.832  30.088  28.946  1.00  0.00     0.029 A 
ATOM     45  C   UNL A   1      38.789  30.824  29.767  1.00  0.00     0.049 A 
ATOM     46  H   UNL A   1      40.709  30.232  30.316  1.00  0.00     0.167 HD
ATOM     47  C   UNL A   1      44.645  28.753  31.571  1.00  0.00     0.037 A 
ATOM     48  C   UNL A   1      38.577  32.037  30.312  1.00  0.00     0.037 A 
ATOM     49  C   UNL A   1      44.540  30.077  32.124  1.00  0.00     0.049 A 
ATOM     50  C   UNL A   1      39.670  32.676  31.126  1.00  0.00     0.074 A 
ATOM     51  C   UNL A   1      45.481  30.783  32.853  1.00  0.00     0.029 A 
ATOM     52  N   UNL A   1      43.429  30.899  32.005  1.00  0.00    -0.354 N 
ATOM     53  N   UNL A   1      40.856  32.201  31.428  1.00  0.00    -0.248 NA
ATOM     54  C   UNL A   1      39.402  34.015  31.666  1.00  0.00     0.031 C 
ATOM     55  C   UNL A   1      44.929  32.020  33.200  1.00  0.00     0.029 A 
ATOM     56  C   UNL A   1      43.658  32.100  32.654  1.00  0.00     0.049 A 
ATOM     57  H   UNL A   1      42.600  30.663  31.529  1.00  0.00     0.167 HD
ATOM     58  C   UNL A   1      41.485  33.196  32.168  1.00  0.00     0.074 A 
ATOM     59  C   UNL A   1      40.554  34.302  32.259  1.00  0.00     0.031 C 
ATOM     60  C   UNL A   1      42.723  33.195  32.720  1.00  0.00     0.037 A 
BRANCH  47  61
ATOM     61  C   UNL A   1      45.904  27.972  31.820  1.00  0.00     0.058 A 
ATOM     62  C   UNL A   1      47.000  28.049  30.947  1.00  0.00     0.135 A 
ATOM     63  C   UNL A   1      46.033  27.166  32.963  1.00  0.00     0.135 A 
ATOM     64  F   UNL A   1      46.924  28.792  29.831  1.00  0.00    -0.206 F 
ATOM     65  C   UNL A   1      48.171  27.338  31.183  1.00  0.00     0.059 A 
ATOM     66  C   UNL A   1      47.205  26.464  33.232  1.00  0.00     0.059 A 
ATOM     67  F   UNL A   1      45.015  27.054  33.830  1.00  0.00    -0.206 F 
ATOM     68  C   UNL A   1      48.264  26.546  32.329  1.00  0.00     0.060 A 
BRANCH  68  69
ATOM     69  S   UNL A   1      49.793  25.635  32.627  1.00  0.00     0.124 S 
ATOM     70  O   UNL A   1      50.100  25.140  31.289  1.00  0.00    -0.237 OA
ATOM     71  O   UNL A   1      50.682  26.675  33.136  1.00  0.00    -0.237 OA
ATOM     72  O   UNL A   1      49.401  24.620  33.598  1.00  0.00    -0.744 OA
ENDBRANCH  68  69
ENDBRANCH  47  61
BRANCH  48  73
ATOM     73  C   UNL A   1      37.287  32.743  30.088  1.00  0.00     0.058 A 
ATOM     74  C   UNL A   1      37.151  33.682  29.054  1.00  0.00     0.135 A 
ATOM     75  C   UNL A   1      36.170  32.498  30.899  1.00  0.00     0.135 A 
ATOM     76  F   UNL A   1      38.194  33.953  28.254  1.00  0.00    -0.206 F 
ATOM     77  C   UNL A   1      35.960  34.370  28.846  1.00  0.00     0.059 A 
ATOM     78  C   UNL A   1      34.960  33.156  30.696  1.00  0.00     0.059 A 
ATOM     79  F   UNL A   1      36.243  31.594  31.890  1.00  0.00    -0.206 F 
ATOM     80  C   UNL A   1      34.870  34.101  29.675  1.00  0.00     0.060 A 
BRANCH  80  81
ATOM     81  S   UNL A   1      33.317  34.973  29.377  1.00  0.00     0.124 S 
ATOM     82  O   UNL A   1      32.717  34.154  28.331  1.00  0.00    -0.237 OA
ATOM     83  O   UNL A   1      32.672  34.911  30.686  1.00  0.00    -0.237 OA
ATOM     84  O   UNL A   1      33.756  36.304  28.967  1.00  0.00    -0.744 OA
ENDBRANCH  80  81
ENDBRANCH  48  73
BRANCH  60  85
ATOM     85  C   UNL A   1      43.159  34.441  33.439  1.00  0.00     0.058 A 
ATOM     86  C   UNL A   1      43.780  35.502  32.764  1.00  0.00     0.135 A 
ATOM     87  C   UNL A   1      42.906  34.592  34.812  1.00  0.00     0.135 A 
ATOM     88  F   UNL A   1      44.050  35.403  31.453  1.00  0.00    -0.206 F 
ATOM     89  C   UNL A   1      44.155  36.664  33.429  1.00  0.00     0.059 A 
ATOM     90  C   UNL A   1      43.250  35.755  35.493  1.00  0.00     0.059 A 
ATOM     91  F   UNL A   1      42.305  33.609  35.501  1.00  0.00    -0.206 F 
ATOM     92  C   UNL A   1      43.885  36.782  34.794  1.00  0.00     0.060 A 
BRANCH  92  93
ATOM     93  S   UNL A   1      44.343  38.309  35.641  1.00  0.00     0.124 S 
ATOM     94  O   UNL A   1      45.801  38.253  35.578  1.00  0.00    -0.237 OA
ATOM     95  O   UNL A   1      43.711  39.330  34.812  1.00  0.00    -0.237 OA
ATOM     96  O   UNL A   1      43.765  38.145  36.971  1.00  0.00    -0.744 OA
ENDBRANCH  92  93
ENDBRANCH  60  85
ENDBRANCH  34  35
ENDBRANCH  26  29
ENDBRANCH  24  25
ENDBRANCH   1  24
TORSDOF 16
ENDMDL
