MODEL 1
REMARK VINA RESULT:     -11.8      0.000      0.000
REMARK SMILES CC1=C(C)C[C@@H](C(=O)N[C@H](C)C(C)(C)C)[C@@H](C(=O)NCCCCNC(=O)c2ccc(-c3c4nc(c(-c5c(F)cc(S(=O)(=O)[O-])cc5F)c5ccc([nH]5)c(-c5c(F)cc(S(=O)(=O)[O-])cc5F)c5nc(c(-c6c(F)cc(S(=O)(=O)[O-])cc6F)c6ccc3[nH]6)C=C5)C=C4)cc2)C1
REMARK SMILES IDX 21 1 20 2 19 3 17 4 18 5 16 7 1 8 2 9 3 10 93 11 4 12 5 13
REMARK SMILES IDX 6 14 7 15 8 16 9 17 10 19 11 20 12 21 13 22 14 23 15 24
REMARK SMILES IDX 22 25 23 26 24 27 25 28 26 30 27 31 28 32 92 33 29 34 91 35
REMARK SMILES IDX 30 36 31 37 32 38 85 39 33 40 90 41 84 42 86 43 34 44 89 45
REMARK SMILES IDX 83 46 82 47 35 49 69 50 48 51 68 52 49 53 52 54 67 55 87 56
REMARK SMILES IDX 50 57 51 58 66 60 88 61 53 62 36 63 37 64 46 65 38 66 39 67
REMARK SMILES IDX 45 68 47 69 40 70 41 71 42 72 43 73 44 74 70 75 71 76 80 77
REMARK SMILES IDX 72 78 73 79 79 80 81 81 74 82 75 83 76 84 77 85 78 86 54 87
REMARK SMILES IDX 55 88 64 89 56 90 57 91 63 92 65 93 58 94 59 95 60 96 61 97
REMARK SMILES IDX 62 98
REMARK H PARENT 19 6 9 18 24 29 86 48 52 59
REMARK Flexibility Score: inf
ROOT
ATOM      1  C   UNL A   1      41.012  21.682  26.472  1.00  0.00     0.023 C 
ENDROOT
BRANCH   1   2
ATOM      2  C   UNL A   1      39.542  22.107  26.500  1.00  0.00     0.116 C 
BRANCH   2   3
ATOM      3  N   UNL A   1      38.664  21.238  25.727  1.00  0.00    -0.356 N 
ATOM      4  C   UNL A   1      37.499  21.421  25.055  1.00  0.00     0.224 C 
ATOM      5  O   UNL A   1      37.213  20.518  24.258  1.00  0.00    -0.275 OA
ATOM      6  H   UNL A   1      38.990  20.311  25.680  1.00  0.00     0.163 HD
BRANCH   4   7
ATOM      7  C   UNL A   1      36.515  22.599  25.236  1.00  0.00     0.095 C 
ATOM      8  C   UNL A   1      33.820  23.369  22.417  1.00  0.00     0.039 C 
ATOM      9  C   UNL A   1      34.443  23.425  23.790  1.00  0.00    -0.074 C 
ATOM     10  C   UNL A   1      33.800  23.816  24.911  1.00  0.00    -0.074 C 
ATOM     11  C   UNL A   1      35.879  22.912  23.834  1.00  0.00     0.045 C 
ATOM     12  C   UNL A   1      32.342  24.179  25.017  1.00  0.00     0.039 C 
ATOM     13  C   UNL A   1      34.533  23.773  26.234  1.00  0.00     0.045 C 
ATOM     14  C   UNL A   1      35.441  22.530  26.329  1.00  0.00     0.095 C 
BRANCH  14  15
ATOM     15  C   UNL A   1      34.497  21.325  26.310  1.00  0.00     0.224 C 
ATOM     16  O   UNL A   1      33.634  21.192  27.175  1.00  0.00    -0.275 OA
ATOM     17  N   UNL A   1      34.654  20.477  25.245  1.00  0.00    -0.353 N 
ATOM     18  H   UNL A   1      35.584  20.270  24.996  1.00  0.00     0.163 HD
BRANCH  17  19
ATOM     19  C   UNL A   1      33.630  19.843  24.438  1.00  0.00     0.084 C 
ATOM     20  C   UNL A   1      32.241  20.494  24.518  1.00  0.00     0.031 C 
BRANCH  19  21
ATOM     21  C   UNL A   1      33.671  18.283  24.455  1.00  0.00    -0.018 C 
ATOM     22  C   UNL A   1      32.841  17.808  25.670  1.00  0.00     0.013 C 
ATOM     23  C   UNL A   1      33.002  17.662  23.204  1.00  0.00     0.013 C 
ATOM     24  C   UNL A   1      35.106  17.743  24.552  1.00  0.00     0.013 C 
ENDBRANCH  19  21
ENDBRANCH  17  19
ENDBRANCH  14  15
ENDBRANCH   4   7
ENDBRANCH   2   3
ENDBRANCH   1   2
BRANCH   1  25
ATOM     25  C   UNL A   1      41.889  22.210  27.599  1.00  0.00     0.023 C 
BRANCH  25  26
ATOM     26  C   UNL A   1      42.862  23.293  27.176  1.00  0.00     0.116 C 
BRANCH  26  27
ATOM     27  N   UNL A   1      42.425  24.067  26.018  1.00  0.00    -0.352 N 
ATOM     28  C   UNL A   1      41.980  25.369  25.995  1.00  0.00     0.251 C 
ATOM     29  H   UNL A   1      42.453  23.603  25.150  1.00  0.00     0.163 HD
ATOM     30  O   UNL A   1      41.594  25.894  24.956  1.00  0.00    -0.269 OA
BRANCH  28  31
ATOM     31  C   UNL A   1      41.925  26.094  27.277  1.00  0.00     0.039 A 
ATOM     32  C   UNL A   1      42.846  27.114  27.519  1.00  0.00     0.014 A 
ATOM     33  C   UNL A   1      40.855  25.867  28.144  1.00  0.00     0.014 A 
ATOM     34  C   UNL A   1      42.639  27.971  28.598  1.00  0.00     0.010 A 
ATOM     35  C   UNL A   1      40.589  26.791  29.141  1.00  0.00     0.010 A 
ATOM     36  C   UNL A   1      41.483  27.844  29.385  1.00  0.00    -0.014 A 
BRANCH  36  37
ATOM     37  C   UNL A   1      41.200  28.769  30.508  1.00  0.00     0.031 A 
ATOM     38  C   UNL A   1      42.017  28.654  31.766  1.00  0.00     0.074 A 
ATOM     39  C   UNL A   1      40.170  29.634  30.429  1.00  0.00     0.049 A 
ATOM     40  N   UNL A   1      41.866  29.269  32.908  1.00  0.00    -0.248 NA
ATOM     41  C   UNL A   1      43.119  27.676  31.752  1.00  0.00     0.031 C 
ATOM     42  C   UNL A   1      39.266  29.781  29.285  1.00  0.00     0.029 A 
ATOM     43  N   UNL A   1      39.703  30.552  31.336  1.00  0.00    -0.354 N 
ATOM     44  C   UNL A   1      42.831  28.730  33.752  1.00  0.00     0.074 A 
ATOM     45  C   UNL A   1      43.508  27.687  33.017  1.00  0.00     0.031 C 
ATOM     46  C   UNL A   1      38.375  30.753  29.547  1.00  0.00     0.029 A 
ATOM     47  C   UNL A   1      38.624  31.275  30.887  1.00  0.00     0.049 A 
ATOM     48  H   UNL A   1      40.104  30.680  32.226  1.00  0.00     0.167 HD
ATOM     49  C   UNL A   1      43.153  29.101  35.012  1.00  0.00     0.037 A 
ATOM     50  C   UNL A   1      37.920  32.252  31.492  1.00  0.00     0.037 A 
ATOM     51  C   UNL A   1      42.513  30.183  35.706  1.00  0.00     0.049 A 
ATOM     52  C   UNL A   1      38.327  32.684  32.875  1.00  0.00     0.074 A 
ATOM     53  C   UNL A   1      42.801  30.695  36.958  1.00  0.00     0.029 A 
ATOM     54  N   UNL A   1      41.462  30.932  35.197  1.00  0.00    -0.354 N 
ATOM     55  N   UNL A   1      39.282  32.205  33.639  1.00  0.00    -0.248 NA
ATOM     56  C   UNL A   1      37.573  33.791  33.477  1.00  0.00     0.031 C 
ATOM     57  C   UNL A   1      41.905  31.737  37.215  1.00  0.00     0.029 A 
ATOM     58  C   UNL A   1      41.085  31.900  36.110  1.00  0.00     0.049 A 
ATOM     59  H   UNL A   1      41.046  30.795  34.315  1.00  0.00     0.167 HD
ATOM     60  C   UNL A   1      39.259  32.968  34.801  1.00  0.00     0.074 A 
ATOM     61  C   UNL A   1      38.204  33.948  34.633  1.00  0.00     0.031 C 
ATOM     62  C   UNL A   1      40.037  32.868  35.907  1.00  0.00     0.037 A 
BRANCH  49  63
ATOM     63  C   UNL A   1      44.260  28.345  35.693  1.00  0.00     0.058 A 
ATOM     64  C   UNL A   1      43.998  27.229  36.504  1.00  0.00     0.135 A 
ATOM     65  C   UNL A   1      45.597  28.743  35.539  1.00  0.00     0.135 A 
ATOM     66  F   UNL A   1      42.734  26.820  36.705  1.00  0.00    -0.206 F 
ATOM     67  C   UNL A   1      45.016  26.557  37.170  1.00  0.00     0.059 A 
ATOM     68  C   UNL A   1      46.636  28.065  36.172  1.00  0.00     0.059 A 
ATOM     69  F   UNL A   1      45.905  29.806  34.779  1.00  0.00    -0.206 F 
ATOM     70  C   UNL A   1      46.333  26.984  36.999  1.00  0.00     0.060 A 
BRANCH  70  71
ATOM     71  S   UNL A   1      47.645  26.103  37.872  1.00  0.00     0.124 S 
ATOM     72  O   UNL A   1      47.948  25.030  36.931  1.00  0.00    -0.237 OA
ATOM     73  O   UNL A   1      48.670  27.132  38.012  1.00  0.00    -0.237 OA
ATOM     74  O   UNL A   1      47.004  25.687  39.115  1.00  0.00    -0.744 OA
ENDBRANCH  70  71
ENDBRANCH  49  63
BRANCH  50  75
ATOM     75  C   UNL A   1      36.795  32.914  30.778  1.00  0.00     0.058 A 
ATOM     76  C   UNL A   1      35.468  32.515  31.000  1.00  0.00     0.135 A 
ATOM     77  C   UNL A   1      37.017  33.968  29.878  1.00  0.00     0.135 A 
ATOM     78  F   UNL A   1      35.205  31.510  31.848  1.00  0.00    -0.206 F 
ATOM     79  C   UNL A   1      34.403  33.126  30.346  1.00  0.00     0.059 A 
ATOM     80  C   UNL A   1      35.966  34.609  29.229  1.00  0.00     0.059 A 
ATOM     81  F   UNL A   1      38.266  34.401  29.643  1.00  0.00    -0.206 F 
ATOM     82  C   UNL A   1      34.661  34.175  29.463  1.00  0.00     0.060 A 
BRANCH  82  83
ATOM     83  S   UNL A   1      33.267  34.996  28.660  1.00  0.00     0.124 S 
ATOM     84  O   UNL A   1      32.536  35.523  29.807  1.00  0.00    -0.237 OA
ATOM     85  O   UNL A   1      33.935  35.985  27.820  1.00  0.00    -0.237 OA
ATOM     86  O   UNL A   1      32.611  33.910  27.937  1.00  0.00    -0.744 OA
ENDBRANCH  82  83
ENDBRANCH  50  75
BRANCH  62  87
ATOM     87  C   UNL A   1      39.799  33.860  37.008  1.00  0.00     0.058 A 
ATOM     88  C   UNL A   1      39.004  33.544  38.119  1.00  0.00     0.135 A 
ATOM     89  C   UNL A   1      40.435  35.112  36.984  1.00  0.00     0.135 A 
ATOM     90  F   UNL A   1      38.371  32.362  38.184  1.00  0.00    -0.206 F 
ATOM     91  C   UNL A   1      38.833  34.445  39.164  1.00  0.00     0.059 A 
ATOM     92  C   UNL A   1      40.299  36.016  38.030  1.00  0.00     0.059 A 
ATOM     93  F   UNL A   1      41.216  35.455  35.947  1.00  0.00    -0.206 F 
ATOM     94  C   UNL A   1      39.488  35.677  39.112  1.00  0.00     0.060 A 
BRANCH  94  95
ATOM     95  S   UNL A   1      39.297  36.816  40.499  1.00  0.00     0.124 S 
ATOM     96  O   UNL A   1      40.630  36.782  41.091  1.00  0.00    -0.237 OA
ATOM     97  O   UNL A   1      38.930  38.063  39.833  1.00  0.00    -0.237 OA
ATOM     98  O   UNL A   1      38.239  36.204  41.297  1.00  0.00    -0.744 OA
ENDBRANCH  94  95
ENDBRANCH  62  87
ENDBRANCH  36  37
ENDBRANCH  28  31
ENDBRANCH  26  27
ENDBRANCH  25  26
ENDBRANCH   1  25
TORSDOF 17
ENDMDL
MODEL 2
REMARK VINA RESULT:     -11.4      6.701     12.389
REMARK SMILES CC1=C(C)C[C@@H](C(=O)N[C@H](C)C(C)(C)C)[C@@H](C(=O)NCCCCNC(=O)c2ccc(-c3c4nc(c(-c5c(F)cc(S(=O)(=O)[O-])cc5F)c5ccc([nH]5)c(-c5c(F)cc(S(=O)(=O)[O-])cc5F)c5nc(c(-c6c(F)cc(S(=O)(=O)[O-])cc6F)c6ccc3[nH]6)C=C5)C=C4)cc2)C1
REMARK SMILES IDX 21 1 20 2 19 3 17 4 18 5 16 7 1 8 2 9 3 10 93 11 4 12 5 13
REMARK SMILES IDX 6 14 7 15 8 16 9 17 10 19 11 20 12 21 13 22 14 23 15 24
REMARK SMILES IDX 22 25 23 26 24 27 25 28 26 30 27 31 28 32 92 33 29 34 91 35
REMARK SMILES IDX 30 36 31 37 32 38 85 39 33 40 90 41 84 42 86 43 34 44 89 45
REMARK SMILES IDX 83 46 82 47 35 49 69 50 48 51 68 52 49 53 52 54 67 55 87 56
REMARK SMILES IDX 50 57 51 58 66 60 88 61 53 62 36 63 37 64 46 65 38 66 39 67
REMARK SMILES IDX 45 68 47 69 40 70 41 71 42 72 43 73 44 74 70 75 71 76 80 77
REMARK SMILES IDX 72 78 73 79 79 80 81 81 74 82 75 83 76 84 77 85 78 86 54 87
REMARK SMILES IDX 55 88 64 89 56 90 57 91 63 92 65 93 58 94 59 95 60 96 61 97
REMARK SMILES IDX 62 98
REMARK H PARENT 19 6 9 18 24 29 86 48 52 59
REMARK Flexibility Score: inf
ROOT
ATOM      1  C   UNL A   1      34.265  31.667  28.084  1.00  0.00     0.023 C 
ENDROOT
BRANCH   1   2
ATOM      2  C   UNL A   1      33.968  30.621  27.007  1.00  0.00     0.116 C 
BRANCH   2   3
ATOM      3  N   UNL A   1      32.677  29.963  27.166  1.00  0.00    -0.356 N 
ATOM      4  C   UNL A   1      32.237  28.688  27.020  1.00  0.00     0.224 C 
ATOM      5  O   UNL A   1      31.142  28.454  27.547  1.00  0.00    -0.275 OA
ATOM      6  H   UNL A   1      31.965  30.583  27.445  1.00  0.00     0.163 HD
BRANCH   4   7
ATOM      7  C   UNL A   1      32.946  27.561  26.236  1.00  0.00     0.095 C 
ATOM      8  C   UNL A   1      30.913  24.312  25.179  1.00  0.00     0.039 C 
ATOM      9  C   UNL A   1      32.042  25.312  25.143  1.00  0.00    -0.074 C 
ATOM     10  C   UNL A   1      32.938  25.425  24.139  1.00  0.00    -0.074 C 
ATOM     11  C   UNL A   1      32.047  26.275  26.327  1.00  0.00     0.045 C 
ATOM     12  C   UNL A   1      32.927  24.646  22.850  1.00  0.00     0.039 C 
ATOM     13  C   UNL A   1      33.989  26.510  24.209  1.00  0.00     0.045 C 
ATOM     14  C   UNL A   1      33.408  27.813  24.795  1.00  0.00     0.095 C 
BRANCH  14  15
ATOM     15  C   UNL A   1      32.353  28.286  23.793  1.00  0.00     0.224 C 
ATOM     16  O   UNL A   1      32.523  28.130  22.585  1.00  0.00    -0.275 OA
ATOM     17  N   UNL A   1      31.218  28.818  24.346  1.00  0.00    -0.353 N 
ATOM     18  H   UNL A   1      31.358  29.427  25.107  1.00  0.00     0.163 HD
BRANCH  17  19
ATOM     19  C   UNL A   1      29.839  28.603  23.957  1.00  0.00     0.084 C 
ATOM     20  C   UNL A   1      29.524  27.200  23.418  1.00  0.00     0.031 C 
BRANCH  19  21
ATOM     21  C   UNL A   1      29.191  29.804  23.198  1.00  0.00    -0.018 C 
ATOM     22  C   UNL A   1      29.863  29.895  21.808  1.00  0.00     0.013 C 
ATOM     23  C   UNL A   1      27.680  29.587  22.934  1.00  0.00     0.013 C 
ATOM     24  C   UNL A   1      29.363  31.128  23.956  1.00  0.00     0.013 C 
ENDBRANCH  19  21
ENDBRANCH  17  19
ENDBRANCH  14  15
ENDBRANCH   4   7
ENDBRANCH   2   3
ENDBRANCH   1   2
BRANCH   1  25
ATOM     25  C   UNL A   1      35.631  32.336  28.016  1.00  0.00     0.023 C 
BRANCH  25  26
ATOM     26  C   UNL A   1      36.318  32.489  29.357  1.00  0.00     0.116 C 
BRANCH  26  27
ATOM     27  N   UNL A   1      35.943  31.474  30.337  1.00  0.00    -0.352 N 
ATOM     28  C   UNL A   1      36.718  30.444  30.821  1.00  0.00     0.251 C 
ATOM     29  H   UNL A   1      35.029  31.533  30.696  1.00  0.00     0.163 HD
ATOM     30  O   UNL A   1      36.268  29.623  31.613  1.00  0.00    -0.269 OA
BRANCH  28  31
ATOM     31  C   UNL A   1      38.094  30.326  30.305  1.00  0.00     0.039 A 
ATOM     32  C   UNL A   1      39.161  30.380  31.202  1.00  0.00     0.014 A 
ATOM     33  C   UNL A   1      38.293  29.989  28.965  1.00  0.00     0.014 A 
ATOM     34  C   UNL A   1      40.432  30.008  30.767  1.00  0.00     0.010 A 
ATOM     35  C   UNL A   1      39.530  29.507  28.570  1.00  0.00     0.010 A 
ATOM     36  C   UNL A   1      40.613  29.523  29.461  1.00  0.00    -0.014 A 
BRANCH  36  37
ATOM     37  C   UNL A   1      41.937  29.066  28.977  1.00  0.00     0.031 A 
ATOM     38  C   UNL A   1      43.059  30.064  28.887  1.00  0.00     0.074 A 
ATOM     39  C   UNL A   1      42.101  27.800  28.545  1.00  0.00     0.049 A 
ATOM     40  N   UNL A   1      44.255  29.919  28.382  1.00  0.00    -0.248 NA
ATOM     41  C   UNL A   1      42.779  31.423  29.384  1.00  0.00     0.031 C 
ATOM     42  C   UNL A   1      41.062  26.767  28.520  1.00  0.00     0.029 A 
ATOM     43  N   UNL A   1      43.205  27.167  28.034  1.00  0.00    -0.354 N 
ATOM     44  C   UNL A   1      44.852  31.171  28.473  1.00  0.00     0.074 A 
ATOM     45  C   UNL A   1      43.865  32.079  29.008  1.00  0.00     0.031 C 
ATOM     46  C   UNL A   1      41.587  25.623  28.050  1.00  0.00     0.029 A 
ATOM     47  C   UNL A   1      42.989  25.849  27.710  1.00  0.00     0.049 A 
ATOM     48  H   UNL A   1      44.073  27.616  27.910  1.00  0.00     0.167 HD
ATOM     49  C   UNL A   1      46.125  31.524  28.178  1.00  0.00     0.037 A 
ATOM     50  C   UNL A   1      43.831  24.929  27.201  1.00  0.00     0.037 A 
ATOM     51  C   UNL A   1      47.114  30.595  27.708  1.00  0.00     0.049 A 
ATOM     52  C   UNL A   1      45.256  25.329  26.927  1.00  0.00     0.074 A 
ATOM     53  C   UNL A   1      48.452  30.821  27.443  1.00  0.00     0.029 A 
ATOM     54  N   UNL A   1      46.872  29.254  27.448  1.00  0.00    -0.354 N 
ATOM     55  N   UNL A   1      45.823  26.504  27.075  1.00  0.00    -0.248 NA
ATOM     56  C   UNL A   1      46.157  24.283  26.428  1.00  0.00     0.031 C 
ATOM     57  C   UNL A   1      49.013  29.620  26.996  1.00  0.00     0.029 A 
ATOM     58  C   UNL A   1      48.034  28.638  27.020  1.00  0.00     0.049 A 
ATOM     59  H   UNL A   1      46.002  28.806  27.553  1.00  0.00     0.167 HD
ATOM     60  C   UNL A   1      47.154  26.333  26.711  1.00  0.00     0.074 A 
ATOM     61  C   UNL A   1      47.308  24.937  26.347  1.00  0.00     0.031 C 
ATOM     62  C   UNL A   1      48.158  27.244  26.677  1.00  0.00     0.037 A 
BRANCH  49  63
ATOM     63  C   UNL A   1      46.509  32.962  28.387  1.00  0.00     0.058 A 
ATOM     64  C   UNL A   1      46.386  33.913  27.361  1.00  0.00     0.135 A 
ATOM     65  C   UNL A   1      47.012  33.395  29.623  1.00  0.00     0.135 A 
ATOM     66  F   UNL A   1      45.932  33.547  26.151  1.00  0.00    -0.206 F 
ATOM     67  C   UNL A   1      46.783  35.233  27.539  1.00  0.00     0.059 A 
ATOM     68  C   UNL A   1      47.387  34.720  29.834  1.00  0.00     0.059 A 
ATOM     69  F   UNL A   1      47.157  32.528  30.638  1.00  0.00    -0.206 F 
ATOM     70  C   UNL A   1      47.285  35.626  28.779  1.00  0.00     0.060 A 
BRANCH  70  71
ATOM     71  S   UNL A   1      47.799  37.343  28.995  1.00  0.00     0.124 S 
ATOM     72  O   UNL A   1      48.681  37.238  30.154  1.00  0.00    -0.237 OA
ATOM     73  O   UNL A   1      48.456  37.634  27.725  1.00  0.00    -0.237 OA
ATOM     74  O   UNL A   1      46.542  38.047  29.224  1.00  0.00    -0.744 OA
ENDBRANCH  70  71
ENDBRANCH  49  63
BRANCH  50  75
ATOM     75  C   UNL A   1      43.362  23.538  26.962  1.00  0.00     0.058 A 
ATOM     76  C   UNL A   1      43.085  23.085  25.663  1.00  0.00     0.135 A 
ATOM     77  C   UNL A   1      43.200  22.628  28.018  1.00  0.00     0.135 A 
ATOM     78  F   UNL A   1      43.221  23.918  24.621  1.00  0.00    -0.206 F 
ATOM     79  C   UNL A   1      42.651  21.786  25.419  1.00  0.00     0.059 A 
ATOM     80  C   UNL A   1      42.788  21.316  27.797  1.00  0.00     0.059 A 
ATOM     81  F   UNL A   1      43.468  23.004  29.278  1.00  0.00    -0.206 F 
ATOM     82  C   UNL A   1      42.507  20.906  26.494  1.00  0.00     0.060 A 
BRANCH  82  83
ATOM     83  S   UNL A   1      41.994  19.206  26.161  1.00  0.00     0.124 S 
ATOM     84  O   UNL A   1      42.878  18.844  25.059  1.00  0.00    -0.237 OA
ATOM     85  O   UNL A   1      42.261  18.549  27.436  1.00  0.00    -0.237 OA
ATOM     86  O   UNL A   1      40.582  19.344  25.819  1.00  0.00    -0.744 OA
ENDBRANCH  82  83
ENDBRANCH  50  75
BRANCH  62  87
ATOM     87  C   UNL A   1      49.516  26.757  26.263  1.00  0.00     0.058 A 
ATOM     88  C   UNL A   1      49.990  26.934  24.955  1.00  0.00     0.135 A 
ATOM     89  C   UNL A   1      50.378  26.177  27.207  1.00  0.00     0.135 A 
ATOM     90  F   UNL A   1      49.200  27.479  24.017  1.00  0.00    -0.206 F 
ATOM     91  C   UNL A   1      51.271  26.534  24.591  1.00  0.00     0.059 A 
ATOM     92  C   UNL A   1      51.671  25.794  26.871  1.00  0.00     0.059 A 
ATOM     93  F   UNL A   1      49.973  25.999  28.475  1.00  0.00    -0.206 F 
ATOM     94  C   UNL A   1      52.106  25.968  25.558  1.00  0.00     0.060 A 
BRANCH  94  95
ATOM     95  S   UNL A   1      53.782  25.499  25.084  1.00  0.00     0.124 S 
ATOM     96  O   UNL A   1      54.579  26.240  26.055  1.00  0.00    -0.237 OA
ATOM     97  O   UNL A   1      53.763  24.050  25.252  1.00  0.00    -0.237 OA
ATOM     98  O   UNL A   1      53.886  25.962  23.702  1.00  0.00    -0.744 OA
ENDBRANCH  94  95
ENDBRANCH  62  87
ENDBRANCH  36  37
ENDBRANCH  28  31
ENDBRANCH  26  27
ENDBRANCH  25  26
ENDBRANCH   1  25
TORSDOF 17
ENDMDL
MODEL 3
REMARK VINA RESULT:     -11.3      5.338     12.527
REMARK SMILES CC1=C(C)C[C@@H](C(=O)N[C@H](C)C(C)(C)C)[C@@H](C(=O)NCCCCNC(=O)c2ccc(-c3c4nc(c(-c5c(F)cc(S(=O)(=O)[O-])cc5F)c5ccc([nH]5)c(-c5c(F)cc(S(=O)(=O)[O-])cc5F)c5nc(c(-c6c(F)cc(S(=O)(=O)[O-])cc6F)c6ccc3[nH]6)C=C5)C=C4)cc2)C1
REMARK SMILES IDX 21 1 20 2 19 3 17 4 18 5 16 7 1 8 2 9 3 10 93 11 4 12 5 13
REMARK SMILES IDX 6 14 7 15 8 16 9 17 10 19 11 20 12 21 13 22 14 23 15 24
REMARK SMILES IDX 22 25 23 26 24 27 25 28 26 30 27 31 28 32 92 33 29 34 91 35
REMARK SMILES IDX 30 36 31 37 32 38 85 39 33 40 90 41 84 42 86 43 34 44 89 45
REMARK SMILES IDX 83 46 82 47 35 49 69 50 48 51 68 52 49 53 52 54 67 55 87 56
REMARK SMILES IDX 50 57 51 58 66 60 88 61 53 62 36 63 37 64 46 65 38 66 39 67
REMARK SMILES IDX 45 68 47 69 40 70 41 71 42 72 43 73 44 74 70 75 71 76 80 77
REMARK SMILES IDX 72 78 73 79 79 80 81 81 74 82 75 83 76 84 77 85 78 86 54 87
REMARK SMILES IDX 55 88 64 89 56 90 57 91 63 92 65 93 58 94 59 95 60 96 61 97
REMARK SMILES IDX 62 98
REMARK H PARENT 19 6 9 18 24 29 86 48 52 59
REMARK Flexibility Score: inf
ROOT
ATOM      1  C   UNL A   1      34.939  33.769  30.597  1.00  0.00     0.023 C 
ENDROOT
BRANCH   1   2
ATOM      2  C   UNL A   1      36.085  33.922  31.600  1.00  0.00     0.116 C 
BRANCH   2   3
ATOM      3  N   UNL A   1      37.334  34.376  31.001  1.00  0.00    -0.356 N 
ATOM      4  C   UNL A   1      38.615  34.476  31.438  1.00  0.00     0.224 C 
ATOM      5  O   UNL A   1      39.459  34.612  30.542  1.00  0.00    -0.275 OA
ATOM      6  H   UNL A   1      37.224  34.674  30.069  1.00  0.00     0.163 HD
BRANCH   4   7
ATOM      7  C   UNL A   1      39.079  34.483  32.912  1.00  0.00     0.095 C 
ATOM      8  C   UNL A   1      36.444  33.816  35.813  1.00  0.00     0.039 C 
ATOM      9  C   UNL A   1      37.810  33.926  35.181  1.00  0.00    -0.074 C 
ATOM     10  C   UNL A   1      38.944  33.415  35.705  1.00  0.00    -0.074 C 
ATOM     11  C   UNL A   1      37.800  34.611  33.817  1.00  0.00     0.045 C 
ATOM     12  C   UNL A   1      39.046  32.578  36.953  1.00  0.00     0.039 C 
ATOM     13  C   UNL A   1      40.239  33.554  34.935  1.00  0.00     0.045 C 
ATOM     14  C   UNL A   1      40.010  33.375  33.421  1.00  0.00     0.095 C 
BRANCH  14  15
ATOM     15  C   UNL A   1      39.543  31.929  33.239  1.00  0.00     0.224 C 
ATOM     16  O   UNL A   1      38.559  31.671  32.549  1.00  0.00    -0.275 OA
ATOM     17  N   UNL A   1      40.331  30.981  33.838  1.00  0.00    -0.353 N 
ATOM     18  H   UNL A   1      40.644  31.197  34.746  1.00  0.00     0.163 HD
BRANCH  17  19
ATOM     19  C   UNL A   1      40.762  29.702  33.310  1.00  0.00     0.084 C 
ATOM     20  C   UNL A   1      39.631  28.773  32.846  1.00  0.00     0.031 C 
BRANCH  19  21
ATOM     21  C   UNL A   1      41.929  29.039  34.107  1.00  0.00    -0.018 C 
ATOM     22  C   UNL A   1      43.158  28.977  33.170  1.00  0.00     0.013 C 
ATOM     23  C   UNL A   1      42.360  29.883  35.331  1.00  0.00     0.013 C 
ATOM     24  C   UNL A   1      41.566  27.629  34.596  1.00  0.00     0.013 C 
ENDBRANCH  19  21
ENDBRANCH  17  19
ENDBRANCH  14  15
ENDBRANCH   4   7
ENDBRANCH   2   3
ENDBRANCH   1   2
BRANCH   1  25
ATOM     25  C   UNL A   1      34.687  32.363  30.070  1.00  0.00     0.023 C 
BRANCH  25  26
ATOM     26  C   UNL A   1      34.501  32.284  28.569  1.00  0.00     0.116 C 
BRANCH  26  27
ATOM     27  N   UNL A   1      33.957  31.013  28.101  1.00  0.00    -0.352 N 
ATOM     28  C   UNL A   1      34.620  29.814  27.962  1.00  0.00     0.251 C 
ATOM     29  H   UNL A   1      33.003  31.012  27.858  1.00  0.00     0.163 HD
ATOM     30  O   UNL A   1      34.057  28.822  27.511  1.00  0.00    -0.269 OA
BRANCH  28  31
ATOM     31  C   UNL A   1      36.049  29.780  28.318  1.00  0.00     0.039 A 
ATOM     32  C   UNL A   1      36.423  29.306  29.576  1.00  0.00     0.014 A 
ATOM     33  C   UNL A   1      37.003  30.054  27.337  1.00  0.00     0.014 A 
ATOM     34  C   UNL A   1      37.766  29.022  29.821  1.00  0.00     0.010 A 
ATOM     35  C   UNL A   1      38.314  29.660  27.544  1.00  0.00     0.010 A 
ATOM     36  C   UNL A   1      38.711  29.151  28.790  1.00  0.00    -0.014 A 
BRANCH  36  37
ATOM     37  C   UNL A   1      40.138  28.809  28.995  1.00  0.00     0.031 A 
ATOM     38  C   UNL A   1      41.064  29.860  29.542  1.00  0.00     0.074 A 
ATOM     39  C   UNL A   1      40.607  27.604  28.613  1.00  0.00     0.049 A 
ATOM     40  N   UNL A   1      42.362  29.823  29.687  1.00  0.00    -0.248 NA
ATOM     41  C   UNL A   1      40.454  31.144  29.929  1.00  0.00     0.031 C 
ATOM     42  C   UNL A   1      39.812  26.535  28.004  1.00  0.00     0.029 A 
ATOM     43  N   UNL A   1      41.873  27.080  28.673  1.00  0.00    -0.354 N 
ATOM     44  C   UNL A   1      42.721  31.083  30.150  1.00  0.00     0.074 A 
ATOM     45  C   UNL A   1      41.520  31.885  30.187  1.00  0.00     0.031 C 
ATOM     46  C   UNL A   1      40.602  25.471  27.777  1.00  0.00     0.029 A 
ATOM     47  C   UNL A   1      41.963  25.795  28.193  1.00  0.00     0.049 A 
ATOM     48  H   UNL A   1      42.645  27.577  29.027  1.00  0.00     0.167 HD
ATOM     49  C   UNL A   1      43.937  31.522  30.550  1.00  0.00     0.037 A 
ATOM     50  C   UNL A   1      43.027  24.972  28.105  1.00  0.00     0.037 A 
ATOM     51  C   UNL A   1      45.110  30.694  30.567  1.00  0.00     0.049 A 
ATOM     52  C   UNL A   1      44.360  25.463  28.602  1.00  0.00     0.074 A 
ATOM     53  C   UNL A   1      46.379  31.007  31.016  1.00  0.00     0.029 A 
ATOM     54  N   UNL A   1      45.150  29.378  30.128  1.00  0.00    -0.354 N 
ATOM     55  N   UNL A   1      44.674  26.640  29.093  1.00  0.00    -0.248 NA
ATOM     56  C   UNL A   1      45.483  24.517  28.543  1.00  0.00     0.031 C 
ATOM     57  C   UNL A   1      47.194  29.886  30.824  1.00  0.00     0.029 A 
ATOM     58  C   UNL A   1      46.424  28.865  30.290  1.00  0.00     0.049 A 
ATOM     59  H   UNL A   1      44.384  28.883  29.757  1.00  0.00     0.167 HD
ATOM     60  C   UNL A   1      46.021  26.568  29.425  1.00  0.00     0.074 A 
ATOM     61  C   UNL A   1      46.460  25.227  29.089  1.00  0.00     0.031 C 
ATOM     62  C   UNL A   1      46.826  27.522  29.957  1.00  0.00     0.037 A 
BRANCH  49  63
ATOM     63  C   UNL A   1      44.037  32.946  31.022  1.00  0.00     0.058 A 
ATOM     64  C   UNL A   1      44.365  33.991  30.143  1.00  0.00     0.135 A 
ATOM     65  C   UNL A   1      43.809  33.271  32.368  1.00  0.00     0.135 A 
ATOM     66  F   UNL A   1      44.616  33.733  28.849  1.00  0.00    -0.206 F 
ATOM     67  C   UNL A   1      44.502  35.301  30.587  1.00  0.00     0.059 A 
ATOM     68  C   UNL A   1      43.910  34.581  32.829  1.00  0.00     0.059 A 
ATOM     69  F   UNL A   1      43.498  32.311  33.254  1.00  0.00    -0.206 F 
ATOM     70  C   UNL A   1      44.274  35.586  31.933  1.00  0.00     0.060 A 
BRANCH  70  71
ATOM     71  S   UNL A   1      44.458  37.291  32.496  1.00  0.00     0.124 S 
ATOM     72  O   UNL A   1      43.205  37.495  33.215  1.00  0.00    -0.237 OA
ATOM     73  O   UNL A   1      45.658  37.218  33.323  1.00  0.00    -0.237 OA
ATOM     74  O   UNL A   1      44.601  38.044  31.255  1.00  0.00    -0.744 OA
ENDBRANCH  70  71
ENDBRANCH  49  63
BRANCH  50  75
ATOM     75  C   UNL A   1      42.864  23.595  27.569  1.00  0.00     0.058 A 
ATOM     76  C   UNL A   1      42.547  22.524  28.419  1.00  0.00     0.135 A 
ATOM     77  C   UNL A   1      42.998  23.321  26.198  1.00  0.00     0.135 A 
ATOM     78  F   UNL A   1      42.412  22.734  29.736  1.00  0.00    -0.206 F 
ATOM     79  C   UNL A   1      42.385  21.230  27.935  1.00  0.00     0.059 A 
ATOM     80  C   UNL A   1      42.819  22.039  25.687  1.00  0.00     0.059 A 
ATOM     81  F   UNL A   1      43.283  24.312  25.339  1.00  0.00    -0.206 F 
ATOM     82  C   UNL A   1      42.520  20.997  26.565  1.00  0.00     0.060 A 
BRANCH  82  83
ATOM     83  S   UNL A   1      42.254  19.323  25.940  1.00  0.00     0.124 S 
ATOM     84  O   UNL A   1      40.808  19.307  25.749  1.00  0.00    -0.237 OA
ATOM     85  O   UNL A   1      43.059  19.318  24.723  1.00  0.00    -0.237 OA
ATOM     86  O   UNL A   1      42.759  18.479  27.019  1.00  0.00    -0.744 OA
ENDBRANCH  82  83
ENDBRANCH  50  75
BRANCH  62  87
ATOM     87  C   UNL A   1      48.250  27.143  30.237  1.00  0.00     0.058 A 
ATOM     88  C   UNL A   1      49.271  27.394  29.309  1.00  0.00     0.135 A 
ATOM     89  C   UNL A   1      48.606  26.591  31.479  1.00  0.00     0.135 A 
ATOM     90  F   UNL A   1      48.979  27.916  28.107  1.00  0.00    -0.206 F 
ATOM     91  C   UNL A   1      50.598  27.096  29.597  1.00  0.00     0.059 A 
ATOM     92  C   UNL A   1      49.929  26.309  31.797  1.00  0.00     0.059 A 
ATOM     93  F   UNL A   1      47.665  26.344  32.404  1.00  0.00    -0.206 F 
ATOM     94  C   UNL A   1      50.918  26.557  30.845  1.00  0.00     0.060 A 
BRANCH  94  95
ATOM     95  S   UNL A   1      52.649  26.219  31.223  1.00  0.00     0.124 S 
ATOM     96  O   UNL A   1      53.249  26.242  29.894  1.00  0.00    -0.237 OA
ATOM     97  O   UNL A   1      53.003  27.334  32.098  1.00  0.00    -0.237 OA
ATOM     98  O   UNL A   1      52.606  24.911  31.871  1.00  0.00    -0.744 OA
ENDBRANCH  94  95
ENDBRANCH  62  87
ENDBRANCH  36  37
ENDBRANCH  28  31
ENDBRANCH  26  27
ENDBRANCH  25  26
ENDBRANCH   1  25
TORSDOF 17
ENDMDL
