MODEL 1
REMARK VINA RESULT:     -11.0      0.000      0.000
REMARK SMILES C[C@@H](O)[C@@H](NC(=O)CN(C)C(=O)c1cccs1)C(=O)NCCCCNC(=O)c1ccc(-c2c3nc(c(-c4c(F)cc(S(=O)(=O)[O-])cc4F)c4ccc([nH]4)c(-c4c(F)cc(S(=O)(=O)[O-])cc4F)c4nc(c(-c5c(F)cc(S(=O)(=O)[O-])cc5F)c5ccc2[nH]5)C=C4)C=C3)cc1
REMARK SMILES IDX 21 1 20 2 18 3 19 4 4 6 2 7 1 8 3 9 5 11 6 12 7 14 8 15 9 16
REMARK SMILES IDX 10 17 11 18 12 19 13 20 14 21 17 22 15 23 16 24 22 25 23 26
REMARK SMILES IDX 24 27 25 28 26 29 27 31 28 32 29 33 93 34 30 35 92 36 31 37
REMARK SMILES IDX 32 38 33 39 86 40 34 41 91 42 85 43 87 44 35 45 90 46 84 47
REMARK SMILES IDX 83 48 36 50 70 51 49 52 69 53 50 54 53 55 68 56 88 57 51 58
REMARK SMILES IDX 52 59 67 61 89 62 54 63 37 64 38 65 47 66 39 67 40 68 46 69
REMARK SMILES IDX 48 70 41 71 42 72 43 73 44 74 45 75 71 76 72 77 81 78 73 79
REMARK SMILES IDX 74 80 80 81 82 82 75 83 76 84 77 85 78 86 79 87 55 88 56 89
REMARK SMILES IDX 65 90 57 91 58 92 64 93 66 94 59 95 60 96 61 97 62 98 63 99
REMARK H PARENT 20 5 3 10 5 13 25 30 87 49 53 60
REMARK Flexibility Score: inf
ROOT
ATOM      1  C   UNL A   1      34.662  23.156  24.011  1.00  0.00     0.116 C 
ENDROOT
BRANCH   1   2
ATOM      2  N   UNL A   1      33.784  22.322  23.210  1.00  0.00    -0.354 N 
ATOM      3  C   UNL A   1      32.783  21.461  23.592  1.00  0.00     0.245 C 
ATOM      4  O   UNL A   1      31.997  21.126  22.695  1.00  0.00    -0.273 OA
ATOM      5  H   UNL A   1      33.929  22.383  22.238  1.00  0.00     0.163 HD
BRANCH   3   6
ATOM      6  C   UNL A   1      32.554  20.932  25.051  1.00  0.00     0.200 C 
BRANCH   6   7
ATOM      7  C   UNL A   1      33.314  19.637  25.461  1.00  0.00     0.143 C 
ATOM      8  C   UNL A   1      32.561  18.353  25.075  1.00  0.00     0.041 C 
BRANCH   7   9
ATOM      9  O   UNL A   1      34.563  19.529  24.761  1.00  0.00    -0.391 OA
ATOM     10  H   UNL A   1      34.633  18.649  24.360  1.00  0.00     0.211 HD
ENDBRANCH   7   9
ENDBRANCH   6   7
BRANCH   6  11
ATOM     11  N   UNL A   1      32.203  21.820  26.187  1.00  0.00    -0.341 N 
ATOM     12  C   UNL A   1      31.578  22.992  26.444  1.00  0.00     0.240 C 
ATOM     13  H   UNL A   1      32.534  21.430  27.028  1.00  0.00     0.164 HD
ATOM     14  O   UNL A   1      31.639  23.370  27.621  1.00  0.00    -0.273 OA
BRANCH  12  15
ATOM     15  C   UNL A   1      30.596  23.660  25.504  1.00  0.00     0.219 C 
BRANCH  15  16
ATOM     16  N   UNL A   1      31.049  24.868  24.833  1.00  0.00    -0.332 N 
ATOM     17  C   UNL A   1      31.026  24.632  23.384  1.00  0.00     0.147 C 
BRANCH  16  18
ATOM     18  C   UNL A   1      30.941  26.066  25.663  1.00  0.00     0.264 C 
ATOM     19  O   UNL A   1      30.018  26.044  26.486  1.00  0.00    -0.268 OA
BRANCH  18  20
ATOM     20  C   UNL A   1      31.912  27.207  25.778  1.00  0.00     0.092 A 
ATOM     21  C   UNL A   1      33.143  27.461  26.380  1.00  0.00     0.025 A 
ATOM     22  S   UNL A   1      31.625  28.536  24.669  1.00  0.00    -0.139 S 
ATOM     23  C   UNL A   1      33.789  28.681  26.021  1.00  0.00     0.012 A 
ATOM     24  C   UNL A   1      33.066  29.358  25.081  1.00  0.00     0.065 A 
ENDBRANCH  18  20
ENDBRANCH  16  18
ENDBRANCH  15  16
ENDBRANCH  12  15
ENDBRANCH   6  11
ENDBRANCH   3   6
ENDBRANCH   1   2
BRANCH   1  25
ATOM     25  C   UNL A   1      36.004  22.550  24.566  1.00  0.00     0.023 C 
BRANCH  25  26
ATOM     26  C   UNL A   1      37.012  22.911  25.755  1.00  0.00     0.023 C 
BRANCH  26  27
ATOM     27  C   UNL A   1      38.185  23.952  26.127  1.00  0.00     0.116 C 
BRANCH  27  28
ATOM     28  N   UNL A   1      39.632  23.672  26.184  1.00  0.00    -0.352 N 
ATOM     29  C   UNL A   1      40.695  24.466  26.608  1.00  0.00     0.251 C 
ATOM     30  H   UNL A   1      39.889  22.775  25.869  1.00  0.00     0.163 HD
ATOM     31  O   UNL A   1      41.851  24.200  26.359  1.00  0.00    -0.269 OA
BRANCH  29  32
ATOM     32  C   UNL A   1      40.357  25.610  27.446  1.00  0.00     0.039 A 
ATOM     33  C   UNL A   1      39.465  25.528  28.518  1.00  0.00     0.014 A 
ATOM     34  C   UNL A   1      41.094  26.753  27.166  1.00  0.00     0.014 A 
ATOM     35  C   UNL A   1      39.404  26.601  29.405  1.00  0.00     0.010 A 
ATOM     36  C   UNL A   1      41.093  27.769  28.085  1.00  0.00     0.010 A 
ATOM     37  C   UNL A   1      40.262  27.695  29.217  1.00  0.00    -0.014 A 
BRANCH  37  38
ATOM     38  C   UNL A   1      40.399  28.822  30.159  1.00  0.00     0.031 A 
ATOM     39  C   UNL A   1      41.325  28.643  31.324  1.00  0.00     0.074 A 
ATOM     40  C   UNL A   1      39.499  29.820  30.108  1.00  0.00     0.049 A 
ATOM     41  N   UNL A   1      41.340  29.262  32.471  1.00  0.00    -0.248 NA
ATOM     42  C   UNL A   1      42.307  27.549  31.209  1.00  0.00     0.031 C 
ATOM     43  C   UNL A   1      38.512  30.027  29.044  1.00  0.00     0.029 A 
ATOM     44  N   UNL A   1      39.230  30.817  31.008  1.00  0.00    -0.354 N 
ATOM     45  C   UNL A   1      42.304  28.609  33.229  1.00  0.00     0.074 A 
ATOM     46  C   UNL A   1      42.798  27.504  32.438  1.00  0.00     0.031 C 
ATOM     47  C   UNL A   1      37.747  31.086  29.353  1.00  0.00     0.029 A 
ATOM     48  C   UNL A   1      38.152  31.596  30.658  1.00  0.00     0.049 A 
ATOM     49  H   UNL A   1      39.756  30.961  31.827  1.00  0.00     0.167 HD
ATOM     50  C   UNL A   1      42.747  28.924  34.468  1.00  0.00     0.037 A 
ATOM     51  C   UNL A   1      37.551  32.592  31.334  1.00  0.00     0.037 A 
ATOM     52  C   UNL A   1      42.248  30.049  35.212  1.00  0.00     0.049 A 
ATOM     53  C   UNL A   1      38.075  32.945  32.698  1.00  0.00     0.074 A 
ATOM     54  C   UNL A   1      42.666  30.528  36.438  1.00  0.00     0.029 A 
ATOM     55  N   UNL A   1      41.215  30.876  34.785  1.00  0.00    -0.354 N 
ATOM     56  N   UNL A   1      39.037  32.370  33.383  1.00  0.00    -0.248 NA
ATOM     57  C   UNL A   1      37.439  34.076  33.382  1.00  0.00     0.031 C 
ATOM     58  C   UNL A   1      41.862  31.624  36.769  1.00  0.00     0.029 A 
ATOM     59  C   UNL A   1      40.972  31.855  35.729  1.00  0.00     0.049 A 
ATOM     60  H   UNL A   1      40.728  30.778  33.935  1.00  0.00     0.167 HD
ATOM     61  C   UNL A   1      39.141  33.087  34.568  1.00  0.00     0.074 A 
ATOM     62  C   UNL A   1      38.148  34.142  34.502  1.00  0.00     0.031 C 
ATOM     63  C   UNL A   1      39.979  32.897  35.618  1.00  0.00     0.037 A 
BRANCH  50  64
ATOM     64  C   UNL A   1      43.822  28.056  35.063  1.00  0.00     0.058 A 
ATOM     65  C   UNL A   1      45.185  28.324  34.847  1.00  0.00     0.135 A 
ATOM     66  C   UNL A   1      43.495  26.944  35.855  1.00  0.00     0.135 A 
ATOM     67  F   UNL A   1      45.558  29.365  34.086  1.00  0.00    -0.206 F 
ATOM     68  C   UNL A   1      46.180  27.495  35.353  1.00  0.00     0.059 A 
ATOM     69  C   UNL A   1      44.478  26.121  36.402  1.00  0.00     0.059 A 
ATOM     70  F   UNL A   1      42.211  26.637  36.094  1.00  0.00    -0.206 F 
ATOM     71  C   UNL A   1      45.817  26.394  36.128  1.00  0.00     0.060 A 
BRANCH  71  72
ATOM     72  S   UNL A   1      47.124  25.330  36.771  1.00  0.00     0.124 S 
ATOM     73  O   UNL A   1      47.780  24.899  35.540  1.00  0.00    -0.237 OA
ATOM     74  O   UNL A   1      47.889  26.247  37.609  1.00  0.00    -0.237 OA
ATOM     75  O   UNL A   1      46.393  24.290  37.489  1.00  0.00    -0.744 OA
ENDBRANCH  71  72
ENDBRANCH  50  64
BRANCH  51  76
ATOM     76  C   UNL A   1      36.434  33.348  30.707  1.00  0.00     0.058 A 
ATOM     77  C   UNL A   1      35.131  33.223  31.210  1.00  0.00     0.135 A 
ATOM     78  C   UNL A   1      36.640  34.238  29.642  1.00  0.00     0.135 A 
ATOM     79  F   UNL A   1      34.884  32.386  32.228  1.00  0.00    -0.206 F 
ATOM     80  C   UNL A   1      34.068  33.944  30.675  1.00  0.00     0.059 A 
ATOM     81  C   UNL A   1      35.597  34.988  29.104  1.00  0.00     0.059 A 
ATOM     82  F   UNL A   1      37.872  34.416  29.140  1.00  0.00    -0.206 F 
ATOM     83  C   UNL A   1      34.313  34.829  29.625  1.00  0.00     0.060 A 
BRANCH  83  84
ATOM     84  S   UNL A   1      32.935  35.806  28.984  1.00  0.00     0.124 S 
ATOM     85  O   UNL A   1      32.191  36.100  30.203  1.00  0.00    -0.237 OA
ATOM     86  O   UNL A   1      33.624  36.935  28.367  1.00  0.00    -0.237 OA
ATOM     87  O   UNL A   1      32.283  34.893  28.049  1.00  0.00    -0.744 OA
ENDBRANCH  83  84
ENDBRANCH  51  76
BRANCH  63  88
ATOM     88  C   UNL A   1      39.878  33.865  36.760  1.00  0.00     0.058 A 
ATOM     89  C   UNL A   1      40.670  35.022  36.812  1.00  0.00     0.135 A 
ATOM     90  C   UNL A   1      38.920  33.673  37.768  1.00  0.00     0.135 A 
ATOM     91  F   UNL A   1      41.607  35.243  35.876  1.00  0.00    -0.206 F 
ATOM     92  C   UNL A   1      40.522  35.952  37.833  1.00  0.00     0.059 A 
ATOM     93  C   UNL A   1      38.735  34.604  38.782  1.00  0.00     0.059 A 
ATOM     94  F   UNL A   1      38.133  32.585  37.754  1.00  0.00    -0.206 F 
ATOM     95  C   UNL A   1      39.545  35.738  38.809  1.00  0.00     0.060 A 
BRANCH  95  96
ATOM     96  S   UNL A   1      39.322  36.986  40.093  1.00  0.00     0.124 S 
ATOM     97  O   UNL A   1      38.589  38.021  39.371  1.00  0.00    -0.237 OA
ATOM     98  O   UNL A   1      38.562  36.257  41.104  1.00  0.00    -0.237 OA
ATOM     99  O   UNL A   1      40.689  37.333  40.472  1.00  0.00    -0.744 OA
ENDBRANCH  95  96
ENDBRANCH  63  88
ENDBRANCH  37  38
ENDBRANCH  29  32
ENDBRANCH  27  28
ENDBRANCH  26  27
ENDBRANCH  25  26
ENDBRANCH   1  25
TORSDOF 21
ENDMDL
MODEL 2
REMARK VINA RESULT:     -10.5      6.481     10.921
REMARK SMILES C[C@@H](O)[C@@H](NC(=O)CN(C)C(=O)c1cccs1)C(=O)NCCCCNC(=O)c1ccc(-c2c3nc(c(-c4c(F)cc(S(=O)(=O)[O-])cc4F)c4ccc([nH]4)c(-c4c(F)cc(S(=O)(=O)[O-])cc4F)c4nc(c(-c5c(F)cc(S(=O)(=O)[O-])cc5F)c5ccc2[nH]5)C=C4)C=C3)cc1
REMARK SMILES IDX 21 1 20 2 18 3 19 4 4 6 2 7 1 8 3 9 5 11 6 12 7 14 8 15 9 16
REMARK SMILES IDX 10 17 11 18 12 19 13 20 14 21 17 22 15 23 16 24 22 25 23 26
REMARK SMILES IDX 24 27 25 28 26 29 27 31 28 32 29 33 93 34 30 35 92 36 31 37
REMARK SMILES IDX 32 38 33 39 86 40 34 41 91 42 85 43 87 44 35 45 90 46 84 47
REMARK SMILES IDX 83 48 36 50 70 51 49 52 69 53 50 54 53 55 68 56 88 57 51 58
REMARK SMILES IDX 52 59 67 61 89 62 54 63 37 64 38 65 47 66 39 67 40 68 46 69
REMARK SMILES IDX 48 70 41 71 42 72 43 73 44 74 45 75 71 76 72 77 81 78 73 79
REMARK SMILES IDX 74 80 80 81 82 82 75 83 76 84 77 85 78 86 79 87 55 88 56 89
REMARK SMILES IDX 65 90 57 91 58 92 64 93 66 94 59 95 60 96 61 97 62 98 63 99
REMARK H PARENT 20 5 3 10 5 13 25 30 87 49 53 60
REMARK Flexibility Score: inf
ROOT
ATOM      1  C   UNL A   1      35.191  21.842  26.123  1.00  0.00     0.116 C 
ENDROOT
BRANCH   1   2
ATOM      2  N   UNL A   1      34.153  20.828  26.122  1.00  0.00    -0.354 N 
ATOM      3  C   UNL A   1      32.974  20.762  25.418  1.00  0.00     0.245 C 
ATOM      4  O   UNL A   1      32.440  19.645  25.376  1.00  0.00    -0.273 OA
ATOM      5  H   UNL A   1      34.319  20.065  26.723  1.00  0.00     0.163 HD
BRANCH   3   6
ATOM      6  C   UNL A   1      32.312  21.959  24.651  1.00  0.00     0.200 C 
BRANCH   6   7
ATOM      7  C   UNL A   1      31.645  23.069  25.514  1.00  0.00     0.143 C 
ATOM      8  C   UNL A   1      30.343  22.604  26.186  1.00  0.00     0.041 C 
BRANCH   7   9
ATOM      9  O   UNL A   1      32.488  23.442  26.615  1.00  0.00    -0.391 OA
ATOM     10  H   UNL A   1      33.312  23.825  26.275  1.00  0.00     0.211 HD
ENDBRANCH   7   9
ENDBRANCH   6   7
BRANCH   6  11
ATOM     11  N   UNL A   1      32.770  22.416  23.315  1.00  0.00    -0.341 N 
ATOM     12  C   UNL A   1      33.381  23.468  22.723  1.00  0.00     0.240 C 
ATOM     13  H   UNL A   1      32.560  21.731  22.640  1.00  0.00     0.164 HD
ATOM     14  O   UNL A   1      33.453  23.403  21.488  1.00  0.00    -0.273 OA
BRANCH  12  15
ATOM     15  C   UNL A   1      34.215  24.496  23.458  1.00  0.00     0.219 C 
BRANCH  15  16
ATOM     16  N   UNL A   1      33.574  25.767  23.757  1.00  0.00    -0.332 N 
ATOM     17  C   UNL A   1      32.676  26.107  22.647  1.00  0.00     0.147 C 
BRANCH  16  18
ATOM     18  C   UNL A   1      33.597  26.106  25.178  1.00  0.00     0.264 C 
ATOM     19  O   UNL A   1      34.463  25.518  25.837  1.00  0.00    -0.268 OA
BRANCH  18  20
ATOM     20  C   UNL A   1      32.851  27.203  25.884  1.00  0.00     0.092 A 
ATOM     21  C   UNL A   1      31.972  27.330  26.957  1.00  0.00     0.025 A 
ATOM     22  S   UNL A   1      33.371  28.829  25.479  1.00  0.00    -0.139 S 
ATOM     23  C   UNL A   1      31.682  28.658  27.391  1.00  0.00     0.012 A 
ATOM     24  C   UNL A   1      32.395  29.573  26.670  1.00  0.00     0.065 A 
ENDBRANCH  18  20
ENDBRANCH  16  18
ENDBRANCH  15  16
ENDBRANCH  12  15
ENDBRANCH   6  11
ENDBRANCH   3   6
ENDBRANCH   1   2
BRANCH   1  25
ATOM     25  C   UNL A   1      36.469  21.635  25.227  1.00  0.00     0.023 C 
BRANCH  25  26
ATOM     26  C   UNL A   1      38.013  22.041  25.333  1.00  0.00     0.023 C 
BRANCH  26  27
ATOM     27  C   UNL A   1      39.347  21.676  26.161  1.00  0.00     0.116 C 
BRANCH  27  28
ATOM     28  N   UNL A   1      40.034  20.371  26.203  1.00  0.00    -0.352 N 
ATOM     29  C   UNL A   1      41.385  20.051  26.094  1.00  0.00     0.251 C 
ATOM     30  H   UNL A   1      39.438  19.598  26.330  1.00  0.00     0.163 HD
ATOM     31  O   UNL A   1      41.777  18.923  25.891  1.00  0.00    -0.269 OA
BRANCH  29  32
ATOM     32  C   UNL A   1      42.330  21.140  26.316  1.00  0.00     0.039 A 
ATOM     33  C   UNL A   1      42.790  21.966  25.287  1.00  0.00     0.014 A 
ATOM     34  C   UNL A   1      42.631  21.364  27.653  1.00  0.00     0.014 A 
ATOM     35  C   UNL A   1      43.484  23.124  25.635  1.00  0.00     0.010 A 
ATOM     36  C   UNL A   1      43.237  22.544  27.994  1.00  0.00     0.010 A 
ATOM     37  C   UNL A   1      43.654  23.438  26.992  1.00  0.00    -0.014 A 
BRANCH  37  38
ATOM     38  C   UNL A   1      44.238  24.698  27.491  1.00  0.00     0.031 A 
ATOM     39  C   UNL A   1      43.292  25.783  27.908  1.00  0.00     0.074 A 
ATOM     40  C   UNL A   1      45.546  24.931  27.283  1.00  0.00     0.049 A 
ATOM     41  N   UNL A   1      43.494  27.068  27.996  1.00  0.00    -0.248 NA
ATOM     42  C   UNL A   1      41.901  25.366  28.169  1.00  0.00     0.031 C 
ATOM     43  C   UNL A   1      46.524  23.948  26.809  1.00  0.00     0.029 A 
ATOM     44  N   UNL A   1      46.267  26.090  27.389  1.00  0.00    -0.354 N 
ATOM     45  C   UNL A   1      42.251  27.617  28.285  1.00  0.00     0.074 A 
ATOM     46  C   UNL A   1      41.292  26.535  28.284  1.00  0.00     0.031 C 
ATOM     47  C   UNL A   1      47.717  24.547  26.666  1.00  0.00     0.029 A 
ATOM     48  C   UNL A   1      47.575  25.962  26.985  1.00  0.00     0.049 A 
ATOM     49  H   UNL A   1      45.885  26.935  27.721  1.00  0.00     0.167 HD
ATOM     50  C   UNL A   1      41.950  28.909  28.546  1.00  0.00     0.037 A 
ATOM     51  C   UNL A   1      48.537  26.895  26.865  1.00  0.00     0.037 A 
ATOM     52  C   UNL A   1      42.939  29.953  28.564  1.00  0.00     0.049 A 
ATOM     53  C   UNL A   1      48.189  28.323  27.187  1.00  0.00     0.074 A 
ATOM     54  C   UNL A   1      42.784  31.285  28.894  1.00  0.00     0.029 A 
ATOM     55  N   UNL A   1      44.278  29.770  28.238  1.00  0.00    -0.354 N 
ATOM     56  N   UNL A   1      47.027  28.828  27.529  1.00  0.00    -0.248 NA
ATOM     57  C   UNL A   1      49.276  29.305  27.106  1.00  0.00     0.031 C 
ATOM     58  C   UNL A   1      44.023  31.915  28.733  1.00  0.00     0.029 A 
ATOM     59  C   UNL A   1      44.960  30.967  28.347  1.00  0.00     0.049 A 
ATOM     60  H   UNL A   1      44.682  28.913  27.970  1.00  0.00     0.167 HD
ATOM     61  C   UNL A   1      47.247  30.184  27.734  1.00  0.00     0.074 A 
ATOM     62  C   UNL A   1      48.656  30.417  27.484  1.00  0.00     0.031 C 
ATOM     63  C   UNL A   1      46.369  31.153  28.098  1.00  0.00     0.037 A 
BRANCH  50  64
ATOM     64  C   UNL A   1      40.514  29.241  28.849  1.00  0.00     0.058 A 
ATOM     65  C   UNL A   1      39.559  29.372  27.825  1.00  0.00     0.135 A 
ATOM     66  C   UNL A   1      40.081  29.435  30.170  1.00  0.00     0.135 A 
ATOM     67  F   UNL A   1      39.918  29.214  26.541  1.00  0.00    -0.206 F 
ATOM     68  C   UNL A   1      38.243  29.729  28.095  1.00  0.00     0.059 A 
ATOM     69  C   UNL A   1      38.758  29.758  30.466  1.00  0.00     0.059 A 
ATOM     70  F   UNL A   1      40.947  29.325  31.189  1.00  0.00    -0.206 F 
ATOM     71  C   UNL A   1      37.852  29.922  29.420  1.00  0.00     0.060 A 
BRANCH  71  72
ATOM     72  S   UNL A   1      36.140  30.389  29.749  1.00  0.00     0.124 S 
ATOM     73  O   UNL A   1      36.232  31.846  29.751  1.00  0.00    -0.237 OA
ATOM     74  O   UNL A   1      35.434  29.801  28.616  1.00  0.00    -0.237 OA
ATOM     75  O   UNL A   1      35.864  29.776  31.044  1.00  0.00    -0.744 OA
ENDBRANCH  71  72
ENDBRANCH  50  64
BRANCH  51  76
ATOM     76  C   UNL A   1      49.916  26.496  26.477  1.00  0.00     0.058 A 
ATOM     77  C   UNL A   1      50.837  26.104  27.460  1.00  0.00     0.135 A 
ATOM     78  C   UNL A   1      50.331  26.446  25.138  1.00  0.00     0.135 A 
ATOM     79  F   UNL A   1      50.488  26.134  28.755  1.00  0.00    -0.206 F 
ATOM     80  C   UNL A   1      52.123  25.687  27.133  1.00  0.00     0.059 A 
ATOM     81  C   UNL A   1      51.604  26.010  24.782  1.00  0.00     0.059 A 
ATOM     82  F   UNL A   1      49.480  26.785  24.156  1.00  0.00    -0.206 F 
ATOM     83  C   UNL A   1      52.496  25.638  25.789  1.00  0.00     0.060 A 
BRANCH  83  84
ATOM     84  S   UNL A   1      54.147  25.032  25.375  1.00  0.00     0.124 S 
ATOM     85  O   UNL A   1      53.857  23.681  24.913  1.00  0.00    -0.237 OA
ATOM     86  O   UNL A   1      54.572  25.982  24.352  1.00  0.00    -0.237 OA
ATOM     87  O   UNL A   1      54.865  25.126  26.643  1.00  0.00    -0.744 OA
ENDBRANCH  83  84
ENDBRANCH  51  76
BRANCH  63  88
ATOM     88  C   UNL A   1      46.914  32.540  28.275  1.00  0.00     0.058 A 
ATOM     89  C   UNL A   1      47.596  32.916  29.442  1.00  0.00     0.135 A 
ATOM     90  C   UNL A   1      46.823  33.474  27.231  1.00  0.00     0.135 A 
ATOM     91  F   UNL A   1      47.699  32.060  30.471  1.00  0.00    -0.206 F 
ATOM     92  C   UNL A   1      48.161  34.178  29.572  1.00  0.00     0.059 A 
ATOM     93  C   UNL A   1      47.406  34.731  27.328  1.00  0.00     0.059 A 
ATOM     94  F   UNL A   1      46.188  33.155  26.092  1.00  0.00    -0.206 F 
ATOM     95  C   UNL A   1      48.069  35.076  28.506  1.00  0.00     0.060 A 
BRANCH  95  96
ATOM     96  S   UNL A   1      48.863  36.688  28.665  1.00  0.00     0.124 S 
ATOM     97  O   UNL A   1      47.892  37.558  28.009  1.00  0.00    -0.237 OA
ATOM     98  O   UNL A   1      48.973  36.837  30.113  1.00  0.00    -0.237 OA
ATOM     99  O   UNL A   1      50.129  36.515  27.960  1.00  0.00    -0.744 OA
ENDBRANCH  95  96
ENDBRANCH  63  88
ENDBRANCH  37  38
ENDBRANCH  29  32
ENDBRANCH  27  28
ENDBRANCH  26  27
ENDBRANCH  25  26
ENDBRANCH   1  25
TORSDOF 21
ENDMDL
MODEL 3
REMARK VINA RESULT:     -10.4      1.364      2.169
REMARK SMILES C[C@@H](O)[C@@H](NC(=O)CN(C)C(=O)c1cccs1)C(=O)NCCCCNC(=O)c1ccc(-c2c3nc(c(-c4c(F)cc(S(=O)(=O)[O-])cc4F)c4ccc([nH]4)c(-c4c(F)cc(S(=O)(=O)[O-])cc4F)c4nc(c(-c5c(F)cc(S(=O)(=O)[O-])cc5F)c5ccc2[nH]5)C=C4)C=C3)cc1
REMARK SMILES IDX 21 1 20 2 18 3 19 4 4 6 2 7 1 8 3 9 5 11 6 12 7 14 8 15 9 16
REMARK SMILES IDX 10 17 11 18 12 19 13 20 14 21 17 22 15 23 16 24 22 25 23 26
REMARK SMILES IDX 24 27 25 28 26 29 27 31 28 32 29 33 93 34 30 35 92 36 31 37
REMARK SMILES IDX 32 38 33 39 86 40 34 41 91 42 85 43 87 44 35 45 90 46 84 47
REMARK SMILES IDX 83 48 36 50 70 51 49 52 69 53 50 54 53 55 68 56 88 57 51 58
REMARK SMILES IDX 52 59 67 61 89 62 54 63 37 64 38 65 47 66 39 67 40 68 46 69
REMARK SMILES IDX 48 70 41 71 42 72 43 73 44 74 45 75 71 76 72 77 81 78 73 79
REMARK SMILES IDX 74 80 80 81 82 82 75 83 76 84 77 85 78 86 79 87 55 88 56 89
REMARK SMILES IDX 65 90 57 91 58 92 64 93 66 94 59 95 60 96 61 97 62 98 63 99
REMARK H PARENT 20 5 3 10 5 13 25 30 87 49 53 60
REMARK Flexibility Score: inf
ROOT
ATOM      1  C   UNL A   1      34.991  24.261  25.260  1.00  0.00     0.116 C 
ENDROOT
BRANCH   1   2
ATOM      2  N   UNL A   1      34.131  24.067  24.107  1.00  0.00    -0.354 N 
ATOM      3  C   UNL A   1      32.759  24.033  24.016  1.00  0.00     0.245 C 
ATOM      4  O   UNL A   1      32.298  24.167  22.874  1.00  0.00    -0.273 OA
ATOM      5  H   UNL A   1      34.606  23.939  23.254  1.00  0.00     0.163 HD
BRANCH   3   6
ATOM      6  C   UNL A   1      31.776  23.888  25.229  1.00  0.00     0.200 C 
BRANCH   6   7
ATOM      7  C   UNL A   1      31.645  22.476  25.869  1.00  0.00     0.143 C 
ATOM      8  C   UNL A   1      32.501  22.310  27.135  1.00  0.00     0.041 C 
BRANCH   7   9
ATOM      9  O   UNL A   1      30.304  22.239  26.324  1.00  0.00    -0.391 OA
ATOM     10  H   UNL A   1      29.948  23.051  26.716  1.00  0.00     0.211 HD
ENDBRANCH   7   9
ENDBRANCH   6   7
BRANCH   6  11
ATOM     11  N   UNL A   1      31.458  25.008  26.150  1.00  0.00    -0.341 N 
ATOM     12  C   UNL A   1      31.184  26.333  26.130  1.00  0.00     0.240 C 
ATOM     13  H   UNL A   1      31.444  24.680  27.079  1.00  0.00     0.164 HD
ATOM     14  O   UNL A   1      31.078  26.861  27.245  1.00  0.00    -0.273 OA
BRANCH  12  15
ATOM     15  C   UNL A   1      30.707  27.088  24.907  1.00  0.00     0.219 C 
BRANCH  15  16
ATOM     16  N   UNL A   1      31.734  27.611  24.019  1.00  0.00    -0.332 N 
ATOM     17  C   UNL A   1      31.075  28.261  22.880  1.00  0.00     0.147 C 
BRANCH  16  18
ATOM     18  C   UNL A   1      33.028  27.786  24.672  1.00  0.00     0.264 C 
ATOM     19  O   UNL A   1      33.982  27.266  24.081  1.00  0.00    -0.268 OA
BRANCH  18  20
ATOM     20  C   UNL A   1      33.368  28.671  25.839  1.00  0.00     0.092 A 
ATOM     21  C   UNL A   1      34.399  28.807  26.767  1.00  0.00     0.025 A 
ATOM     22  S   UNL A   1      32.385  30.117  25.981  1.00  0.00    -0.139 S 
ATOM     23  C   UNL A   1      34.367  29.973  27.589  1.00  0.00     0.012 A 
ATOM     24  C   UNL A   1      33.318  30.780  27.251  1.00  0.00     0.065 A 
ENDBRANCH  18  20
ENDBRANCH  16  18
ENDBRANCH  15  16
ENDBRANCH  12  15
ENDBRANCH   6  11
ENDBRANCH   3   6
ENDBRANCH   1   2
BRANCH   1  25
ATOM     25  C   UNL A   1      36.256  23.342  25.440  1.00  0.00     0.023 C 
BRANCH  25  26
ATOM     26  C   UNL A   1      37.817  23.589  25.691  1.00  0.00     0.023 C 
BRANCH  26  27
ATOM     27  C   UNL A   1      39.065  22.969  26.500  1.00  0.00     0.116 C 
BRANCH  27  28
ATOM     28  N   UNL A   1      40.491  23.053  26.129  1.00  0.00    -0.352 N 
ATOM     29  C   UNL A   1      41.382  24.121  26.183  1.00  0.00     0.251 C 
ATOM     30  H   UNL A   1      40.875  22.214  25.785  1.00  0.00     0.163 HD
ATOM     31  O   UNL A   1      42.448  24.114  25.608  1.00  0.00    -0.269 OA
BRANCH  29  32
ATOM     32  C   UNL A   1      41.006  25.239  27.042  1.00  0.00     0.039 A 
ATOM     33  C   UNL A   1      40.092  25.113  28.092  1.00  0.00     0.014 A 
ATOM     34  C   UNL A   1      41.728  26.401  26.807  1.00  0.00     0.014 A 
ATOM     35  C   UNL A   1      39.991  26.163  29.003  1.00  0.00     0.010 A 
ATOM     36  C   UNL A   1      41.689  27.393  27.750  1.00  0.00     0.010 A 
ATOM     37  C   UNL A   1      40.834  27.277  28.861  1.00  0.00    -0.014 A 
BRANCH  37  38
ATOM     38  C   UNL A   1      40.930  28.381  29.833  1.00  0.00     0.031 A 
ATOM     39  C   UNL A   1      41.858  28.203  30.997  1.00  0.00     0.074 A 
ATOM     40  C   UNL A   1      39.997  29.350  29.805  1.00  0.00     0.049 A 
ATOM     41  N   UNL A   1      41.848  28.791  32.160  1.00  0.00    -0.248 NA
ATOM     42  C   UNL A   1      42.877  27.146  30.857  1.00  0.00     0.031 C 
ATOM     43  C   UNL A   1      39.007  29.552  28.743  1.00  0.00     0.029 A 
ATOM     44  N   UNL A   1      39.691  30.313  30.730  1.00  0.00    -0.354 N 
ATOM     45  C   UNL A   1      42.831  28.151  32.905  1.00  0.00     0.074 A 
ATOM     46  C   UNL A   1      43.365  27.085  32.086  1.00  0.00     0.031 C 
ATOM     47  C   UNL A   1      38.206  30.577  29.077  1.00  0.00     0.029 A 
ATOM     48  C   UNL A   1      38.589  31.064  30.396  1.00  0.00     0.049 A 
ATOM     49  H   UNL A   1      40.210  30.453  31.555  1.00  0.00     0.167 HD
ATOM     50  C   UNL A   1      43.259  28.447  34.153  1.00  0.00     0.037 A 
ATOM     51  C   UNL A   1      37.953  32.021  31.096  1.00  0.00     0.037 A 
ATOM     52  C   UNL A   1      42.720  29.534  34.924  1.00  0.00     0.049 A 
ATOM     53  C   UNL A   1      38.460  32.355  32.472  1.00  0.00     0.074 A 
ATOM     54  C   UNL A   1      43.118  29.994  36.165  1.00  0.00     0.029 A 
ATOM     55  N   UNL A   1      41.661  30.337  34.516  1.00  0.00    -0.354 N 
ATOM     56  N   UNL A   1      39.438  31.794  33.145  1.00  0.00    -0.248 NA
ATOM     57  C   UNL A   1      37.784  33.445  33.183  1.00  0.00     0.031 C 
ATOM     58  C   UNL A   1      42.276  31.053  36.521  1.00  0.00     0.029 A 
ATOM     59  C   UNL A   1      41.383  31.283  35.484  1.00  0.00     0.049 A 
ATOM     60  H   UNL A   1      41.181  30.246  33.661  1.00  0.00     0.167 HD
ATOM     61  C   UNL A   1      39.514  32.482  34.349  1.00  0.00     0.074 A 
ATOM     62  C   UNL A   1      38.487  33.505  34.307  1.00  0.00     0.031 C 
ATOM     63  C   UNL A   1      40.355  32.292  35.397  1.00  0.00     0.037 A 
BRANCH  50  64
ATOM     64  C   UNL A   1      44.360  27.600  34.730  1.00  0.00     0.058 A 
ATOM     65  C   UNL A   1      44.083  26.428  35.455  1.00  0.00     0.135 A 
ATOM     66  C   UNL A   1      45.708  27.958  34.563  1.00  0.00     0.135 A 
ATOM     67  F   UNL A   1      42.812  26.045  35.660  1.00  0.00    -0.206 F 
ATOM     68  C   UNL A   1      45.095  25.671  36.034  1.00  0.00     0.059 A 
ATOM     69  C   UNL A   1      46.740  27.193  35.104  1.00  0.00     0.059 A 
ATOM     70  F   UNL A   1      46.035  29.067  33.882  1.00  0.00    -0.206 F 
ATOM     71  C   UNL A   1      46.421  26.062  35.854  1.00  0.00     0.060 A 
BRANCH  71  72
ATOM     72  S   UNL A   1      47.719  25.068  36.617  1.00  0.00     0.124 S 
ATOM     73  O   UNL A   1      48.895  25.901  36.390  1.00  0.00    -0.237 OA
ATOM     74  O   UNL A   1      47.266  24.975  38.001  1.00  0.00    -0.237 OA
ATOM     75  O   UNL A   1      47.679  23.820  35.862  1.00  0.00    -0.744 OA
ENDBRANCH  71  72
ENDBRANCH  50  64
BRANCH  51  76
ATOM     76  C   UNL A   1      36.814  32.756  30.485  1.00  0.00     0.058 A 
ATOM     77  C   UNL A   1      35.494  32.383  30.784  1.00  0.00     0.135 A 
ATOM     78  C   UNL A   1      37.003  33.862  29.642  1.00  0.00     0.135 A 
ATOM     79  F   UNL A   1      35.262  31.333  31.586  1.00  0.00    -0.206 F 
ATOM     80  C   UNL A   1      34.404  33.070  30.262  1.00  0.00     0.059 A 
ATOM     81  C   UNL A   1      35.928  34.581  29.126  1.00  0.00     0.059 A 
ATOM     82  F   UNL A   1      38.244  34.278  29.345  1.00  0.00    -0.206 F 
ATOM     83  C   UNL A   1      34.631  34.173  29.438  1.00  0.00     0.060 A 
BRANCH  83  84
ATOM     84  S   UNL A   1      33.205  35.095  28.822  1.00  0.00     0.124 S 
ATOM     85  O   UNL A   1      32.503  35.412  30.059  1.00  0.00    -0.237 OA
ATOM     86  O   UNL A   1      33.841  36.219  28.140  1.00  0.00    -0.237 OA
ATOM     87  O   UNL A   1      32.540  34.136  27.944  1.00  0.00    -0.744 OA
ENDBRANCH  83  84
ENDBRANCH  51  76
BRANCH  63  88
ATOM     88  C   UNL A   1      40.218  33.226  36.564  1.00  0.00     0.058 A 
ATOM     89  C   UNL A   1      39.306  32.977  37.599  1.00  0.00     0.135 A 
ATOM     90  C   UNL A   1      41.068  34.337  36.683  1.00  0.00     0.135 A 
ATOM     91  F   UNL A   1      38.465  31.933  37.524  1.00  0.00    -0.206 F 
ATOM     92  C   UNL A   1      39.234  33.806  38.712  1.00  0.00     0.059 A 
ATOM     93  C   UNL A   1      41.034  35.162  37.800  1.00  0.00     0.059 A 
ATOM     94  F   UNL A   1      41.964  34.610  35.720  1.00  0.00    -0.206 F 
ATOM     95  C   UNL A   1      40.108  34.891  38.808  1.00  0.00     0.060 A 
BRANCH  95  96
ATOM     96  S   UNL A   1      40.046  35.920  40.288  1.00  0.00     0.124 S 
ATOM     97  O   UNL A   1      40.566  35.008  41.301  1.00  0.00    -0.237 OA
ATOM     98  O   UNL A   1      40.919  37.034  39.927  1.00  0.00    -0.237 OA
ATOM     99  O   UNL A   1      38.631  36.255  40.411  1.00  0.00    -0.744 OA
ENDBRANCH  95  96
ENDBRANCH  63  88
ENDBRANCH  37  38
ENDBRANCH  29  32
ENDBRANCH  27  28
ENDBRANCH  26  27
ENDBRANCH  25  26
ENDBRANCH   1  25
TORSDOF 21
ENDMDL
