MODEL 1
REMARK VINA RESULT:     -12.7      0.000      0.000
REMARK SMILES CC(C)OC(=O)c1c(NC(=O)[C@H]2[C@@H](C(=O)NCCCCNC(=O)c3ccc(-c4c5nc(c(-c6c(F)cc(S(=O)(=O)[O-])cc6F)c6ccc([nH]6)c(-c6c(F)cc(S(=O)(=O)[O-])cc6F)c6nc(c(-c7c(F)cc(S(=O)(=O)[O-])cc7F)c7ccc4[nH]7)C=C6)C=C5)cc3)[C@@H]3C=C[C@H]2CC3)sc2c1CCC2
REMARK SMILES IDX 17 1 16 2 14 3 15 4 13 6 12 7 93 8 90 9 92 10 94 11 91 12
REMARK SMILES IDX 95 13 10 14 9 15 11 17 8 18 7 19 98 20 96 21 97 22 99 23
REMARK SMILES IDX 101 24 100 25 5 26 6 27 4 28 2 29 1 30 3 31 18 32 19 33
REMARK SMILES IDX 20 34 21 35 22 36 23 38 24 39 25 40 89 41 26 42 88 43 27 44
REMARK SMILES IDX 28 45 29 46 82 47 30 48 87 49 81 50 83 51 31 52 86 53 80 54
REMARK SMILES IDX 79 55 32 57 66 58 45 59 65 60 46 61 49 62 64 63 84 64 47 65
REMARK SMILES IDX 48 66 63 68 85 69 50 70 33 71 34 72 43 73 35 74 36 75 42 76
REMARK SMILES IDX 44 77 37 78 38 79 39 80 40 81 41 82 67 83 68 84 77 85 69 86
REMARK SMILES IDX 70 87 76 88 78 89 71 90 72 91 73 92 74 93 75 94 51 95 52 96
REMARK SMILES IDX 61 97 53 98 54 99 60 100 62 101 55 102 56 103 57 104 58 105
REMARK SMILES IDX 59 106
REMARK H PARENT 16 5 9 16 21 37 83 56 49 67
REMARK Flexibility Score: inf
ROOT
ATOM      1  C   UNL A   1      32.278  26.564  26.605  1.00  0.00     0.116 C 
ENDROOT
BRANCH   1   2
ATOM      2  N   UNL A   1      31.584  25.318  26.872  1.00  0.00    -0.356 N 
ATOM      3  C   UNL A   1      32.013  24.026  26.755  1.00  0.00     0.224 C 
ATOM      4  O   UNL A   1      31.300  23.154  27.249  1.00  0.00    -0.275 OA
ATOM      5  H   UNL A   1      30.656  25.421  27.189  1.00  0.00     0.163 HD
BRANCH   3   6
ATOM      6  C   UNL A   1      33.337  23.716  26.059  1.00  0.00     0.098 C 
ATOM      7  C   UNL A   1      33.247  22.977  24.667  1.00  0.00     0.099 C 
ATOM      8  C   UNL A   1      33.976  21.602  24.785  1.00  0.00     0.025 C 
ATOM      9  C   UNL A   1      34.272  22.909  27.009  1.00  0.00     0.025 C 
ATOM     10  C   UNL A   1      35.421  21.944  25.126  1.00  0.00    -0.027 C 
ATOM     11  C   UNL A   1      33.410  20.783  25.967  1.00  0.00     0.009 C 
ATOM     12  C   UNL A   1      35.571  22.649  26.260  1.00  0.00    -0.027 C 
ATOM     13  C   UNL A   1      33.647  21.529  27.294  1.00  0.00     0.009 C 
BRANCH   7  14
ATOM     14  C   UNL A   1      31.881  22.854  23.984  1.00  0.00     0.229 C 
ATOM     15  N   UNL A   1      31.260  23.908  23.369  1.00  0.00    -0.317 N 
ATOM     16  H   UNL A   1      30.332  23.721  23.098  1.00  0.00     0.170 HD
ATOM     17  O   UNL A   1      31.301  21.763  23.934  1.00  0.00    -0.274 OA
BRANCH  15  18
ATOM     18  C   UNL A   1      31.688  25.184  23.058  1.00  0.00     0.110 A 
ATOM     19  C   UNL A   1      31.030  26.385  23.336  1.00  0.00     0.098 A 
ATOM     20  C   UNL A   1      31.911  27.471  23.053  1.00  0.00    -0.017 A 
ATOM     21  S   UNL A   1      33.081  25.441  22.090  1.00  0.00    -0.122 S 
ATOM     22  C   UNL A   1      33.059  27.062  22.438  1.00  0.00     0.011 A 
ATOM     23  C   UNL A   1      31.945  28.933  23.305  1.00  0.00     0.038 C 
ATOM     24  C   UNL A   1      34.049  28.125  22.191  1.00  0.00     0.047 C 
ATOM     25  C   UNL A   1      33.195  29.392  22.483  1.00  0.00     0.010 C 
BRANCH  19  26
ATOM     26  C   UNL A   1      29.692  26.460  23.901  1.00  0.00     0.341 C 
ATOM     27  O   UNL A   1      29.393  25.964  24.985  1.00  0.00    -0.246 OA
BRANCH  26  28
ATOM     28  O   UNL A   1      28.810  27.034  23.039  1.00  0.00    -0.459 OA
BRANCH  28  29
ATOM     29  C   UNL A   1      28.236  28.327  23.339  1.00  0.00     0.170 C 
ATOM     30  C   UNL A   1      28.619  29.426  22.349  1.00  0.00     0.052 C 
ATOM     31  C   UNL A   1      26.735  28.217  23.560  1.00  0.00     0.052 C 
ENDBRANCH  28  29
ENDBRANCH  26  28
ENDBRANCH  19  26
ENDBRANCH  15  18
ENDBRANCH   7  14
ENDBRANCH   3   6
ENDBRANCH   1   2
BRANCH   1  32
ATOM     32  C   UNL A   1      31.624  27.788  27.250  1.00  0.00     0.023 C 
BRANCH  32  33
ATOM     33  C   UNL A   1      32.100  29.170  26.785  1.00  0.00     0.023 C 
BRANCH  33  34
ATOM     34  C   UNL A   1      33.460  29.605  27.312  1.00  0.00     0.116 C 
BRANCH  34  35
ATOM     35  N   UNL A   1      33.708  31.035  27.156  1.00  0.00    -0.352 N 
ATOM     36  C   UNL A   1      34.752  31.768  27.689  1.00  0.00     0.251 C 
ATOM     37  H   UNL A   1      33.057  31.534  26.612  1.00  0.00     0.163 HD
ATOM     38  O   UNL A   1      34.675  32.988  27.777  1.00  0.00    -0.269 OA
BRANCH  36  39
ATOM     39  C   UNL A   1      35.948  31.051  28.173  1.00  0.00     0.039 A 
ATOM     40  C   UNL A   1      36.320  29.828  27.611  1.00  0.00     0.014 A 
ATOM     41  C   UNL A   1      36.734  31.650  29.154  1.00  0.00     0.014 A 
ATOM     42  C   UNL A   1      37.545  29.261  27.971  1.00  0.00     0.010 A 
ATOM     43  C   UNL A   1      37.990  31.148  29.423  1.00  0.00     0.010 A 
ATOM     44  C   UNL A   1      38.397  29.940  28.856  1.00  0.00    -0.014 A 
BRANCH  44  45
ATOM     45  C   UNL A   1      39.757  29.438  29.096  1.00  0.00     0.031 A 
ATOM     46  C   UNL A   1      40.142  29.213  30.524  1.00  0.00     0.074 A 
ATOM     47  C   UNL A   1      40.559  28.954  28.122  1.00  0.00     0.049 A 
ATOM     48  N   UNL A   1      41.101  29.765  31.194  1.00  0.00    -0.248 NA
ATOM     49  C   UNL A   1      39.308  28.305  31.327  1.00  0.00     0.031 C 
ATOM     50  C   UNL A   1      40.247  28.763  26.700  1.00  0.00     0.029 A 
ATOM     51  N   UNL A   1      41.796  28.395  28.236  1.00  0.00    -0.354 N 
ATOM     52  C   UNL A   1      41.123  29.139  32.442  1.00  0.00     0.074 A 
ATOM     53  C   UNL A   1      39.914  28.360  32.516  1.00  0.00     0.031 C 
ATOM     54  C   UNL A   1      41.146  27.918  26.155  1.00  0.00     0.029 A 
ATOM     55  C   UNL A   1      42.187  27.651  27.130  1.00  0.00     0.049 A 
ATOM     56  H   UNL A   1      42.364  28.509  29.032  1.00  0.00     0.167 HD
ATOM     57  C   UNL A   1      42.226  29.154  33.246  1.00  0.00     0.037 A 
ATOM     58  C   UNL A   1      43.266  26.837  27.033  1.00  0.00     0.037 A 
ATOM     59  C   UNL A   1      43.174  30.153  32.822  1.00  0.00     0.049 A 
ATOM     60  C   UNL A   1      44.226  27.248  28.089  1.00  0.00     0.074 A 
ATOM     61  C   UNL A   1      43.132  31.523  32.633  1.00  0.00     0.029 A 
ATOM     62  N   UNL A   1      44.319  29.733  32.190  1.00  0.00    -0.354 N 
ATOM     63  N   UNL A   1      44.866  28.385  28.097  1.00  0.00    -0.248 NA
ATOM     64  C   UNL A   1      44.185  26.549  29.364  1.00  0.00     0.031 C 
ATOM     65  C   UNL A   1      43.950  31.760  31.488  1.00  0.00     0.029 A 
ATOM     66  C   UNL A   1      44.477  30.532  31.088  1.00  0.00     0.049 A 
ATOM     67  H   UNL A   1      44.912  29.000  32.475  1.00  0.00     0.167 HD
ATOM     68  C   UNL A   1      44.930  28.746  29.433  1.00  0.00     0.074 A 
ATOM     69  C   UNL A   1      44.604  27.528  30.169  1.00  0.00     0.031 C 
ATOM     70  C   UNL A   1      44.967  30.058  29.813  1.00  0.00     0.037 A 
BRANCH  57  71
ATOM     71  C   UNL A   1      42.617  28.062  34.221  1.00  0.00     0.058 A 
ATOM     72  C   UNL A   1      42.705  28.357  35.600  1.00  0.00     0.135 A 
ATOM     73  C   UNL A   1      43.183  26.828  33.831  1.00  0.00     0.135 A 
ATOM     74  F   UNL A   1      42.200  29.501  36.089  1.00  0.00    -0.206 F 
ATOM     75  C   UNL A   1      43.385  27.537  36.503  1.00  0.00     0.059 A 
ATOM     76  C   UNL A   1      43.815  25.968  34.725  1.00  0.00     0.059 A 
ATOM     77  F   UNL A   1      43.239  26.444  32.551  1.00  0.00    -0.206 F 
ATOM     78  C   UNL A   1      43.957  26.354  36.048  1.00  0.00     0.060 A 
BRANCH  78  79
ATOM     79  S   UNL A   1      44.951  25.359  37.175  1.00  0.00     0.124 S 
ATOM     80  O   UNL A   1      44.723  24.016  36.650  1.00  0.00    -0.237 OA
ATOM     81  O   UNL A   1      46.289  25.905  36.970  1.00  0.00    -0.237 OA
ATOM     82  O   UNL A   1      44.360  25.639  38.479  1.00  0.00    -0.744 OA
ENDBRANCH  78  79
ENDBRANCH  57  71
BRANCH  58  83
ATOM     83  C   UNL A   1      43.409  25.573  26.268  1.00  0.00     0.058 A 
ATOM     84  C   UNL A   1      44.496  25.378  25.399  1.00  0.00     0.135 A 
ATOM     85  C   UNL A   1      42.649  24.428  26.582  1.00  0.00     0.135 A 
ATOM     86  F   UNL A   1      45.282  26.411  25.056  1.00  0.00    -0.206 F 
ATOM     87  C   UNL A   1      44.850  24.114  24.923  1.00  0.00     0.059 A 
ATOM     88  C   UNL A   1      42.973  23.159  26.106  1.00  0.00     0.059 A 
ATOM     89  F   UNL A   1      41.620  24.492  27.441  1.00  0.00    -0.206 F 
ATOM     90  C   UNL A   1      44.096  23.004  25.304  1.00  0.00     0.060 A 
BRANCH  90  91
ATOM     91  S   UNL A   1      44.677  21.351  24.861  1.00  0.00     0.124 S 
ATOM     92  O   UNL A   1      43.615  20.506  25.395  1.00  0.00    -0.237 OA
ATOM     93  O   UNL A   1      44.754  21.432  23.405  1.00  0.00    -0.237 OA
ATOM     94  O   UNL A   1      45.962  21.248  25.545  1.00  0.00    -0.744 OA
ENDBRANCH  90  91
ENDBRANCH  58  83
BRANCH  70  95
ATOM     95  C   UNL A   1      45.288  31.101  28.775  1.00  0.00     0.058 A 
ATOM     96  C   UNL A   1      44.327  31.831  28.053  1.00  0.00     0.135 A 
ATOM     97  C   UNL A   1      46.631  31.473  28.607  1.00  0.00     0.135 A 
ATOM     98  F   UNL A   1      43.017  31.623  28.238  1.00  0.00    -0.206 F 
ATOM     99  C   UNL A   1      44.689  32.845  27.164  1.00  0.00     0.059 A 
ATOM    100  C   UNL A   1      47.013  32.504  27.753  1.00  0.00     0.059 A 
ATOM    101  F   UNL A   1      47.593  30.861  29.317  1.00  0.00    -0.206 F 
ATOM    102  C   UNL A   1      46.037  33.175  27.020  1.00  0.00     0.060 A 
BRANCH 102 103
ATOM    103  S   UNL A   1      46.497  34.532  25.923  1.00  0.00     0.124 S 
ATOM    104  O   UNL A   1      47.882  34.209  25.598  1.00  0.00    -0.237 OA
ATOM    105  O   UNL A   1      45.541  34.398  24.828  1.00  0.00    -0.237 OA
ATOM    106  O   UNL A   1      46.312  35.720  26.755  1.00  0.00    -0.744 OA
ENDBRANCH 102 103
ENDBRANCH  70  95
ENDBRANCH  44  45
ENDBRANCH  36  39
ENDBRANCH  34  35
ENDBRANCH  33  34
ENDBRANCH  32  33
ENDBRANCH   1  32
TORSDOF 19
ENDMDL
MODEL 2
REMARK VINA RESULT:     -12.3      2.612      8.597
REMARK SMILES CC(C)OC(=O)c1c(NC(=O)[C@H]2[C@@H](C(=O)NCCCCNC(=O)c3ccc(-c4c5nc(c(-c6c(F)cc(S(=O)(=O)[O-])cc6F)c6ccc([nH]6)c(-c6c(F)cc(S(=O)(=O)[O-])cc6F)c6nc(c(-c7c(F)cc(S(=O)(=O)[O-])cc7F)c7ccc4[nH]7)C=C6)C=C5)cc3)[C@@H]3C=C[C@H]2CC3)sc2c1CCC2
REMARK SMILES IDX 17 1 16 2 14 3 15 4 13 6 12 7 93 8 90 9 92 10 94 11 91 12
REMARK SMILES IDX 95 13 10 14 9 15 11 17 8 18 7 19 98 20 96 21 97 22 99 23
REMARK SMILES IDX 101 24 100 25 5 26 6 27 4 28 2 29 1 30 3 31 18 32 19 33
REMARK SMILES IDX 20 34 21 35 22 36 23 38 24 39 25 40 89 41 26 42 88 43 27 44
REMARK SMILES IDX 28 45 29 46 82 47 30 48 87 49 81 50 83 51 31 52 86 53 80 54
REMARK SMILES IDX 79 55 32 57 66 58 45 59 65 60 46 61 49 62 64 63 84 64 47 65
REMARK SMILES IDX 48 66 63 68 85 69 50 70 33 71 34 72 43 73 35 74 36 75 42 76
REMARK SMILES IDX 44 77 37 78 38 79 39 80 40 81 41 82 67 83 68 84 77 85 69 86
REMARK SMILES IDX 70 87 76 88 78 89 71 90 72 91 73 92 74 93 75 94 51 95 52 96
REMARK SMILES IDX 61 97 53 98 54 99 60 100 62 101 55 102 56 103 57 104 58 105
REMARK SMILES IDX 59 106
REMARK H PARENT 16 5 9 16 21 37 83 56 49 67
REMARK Flexibility Score: inf
ROOT
ATOM      1  C   UNL A   1      37.056  23.797  25.845  1.00  0.00     0.116 C 
ENDROOT
BRANCH   1   2
ATOM      2  N   UNL A   1      36.073  23.310  26.794  1.00  0.00    -0.356 N 
ATOM      3  C   UNL A   1      34.785  22.898  26.598  1.00  0.00     0.224 C 
ATOM      4  O   UNL A   1      34.231  22.329  27.537  1.00  0.00    -0.275 OA
ATOM      5  H   UNL A   1      36.384  23.270  27.729  1.00  0.00     0.163 HD
BRANCH   3   6
ATOM      6  C   UNL A   1      34.102  23.127  25.251  1.00  0.00     0.098 C 
ATOM      7  C   UNL A   1      32.570  23.503  25.291  1.00  0.00     0.099 C 
ATOM      8  C   UNL A   1      31.764  22.397  24.539  1.00  0.00     0.025 C 
ATOM      9  C   UNL A   1      34.302  21.891  24.325  1.00  0.00     0.025 C 
ATOM     10  C   UNL A   1      32.292  22.422  23.110  1.00  0.00    -0.027 C 
ATOM     11  C   UNL A   1      32.083  21.001  25.120  1.00  0.00     0.009 C 
ATOM     12  C   UNL A   1      33.612  22.191  23.003  1.00  0.00    -0.027 C 
ATOM     13  C   UNL A   1      33.576  20.672  24.930  1.00  0.00     0.009 C 
BRANCH   7  14
ATOM     14  C   UNL A   1      31.934  23.871  26.637  1.00  0.00     0.229 C 
ATOM     15  N   UNL A   1      31.255  25.041  26.843  1.00  0.00    -0.317 N 
ATOM     16  H   UNL A   1      31.024  25.208  27.785  1.00  0.00     0.170 HD
ATOM     17  O   UNL A   1      31.987  23.084  27.590  1.00  0.00    -0.274 OA
BRANCH  15  18
ATOM     18  C   UNL A   1      30.832  26.033  25.980  1.00  0.00     0.110 A 
ATOM     19  C   UNL A   1      31.093  27.403  26.076  1.00  0.00     0.098 A 
ATOM     20  C   UNL A   1      30.671  28.040  24.872  1.00  0.00    -0.017 A 
ATOM     21  S   UNL A   1      29.736  25.692  24.705  1.00  0.00    -0.122 S 
ATOM     22  C   UNL A   1      29.986  27.193  24.049  1.00  0.00     0.011 A 
ATOM     23  C   UNL A   1      30.831  29.372  24.238  1.00  0.00     0.038 C 
ATOM     24  C   UNL A   1      29.592  27.767  22.749  1.00  0.00     0.047 C 
ATOM     25  C   UNL A   1      29.879  29.276  22.999  1.00  0.00     0.010 C 
BRANCH  19  26
ATOM     26  C   UNL A   1      31.764  28.018  27.211  1.00  0.00     0.341 C 
ATOM     27  O   UNL A   1      31.415  27.836  28.376  1.00  0.00    -0.246 OA
BRANCH  26  28
ATOM     28  O   UNL A   1      32.730  28.890  26.816  1.00  0.00    -0.459 OA
BRANCH  28  29
ATOM     29  C   UNL A   1      34.015  28.399  26.369  1.00  0.00     0.170 C 
ATOM     30  C   UNL A   1      34.271  28.591  24.875  1.00  0.00     0.052 C 
ATOM     31  C   UNL A   1      35.136  28.940  27.243  1.00  0.00     0.052 C 
ENDBRANCH  28  29
ENDBRANCH  26  28
ENDBRANCH  19  26
ENDBRANCH  15  18
ENDBRANCH   7  14
ENDBRANCH   3   6
ENDBRANCH   1   2
BRANCH   1  32
ATOM     32  C   UNL A   1      38.505  23.525  26.259  1.00  0.00     0.023 C 
BRANCH  32  33
ATOM     33  C   UNL A   1      39.029  22.093  26.096  1.00  0.00     0.023 C 
BRANCH  33  34
ATOM     34  C   UNL A   1      40.184  21.713  27.011  1.00  0.00     0.116 C 
BRANCH  34  35
ATOM     35  N   UNL A   1      41.363  21.248  26.287  1.00  0.00    -0.352 N 
ATOM     36  C   UNL A   1      42.419  22.013  25.825  1.00  0.00     0.251 C 
ATOM     37  H   UNL A   1      41.413  20.282  26.106  1.00  0.00     0.163 HD
ATOM     38  O   UNL A   1      43.166  21.581  24.954  1.00  0.00    -0.269 OA
BRANCH  36  39
ATOM     39  C   UNL A   1      42.611  23.367  26.380  1.00  0.00     0.039 A 
ATOM     40  C   UNL A   1      42.067  24.482  25.739  1.00  0.00     0.014 A 
ATOM     41  C   UNL A   1      43.286  23.503  27.590  1.00  0.00     0.014 A 
ATOM     42  C   UNL A   1      42.119  25.723  26.377  1.00  0.00     0.010 A 
ATOM     43  C   UNL A   1      43.237  24.704  28.268  1.00  0.00     0.010 A 
ATOM     44  C   UNL A   1      42.678  25.828  27.660  1.00  0.00    -0.014 A 
BRANCH  44  45
ATOM     45  C   UNL A   1      42.572  27.089  28.406  1.00  0.00     0.031 A 
ATOM     46  C   UNL A   1      43.638  28.108  28.146  1.00  0.00     0.074 A 
ATOM     47  C   UNL A   1      41.474  27.459  29.100  1.00  0.00     0.049 A 
ATOM     48  N   UNL A   1      44.477  28.624  28.984  1.00  0.00    -0.248 NA
ATOM     49  C   UNL A   1      43.835  28.560  26.760  1.00  0.00     0.031 C 
ATOM     50  C   UNL A   1      40.186  26.762  29.201  1.00  0.00     0.029 A 
ATOM     51  N   UNL A   1      41.235  28.628  29.759  1.00  0.00    -0.354 N 
ATOM     52  C   UNL A   1      45.181  29.607  28.285  1.00  0.00     0.074 A 
ATOM     53  C   UNL A   1      44.846  29.421  26.896  1.00  0.00     0.031 C 
ATOM     54  C   UNL A   1      39.247  27.620  29.650  1.00  0.00     0.029 A 
ATOM     55  C   UNL A   1      39.894  28.861  30.032  1.00  0.00     0.049 A 
ATOM     56  H   UNL A   1      41.950  29.252  30.018  1.00  0.00     0.167 HD
ATOM     57  C   UNL A   1      45.837  30.623  28.917  1.00  0.00     0.037 A 
ATOM     58  C   UNL A   1      39.343  30.008  30.500  1.00  0.00     0.037 A 
ATOM     59  C   UNL A   1      46.004  30.350  30.322  1.00  0.00     0.049 A 
ATOM     60  C   UNL A   1      40.428  30.789  31.144  1.00  0.00     0.074 A 
ATOM     61  C   UNL A   1      46.593  29.338  31.058  1.00  0.00     0.029 A 
ATOM     62  N   UNL A   1      45.218  31.038  31.214  1.00  0.00    -0.354 N 
ATOM     63  N   UNL A   1      41.040  30.431  32.239  1.00  0.00    -0.248 NA
ATOM     64  C   UNL A   1      41.116  31.794  30.348  1.00  0.00     0.031 C 
ATOM     65  C   UNL A   1      45.744  29.166  32.192  1.00  0.00     0.029 A 
ATOM     66  C   UNL A   1      44.727  30.115  32.100  1.00  0.00     0.049 A 
ATOM     67  H   UNL A   1      45.042  32.007  31.217  1.00  0.00     0.167 HD
ATOM     68  C   UNL A   1      42.354  30.828  32.056  1.00  0.00     0.074 A 
ATOM     69  C   UNL A   1      42.314  31.762  30.935  1.00  0.00     0.031 C 
ATOM     70  C   UNL A   1      43.388  30.156  32.646  1.00  0.00     0.037 A 
BRANCH  57  71
ATOM     71  C   UNL A   1      46.048  32.015  28.355  1.00  0.00     0.058 A 
ATOM     72  C   UNL A   1      47.331  32.603  28.414  1.00  0.00     0.135 A 
ATOM     73  C   UNL A   1      44.995  32.897  28.030  1.00  0.00     0.135 A 
ATOM     74  F   UNL A   1      48.410  31.862  28.713  1.00  0.00    -0.206 F 
ATOM     75  C   UNL A   1      47.538  33.975  28.256  1.00  0.00     0.059 A 
ATOM     76  C   UNL A   1      45.187  34.259  27.811  1.00  0.00     0.059 A 
ATOM     77  F   UNL A   1      43.717  32.502  28.006  1.00  0.00    -0.206 F 
ATOM     78  C   UNL A   1      46.453  34.798  27.977  1.00  0.00     0.060 A 
BRANCH  78  79
ATOM     79  S   UNL A   1      46.688  36.583  27.906  1.00  0.00     0.124 S 
ATOM     80  O   UNL A   1      48.091  36.673  27.516  1.00  0.00    -0.237 OA
ATOM     81  O   UNL A   1      45.717  36.981  26.892  1.00  0.00    -0.237 OA
ATOM     82  O   UNL A   1      46.378  37.016  29.265  1.00  0.00    -0.744 OA
ENDBRANCH  78  79
ENDBRANCH  57  71
BRANCH  58  83
ATOM     83  C   UNL A   1      38.009  30.586  30.199  1.00  0.00     0.058 A 
ATOM     84  C   UNL A   1      37.208  31.117  31.225  1.00  0.00     0.135 A 
ATOM     85  C   UNL A   1      37.612  30.886  28.881  1.00  0.00     0.135 A 
ATOM     86  F   UNL A   1      37.519  30.892  32.511  1.00  0.00    -0.206 F 
ATOM     87  C   UNL A   1      36.121  31.953  30.962  1.00  0.00     0.059 A 
ATOM     88  C   UNL A   1      36.521  31.705  28.593  1.00  0.00     0.059 A 
ATOM     89  F   UNL A   1      38.333  30.471  27.828  1.00  0.00    -0.206 F 
ATOM     90  C   UNL A   1      35.800  32.262  29.641  1.00  0.00     0.060 A 
BRANCH  90  91
ATOM     91  S   UNL A   1      34.530  33.505  29.311  1.00  0.00     0.124 S 
ATOM     92  O   UNL A   1      33.951  33.703  30.635  1.00  0.00    -0.237 OA
ATOM     93  O   UNL A   1      35.316  34.617  28.786  1.00  0.00    -0.237 OA
ATOM     94  O   UNL A   1      33.658  32.850  28.340  1.00  0.00    -0.744 OA
ENDBRANCH  90  91
ENDBRANCH  58  83
BRANCH  70  95
ATOM     95  C   UNL A   1      43.080  29.199  33.768  1.00  0.00     0.058 A 
ATOM     96  C   UNL A   1      43.052  29.549  35.130  1.00  0.00     0.135 A 
ATOM     97  C   UNL A   1      42.659  27.903  33.433  1.00  0.00     0.135 A 
ATOM     98  F   UNL A   1      43.326  30.797  35.530  1.00  0.00    -0.206 F 
ATOM     99  C   UNL A   1      42.677  28.634  36.116  1.00  0.00     0.059 A 
ATOM    100  C   UNL A   1      42.248  26.985  34.395  1.00  0.00     0.059 A 
ATOM    101  F   UNL A   1      42.599  27.527  32.144  1.00  0.00    -0.206 F 
ATOM    102  C   UNL A   1      42.275  27.352  35.738  1.00  0.00     0.060 A 
BRANCH 102 103
ATOM    103  S   UNL A   1      41.724  26.195  37.009  1.00  0.00     0.124 S 
ATOM    104  O   UNL A   1      41.712  24.928  36.286  1.00  0.00    -0.237 OA
ATOM    105  O   UNL A   1      42.754  26.330  38.034  1.00  0.00    -0.237 OA
ATOM    106  O   UNL A   1      40.409  26.707  37.390  1.00  0.00    -0.744 OA
ENDBRANCH 102 103
ENDBRANCH  70  95
ENDBRANCH  44  45
ENDBRANCH  36  39
ENDBRANCH  34  35
ENDBRANCH  33  34
ENDBRANCH  32  33
ENDBRANCH   1  32
TORSDOF 19
ENDMDL
MODEL 3
REMARK VINA RESULT:     -12.2      1.716      4.032
REMARK SMILES CC(C)OC(=O)c1c(NC(=O)[C@H]2[C@@H](C(=O)NCCCCNC(=O)c3ccc(-c4c5nc(c(-c6c(F)cc(S(=O)(=O)[O-])cc6F)c6ccc([nH]6)c(-c6c(F)cc(S(=O)(=O)[O-])cc6F)c6nc(c(-c7c(F)cc(S(=O)(=O)[O-])cc7F)c7ccc4[nH]7)C=C6)C=C5)cc3)[C@@H]3C=C[C@H]2CC3)sc2c1CCC2
REMARK SMILES IDX 17 1 16 2 14 3 15 4 13 6 12 7 93 8 90 9 92 10 94 11 91 12
REMARK SMILES IDX 95 13 10 14 9 15 11 17 8 18 7 19 98 20 96 21 97 22 99 23
REMARK SMILES IDX 101 24 100 25 5 26 6 27 4 28 2 29 1 30 3 31 18 32 19 33
REMARK SMILES IDX 20 34 21 35 22 36 23 38 24 39 25 40 89 41 26 42 88 43 27 44
REMARK SMILES IDX 28 45 29 46 82 47 30 48 87 49 81 50 83 51 31 52 86 53 80 54
REMARK SMILES IDX 79 55 32 57 66 58 45 59 65 60 46 61 49 62 64 63 84 64 47 65
REMARK SMILES IDX 48 66 63 68 85 69 50 70 33 71 34 72 43 73 35 74 36 75 42 76
REMARK SMILES IDX 44 77 37 78 38 79 39 80 40 81 41 82 67 83 68 84 77 85 69 86
REMARK SMILES IDX 70 87 76 88 78 89 71 90 72 91 73 92 74 93 75 94 51 95 52 96
REMARK SMILES IDX 61 97 53 98 54 99 60 100 62 101 55 102 56 103 57 104 58 105
REMARK SMILES IDX 59 106
REMARK H PARENT 16 5 9 16 21 37 83 56 49 67
REMARK Flexibility Score: inf
ROOT
ATOM      1  C   UNL A   1      34.415  28.315  26.525  1.00  0.00     0.116 C 
ENDROOT
BRANCH   1   2
ATOM      2  N   UNL A   1      34.378  28.684  25.123  1.00  0.00    -0.356 N 
ATOM      3  C   UNL A   1      33.445  28.410  24.163  1.00  0.00     0.224 C 
ATOM      4  O   UNL A   1      33.542  29.020  23.099  1.00  0.00    -0.275 OA
ATOM      5  H   UNL A   1      35.148  29.216  24.814  1.00  0.00     0.163 HD
BRANCH   3   6
ATOM      6  C   UNL A   1      32.328  27.405  24.441  1.00  0.00     0.098 C 
ATOM      7  C   UNL A   1      32.182  26.211  23.420  1.00  0.00     0.099 C 
ATOM      8  C   UNL A   1      30.771  26.291  22.756  1.00  0.00     0.025 C 
ATOM      9  C   UNL A   1      30.959  28.138  24.571  1.00  0.00     0.025 C 
ATOM     10  C   UNL A   1      29.781  26.147  23.906  1.00  0.00    -0.027 C 
ATOM     11  C   UNL A   1      30.542  27.684  22.128  1.00  0.00     0.009 C 
ATOM     12  C   UNL A   1      29.901  27.085  24.860  1.00  0.00    -0.027 C 
ATOM     13  C   UNL A   1      30.586  28.774  23.217  1.00  0.00     0.009 C 
BRANCH   7  14
ATOM     14  C   UNL A   1      33.295  25.978  22.392  1.00  0.00     0.229 C 
ATOM     15  N   UNL A   1      34.010  24.812  22.322  1.00  0.00    -0.317 N 
ATOM     16  H   UNL A   1      34.781  24.853  21.713  1.00  0.00     0.170 HD
ATOM     17  O   UNL A   1      33.562  26.844  21.551  1.00  0.00    -0.274 OA
BRANCH  15  18
ATOM     18  C   UNL A   1      33.853  23.589  22.945  1.00  0.00     0.110 A 
ATOM     19  C   UNL A   1      34.812  22.890  23.684  1.00  0.00     0.098 A 
ATOM     20  C   UNL A   1      34.180  21.792  24.339  1.00  0.00    -0.017 A 
ATOM     21  S   UNL A   1      32.428  22.658  22.728  1.00  0.00    -0.122 S 
ATOM     22  C   UNL A   1      32.887  21.621  23.936  1.00  0.00     0.011 A 
ATOM     23  C   UNL A   1      34.533  20.812  25.396  1.00  0.00     0.038 C 
ATOM     24  C   UNL A   1      32.151  20.551  24.634  1.00  0.00     0.047 C 
ATOM     25  C   UNL A   1      33.316  19.828  25.370  1.00  0.00     0.010 C 
BRANCH  19  26
ATOM     26  C   UNL A   1      36.201  23.307  23.801  1.00  0.00     0.341 C 
ATOM     27  O   UNL A   1      37.027  23.147  22.905  1.00  0.00    -0.246 OA
BRANCH  26  28
ATOM     28  O   UNL A   1      36.484  23.779  25.045  1.00  0.00    -0.459 OA
BRANCH  28  29
ATOM     29  C   UNL A   1      37.401  23.061  25.903  1.00  0.00     0.170 C 
ATOM     30  C   UNL A   1      37.930  21.760  25.303  1.00  0.00     0.052 C 
ATOM     31  C   UNL A   1      38.505  23.980  26.406  1.00  0.00     0.052 C 
ENDBRANCH  28  29
ENDBRANCH  26  28
ENDBRANCH  19  26
ENDBRANCH  15  18
ENDBRANCH   7  14
ENDBRANCH   3   6
ENDBRANCH   1   2
BRANCH   1  32
ATOM     32  C   UNL A   1      33.267  28.903  27.350  1.00  0.00     0.023 C 
BRANCH  32  33
ATOM     33  C   UNL A   1      32.902  30.372  27.106  1.00  0.00     0.023 C 
BRANCH  33  34
ATOM     34  C   UNL A   1      34.029  31.371  27.329  1.00  0.00     0.116 C 
BRANCH  34  35
ATOM     35  N   UNL A   1      33.930  32.076  28.603  1.00  0.00    -0.352 N 
ATOM     36  C   UNL A   1      34.777  31.968  29.690  1.00  0.00     0.251 C 
ATOM     37  H   UNL A   1      33.173  32.699  28.700  1.00  0.00     0.163 HD
ATOM     38  O   UNL A   1      34.415  32.336  30.801  1.00  0.00    -0.269 OA
BRANCH  36  39
ATOM     39  C   UNL A   1      36.114  31.374  29.491  1.00  0.00     0.039 A 
ATOM     40  C   UNL A   1      37.226  32.187  29.258  1.00  0.00     0.014 A 
ATOM     41  C   UNL A   1      36.255  29.994  29.608  1.00  0.00     0.014 A 
ATOM     42  C   UNL A   1      38.497  31.609  29.245  1.00  0.00     0.010 A 
ATOM     43  C   UNL A   1      37.517  29.443  29.706  1.00  0.00     0.010 A 
ATOM     44  C   UNL A   1      38.646  30.238  29.502  1.00  0.00    -0.014 A 
BRANCH  44  45
ATOM     45  C   UNL A   1      39.987  29.662  29.667  1.00  0.00     0.031 A 
ATOM     46  C   UNL A   1      40.427  29.391  31.072  1.00  0.00     0.074 A 
ATOM     47  C   UNL A   1      40.715  29.157  28.647  1.00  0.00     0.049 A 
ATOM     48  N   UNL A   1      41.444  29.880  31.704  1.00  0.00    -0.248 NA
ATOM     49  C   UNL A   1      39.587  28.511  31.899  1.00  0.00     0.031 C 
ATOM     50  C   UNL A   1      40.328  29.010  27.240  1.00  0.00     0.029 A 
ATOM     51  N   UNL A   1      41.926  28.534  28.692  1.00  0.00    -0.354 N 
ATOM     52  C   UNL A   1      41.493  29.229  32.938  1.00  0.00     0.074 A 
ATOM     53  C   UNL A   1      40.250  28.512  33.058  1.00  0.00     0.031 C 
ATOM     54  C   UNL A   1      41.154  28.131  26.638  1.00  0.00     0.029 A 
ATOM     55  C   UNL A   1      42.225  27.792  27.557  1.00  0.00     0.049 A 
ATOM     56  H   UNL A   1      42.536  28.603  29.462  1.00  0.00     0.167 HD
ATOM     57  C   UNL A   1      42.633  29.173  33.688  1.00  0.00     0.037 A 
ATOM     58  C   UNL A   1      43.255  26.926  27.394  1.00  0.00     0.037 A 
ATOM     59  C   UNL A   1      43.610  30.130  33.236  1.00  0.00     0.049 A 
ATOM     60  C   UNL A   1      44.284  27.267  28.408  1.00  0.00     0.074 A 
ATOM     61  C   UNL A   1      43.630  31.503  33.072  1.00  0.00     0.029 A 
ATOM     62  N   UNL A   1      44.700  29.665  32.542  1.00  0.00    -0.354 N 
ATOM     63  N   UNL A   1      44.981  28.370  28.404  1.00  0.00    -0.248 NA
ATOM     64  C   UNL A   1      44.267  26.547  29.672  1.00  0.00     0.031 C 
ATOM     65  C   UNL A   1      44.404  31.721  31.893  1.00  0.00     0.029 A 
ATOM     66  C   UNL A   1      44.847  30.476  31.447  1.00  0.00     0.049 A 
ATOM     67  H   UNL A   1      45.267  28.897  32.785  1.00  0.00     0.167 HD
ATOM     68  C   UNL A   1      45.127  28.700  29.742  1.00  0.00     0.074 A 
ATOM     69  C   UNL A   1      44.774  27.487  30.472  1.00  0.00     0.031 C 
ATOM     70  C   UNL A   1      45.250  30.001  30.142  1.00  0.00     0.037 A 
BRANCH  57  71
ATOM     71  C   UNL A   1      43.011  28.043  34.624  1.00  0.00     0.058 A 
ATOM     72  C   UNL A   1      43.285  28.325  35.982  1.00  0.00     0.135 A 
ATOM     73  C   UNL A   1      43.396  26.757  34.186  1.00  0.00     0.135 A 
ATOM     74  F   UNL A   1      42.962  29.515  36.512  1.00  0.00    -0.206 F 
ATOM     75  C   UNL A   1      43.971  27.435  36.811  1.00  0.00     0.059 A 
ATOM     76  C   UNL A   1      44.030  25.833  35.012  1.00  0.00     0.059 A 
ATOM     77  F   UNL A   1      43.267  26.371  32.912  1.00  0.00    -0.206 F 
ATOM     78  C   UNL A   1      44.360  26.199  36.308  1.00  0.00     0.060 A 
BRANCH  78  79
ATOM     79  S   UNL A   1      45.362  25.101  37.326  1.00  0.00     0.124 S 
ATOM     80  O   UNL A   1      46.575  25.894  37.496  1.00  0.00    -0.237 OA
ATOM     81  O   UNL A   1      44.532  24.942  38.516  1.00  0.00    -0.237 OA
ATOM     82  O   UNL A   1      45.496  23.906  36.499  1.00  0.00    -0.744 OA
ENDBRANCH  78  79
ENDBRANCH  57  71
BRANCH  58  83
ATOM     83  C   UNL A   1      43.295  25.672  26.602  1.00  0.00     0.058 A 
ATOM     84  C   UNL A   1      44.182  25.533  25.520  1.00  0.00     0.135 A 
ATOM     85  C   UNL A   1      42.677  24.489  27.056  1.00  0.00     0.135 A 
ATOM     86  F   UNL A   1      44.825  26.605  25.030  1.00  0.00    -0.206 F 
ATOM     87  C   UNL A   1      44.490  24.289  24.966  1.00  0.00     0.059 A 
ATOM     88  C   UNL A   1      42.956  23.238  26.508  1.00  0.00     0.059 A 
ATOM     89  F   UNL A   1      41.851  24.500  28.113  1.00  0.00    -0.206 F 
ATOM     90  C   UNL A   1      43.890  23.142  25.485  1.00  0.00     0.060 A 
BRANCH  90  91
ATOM     91  S   UNL A   1      44.445  21.520  24.910  1.00  0.00     0.124 S 
ATOM     92  O   UNL A   1      43.368  20.652  25.372  1.00  0.00    -0.237 OA
ATOM     93  O   UNL A   1      44.529  21.718  23.466  1.00  0.00    -0.237 OA
ATOM     94  O   UNL A   1      45.726  21.341  25.586  1.00  0.00    -0.744 OA
ENDBRANCH  90  91
ENDBRANCH  58  83
BRANCH  70  95
ATOM     95  C   UNL A   1      45.575  31.047  29.108  1.00  0.00     0.058 A 
ATOM     96  C   UNL A   1      44.634  31.638  28.247  1.00  0.00     0.135 A 
ATOM     97  C   UNL A   1      46.877  31.571  29.085  1.00  0.00     0.135 A 
ATOM     98  F   UNL A   1      43.343  31.281  28.282  1.00  0.00    -0.206 F 
ATOM     99  C   UNL A   1      44.985  32.663  27.366  1.00  0.00     0.059 A 
ATOM    100  C   UNL A   1      47.242  32.616  28.241  1.00  0.00     0.059 A 
ATOM    101  F   UNL A   1      47.809  31.096  29.930  1.00  0.00    -0.206 F 
ATOM    102  C   UNL A   1      46.293  33.146  27.370  1.00  0.00     0.060 A 
BRANCH 102 103
ATOM    103  S   UNL A   1      46.727  34.519  26.281  1.00  0.00     0.124 S 
ATOM    104  O   UNL A   1      45.466  34.775  25.593  1.00  0.00    -0.237 OA
ATOM    105  O   UNL A   1      47.158  35.550  27.220  1.00  0.00    -0.237 OA
ATOM    106  O   UNL A   1      47.792  33.968  25.445  1.00  0.00    -0.744 OA
ENDBRANCH 102 103
ENDBRANCH  70  95
ENDBRANCH  44  45
ENDBRANCH  36  39
ENDBRANCH  34  35
ENDBRANCH  33  34
ENDBRANCH  32  33
ENDBRANCH   1  32
TORSDOF 19
ENDMDL
