MODEL 1
REMARK VINA RESULT:     -11.3      0.000      0.000
REMARK SMILES Cc1cc(NC[C@H](C)[NH+](C)C)cc(C(=O)NCCCCNC(=O)c2ccc(-c3c4nc(c(-c5c(F)cc(S(=O)(=O)[O-])cc5F)c5ccc([nH]5)c(-c5c(F)cc(S(=O)(=O)[O-])cc5F)c5nc(c(-c6c(F)cc(S(=O)(=O)[O-])cc6F)c6ccc3[nH]6)C=C5)C=C4)cc2)c1N
REMARK SMILES IDX 18 1 17 2 16 3 14 4 15 5 13 7 1 8 2 9 3 10 90 11 4 12 12 13
REMARK SMILES IDX 91 14 5 17 6 19 7 20 8 21 9 22 10 23 11 24 19 26 20 27 21 28
REMARK SMILES IDX 22 29 23 31 24 32 25 33 89 34 26 35 88 36 27 37 28 38 29 39
REMARK SMILES IDX 82 40 30 41 87 42 81 43 83 44 31 45 86 46 80 47 79 48 32 50
REMARK SMILES IDX 66 51 45 52 65 53 46 54 49 55 64 56 84 57 47 58 48 59 63 61
REMARK SMILES IDX 85 62 50 63 33 64 34 65 43 66 35 67 36 68 42 69 44 70 37 71
REMARK SMILES IDX 38 72 39 73 40 74 41 75 67 76 68 77 77 78 69 79 70 80 76 81
REMARK SMILES IDX 78 82 71 83 72 84 73 85 74 86 75 87 51 88 52 89 61 90 53 91
REMARK SMILES IDX 54 92 60 93 62 94 55 95 56 96 57 97 58 98 59 99
REMARK H PARENT 16 6 91 15 91 16 5 18 9 25 21 30 83 49 49 60
REMARK Flexibility Score: inf
ROOT
ATOM      1  C   UNL A   1      35.045  30.132  27.267  1.00  0.00     0.023 C 
ENDROOT
BRANCH   1   2
ATOM      2  C   UNL A   1      33.889  29.570  26.430  1.00  0.00     0.116 C 
BRANCH   2   3
ATOM      3  N   UNL A   1      32.805  29.112  27.280  1.00  0.00    -0.352 N 
ATOM      4  C   UNL A   1      31.724  28.285  27.066  1.00  0.00     0.253 C 
ATOM      5  O   UNL A   1      30.995  28.077  28.041  1.00  0.00    -0.269 OA
ATOM      6  H   UNL A   1      32.851  29.465  28.198  1.00  0.00     0.163 HD
BRANCH   4   7
ATOM      7  C   UNL A   1      31.415  27.620  25.753  1.00  0.00     0.065 A 
ATOM      8  C   UNL A   1      30.779  24.128  24.317  1.00  0.00     0.046 C 
ATOM      9  C   UNL A   1      30.974  25.614  24.441  1.00  0.00    -0.025 A 
ATOM     10  C   UNL A   1      30.888  26.409  23.280  1.00  0.00     0.031 A 
ATOM     11  C   UNL A   1      31.242  26.216  25.692  1.00  0.00     0.047 A 
ATOM     12  C   UNL A   1      31.043  27.792  23.331  1.00  0.00     0.035 A 
ATOM     13  C   UNL A   1      31.223  28.368  24.587  1.00  0.00     0.041 A 
BRANCH  11  14
ATOM     14  N   UNL A   1      31.479  25.406  26.810  1.00  0.00    -0.398 N 
ATOM     15  H   UNL A   1      32.390  25.318  27.170  1.00  0.00     0.156 HD
ATOM     16  H   UNL A   1      30.733  24.925  27.236  1.00  0.00     0.156 HD
ENDBRANCH  11  14
BRANCH  12  17
ATOM     17  N   UNL A   1      31.010  28.547  22.166  1.00  0.00    -0.379 N 
ATOM     18  H   UNL A   1      31.451  28.204  21.356  1.00  0.00     0.160 HD
BRANCH  17  19
ATOM     19  C   UNL A   1      30.332  29.845  22.121  1.00  0.00     0.177 C 
BRANCH  19  20
ATOM     20  C   UNL A   1      28.785  29.729  21.996  1.00  0.00     0.199 C 
ATOM     21  C   UNL A   1      28.280  30.839  21.054  1.00  0.00     0.077 C 
BRANCH  20  22
ATOM     22  N   UNL A   1      27.993  29.722  23.251  1.00  0.00    -0.336 N 
ATOM     23  C   UNL A   1      27.438  31.034  23.575  1.00  0.00     0.332 C 
ATOM     24  C   UNL A   1      26.932  28.713  23.294  1.00  0.00     0.332 C 
ATOM     25  H   UNL A   1      28.675  29.465  23.963  1.00  0.00     0.347 HD
ENDBRANCH  20  22
ENDBRANCH  19  20
ENDBRANCH  17  19
ENDBRANCH  12  17
ENDBRANCH   4   7
ENDBRANCH   2   3
ENDBRANCH   1   2
BRANCH   1  26
ATOM     26  C   UNL A   1      34.661  31.295  28.181  1.00  0.00     0.023 C 
BRANCH  26  27
ATOM     27  C   UNL A   1      35.745  31.722  29.162  1.00  0.00     0.116 C 
BRANCH  27  28
ATOM     28  N   UNL A   1      35.639  31.067  30.458  1.00  0.00    -0.352 N 
ATOM     29  C   UNL A   1      36.595  30.325  31.114  1.00  0.00     0.251 C 
ATOM     30  H   UNL A   1      34.777  31.166  30.923  1.00  0.00     0.163 HD
ATOM     31  O   UNL A   1      36.326  29.756  32.164  1.00  0.00    -0.269 OA
BRANCH  29  32
ATOM     32  C   UNL A   1      37.932  30.188  30.501  1.00  0.00     0.039 A 
ATOM     33  C   UNL A   1      39.043  30.667  31.200  1.00  0.00     0.014 A 
ATOM     34  C   UNL A   1      38.090  29.523  29.283  1.00  0.00     0.014 A 
ATOM     35  C   UNL A   1      40.324  30.405  30.713  1.00  0.00     0.010 A 
ATOM     36  C   UNL A   1      39.367  29.212  28.831  1.00  0.00     0.010 A 
ATOM     37  C   UNL A   1      40.495  29.637  29.549  1.00  0.00    -0.014 A 
BRANCH  37  38
ATOM     38  C   UNL A   1      41.846  29.236  29.085  1.00  0.00     0.031 A 
ATOM     39  C   UNL A   1      42.945  30.255  28.987  1.00  0.00     0.074 A 
ATOM     40  C   UNL A   1      42.053  27.970  28.673  1.00  0.00     0.049 A 
ATOM     41  N   UNL A   1      44.160  30.114  28.528  1.00  0.00    -0.248 NA
ATOM     42  C   UNL A   1      42.624  31.619  29.436  1.00  0.00     0.031 C 
ATOM     43  C   UNL A   1      41.046  26.906  28.665  1.00  0.00     0.029 A 
ATOM     44  N   UNL A   1      43.175  27.367  28.165  1.00  0.00    -0.354 N 
ATOM     45  C   UNL A   1      44.746  31.370  28.616  1.00  0.00     0.074 A 
ATOM     46  C   UNL A   1      43.737  32.271  29.132  1.00  0.00     0.031 C 
ATOM     47  C   UNL A   1      41.601  25.778  28.191  1.00  0.00     0.029 A 
ATOM     48  C   UNL A   1      42.991  26.045  27.836  1.00  0.00     0.049 A 
ATOM     49  H   UNL A   1      44.033  27.837  28.047  1.00  0.00     0.167 HD
ATOM     50  C   UNL A   1      46.013  31.736  28.310  1.00  0.00     0.037 A 
ATOM     51  C   UNL A   1      43.845  25.150  27.303  1.00  0.00     0.037 A 
ATOM     52  C   UNL A   1      47.020  30.829  27.823  1.00  0.00     0.049 A 
ATOM     53  C   UNL A   1      45.256  25.570  27.003  1.00  0.00     0.074 A 
ATOM     54  C   UNL A   1      48.350  31.089  27.545  1.00  0.00     0.029 A 
ATOM     55  N   UNL A   1      46.808  29.487  27.545  1.00  0.00    -0.354 N 
ATOM     56  N   UNL A   1      45.812  26.748  27.151  1.00  0.00    -0.248 NA
ATOM     57  C   UNL A   1      46.159  24.540  26.470  1.00  0.00     0.031 C 
ATOM     58  C   UNL A   1      48.937  29.909  27.072  1.00  0.00     0.029 A 
ATOM     59  C   UNL A   1      47.979  28.907  27.087  1.00  0.00     0.049 A 
ATOM     60  H   UNL A   1      45.950  29.017  27.656  1.00  0.00     0.167 HD
ATOM     61  C   UNL A   1      47.134  26.598  26.751  1.00  0.00     0.074 A 
ATOM     62  C   UNL A   1      47.297  25.212  26.362  1.00  0.00     0.031 C 
ATOM     63  C   UNL A   1      48.125  27.523  26.712  1.00  0.00     0.037 A 
BRANCH  50  64
ATOM     64  C   UNL A   1      46.379  33.180  28.504  1.00  0.00     0.058 A 
ATOM     65  C   UNL A   1      46.873  33.653  29.729  1.00  0.00     0.135 A 
ATOM     66  C   UNL A   1      46.245  34.099  27.452  1.00  0.00     0.135 A 
ATOM     67  F   UNL A   1      47.004  32.819  30.772  1.00  0.00    -0.206 F 
ATOM     68  C   UNL A   1      47.188  34.995  29.917  1.00  0.00     0.059 A 
ATOM     69  C   UNL A   1      46.578  35.442  27.609  1.00  0.00     0.059 A 
ATOM     70  F   UNL A   1      45.778  33.699  26.259  1.00  0.00    -0.206 F 
ATOM     71  C   UNL A   1      47.030  35.882  28.852  1.00  0.00     0.060 A 
BRANCH  71  72
ATOM     72  S   UNL A   1      47.429  37.624  29.111  1.00  0.00     0.124 S 
ATOM     73  O   UNL A   1      46.111  38.242  28.998  1.00  0.00    -0.237 OA
ATOM     74  O   UNL A   1      48.012  37.619  30.449  1.00  0.00    -0.237 OA
ATOM     75  O   UNL A   1      48.359  37.924  28.027  1.00  0.00    -0.744 OA
ENDBRANCH  71  72
ENDBRANCH  50  64
BRANCH  51  76
ATOM     76  C   UNL A   1      43.393  23.756  27.057  1.00  0.00     0.058 A 
ATOM     77  C   UNL A   1      43.296  22.837  28.113  1.00  0.00     0.135 A 
ATOM     78  C   UNL A   1      43.019  23.325  25.776  1.00  0.00     0.135 A 
ATOM     79  F   UNL A   1      43.646  23.205  29.355  1.00  0.00    -0.206 F 
ATOM     80  C   UNL A   1      42.853  21.536  27.905  1.00  0.00     0.059 A 
ATOM     81  C   UNL A   1      42.555  22.034  25.546  1.00  0.00     0.059 A 
ATOM     82  F   UNL A   1      43.079  24.174  24.738  1.00  0.00    -0.206 F 
ATOM     83  C   UNL A   1      42.483  21.144  26.618  1.00  0.00     0.060 A 
BRANCH  83  84
ATOM     84  S   UNL A   1      41.846  19.472  26.370  1.00  0.00     0.124 S 
ATOM     85  O   UNL A   1      42.476  19.104  25.107  1.00  0.00    -0.237 OA
ATOM     86  O   UNL A   1      42.337  18.775  27.554  1.00  0.00    -0.237 OA
ATOM     87  O   UNL A   1      40.401  19.669  26.323  1.00  0.00    -0.744 OA
ENDBRANCH  83  84
ENDBRANCH  51  76
BRANCH  63  88
ATOM     88  C   UNL A   1      49.480  27.061  26.260  1.00  0.00     0.058 A 
ATOM     89  C   UNL A   1      50.411  26.527  27.162  1.00  0.00     0.135 A 
ATOM     90  C   UNL A   1      49.827  27.104  24.901  1.00  0.00     0.135 A 
ATOM     91  F   UNL A   1      50.129  26.473  28.473  1.00  0.00    -0.206 F 
ATOM     92  C   UNL A   1      51.652  26.066  26.734  1.00  0.00     0.059 A 
ATOM     93  C   UNL A   1      51.053  26.628  24.447  1.00  0.00     0.059 A 
ATOM     94  F   UNL A   1      48.966  27.598  23.998  1.00  0.00    -0.206 F 
ATOM     95  C   UNL A   1      51.963  26.120  25.373  1.00  0.00     0.060 A 
BRANCH  95  96
ATOM     96  S   UNL A   1      53.559  25.482  24.820  1.00  0.00     0.124 S 
ATOM     97  O   UNL A   1      53.591  25.934  23.433  1.00  0.00    -0.237 OA
ATOM     98  O   UNL A   1      54.494  26.144  25.725  1.00  0.00    -0.237 OA
ATOM     99  O   UNL A   1      53.430  24.040  25.009  1.00  0.00    -0.744 OA
ENDBRANCH  95  96
ENDBRANCH  63  88
ENDBRANCH  37  38
ENDBRANCH  29  32
ENDBRANCH  27  28
ENDBRANCH  26  27
ENDBRANCH   1  26
TORSDOF 19
ENDMDL
MODEL 2
REMARK VINA RESULT:     -11.2      1.252      3.153
REMARK SMILES Cc1cc(NC[C@H](C)[NH+](C)C)cc(C(=O)NCCCCNC(=O)c2ccc(-c3c4nc(c(-c5c(F)cc(S(=O)(=O)[O-])cc5F)c5ccc([nH]5)c(-c5c(F)cc(S(=O)(=O)[O-])cc5F)c5nc(c(-c6c(F)cc(S(=O)(=O)[O-])cc6F)c6ccc3[nH]6)C=C5)C=C4)cc2)c1N
REMARK SMILES IDX 18 1 17 2 16 3 14 4 15 5 13 7 1 8 2 9 3 10 90 11 4 12 12 13
REMARK SMILES IDX 91 14 5 17 6 19 7 20 8 21 9 22 10 23 11 24 19 26 20 27 21 28
REMARK SMILES IDX 22 29 23 31 24 32 25 33 89 34 26 35 88 36 27 37 28 38 29 39
REMARK SMILES IDX 82 40 30 41 87 42 81 43 83 44 31 45 86 46 80 47 79 48 32 50
REMARK SMILES IDX 66 51 45 52 65 53 46 54 49 55 64 56 84 57 47 58 48 59 63 61
REMARK SMILES IDX 85 62 50 63 33 64 34 65 43 66 35 67 36 68 42 69 44 70 37 71
REMARK SMILES IDX 38 72 39 73 40 74 41 75 67 76 68 77 77 78 69 79 70 80 76 81
REMARK SMILES IDX 78 82 71 83 72 84 73 85 74 86 75 87 51 88 52 89 61 90 53 91
REMARK SMILES IDX 54 92 60 93 62 94 55 95 56 96 57 97 58 98 59 99
REMARK H PARENT 16 6 91 15 91 16 5 18 9 25 21 30 83 49 49 60
REMARK Flexibility Score: inf
ROOT
ATOM      1  C   UNL A   1      33.730  30.368  27.222  1.00  0.00     0.023 C 
ENDROOT
BRANCH   1   2
ATOM      2  C   UNL A   1      33.058  29.254  26.411  1.00  0.00     0.116 C 
BRANCH   2   3
ATOM      3  N   UNL A   1      33.412  29.347  25.006  1.00  0.00    -0.352 N 
ATOM      4  C   UNL A   1      32.814  28.892  23.851  1.00  0.00     0.253 C 
ATOM      5  O   UNL A   1      33.382  29.180  22.793  1.00  0.00    -0.269 OA
ATOM      6  H   UNL A   1      34.251  29.836  24.845  1.00  0.00     0.163 HD
BRANCH   4   7
ATOM      7  C   UNL A   1      31.529  28.112  23.814  1.00  0.00     0.065 A 
ATOM      8  C   UNL A   1      27.829  28.600  22.958  1.00  0.00     0.046 C 
ATOM      9  C   UNL A   1      29.132  27.987  23.394  1.00  0.00    -0.025 A 
ATOM     10  C   UNL A   1      29.143  26.640  23.806  1.00  0.00     0.031 A 
ATOM     11  C   UNL A   1      30.330  28.738  23.397  1.00  0.00     0.047 A 
ATOM     12  C   UNL A   1      30.319  26.010  24.206  1.00  0.00     0.035 A 
ATOM     13  C   UNL A   1      31.498  26.748  24.120  1.00  0.00     0.041 A 
BRANCH  11  14
ATOM     14  N   UNL A   1      30.282  30.113  23.135  1.00  0.00    -0.398 N 
ATOM     15  H   UNL A   1      29.607  30.473  22.515  1.00  0.00     0.156 HD
ATOM     16  H   UNL A   1      30.922  30.720  23.572  1.00  0.00     0.156 HD
ENDBRANCH  11  14
BRANCH  12  17
ATOM     17  N   UNL A   1      30.295  24.699  24.662  1.00  0.00    -0.379 N 
ATOM     18  H   UNL A   1      29.462  24.332  25.036  1.00  0.00     0.160 HD
BRANCH  17  19
ATOM     19  C   UNL A   1      31.488  23.850  24.597  1.00  0.00     0.177 C 
BRANCH  19  20
ATOM     20  C   UNL A   1      31.448  22.652  25.589  1.00  0.00     0.199 C 
ATOM     21  C   UNL A   1      32.133  23.074  26.904  1.00  0.00     0.077 C 
BRANCH  20  22
ATOM     22  N   UNL A   1      31.992  21.353  25.121  1.00  0.00    -0.336 N 
ATOM     23  C   UNL A   1      32.363  21.373  23.708  1.00  0.00     0.332 C 
ATOM     24  C   UNL A   1      33.109  20.840  25.917  1.00  0.00     0.332 C 
ATOM     25  H   UNL A   1      31.214  20.707  25.251  1.00  0.00     0.347 HD
ENDBRANCH  20  22
ENDBRANCH  19  20
ENDBRANCH  17  19
ENDBRANCH  12  17
ENDBRANCH   4   7
ENDBRANCH   2   3
ENDBRANCH   1   2
BRANCH   1  26
ATOM     26  C   UNL A   1      35.182  30.086  27.608  1.00  0.00     0.023 C 
BRANCH  26  27
ATOM     27  C   UNL A   1      35.789  31.084  28.586  1.00  0.00     0.116 C 
BRANCH  27  28
ATOM     28  N   UNL A   1      35.616  30.702  29.980  1.00  0.00    -0.352 N 
ATOM     29  C   UNL A   1      36.566  30.217  30.850  1.00  0.00     0.251 C 
ATOM     30  H   UNL A   1      34.708  30.802  30.346  1.00  0.00     0.163 HD
ATOM     31  O   UNL A   1      36.247  29.850  31.974  1.00  0.00    -0.269 OA
BRANCH  29  32
ATOM     32  C   UNL A   1      37.962  30.099  30.384  1.00  0.00     0.039 A 
ATOM     33  C   UNL A   1      38.968  29.873  31.328  1.00  0.00     0.014 A 
ATOM     34  C   UNL A   1      38.262  30.137  29.021  1.00  0.00     0.014 A 
ATOM     35  C   UNL A   1      40.266  29.601  30.894  1.00  0.00     0.010 A 
ATOM     36  C   UNL A   1      39.542  29.808  28.589  1.00  0.00     0.010 A 
ATOM     37  C   UNL A   1      40.551  29.523  29.521  1.00  0.00    -0.014 A 
BRANCH  37  38
ATOM     38  C   UNL A   1      41.891  29.108  29.037  1.00  0.00     0.031 A 
ATOM     39  C   UNL A   1      42.999  30.116  28.922  1.00  0.00     0.074 A 
ATOM     40  C   UNL A   1      42.079  27.840  28.621  1.00  0.00     0.049 A 
ATOM     41  N   UNL A   1      44.206  29.962  28.446  1.00  0.00    -0.248 NA
ATOM     42  C   UNL A   1      42.699  31.482  29.377  1.00  0.00     0.031 C 
ATOM     43  C   UNL A   1      41.062  26.786  28.628  1.00  0.00     0.029 A 
ATOM     44  N   UNL A   1      43.187  27.225  28.097  1.00  0.00    -0.354 N 
ATOM     45  C   UNL A   1      44.806  31.212  28.525  1.00  0.00     0.074 A 
ATOM     46  C   UNL A   1      43.814  32.123  29.057  1.00  0.00     0.031 C 
ATOM     47  C   UNL A   1      41.598  25.653  28.145  1.00  0.00     0.029 A 
ATOM     48  C   UNL A   1      42.985  25.906  27.770  1.00  0.00     0.049 A 
ATOM     49  H   UNL A   1      44.048  27.687  27.965  1.00  0.00     0.167 HD
ATOM     50  C   UNL A   1      46.072  31.565  28.201  1.00  0.00     0.037 A 
ATOM     51  C   UNL A   1      43.822  25.002  27.224  1.00  0.00     0.037 A 
ATOM     52  C   UNL A   1      47.062  30.649  27.699  1.00  0.00     0.049 A 
ATOM     53  C   UNL A   1      45.232  25.408  26.903  1.00  0.00     0.074 A 
ATOM     54  C   UNL A   1      48.391  30.895  27.401  1.00  0.00     0.029 A 
ATOM     55  N   UNL A   1      46.832  29.309  27.424  1.00  0.00    -0.354 N 
ATOM     56  N   UNL A   1      45.802  26.581  27.043  1.00  0.00    -0.248 NA
ATOM     57  C   UNL A   1      46.116  24.370  26.355  1.00  0.00     0.031 C 
ATOM     58  C   UNL A   1      48.958  29.709  26.919  1.00  0.00     0.029 A 
ATOM     59  C   UNL A   1      47.990  28.717  26.948  1.00  0.00     0.049 A 
ATOM     60  H   UNL A   1      45.971  28.847  27.547  1.00  0.00     0.167 HD
ATOM     61  C   UNL A   1      47.117  26.417  26.624  1.00  0.00     0.074 A 
ATOM     62  C   UNL A   1      47.260  25.029  26.231  1.00  0.00     0.031 C 
ATOM     63  C   UNL A   1      48.116  27.332  26.570  1.00  0.00     0.037 A 
BRANCH  50  64
ATOM     64  C   UNL A   1      46.456  33.006  28.390  1.00  0.00     0.058 A 
ATOM     65  C   UNL A   1      46.983  33.470  29.605  1.00  0.00     0.135 A 
ATOM     66  C   UNL A   1      46.305  33.929  27.344  1.00  0.00     0.135 A 
ATOM     67  F   UNL A   1      47.131  32.632  30.642  1.00  0.00    -0.206 F 
ATOM     68  C   UNL A   1      47.314  34.809  29.788  1.00  0.00     0.059 A 
ATOM     69  C   UNL A   1      46.654  35.268  27.497  1.00  0.00     0.059 A 
ATOM     70  F   UNL A   1      45.806  33.536  26.161  1.00  0.00    -0.206 F 
ATOM     71  C   UNL A   1      47.139  35.701  28.730  1.00  0.00     0.060 A 
BRANCH  71  72
ATOM     72  S   UNL A   1      47.560  37.438  28.984  1.00  0.00     0.124 S 
ATOM     73  O   UNL A   1      49.018  37.386  28.980  1.00  0.00    -0.237 OA
ATOM     74  O   UNL A   1      46.946  38.085  27.829  1.00  0.00    -0.237 OA
ATOM     75  O   UNL A   1      46.946  37.750  30.272  1.00  0.00    -0.744 OA
ENDBRANCH  71  72
ENDBRANCH  50  64
BRANCH  51  76
ATOM     76  C   UNL A   1      43.351  23.614  26.984  1.00  0.00     0.058 A 
ATOM     77  C   UNL A   1      43.001  23.189  25.694  1.00  0.00     0.135 A 
ATOM     78  C   UNL A   1      43.274  22.679  28.026  1.00  0.00     0.135 A 
ATOM     79  F   UNL A   1      43.057  24.050  24.667  1.00  0.00    -0.206 F 
ATOM     80  C   UNL A   1      42.580  21.887  25.446  1.00  0.00     0.059 A 
ATOM     81  C   UNL A   1      42.874  21.365  27.800  1.00  0.00     0.059 A 
ATOM     82  F   UNL A   1      43.615  23.034  29.275  1.00  0.00    -0.206 F 
ATOM     83  C   UNL A   1      42.522  20.981  26.506  1.00  0.00     0.060 A 
BRANCH  83  84
ATOM     84  S   UNL A   1      42.038  19.275  26.164  1.00  0.00     0.124 S 
ATOM     85  O   UNL A   1      40.615  19.425  25.882  1.00  0.00    -0.237 OA
ATOM     86  O   UNL A   1      42.883  18.936  25.023  1.00  0.00    -0.237 OA
ATOM     87  O   UNL A   1      42.368  18.580  27.405  1.00  0.00    -0.744 OA
ENDBRANCH  83  84
ENDBRANCH  51  76
BRANCH  63  88
ATOM     88  C   UNL A   1      49.460  26.856  26.098  1.00  0.00     0.058 A 
ATOM     89  C   UNL A   1      49.868  27.017  24.766  1.00  0.00     0.135 A 
ATOM     90  C   UNL A   1      50.368  26.284  27.002  1.00  0.00     0.135 A 
ATOM     91  F   UNL A   1      49.032  27.552  23.862  1.00  0.00    -0.206 F 
ATOM     92  C   UNL A   1      51.128  26.609  24.340  1.00  0.00     0.059 A 
ATOM     93  C   UNL A   1      51.640  25.889  26.603  1.00  0.00     0.059 A 
ATOM     94  F   UNL A   1      50.027  26.118  28.290  1.00  0.00    -0.206 F 
ATOM     95  C   UNL A   1      52.007  26.046  25.268  1.00  0.00     0.060 A 
BRANCH  95  96
ATOM     96  S   UNL A   1      53.656  25.557  24.716  1.00  0.00     0.124 S 
ATOM     97  O   UNL A   1      53.650  26.017  23.331  1.00  0.00    -0.237 OA
ATOM     98  O   UNL A   1      54.525  26.296  25.626  1.00  0.00    -0.237 OA
ATOM     99  O   UNL A   1      53.657  24.108  24.898  1.00  0.00    -0.744 OA
ENDBRANCH  95  96
ENDBRANCH  63  88
ENDBRANCH  37  38
ENDBRANCH  29  32
ENDBRANCH  27  28
ENDBRANCH  26  27
ENDBRANCH   1  26
TORSDOF 19
ENDMDL
MODEL 3
REMARK VINA RESULT:     -11.2      2.966      8.650
REMARK SMILES Cc1cc(NC[C@H](C)[NH+](C)C)cc(C(=O)NCCCCNC(=O)c2ccc(-c3c4nc(c(-c5c(F)cc(S(=O)(=O)[O-])cc5F)c5ccc([nH]5)c(-c5c(F)cc(S(=O)(=O)[O-])cc5F)c5nc(c(-c6c(F)cc(S(=O)(=O)[O-])cc6F)c6ccc3[nH]6)C=C5)C=C4)cc2)c1N
REMARK SMILES IDX 18 1 17 2 16 3 14 4 15 5 13 7 1 8 2 9 3 10 90 11 4 12 12 13
REMARK SMILES IDX 91 14 5 17 6 19 7 20 8 21 9 22 10 23 11 24 19 26 20 27 21 28
REMARK SMILES IDX 22 29 23 31 24 32 25 33 89 34 26 35 88 36 27 37 28 38 29 39
REMARK SMILES IDX 82 40 30 41 87 42 81 43 83 44 31 45 86 46 80 47 79 48 32 50
REMARK SMILES IDX 66 51 45 52 65 53 46 54 49 55 64 56 84 57 47 58 48 59 63 61
REMARK SMILES IDX 85 62 50 63 33 64 34 65 43 66 35 67 36 68 42 69 44 70 37 71
REMARK SMILES IDX 38 72 39 73 40 74 41 75 67 76 68 77 77 78 69 79 70 80 76 81
REMARK SMILES IDX 78 82 71 83 72 84 73 85 74 86 75 87 51 88 52 89 61 90 53 91
REMARK SMILES IDX 54 92 60 93 62 94 55 95 56 96 57 97 58 98 59 99
REMARK H PARENT 16 6 91 15 91 16 5 18 9 25 21 30 83 49 49 60
REMARK Flexibility Score: inf
ROOT
ATOM      1  C   UNL A   1      37.221  21.998  24.462  1.00  0.00     0.023 C 
ENDROOT
BRANCH   1   2
ATOM      2  C   UNL A   1      36.579  23.087  25.330  1.00  0.00     0.116 C 
BRANCH   2   3
ATOM      3  N   UNL A   1      35.780  22.503  26.392  1.00  0.00    -0.352 N 
ATOM      4  C   UNL A   1      34.566  21.851  26.408  1.00  0.00     0.253 C 
ATOM      5  O   UNL A   1      34.180  21.445  27.508  1.00  0.00    -0.269 OA
ATOM      6  H   UNL A   1      36.188  22.592  27.283  1.00  0.00     0.163 HD
BRANCH   4   7
ATOM      7  C   UNL A   1      33.731  21.588  25.185  1.00  0.00     0.065 A 
ATOM      8  C   UNL A   1      32.380  18.650  23.134  1.00  0.00     0.046 C 
ATOM      9  C   UNL A   1      32.695  20.041  23.613  1.00  0.00    -0.025 A 
ATOM     10  C   UNL A   1      32.209  21.139  22.874  1.00  0.00     0.031 A 
ATOM     11  C   UNL A   1      33.466  20.259  24.778  1.00  0.00     0.047 A 
ATOM     12  C   UNL A   1      32.453  22.451  23.271  1.00  0.00     0.035 A 
ATOM     13  C   UNL A   1      33.143  22.636  24.469  1.00  0.00     0.041 A 
BRANCH  11  14
ATOM     14  N   UNL A   1      34.071  19.169  25.417  1.00  0.00    -0.398 N 
ATOM     15  H   UNL A   1      33.805  18.251  25.182  1.00  0.00     0.156 HD
ATOM     16  H   UNL A   1      34.764  19.322  26.099  1.00  0.00     0.156 HD
ENDBRANCH  11  14
BRANCH  12  17
ATOM     17  N   UNL A   1      32.013  23.515  22.497  1.00  0.00    -0.379 N 
ATOM     18  H   UNL A   1      32.151  23.492  21.522  1.00  0.00     0.160 HD
BRANCH  17  19
ATOM     19  C   UNL A   1      31.347  24.672  23.102  1.00  0.00     0.177 C 
BRANCH  19  20
ATOM     20  C   UNL A   1      31.908  26.036  22.608  1.00  0.00     0.199 C 
ATOM     21  C   UNL A   1      33.399  26.125  22.988  1.00  0.00     0.077 C 
BRANCH  20  22
ATOM     22  N   UNL A   1      31.196  27.267  23.033  1.00  0.00    -0.336 N 
ATOM     23  C   UNL A   1      30.740  27.204  24.419  1.00  0.00     0.332 C 
ATOM     24  C   UNL A   1      31.943  28.507  22.814  1.00  0.00     0.332 C 
ATOM     25  H   UNL A   1      30.384  27.297  22.417  1.00  0.00     0.347 HD
ENDBRANCH  20  22
ENDBRANCH  19  20
ENDBRANCH  17  19
ENDBRANCH  12  17
ENDBRANCH   4   7
ENDBRANCH   2   3
ENDBRANCH   1   2
BRANCH   1  26
ATOM     26  C   UNL A   1      37.811  20.826  25.247  1.00  0.00     0.023 C 
BRANCH  26  27
ATOM     27  C   UNL A   1      39.239  21.037  25.733  1.00  0.00     0.116 C 
BRANCH  27  28
ATOM     28  N   UNL A   1      40.007  19.803  25.818  1.00  0.00    -0.352 N 
ATOM     29  C   UNL A   1      41.349  19.656  26.085  1.00  0.00     0.251 C 
ATOM     30  H   UNL A   1      39.504  18.971  25.664  1.00  0.00     0.163 HD
ATOM     31  O   UNL A   1      41.874  18.552  26.032  1.00  0.00    -0.269 OA
BRANCH  29  32
ATOM     32  C   UNL A   1      42.149  20.860  26.386  1.00  0.00     0.039 A 
ATOM     33  C   UNL A   1      42.636  21.625  25.323  1.00  0.00     0.014 A 
ATOM     34  C   UNL A   1      42.350  21.268  27.707  1.00  0.00     0.014 A 
ATOM     35  C   UNL A   1      43.256  22.848  25.586  1.00  0.00     0.010 A 
ATOM     36  C   UNL A   1      42.913  22.513  27.963  1.00  0.00     0.010 A 
ATOM     37  C   UNL A   1      43.358  23.319  26.905  1.00  0.00    -0.014 A 
BRANCH  37  38
ATOM     38  C   UNL A   1      43.894  24.672  27.197  1.00  0.00     0.031 A 
ATOM     39  C   UNL A   1      42.968  25.775  27.626  1.00  0.00     0.074 A 
ATOM     40  C   UNL A   1      45.202  24.923  26.992  1.00  0.00     0.049 A 
ATOM     41  N   UNL A   1      43.235  27.035  27.845  1.00  0.00    -0.248 NA
ATOM     42  C   UNL A   1      41.552  25.418  27.802  1.00  0.00     0.031 C 
ATOM     43  C   UNL A   1      46.187  23.948  26.520  1.00  0.00     0.029 A 
ATOM     44  N   UNL A   1      45.925  26.079  27.140  1.00  0.00    -0.354 N 
ATOM     45  C   UNL A   1      42.021  27.628  28.168  1.00  0.00     0.074 A 
ATOM     46  C   UNL A   1      41.010  26.596  28.074  1.00  0.00     0.031 C 
ATOM     47  C   UNL A   1      47.388  24.543  26.432  1.00  0.00     0.029 A 
ATOM     48  C   UNL A   1      47.253  25.945  26.813  1.00  0.00     0.049 A 
ATOM     49  H   UNL A   1      45.530  26.926  27.450  1.00  0.00     0.167 HD
ATOM     50  C   UNL A   1      41.774  28.910  28.527  1.00  0.00     0.037 A 
ATOM     51  C   UNL A   1      48.249  26.852  26.815  1.00  0.00     0.037 A 
ATOM     52  C   UNL A   1      42.789  29.924  28.645  1.00  0.00     0.049 A 
ATOM     53  C   UNL A   1      47.958  28.261  27.248  1.00  0.00     0.074 A 
ATOM     54  C   UNL A   1      42.650  31.236  29.063  1.00  0.00     0.029 A 
ATOM     55  N   UNL A   1      44.131  29.739  28.349  1.00  0.00    -0.354 N 
ATOM     56  N   UNL A   1      46.815  28.790  27.611  1.00  0.00    -0.248 NA
ATOM     57  C   UNL A   1      49.092  29.196  27.279  1.00  0.00     0.031 C 
ATOM     58  C   UNL A   1      43.905  31.852  28.993  1.00  0.00     0.029 A 
ATOM     59  C   UNL A   1      44.830  30.915  28.563  1.00  0.00     0.049 A 
ATOM     60  H   UNL A   1      44.527  28.896  28.032  1.00  0.00     0.167 HD
ATOM     61  C   UNL A   1      47.093  30.112  27.935  1.00  0.00     0.074 A 
ATOM     62  C   UNL A   1      48.515  30.301  27.732  1.00  0.00     0.031 C 
ATOM     63  C   UNL A   1      46.248  31.082  28.364  1.00  0.00     0.037 A 
BRANCH  50  64
ATOM     64  C   UNL A   1      40.349  29.280  28.823  1.00  0.00     0.058 A 
ATOM     65  C   UNL A   1      39.417  29.489  27.795  1.00  0.00     0.135 A 
ATOM     66  C   UNL A   1      39.906  29.418  30.148  1.00  0.00     0.135 A 
ATOM     67  F   UNL A   1      39.793  29.387  26.511  1.00  0.00    -0.206 F 
ATOM     68  C   UNL A   1      38.103  29.857  28.068  1.00  0.00     0.059 A 
ATOM     69  C   UNL A   1      38.590  29.760  30.446  1.00  0.00     0.059 A 
ATOM     70  F   UNL A   1      40.757  29.229  31.169  1.00  0.00    -0.206 F 
ATOM     71  C   UNL A   1      37.702  29.996  29.397  1.00  0.00     0.060 A 
BRANCH  71  72
ATOM     72  S   UNL A   1      35.999  30.488  29.739  1.00  0.00     0.124 S 
ATOM     73  O   UNL A   1      35.831  30.014  31.109  1.00  0.00    -0.237 OA
ATOM     74  O   UNL A   1      36.048  31.937  29.572  1.00  0.00    -0.237 OA
ATOM     75  O   UNL A   1      35.229  29.770  28.727  1.00  0.00    -0.744 OA
ENDBRANCH  71  72
ENDBRANCH  50  64
BRANCH  51  76
ATOM     76  C   UNL A   1      49.623  26.438  26.427  1.00  0.00     0.058 A 
ATOM     77  C   UNL A   1      50.431  25.715  27.316  1.00  0.00     0.135 A 
ATOM     78  C   UNL A   1      50.141  26.728  25.156  1.00  0.00     0.135 A 
ATOM     79  F   UNL A   1      49.977  25.418  28.544  1.00  0.00    -0.206 F 
ATOM     80  C   UNL A   1      51.710  25.299  26.963  1.00  0.00     0.059 A 
ATOM     81  C   UNL A   1      51.411  26.307  24.773  1.00  0.00     0.059 A 
ATOM     82  F   UNL A   1      49.398  27.403  24.265  1.00  0.00    -0.206 F 
ATOM     83  C   UNL A   1      52.191  25.599  25.687  1.00  0.00     0.060 A 
BRANCH  83  84
ATOM     84  S   UNL A   1      53.827  24.999  25.214  1.00  0.00     0.124 S 
ATOM     85  O   UNL A   1      53.666  23.558  25.366  1.00  0.00    -0.237 OA
ATOM     86  O   UNL A   1      53.950  25.486  23.843  1.00  0.00    -0.237 OA
ATOM     87  O   UNL A   1      54.711  25.644  26.180  1.00  0.00    -0.744 OA
ENDBRANCH  83  84
ENDBRANCH  51  76
BRANCH  63  88
ATOM     88  C   UNL A   1      46.843  32.426  28.671  1.00  0.00     0.058 A 
ATOM     89  C   UNL A   1      46.980  33.411  27.682  1.00  0.00     0.135 A 
ATOM     90  C   UNL A   1      47.228  32.748  29.981  1.00  0.00     0.135 A 
ATOM     91  F   UNL A   1      46.633  33.148  26.412  1.00  0.00    -0.206 F 
ATOM     92  C   UNL A   1      47.497  34.668  27.978  1.00  0.00     0.059 A 
ATOM     93  C   UNL A   1      47.728  34.006  30.305  1.00  0.00     0.059 A 
ATOM     94  F   UNL A   1      47.108  31.842  30.964  1.00  0.00    -0.206 F 
ATOM     95  C   UNL A   1      47.867  34.956  29.294  1.00  0.00     0.060 A 
BRANCH  95  96
ATOM     96  S   UNL A   1      48.499  36.603  29.678  1.00  0.00     0.124 S 
ATOM     97  O   UNL A   1      49.042  37.017  28.388  1.00  0.00    -0.237 OA
ATOM     98  O   UNL A   1      47.298  37.307  30.116  1.00  0.00    -0.237 OA
ATOM     99  O   UNL A   1      49.486  36.352  30.724  1.00  0.00    -0.744 OA
ENDBRANCH  95  96
ENDBRANCH  63  88
ENDBRANCH  37  38
ENDBRANCH  29  32
ENDBRANCH  27  28
ENDBRANCH  26  27
ENDBRANCH   1  26
TORSDOF 19
ENDMDL
