MODEL 1
REMARK VINA RESULT:     -12.0      0.000      0.000
REMARK SMILES Nc1ncccc1C[N@@H+]1CC2(CC[NH2+]CC2)C[C@H]1C(=O)NCCCCNC(=O)c1ccc(-c2c3nc(c(-c4c(F)cc(S(=O)(=O)[O-])cc4F)c4ccc([nH]4)c(-c4c(F)cc(S(=O)(=O)[O-])cc4F)c4nc(c(-c5c(F)cc(S(=O)(=O)[O-])cc5F)c5ccc2[nH]5)C=C4)C=C3)cc1
REMARK SMILES IDX 23 1 22 2 21 3 19 4 20 5 18 7 9 8 10 9 11 11 17 12 12 13
REMARK SMILES IDX 16 14 13 15 15 16 14 17 8 20 7 21 2 22 3 23 4 24 6 25 5 26
REMARK SMILES IDX 1 27 24 30 25 31 26 32 27 33 28 35 29 36 30 37 94 38 31 39
REMARK SMILES IDX 93 40 32 41 33 42 34 43 87 44 35 45 92 46 86 47 88 48 36 49
REMARK SMILES IDX 91 50 85 51 84 52 37 54 71 55 50 56 70 57 51 58 54 59 69 60
REMARK SMILES IDX 89 61 52 62 53 63 68 65 90 66 55 67 38 68 39 69 48 70 40 71
REMARK SMILES IDX 41 72 47 73 49 74 42 75 43 76 44 77 45 78 46 79 72 80 73 81
REMARK SMILES IDX 82 82 74 83 75 84 81 85 83 86 76 87 77 88 78 89 79 90 80 91
REMARK SMILES IDX 56 92 57 93 66 94 58 95 59 96 65 97 67 98 60 99 61 100
REMARK SMILES IDX 62 101 63 102 64 103
REMARK H PARENT 21 6 9 10 14 18 14 19 1 28 1 29 26 34 88 53 54 64
REMARK Flexibility Score: inf
ROOT
ATOM      1  C   UNL A   1      32.659  29.088  24.768  1.00  0.00     0.023 C 
ENDROOT
BRANCH   1   2
ATOM      2  C   UNL A   1      32.031  28.030  23.872  1.00  0.00     0.116 C 
BRANCH   2   3
ATOM      3  N   UNL A   1      32.891  27.424  22.898  1.00  0.00    -0.351 N 
ATOM      4  C   UNL A   1      33.238  26.112  22.752  1.00  0.00     0.278 C 
ATOM      5  O   UNL A   1      33.822  25.833  21.694  1.00  0.00    -0.268 OA
ATOM      6  H   UNL A   1      33.288  28.043  22.242  1.00  0.00     0.163 HD
BRANCH   4   7
ATOM      7  C   UNL A   1      32.994  24.989  23.814  1.00  0.00     0.275 C 
ATOM      8  N   UNL A   1      33.167  23.650  23.224  1.00  0.00    -0.320 N 
ATOM      9  C   UNL A   1      34.324  23.001  23.856  1.00  0.00     0.270 C 
ATOM     10  H   UNL A   1      33.396  23.725  22.233  1.00  0.00     0.349 HD
ATOM     11  C   UNL A   1      34.711  23.776  25.151  1.00  0.00     0.036 C 
ATOM     12  C   UNL A   1      33.729  24.967  25.160  1.00  0.00     0.089 C 
ATOM     13  C   UNL A   1      36.157  24.331  25.310  1.00  0.00     0.074 C 
ATOM     14  C   UNL A   1      34.611  22.801  26.353  1.00  0.00     0.074 C 
ATOM     15  C   UNL A   1      37.223  23.251  25.192  1.00  0.00     0.261 C 
ATOM     16  C   UNL A   1      35.693  21.703  26.266  1.00  0.00     0.261 C 
ATOM     17  N   UNL A   1      37.051  22.243  26.236  1.00  0.00    -0.346 N 
ATOM     18  H   UNL A   1      37.256  22.668  27.139  1.00  0.00     0.346 HD
ATOM     19  H   UNL A   1      37.689  21.472  26.035  1.00  0.00     0.346 HD
BRANCH   8  20
ATOM     20  C   UNL A   1      31.909  22.872  23.148  1.00  0.00     0.303 C 
BRANCH  20  21
ATOM     21  C   UNL A   1      31.962  21.402  23.536  1.00  0.00     0.048 A 
ATOM     22  C   UNL A   1      31.848  20.946  24.853  1.00  0.00     0.132 A 
ATOM     23  N   UNL A   1      32.140  19.681  25.221  1.00  0.00    -0.239 NA
ATOM     24  C   UNL A   1      32.489  18.808  24.256  1.00  0.00     0.113 A 
ATOM     25  C   UNL A   1      32.198  20.432  22.553  1.00  0.00     0.015 A 
ATOM     26  C   UNL A   1      32.490  19.122  22.914  1.00  0.00     0.021 A 
BRANCH  22  27
ATOM     27  N   UNL A   1      31.481  21.760  25.903  1.00  0.00    -0.383 N 
ATOM     28  H   UNL A   1      31.165  22.676  25.729  1.00  0.00     0.158 HD
ATOM     29  H   UNL A   1      31.534  21.426  26.828  1.00  0.00     0.158 HD
ENDBRANCH  22  27
ENDBRANCH  20  21
ENDBRANCH   8  20
ENDBRANCH   4   7
ENDBRANCH   2   3
ENDBRANCH   1   2
BRANCH   1  30
ATOM     30  C   UNL A   1      33.802  28.591  25.651  1.00  0.00     0.023 C 
BRANCH  30  31
ATOM     31  C   UNL A   1      33.587  28.675  27.162  1.00  0.00     0.116 C 
BRANCH  31  32
ATOM     32  N   UNL A   1      33.525  30.023  27.707  1.00  0.00    -0.352 N 
ATOM     33  C   UNL A   1      34.546  30.732  28.317  1.00  0.00     0.251 C 
ATOM     34  H   UNL A   1      32.658  30.485  27.631  1.00  0.00     0.163 HD
ATOM     35  O   UNL A   1      34.350  31.848  28.766  1.00  0.00    -0.269 OA
BRANCH  33  36
ATOM     36  C   UNL A   1      35.868  30.079  28.465  1.00  0.00     0.039 A 
ATOM     37  C   UNL A   1      36.767  30.123  27.396  1.00  0.00     0.014 A 
ATOM     38  C   UNL A   1      36.252  29.522  29.687  1.00  0.00     0.014 A 
ATOM     39  C   UNL A   1      38.085  29.698  27.586  1.00  0.00     0.010 A 
ATOM     40  C   UNL A   1      37.583  29.170  29.894  1.00  0.00     0.010 A 
ATOM     41  C   UNL A   1      38.517  29.268  28.852  1.00  0.00    -0.014 A 
BRANCH  41  42
ATOM     42  C   UNL A   1      39.943  28.940  29.112  1.00  0.00     0.031 A 
ATOM     43  C   UNL A   1      40.853  29.962  29.738  1.00  0.00     0.074 A 
ATOM     44  C   UNL A   1      40.440  27.748  28.719  1.00  0.00     0.049 A 
ATOM     45  N   UNL A   1      42.136  29.888  29.983  1.00  0.00    -0.248 NA
ATOM     46  C   UNL A   1      40.243  31.248  30.109  1.00  0.00     0.031 C 
ATOM     47  C   UNL A   1      39.678  26.691  28.049  1.00  0.00     0.029 A 
ATOM     48  N   UNL A   1      41.707  27.227  28.819  1.00  0.00    -0.354 N 
ATOM     49  C   UNL A   1      42.490  31.118  30.523  1.00  0.00     0.074 A 
ATOM     50  C   UNL A   1      41.299  31.940  30.513  1.00  0.00     0.031 C 
ATOM     51  C   UNL A   1      40.483  25.637  27.831  1.00  0.00     0.029 A 
ATOM     52  C   UNL A   1      41.824  25.953  28.313  1.00  0.00     0.049 A 
ATOM     53  H   UNL A   1      42.461  27.720  29.218  1.00  0.00     0.167 HD
ATOM     54  C   UNL A   1      43.688  31.519  31.010  1.00  0.00     0.037 A 
ATOM     55  C   UNL A   1      42.889  25.132  28.249  1.00  0.00     0.037 A 
ATOM     56  C   UNL A   1      44.864  30.690  31.044  1.00  0.00     0.049 A 
ATOM     57  C   UNL A   1      44.210  25.595  28.803  1.00  0.00     0.074 A 
ATOM     58  C   UNL A   1      46.113  30.987  31.562  1.00  0.00     0.029 A 
ATOM     59  N   UNL A   1      44.937  29.400  30.540  1.00  0.00    -0.354 N 
ATOM     60  N   UNL A   1      44.512  26.743  29.362  1.00  0.00    -0.248 NA
ATOM     61  C   UNL A   1      45.333  24.650  28.720  1.00  0.00     0.031 C 
ATOM     62  C   UNL A   1      46.949  29.885  31.346  1.00  0.00     0.029 A 
ATOM     63  C   UNL A   1      46.210  28.889  30.726  1.00  0.00     0.049 A 
ATOM     64  H   UNL A   1      44.192  28.917  30.114  1.00  0.00     0.167 HD
ATOM     65  C   UNL A   1      45.851  26.648  29.724  1.00  0.00     0.074 A 
ATOM     66  C   UNL A   1      46.299  25.329  29.327  1.00  0.00     0.031 C 
ATOM     67  C   UNL A   1      46.637  27.568  30.333  1.00  0.00     0.037 A 
BRANCH  54  68
ATOM     68  C   UNL A   1      43.773  32.917  31.556  1.00  0.00     0.058 A 
ATOM     69  C   UNL A   1      43.624  33.178  32.928  1.00  0.00     0.135 A 
ATOM     70  C   UNL A   1      44.002  34.009  30.705  1.00  0.00     0.135 A 
ATOM     71  F   UNL A   1      43.389  32.171  33.785  1.00  0.00    -0.206 F 
ATOM     72  C   UNL A   1      43.651  34.474  33.431  1.00  0.00     0.059 A 
ATOM     73  C   UNL A   1      44.062  35.313  31.189  1.00  0.00     0.059 A 
ATOM     74  F   UNL A   1      44.154  33.818  29.385  1.00  0.00    -0.206 F 
ATOM     75  C   UNL A   1      43.862  35.537  32.551  1.00  0.00     0.060 A 
BRANCH  75  76
ATOM     76  S   UNL A   1      43.869  37.216  33.212  1.00  0.00     0.124 S 
ATOM     77  O   UNL A   1      42.654  37.212  34.022  1.00  0.00    -0.237 OA
ATOM     78  O   UNL A   1      45.123  37.258  33.956  1.00  0.00    -0.237 OA
ATOM     79  O   UNL A   1      43.824  38.051  32.016  1.00  0.00    -0.744 OA
ENDBRANCH  75  76
ENDBRANCH  54  68
BRANCH  55  80
ATOM     80  C   UNL A   1      42.742  23.765  27.681  1.00  0.00     0.058 A 
ATOM     81  C   UNL A   1      42.471  22.670  28.515  1.00  0.00     0.135 A 
ATOM     82  C   UNL A   1      42.850  23.527  26.302  1.00  0.00     0.135 A 
ATOM     83  F   UNL A   1      42.366  22.848  29.841  1.00  0.00    -0.206 F 
ATOM     84  C   UNL A   1      42.325  21.384  28.006  1.00  0.00     0.059 A 
ATOM     85  C   UNL A   1      42.686  22.252  25.767  1.00  0.00     0.059 A 
ATOM     86  F   UNL A   1      43.092  24.543  25.461  1.00  0.00    -0.206 F 
ATOM     87  C   UNL A   1      42.432  21.185  26.629  1.00  0.00     0.060 A 
BRANCH  87  88
ATOM     88  S   UNL A   1      42.184  19.521  25.973  1.00  0.00     0.124 S 
ATOM     89  O   UNL A   1      40.741  19.499  25.764  1.00  0.00    -0.237 OA
ATOM     90  O   UNL A   1      43.006  19.540  24.766  1.00  0.00    -0.237 OA
ATOM     91  O   UNL A   1      42.682  18.662  27.045  1.00  0.00    -0.744 OA
ENDBRANCH  87  88
ENDBRANCH  55  80
BRANCH  67  92
ATOM     92  C   UNL A   1      48.054  27.173  30.641  1.00  0.00     0.058 A 
ATOM     93  C   UNL A   1      48.368  26.352  31.734  1.00  0.00     0.135 A 
ATOM     94  C   UNL A   1      49.102  27.579  29.799  1.00  0.00     0.135 A 
ATOM     95  F   UNL A   1      47.403  25.944  32.573  1.00  0.00    -0.206 F 
ATOM     96  C   UNL A   1      49.678  25.961  31.994  1.00  0.00     0.059 A 
ATOM     97  C   UNL A   1      50.415  27.180  30.027  1.00  0.00     0.059 A 
ATOM     98  F   UNL A   1      48.852  28.358  28.735  1.00  0.00    -0.206 F 
ATOM     99  C   UNL A   1      50.695  26.380  31.134  1.00  0.00     0.060 A 
BRANCH  99 100
ATOM    100  S   UNL A   1      52.385  25.834  31.457  1.00  0.00     0.124 S 
ATOM    101  O   UNL A   1      52.865  26.881  32.353  1.00  0.00    -0.237 OA
ATOM    102  O   UNL A   1      52.181  24.523  32.067  1.00  0.00    -0.237 OA
ATOM    103  O   UNL A   1      52.994  25.813  30.131  1.00  0.00    -0.744 OA
ENDBRANCH  99 100
ENDBRANCH  67  92
ENDBRANCH  41  42
ENDBRANCH  33  36
ENDBRANCH  31  32
ENDBRANCH  30  31
ENDBRANCH   1  30
TORSDOF 17
ENDMDL
MODEL 2
REMARK VINA RESULT:     -11.8      0.526      8.131
REMARK SMILES Nc1ncccc1C[N@@H+]1CC2(CC[NH2+]CC2)C[C@H]1C(=O)NCCCCNC(=O)c1ccc(-c2c3nc(c(-c4c(F)cc(S(=O)(=O)[O-])cc4F)c4ccc([nH]4)c(-c4c(F)cc(S(=O)(=O)[O-])cc4F)c4nc(c(-c5c(F)cc(S(=O)(=O)[O-])cc5F)c5ccc2[nH]5)C=C4)C=C3)cc1
REMARK SMILES IDX 23 1 22 2 21 3 19 4 20 5 18 7 9 8 10 9 11 11 17 12 12 13
REMARK SMILES IDX 16 14 13 15 15 16 14 17 8 20 7 21 2 22 3 23 4 24 6 25 5 26
REMARK SMILES IDX 1 27 24 30 25 31 26 32 27 33 28 35 29 36 30 37 94 38 31 39
REMARK SMILES IDX 93 40 32 41 33 42 34 43 87 44 35 45 92 46 86 47 88 48 36 49
REMARK SMILES IDX 91 50 85 51 84 52 37 54 71 55 50 56 70 57 51 58 54 59 69 60
REMARK SMILES IDX 89 61 52 62 53 63 68 65 90 66 55 67 38 68 39 69 48 70 40 71
REMARK SMILES IDX 41 72 47 73 49 74 42 75 43 76 44 77 45 78 46 79 72 80 73 81
REMARK SMILES IDX 82 82 74 83 75 84 81 85 83 86 76 87 77 88 78 89 79 90 80 91
REMARK SMILES IDX 56 92 57 93 66 94 58 95 59 96 65 97 67 98 60 99 61 100
REMARK SMILES IDX 62 101 63 102 64 103
REMARK H PARENT 21 6 9 10 14 18 14 19 1 28 1 29 26 34 88 53 54 64
REMARK Flexibility Score: inf
ROOT
ATOM      1  C   UNL A   1      32.941  28.888  24.764  1.00  0.00     0.023 C 
ENDROOT
BRANCH   1   2
ATOM      2  C   UNL A   1      32.231  27.812  23.953  1.00  0.00     0.116 C 
BRANCH   2   3
ATOM      3  N   UNL A   1      32.989  27.200  22.901  1.00  0.00    -0.351 N 
ATOM      4  C   UNL A   1      33.279  25.881  22.704  1.00  0.00     0.278 C 
ATOM      5  O   UNL A   1      33.766  25.605  21.597  1.00  0.00    -0.268 OA
ATOM      6  H   UNL A   1      33.352  27.819  22.226  1.00  0.00     0.163 HD
BRANCH   4   7
ATOM      7  C   UNL A   1      33.083  24.744  23.762  1.00  0.00     0.275 C 
ATOM      8  N   UNL A   1      33.224  23.413  23.147  1.00  0.00    -0.320 N 
ATOM      9  C   UNL A   1      34.408  22.753  23.714  1.00  0.00     0.270 C 
ATOM     10  H   UNL A   1      33.405  23.501  22.147  1.00  0.00     0.349 HD
ATOM     11  C   UNL A   1      34.859  23.511  24.999  1.00  0.00     0.036 C 
ATOM     12  C   UNL A   1      33.882  24.704  25.071  1.00  0.00     0.089 C 
ATOM     13  C   UNL A   1      36.312  24.061  25.095  1.00  0.00     0.074 C 
ATOM     14  C   UNL A   1      34.815  22.521  26.192  1.00  0.00     0.074 C 
ATOM     15  C   UNL A   1      37.369  22.981  24.912  1.00  0.00     0.261 C 
ATOM     16  C   UNL A   1      35.889  21.422  26.039  1.00  0.00     0.261 C 
ATOM     17  N   UNL A   1      37.245  21.959  25.950  1.00  0.00    -0.346 N 
ATOM     18  H   UNL A   1      37.494  22.372  26.848  1.00  0.00     0.346 HD
ATOM     19  H   UNL A   1      37.870  21.190  25.709  1.00  0.00     0.346 HD
BRANCH   8  20
ATOM     20  C   UNL A   1      31.962  22.638  23.122  1.00  0.00     0.303 C 
BRANCH  20  21
ATOM     21  C   UNL A   1      32.019  21.180  23.549  1.00  0.00     0.048 A 
ATOM     22  C   UNL A   1      31.953  20.763  24.883  1.00  0.00     0.132 A 
ATOM     23  N   UNL A   1      32.249  19.506  25.275  1.00  0.00    -0.239 NA
ATOM     24  C   UNL A   1      32.553  18.603  24.323  1.00  0.00     0.113 A 
ATOM     25  C   UNL A   1      32.208  20.180  22.587  1.00  0.00     0.015 A 
ATOM     26  C   UNL A   1      32.503  18.877  22.974  1.00  0.00     0.021 A 
BRANCH  22  27
ATOM     27  N   UNL A   1      31.634  21.610  25.923  1.00  0.00    -0.383 N 
ATOM     28  H   UNL A   1      31.477  21.247  26.824  1.00  0.00     0.158 HD
ATOM     29  H   UNL A   1      31.563  22.580  25.763  1.00  0.00     0.158 HD
ENDBRANCH  22  27
ENDBRANCH  20  21
ENDBRANCH   8  20
ENDBRANCH   4   7
ENDBRANCH   2   3
ENDBRANCH   1   2
BRANCH   1  30
ATOM     30  C   UNL A   1      34.031  28.374  25.702  1.00  0.00     0.023 C 
BRANCH  30  31
ATOM     31  C   UNL A   1      33.744  28.462  27.200  1.00  0.00     0.116 C 
BRANCH  31  32
ATOM     32  N   UNL A   1      33.634  29.812  27.733  1.00  0.00    -0.352 N 
ATOM     33  C   UNL A   1      34.638  30.577  28.302  1.00  0.00     0.251 C 
ATOM     34  H   UNL A   1      32.743  30.230  27.683  1.00  0.00     0.163 HD
ATOM     35  O   UNL A   1      34.403  31.687  28.746  1.00  0.00    -0.269 OA
BRANCH  33  36
ATOM     36  C   UNL A   1      35.995  29.990  28.411  1.00  0.00     0.039 A 
ATOM     37  C   UNL A   1      36.859  30.079  27.316  1.00  0.00     0.014 A 
ATOM     38  C   UNL A   1      36.442  29.455  29.621  1.00  0.00     0.014 A 
ATOM     39  C   UNL A   1      38.202  29.721  27.468  1.00  0.00     0.010 A 
ATOM     40  C   UNL A   1      37.794  29.170  29.790  1.00  0.00     0.010 A 
ATOM     41  C   UNL A   1      38.691  29.314  28.720  1.00  0.00    -0.014 A 
BRANCH  41  42
ATOM     42  C   UNL A   1      40.140  29.057  28.939  1.00  0.00     0.031 A 
ATOM     43  C   UNL A   1      40.729  27.715  28.598  1.00  0.00     0.074 A 
ATOM     44  C   UNL A   1      40.910  30.005  29.511  1.00  0.00     0.049 A 
ATOM     45  N   UNL A   1      41.950  27.279  28.776  1.00  0.00    -0.248 NA
ATOM     46  C   UNL A   1      39.817  26.724  28.007  1.00  0.00     0.031 C 
ATOM     47  C   UNL A   1      40.449  31.327  29.941  1.00  0.00     0.029 A 
ATOM     48  N   UNL A   1      42.245  30.000  29.837  1.00  0.00    -0.354 N 
ATOM     49  C   UNL A   1      41.950  25.962  28.333  1.00  0.00     0.074 A 
ATOM     50  C   UNL A   1      40.593  25.652  27.935  1.00  0.00     0.031 C 
ATOM     51  C   UNL A   1      41.489  32.017  30.440  1.00  0.00     0.029 A 
ATOM     52  C   UNL A   1      42.682  31.177  30.399  1.00  0.00     0.049 A 
ATOM     53  H   UNL A   1      42.833  29.226  29.681  1.00  0.00     0.167 HD
ATOM     54  C   UNL A   1      42.988  25.098  28.238  1.00  0.00     0.037 A 
ATOM     55  C   UNL A   1      43.906  31.540  30.827  1.00  0.00     0.037 A 
ATOM     56  C   UNL A   1      44.341  25.416  28.609  1.00  0.00     0.049 A 
ATOM     57  C   UNL A   1      45.047  30.566  30.706  1.00  0.00     0.074 A 
ATOM     58  C   UNL A   1      45.472  24.626  28.505  1.00  0.00     0.029 A 
ATOM     59  N   UNL A   1      44.747  26.625  29.155  1.00  0.00    -0.354 N 
ATOM     60  N   UNL A   1      45.040  29.343  30.231  1.00  0.00    -0.248 NA
ATOM     61  C   UNL A   1      46.363  31.023  31.174  1.00  0.00     0.031 C 
ATOM     62  C   UNL A   1      46.558  25.348  29.014  1.00  0.00     0.029 A 
ATOM     63  C   UNL A   1      46.109  26.601  29.401  1.00  0.00     0.049 A 
ATOM     64  H   UNL A   1      44.154  27.390  29.339  1.00  0.00     0.167 HD
ATOM     65  C   UNL A   1      46.352  28.894  30.316  1.00  0.00     0.074 A 
ATOM     66  C   UNL A   1      47.129  29.979  30.882  1.00  0.00     0.031 C 
ATOM     67  C   UNL A   1      46.869  27.694  29.956  1.00  0.00     0.037 A 
BRANCH  54  68
ATOM     68  C   UNL A   1      42.690  23.726  27.697  1.00  0.00     0.058 A 
ATOM     69  C   UNL A   1      42.427  22.643  28.552  1.00  0.00     0.135 A 
ATOM     70  C   UNL A   1      42.669  23.487  26.315  1.00  0.00     0.135 A 
ATOM     71  F   UNL A   1      42.449  22.814  29.884  1.00  0.00    -0.206 F 
ATOM     72  C   UNL A   1      42.201  21.363  28.059  1.00  0.00     0.059 A 
ATOM     73  C   UNL A   1      42.417  22.219  25.797  1.00  0.00     0.059 A 
ATOM     74  F   UNL A   1      42.911  24.486  25.451  1.00  0.00    -0.206 F 
ATOM     75  C   UNL A   1      42.207  21.159  26.679  1.00  0.00     0.060 A 
BRANCH  75  76
ATOM     76  S   UNL A   1      41.939  19.488  26.052  1.00  0.00     0.124 S 
ATOM     77  O   UNL A   1      40.510  19.519  25.751  1.00  0.00    -0.237 OA
ATOM     78  O   UNL A   1      42.827  19.438  24.896  1.00  0.00    -0.237 OA
ATOM     79  O   UNL A   1      42.326  18.639  27.174  1.00  0.00    -0.744 OA
ENDBRANCH  75  76
ENDBRANCH  54  68
BRANCH  55  80
ATOM     80  C   UNL A   1      44.131  32.908  31.367  1.00  0.00     0.058 A 
ATOM     81  C   UNL A   1      44.458  33.969  30.510  1.00  0.00     0.135 A 
ATOM     82  C   UNL A   1      44.006  33.187  32.736  1.00  0.00     0.135 A 
ATOM     83  F   UNL A   1      44.595  33.750  29.194  1.00  0.00    -0.206 F 
ATOM     84  C   UNL A   1      44.668  35.257  30.992  1.00  0.00     0.059 A 
ATOM     85  C   UNL A   1      44.190  34.472  33.239  1.00  0.00     0.059 A 
ATOM     86  F   UNL A   1      43.678  32.209  33.595  1.00  0.00    -0.206 F 
ATOM     87  C   UNL A   1      44.530  35.499  32.359  1.00  0.00     0.060 A 
BRANCH  87  88
ATOM     88  S   UNL A   1      44.748  37.186  32.966  1.00  0.00     0.124 S 
ATOM     89  O   UNL A   1      43.820  37.926  32.119  1.00  0.00    -0.237 OA
ATOM     90  O   UNL A   1      44.371  37.059  34.370  1.00  0.00    -0.237 OA
ATOM     91  O   UNL A   1      46.166  37.445  32.728  1.00  0.00    -0.744 OA
ENDBRANCH  87  88
ENDBRANCH  55  80
BRANCH  67  92
ATOM     92  C   UNL A   1      48.349  27.498  30.129  1.00  0.00     0.058 A 
ATOM     93  C   UNL A   1      48.887  26.960  31.307  1.00  0.00     0.135 A 
ATOM     94  C   UNL A   1      49.231  27.803  29.080  1.00  0.00     0.135 A 
ATOM     95  F   UNL A   1      48.086  26.659  32.341  1.00  0.00    -0.206 F 
ATOM     96  C   UNL A   1      50.255  26.748  31.448  1.00  0.00     0.059 A 
ATOM     97  C   UNL A   1      50.599  27.577  29.192  1.00  0.00     0.059 A 
ATOM     98  F   UNL A   1      48.765  28.311  27.929  1.00  0.00    -0.206 F 
ATOM     99  C   UNL A   1      51.104  27.059  30.384  1.00  0.00     0.060 A 
BRANCH  99 100
ATOM    100  S   UNL A   1      52.872  26.742  30.563  1.00  0.00     0.124 S 
ATOM    101  O   UNL A   1      53.341  28.005  31.123  1.00  0.00    -0.237 OA
ATOM    102  O   UNL A   1      52.897  25.598  31.470  1.00  0.00    -0.237 OA
ATOM    103  O   UNL A   1      53.306  26.460  29.197  1.00  0.00    -0.744 OA
ENDBRANCH  99 100
ENDBRANCH  67  92
ENDBRANCH  41  42
ENDBRANCH  33  36
ENDBRANCH  31  32
ENDBRANCH  30  31
ENDBRANCH   1  30
TORSDOF 17
ENDMDL
MODEL 3
REMARK VINA RESULT:     -11.6      4.675     10.281
REMARK SMILES Nc1ncccc1C[N@@H+]1CC2(CC[NH2+]CC2)C[C@H]1C(=O)NCCCCNC(=O)c1ccc(-c2c3nc(c(-c4c(F)cc(S(=O)(=O)[O-])cc4F)c4ccc([nH]4)c(-c4c(F)cc(S(=O)(=O)[O-])cc4F)c4nc(c(-c5c(F)cc(S(=O)(=O)[O-])cc5F)c5ccc2[nH]5)C=C4)C=C3)cc1
REMARK SMILES IDX 23 1 22 2 21 3 19 4 20 5 18 7 9 8 10 9 11 11 17 12 12 13
REMARK SMILES IDX 16 14 13 15 15 16 14 17 8 20 7 21 2 22 3 23 4 24 6 25 5 26
REMARK SMILES IDX 1 27 24 30 25 31 26 32 27 33 28 35 29 36 30 37 94 38 31 39
REMARK SMILES IDX 93 40 32 41 33 42 34 43 87 44 35 45 92 46 86 47 88 48 36 49
REMARK SMILES IDX 91 50 85 51 84 52 37 54 71 55 50 56 70 57 51 58 54 59 69 60
REMARK SMILES IDX 89 61 52 62 53 63 68 65 90 66 55 67 38 68 39 69 48 70 40 71
REMARK SMILES IDX 41 72 47 73 49 74 42 75 43 76 44 77 45 78 46 79 72 80 73 81
REMARK SMILES IDX 82 82 74 83 75 84 81 85 83 86 76 87 77 88 78 89 79 90 80 91
REMARK SMILES IDX 56 92 57 93 66 94 58 95 59 96 65 97 67 98 60 99 61 100
REMARK SMILES IDX 62 101 63 102 64 103
REMARK H PARENT 21 6 9 10 14 18 14 19 1 28 1 29 26 34 88 53 54 64
REMARK Flexibility Score: inf
ROOT
ATOM      1  C   UNL A   1      38.534  22.955  26.556  1.00  0.00     0.023 C 
ENDROOT
BRANCH   1   2
ATOM      2  C   UNL A   1      37.784  22.463  25.326  1.00  0.00     0.116 C 
BRANCH   2   3
ATOM      3  N   UNL A   1      36.697  21.559  25.559  1.00  0.00    -0.351 N 
ATOM      4  C   UNL A   1      35.353  21.788  25.480  1.00  0.00     0.278 C 
ATOM      5  O   UNL A   1      34.640  20.773  25.517  1.00  0.00    -0.268 OA
ATOM      6  H   UNL A   1      36.956  20.642  25.811  1.00  0.00     0.163 HD
BRANCH   4   7
ATOM      7  C   UNL A   1      34.680  23.197  25.392  1.00  0.00     0.275 C 
ATOM      8  N   UNL A   1      33.801  23.297  24.215  1.00  0.00    -0.320 N 
ATOM      9  C   UNL A   1      32.414  23.456  24.673  1.00  0.00     0.270 C 
ATOM     10  H   UNL A   1      33.821  22.427  23.682  1.00  0.00     0.349 HD
ATOM     11  C   UNL A   1      32.406  23.837  26.184  1.00  0.00     0.036 C 
ATOM     12  C   UNL A   1      33.902  23.802  26.567  1.00  0.00     0.089 C 
ATOM     13  C   UNL A   1      31.620  22.951  27.194  1.00  0.00     0.074 C 
ATOM     14  C   UNL A   1      31.694  25.206  26.340  1.00  0.00     0.074 C 
ATOM     15  C   UNL A   1      30.147  22.813  26.840  1.00  0.00     0.261 C 
ATOM     16  C   UNL A   1      30.192  25.089  26.001  1.00  0.00     0.261 C 
ATOM     17  N   UNL A   1      29.492  24.119  26.841  1.00  0.00    -0.346 N 
ATOM     18  H   UNL A   1      29.465  24.472  27.797  1.00  0.00     0.346 HD
ATOM     19  H   UNL A   1      28.552  23.999  26.463  1.00  0.00     0.346 HD
BRANCH   8  20
ATOM     20  C   UNL A   1      34.291  24.248  23.190  1.00  0.00     0.303 C 
BRANCH  20  21
ATOM     21  C   UNL A   1      33.659  25.631  23.149  1.00  0.00     0.048 A 
ATOM     22  C   UNL A   1      32.759  26.040  22.159  1.00  0.00     0.132 A 
ATOM     23  N   UNL A   1      32.396  27.328  21.984  1.00  0.00    -0.239 NA
ATOM     24  C   UNL A   1      32.872  28.242  22.851  1.00  0.00     0.113 A 
ATOM     25  C   UNL A   1      34.022  26.590  24.104  1.00  0.00     0.015 A 
ATOM     26  C   UNL A   1      33.647  27.919  23.944  1.00  0.00     0.021 A 
BRANCH  22  27
ATOM     27  N   UNL A   1      32.206  25.175  21.240  1.00  0.00    -0.383 N 
ATOM     28  H   UNL A   1      31.393  25.431  20.750  1.00  0.00     0.158 HD
ATOM     29  H   UNL A   1      32.626  24.299  21.073  1.00  0.00     0.158 HD
ENDBRANCH  22  27
ENDBRANCH  20  21
ENDBRANCH   8  20
ENDBRANCH   4   7
ENDBRANCH   2   3
ENDBRANCH   1   2
BRANCH   1  30
ATOM     30  C   UNL A   1      39.849  22.232  26.841  1.00  0.00     0.023 C 
BRANCH  30  31
ATOM     31  C   UNL A   1      41.084  23.110  27.042  1.00  0.00     0.116 C 
BRANCH  31  32
ATOM     32  N   UNL A   1      41.401  23.998  25.933  1.00  0.00    -0.352 N 
ATOM     33  C   UNL A   1      41.629  25.363  25.987  1.00  0.00     0.251 C 
ATOM     34  H   UNL A   1      41.462  23.581  25.043  1.00  0.00     0.163 HD
ATOM     35  O   UNL A   1      41.851  26.000  24.973  1.00  0.00    -0.269 OA
BRANCH  33  36
ATOM     36  C   UNL A   1      41.540  26.042  27.302  1.00  0.00     0.039 A 
ATOM     37  C   UNL A   1      42.640  26.772  27.761  1.00  0.00     0.014 A 
ATOM     38  C   UNL A   1      40.342  26.042  28.021  1.00  0.00     0.014 A 
ATOM     39  C   UNL A   1      42.504  27.584  28.891  1.00  0.00     0.010 A 
ATOM     40  C   UNL A   1      40.189  26.908  29.100  1.00  0.00     0.010 A 
ATOM     41  C   UNL A   1      41.262  27.699  29.538  1.00  0.00    -0.014 A 
BRANCH  41  42
ATOM     42  C   UNL A   1      41.059  28.657  30.657  1.00  0.00     0.031 A 
ATOM     43  C   UNL A   1      41.925  28.579  31.885  1.00  0.00     0.074 A 
ATOM     44  C   UNL A   1      40.048  29.549  30.602  1.00  0.00     0.049 A 
ATOM     45  N   UNL A   1      41.860  29.280  32.988  1.00  0.00    -0.248 NA
ATOM     46  C   UNL A   1      42.984  27.559  31.882  1.00  0.00     0.031 C 
ATOM     47  C   UNL A   1      39.101  29.689  29.493  1.00  0.00     0.029 A 
ATOM     48  N   UNL A   1      39.644  30.504  31.503  1.00  0.00    -0.354 N 
ATOM     49  C   UNL A   1      42.858  28.778  33.814  1.00  0.00     0.074 A 
ATOM     50  C   UNL A   1      43.473  27.673  33.108  1.00  0.00     0.031 C 
ATOM     51  C   UNL A   1      38.249  30.693  29.764  1.00  0.00     0.029 A 
ATOM     52  C   UNL A   1      38.567  31.246  31.077  1.00  0.00     0.049 A 
ATOM     53  H   UNL A   1      40.086  30.644  32.372  1.00  0.00     0.167 HD
ATOM     54  C   UNL A   1      43.248  29.212  35.036  1.00  0.00     0.037 A 
ATOM     55  C   UNL A   1      37.912  32.260  31.675  1.00  0.00     0.037 A 
ATOM     56  C   UNL A   1      42.653  30.326  35.725  1.00  0.00     0.049 A 
ATOM     57  C   UNL A   1      38.367  32.732  33.031  1.00  0.00     0.074 A 
ATOM     58  C   UNL A   1      43.009  30.876  36.945  1.00  0.00     0.029 A 
ATOM     59  N   UNL A   1      41.578  31.065  35.252  1.00  0.00    -0.354 N 
ATOM     60  N   UNL A   1      39.350  32.280  33.773  1.00  0.00    -0.248 NA
ATOM     61  C   UNL A   1      37.626  33.852  33.627  1.00  0.00     0.031 C 
ATOM     62  C   UNL A   1      42.130  31.930  37.222  1.00  0.00     0.029 A 
ATOM     63  C   UNL A   1      41.251  32.059  36.159  1.00  0.00     0.049 A 
ATOM     64  H   UNL A   1      41.116  30.907  34.397  1.00  0.00     0.167 HD
ATOM     65  C   UNL A   1      39.365  33.080  34.910  1.00  0.00     0.074 A 
ATOM     66  C   UNL A   1      38.296  34.046  34.756  1.00  0.00     0.031 C 
ATOM     67  C   UNL A   1      40.189  33.021  35.984  1.00  0.00     0.037 A 
BRANCH  54  68
ATOM     68  C   UNL A   1      44.383  28.478  35.695  1.00  0.00     0.058 A 
ATOM     69  C   UNL A   1      44.152  27.393  36.556  1.00  0.00     0.135 A 
ATOM     70  C   UNL A   1      45.715  28.860  35.468  1.00  0.00     0.135 A 
ATOM     71  F   UNL A   1      42.897  26.995  36.819  1.00  0.00    -0.206 F 
ATOM     72  C   UNL A   1      45.196  26.743  37.207  1.00  0.00     0.059 A 
ATOM     73  C   UNL A   1      46.777  28.206  36.086  1.00  0.00     0.059 A 
ATOM     74  F   UNL A   1      45.994  29.888  34.652  1.00  0.00    -0.206 F 
ATOM     75  C   UNL A   1      46.505  27.163  36.971  1.00  0.00     0.060 A 
BRANCH  75  76
ATOM     76  S   UNL A   1      47.849  26.330  37.842  1.00  0.00     0.124 S 
ATOM     77  O   UNL A   1      47.109  25.532  38.816  1.00  0.00    -0.237 OA
ATOM     78  O   UNL A   1      48.499  25.578  36.774  1.00  0.00    -0.237 OA
ATOM     79  O   UNL A   1      48.629  27.432  38.395  1.00  0.00    -0.744 OA
ENDBRANCH  75  76
ENDBRANCH  54  68
BRANCH  55  80
ATOM     80  C   UNL A   1      36.786  32.934  30.976  1.00  0.00     0.058 A 
ATOM     81  C   UNL A   1      35.458  32.687  31.358  1.00  0.00     0.135 A 
ATOM     82  C   UNL A   1      37.008  33.844  29.932  1.00  0.00     0.135 A 
ATOM     83  F   UNL A   1      35.195  31.819  32.347  1.00  0.00    -0.206 F 
ATOM     84  C   UNL A   1      34.389  33.309  30.722  1.00  0.00     0.059 A 
ATOM     85  C   UNL A   1      35.955  34.495  29.295  1.00  0.00     0.059 A 
ATOM     86  F   UNL A   1      38.260  34.126  29.540  1.00  0.00    -0.206 F 
ATOM     87  C   UNL A   1      34.648  34.214  29.692  1.00  0.00     0.060 A 
BRANCH  87  88
ATOM     88  S   UNL A   1      33.255  35.058  28.911  1.00  0.00     0.124 S 
ATOM     89  O   UNL A   1      33.916  36.197  28.283  1.00  0.00    -0.237 OA
ATOM     90  O   UNL A   1      32.745  34.034  28.003  1.00  0.00    -0.237 OA
ATOM     91  O   UNL A   1      32.382  35.375  30.037  1.00  0.00    -0.744 OA
ENDBRANCH  87  88
ENDBRANCH  55  80
BRANCH  67  92
ATOM     92  C   UNL A   1      39.996  34.049  37.062  1.00  0.00     0.058 A 
ATOM     93  C   UNL A   1      40.611  35.308  36.998  1.00  0.00     0.135 A 
ATOM     94  C   UNL A   1      39.142  33.788  38.146  1.00  0.00     0.135 A 
ATOM     95  F   UNL A   1      41.442  35.604  35.986  1.00  0.00    -0.206 F 
ATOM     96  C   UNL A   1      40.401  36.269  37.982  1.00  0.00     0.059 A 
ATOM     97  C   UNL A   1      38.899  34.742  39.128  1.00  0.00     0.059 A 
ATOM     98  F   UNL A   1      38.522  32.601  38.249  1.00  0.00    -0.206 F 
ATOM     99  C   UNL A   1      39.541  35.977  39.044  1.00  0.00     0.060 A 
BRANCH  99 100
ATOM    100  S   UNL A   1      39.244  37.245  40.293  1.00  0.00     0.124 S 
ATOM    101  O   UNL A   1      38.503  36.494  41.302  1.00  0.00    -0.237 OA
ATOM    102  O   UNL A   1      40.598  37.643  40.667  1.00  0.00    -0.237 OA
ATOM    103  O   UNL A   1      38.476  38.257  39.574  1.00  0.00    -0.744 OA
ENDBRANCH  99 100
ENDBRANCH  67  92
ENDBRANCH  41  42
ENDBRANCH  33  36
ENDBRANCH  31  32
ENDBRANCH  30  31
ENDBRANCH   1  30
TORSDOF 17
ENDMDL
