MODEL 1
REMARK VINA RESULT:     -12.9      0.000      0.000
REMARK SMILES Cc1ccc(NC(=O)C[C@H]2SC[C@H](C(=O)NCCCCNC(=O)c3ccc(-c4c5nc(c(-c6c(F)cc(S(=O)(=O)[O-])cc6F)c6ccc([nH]6)c(-c6c(F)cc(S(=O)(=O)[O-])cc6F)c6nc(c(-c7c(F)cc(S(=O)(=O)[O-])cc7F)c7ccc4[nH]7)C=C6)C=C5)cc3)NC2=O)cc1
REMARK SMILES IDX 18 1 17 2 16 3 14 4 15 5 13 7 10 8 11 9 91 10 12 11 90 12
REMARK SMILES IDX 92 13 9 15 7 16 6 17 8 19 5 20 1 21 2 22 3 23 94 24 4 25
REMARK SMILES IDX 93 26 19 27 20 28 21 29 22 30 23 32 24 33 25 34 89 35 26 36
REMARK SMILES IDX 88 37 27 38 28 39 29 40 82 41 30 42 87 43 81 44 83 45 31 46
REMARK SMILES IDX 86 47 80 48 79 49 32 51 66 52 45 53 65 54 46 55 49 56 64 57
REMARK SMILES IDX 84 58 47 59 48 60 63 62 85 63 50 64 33 65 34 66 43 67 35 68
REMARK SMILES IDX 36 69 42 70 44 71 37 72 38 73 39 74 40 75 41 76 67 77 68 78
REMARK SMILES IDX 77 79 69 80 70 81 76 82 78 83 71 84 72 85 73 86 74 87 75 88
REMARK SMILES IDX 51 89 52 90 61 91 53 92 54 93 60 94 62 95 55 96 56 97 57 98
REMARK SMILES IDX 58 99 59 100
REMARK H PARENT 16 6 90 14 6 18 21 31 83 50 49 61
REMARK Flexibility Score: inf
ROOT
ATOM      1  C   UNL A   1      36.100  22.536  25.783  1.00  0.00     0.023 C 
ENDROOT
BRANCH   1   2
ATOM      2  C   UNL A   1      35.578  22.007  24.444  1.00  0.00     0.116 C 
BRANCH   2   3
ATOM      3  N   UNL A   1      34.403  21.171  24.599  1.00  0.00    -0.354 N 
ATOM      4  C   UNL A   1      33.082  21.464  24.462  1.00  0.00     0.243 C 
ATOM      5  O   UNL A   1      32.273  20.573  24.745  1.00  0.00    -0.273 OA
ATOM      6  H   UNL A   1      34.593  20.236  24.844  1.00  0.00     0.163 HD
BRANCH   4   7
ATOM      7  C   UNL A   1      32.579  22.830  23.959  1.00  0.00     0.181 C 
ATOM      8  C   UNL A   1      32.882  25.750  23.189  1.00  0.00     0.145 C 
ATOM      9  S   UNL A   1      31.562  25.361  24.431  1.00  0.00    -0.145 SA
ATOM     10  C   UNL A   1      33.070  24.544  22.255  1.00  0.00     0.234 C 
ATOM     11  C   UNL A   1      32.292  23.818  25.086  1.00  0.00     0.105 C 
ATOM     12  N   UNL A   1      33.398  23.350  22.865  1.00  0.00    -0.343 N 
ATOM     13  O   UNL A   1      33.005  24.578  21.032  1.00  0.00    -0.274 OA
ATOM     14  H   UNL A   1      34.187  22.845  22.561  1.00  0.00     0.164 HD
BRANCH   8  15
ATOM     15  C   UNL A   1      32.642  27.144  22.579  1.00  0.00     0.124 C 
BRANCH  15  16
ATOM     16  C   UNL A   1      33.777  28.159  22.472  1.00  0.00     0.226 C 
ATOM     17  N   UNL A   1      34.078  29.058  23.458  1.00  0.00    -0.326 N 
ATOM     18  H   UNL A   1      34.759  29.733  23.233  1.00  0.00     0.169 HD
ATOM     19  O   UNL A   1      34.454  28.200  21.437  1.00  0.00    -0.275 OA
BRANCH  17  20
ATOM     20  C   UNL A   1      33.540  29.133  24.744  1.00  0.00     0.041 A 
ATOM     21  C   UNL A   1      31.231  27.884  28.037  1.00  0.00     0.044 C 
ATOM     22  C   UNL A   1      32.125  28.458  26.999  1.00  0.00    -0.051 A 
ATOM     23  C   UNL A   1      31.620  29.435  26.140  1.00  0.00     0.005 A 
ATOM     24  C   UNL A   1      33.440  28.012  26.863  1.00  0.00     0.005 A 
ATOM     25  C   UNL A   1      32.339  29.782  25.009  1.00  0.00     0.026 A 
ATOM     26  C   UNL A   1      34.163  28.370  25.733  1.00  0.00     0.026 A 
ENDBRANCH  17  20
ENDBRANCH  15  16
ENDBRANCH   8  15
ENDBRANCH   4   7
ENDBRANCH   2   3
ENDBRANCH   1   2
BRANCH   1  27
ATOM     27  C   UNL A   1      37.613  22.478  25.987  1.00  0.00     0.023 C 
BRANCH  27  28
ATOM     28  C   UNL A   1      38.265  23.788  26.404  1.00  0.00     0.116 C 
BRANCH  28  29
ATOM     29  N   UNL A   1      39.410  23.662  27.303  1.00  0.00    -0.352 N 
ATOM     30  C   UNL A   1      40.167  24.663  27.899  1.00  0.00     0.251 C 
ATOM     31  H   UNL A   1      39.683  22.741  27.516  1.00  0.00     0.163 HD
ATOM     32  O   UNL A   1      41.279  24.467  28.382  1.00  0.00    -0.269 OA
BRANCH  30  33
ATOM     33  C   UNL A   1      39.535  25.978  28.117  1.00  0.00     0.039 A 
ATOM     34  C   UNL A   1      39.849  26.976  27.181  1.00  0.00     0.014 A 
ATOM     35  C   UNL A   1      39.072  26.296  29.385  1.00  0.00     0.014 A 
ATOM     36  C   UNL A   1      39.991  28.273  27.623  1.00  0.00     0.010 A 
ATOM     37  C   UNL A   1      39.424  27.516  29.879  1.00  0.00     0.010 A 
ATOM     38  C   UNL A   1      39.909  28.476  28.994  1.00  0.00    -0.014 A 
BRANCH  38  39
ATOM     39  C   UNL A   1      40.163  29.744  29.618  1.00  0.00     0.031 A 
ATOM     40  C   UNL A   1      39.075  30.705  29.439  1.00  0.00     0.074 A 
ATOM     41  C   UNL A   1      41.291  29.845  30.343  1.00  0.00     0.049 A 
ATOM     42  N   UNL A   1      39.217  31.964  29.265  1.00  0.00    -0.248 NA
ATOM     43  C   UNL A   1      37.685  30.263  29.259  1.00  0.00     0.031 C 
ATOM     44  C   UNL A   1      41.732  30.889  31.250  1.00  0.00     0.029 A 
ATOM     45  N   UNL A   1      42.416  29.034  30.169  1.00  0.00    -0.354 N 
ATOM     46  C   UNL A   1      37.955  32.501  29.422  1.00  0.00     0.074 A 
ATOM     47  C   UNL A   1      37.047  31.426  29.145  1.00  0.00     0.031 C 
ATOM     48  C   UNL A   1      43.077  30.861  31.303  1.00  0.00     0.029 A 
ATOM     49  C   UNL A   1      43.534  29.847  30.355  1.00  0.00     0.049 A 
ATOM     50  H   UNL A   1      42.419  28.073  29.956  1.00  0.00     0.167 HD
ATOM     51  C   UNL A   1      37.838  33.691  30.075  1.00  0.00     0.037 A 
ATOM     52  C   UNL A   1      44.391  30.063  29.319  1.00  0.00     0.037 A 
ATOM     53  C   UNL A   1      39.185  34.150  30.445  1.00  0.00     0.049 A 
ATOM     54  C   UNL A   1      44.271  31.505  28.905  1.00  0.00     0.074 A 
ATOM     55  C   UNL A   1      39.900  34.066  31.631  1.00  0.00     0.029 A 
ATOM     56  N   UNL A   1      40.126  34.367  29.440  1.00  0.00    -0.354 N 
ATOM     57  N   UNL A   1      43.150  32.188  28.955  1.00  0.00    -0.248 NA
ATOM     58  C   UNL A   1      45.441  32.339  28.658  1.00  0.00     0.031 C 
ATOM     59  C   UNL A   1      41.284  34.172  31.316  1.00  0.00     0.029 A 
ATOM     60  C   UNL A   1      41.414  34.289  29.940  1.00  0.00     0.049 A 
ATOM     61  H   UNL A   1      39.904  34.552  28.499  1.00  0.00     0.167 HD
ATOM     62  C   UNL A   1      43.447  33.527  28.872  1.00  0.00     0.074 A 
ATOM     63  C   UNL A   1      44.887  33.563  28.664  1.00  0.00     0.031 C 
ATOM     64  C   UNL A   1      42.553  34.545  29.071  1.00  0.00     0.037 A 
BRANCH  51  65
ATOM     65  C   UNL A   1      36.548  34.219  30.678  1.00  0.00     0.058 A 
ATOM     66  C   UNL A   1      35.477  34.605  29.844  1.00  0.00     0.135 A 
ATOM     67  C   UNL A   1      36.290  34.374  32.060  1.00  0.00     0.135 A 
ATOM     68  F   UNL A   1      35.542  34.468  28.514  1.00  0.00    -0.206 F 
ATOM     69  C   UNL A   1      34.280  35.134  30.332  1.00  0.00     0.059 A 
ATOM     70  C   UNL A   1      35.122  34.949  32.570  1.00  0.00     0.059 A 
ATOM     71  F   UNL A   1      37.124  33.907  32.994  1.00  0.00    -0.206 F 
ATOM     72  C   UNL A   1      34.112  35.313  31.697  1.00  0.00     0.060 A 
BRANCH  72  73
ATOM     73  S   UNL A   1      32.540  35.943  32.312  1.00  0.00     0.124 S 
ATOM     74  O   UNL A   1      31.918  34.737  32.850  1.00  0.00    -0.237 OA
ATOM     75  O   UNL A   1      32.975  36.928  33.295  1.00  0.00    -0.237 OA
ATOM     76  O   UNL A   1      31.901  36.491  31.118  1.00  0.00    -0.744 OA
ENDBRANCH  72  73
ENDBRANCH  51  65
BRANCH  52  77
ATOM     77  C   UNL A   1      44.725  28.828  28.533  1.00  0.00     0.058 A 
ATOM     78  C   UNL A   1      44.096  28.695  27.276  1.00  0.00     0.135 A 
ATOM     79  C   UNL A   1      45.917  28.109  28.701  1.00  0.00     0.135 A 
ATOM     80  F   UNL A   1      42.921  29.304  27.050  1.00  0.00    -0.206 F 
ATOM     81  C   UNL A   1      44.707  28.062  26.192  1.00  0.00     0.059 A 
ATOM     82  C   UNL A   1      46.554  27.460  27.626  1.00  0.00     0.059 A 
ATOM     83  F   UNL A   1      46.533  28.112  29.892  1.00  0.00    -0.206 F 
ATOM     84  C   UNL A   1      45.966  27.496  26.361  1.00  0.00     0.060 A 
BRANCH  84  85
ATOM     85  S   UNL A   1      46.833  26.934  24.875  1.00  0.00     0.124 S 
ATOM     86  O   UNL A   1      46.381  25.555  24.754  1.00  0.00    -0.237 OA
ATOM     87  O   UNL A   1      46.319  27.855  23.864  1.00  0.00    -0.237 OA
ATOM     88  O   UNL A   1      48.240  27.119  25.200  1.00  0.00    -0.744 OA
ENDBRANCH  84  85
ENDBRANCH  52  77
BRANCH  64  89
ATOM     89  C   UNL A   1      42.713  35.948  28.521  1.00  0.00     0.058 A 
ATOM     90  C   UNL A   1      42.300  36.329  27.233  1.00  0.00     0.135 A 
ATOM     91  C   UNL A   1      43.112  37.018  29.367  1.00  0.00     0.135 A 
ATOM     92  F   UNL A   1      41.783  35.450  26.364  1.00  0.00    -0.206 F 
ATOM     93  C   UNL A   1      42.348  37.648  26.793  1.00  0.00     0.059 A 
ATOM     94  C   UNL A   1      43.078  38.349  28.977  1.00  0.00     0.059 A 
ATOM     95  F   UNL A   1      43.524  36.818  30.627  1.00  0.00    -0.206 F 
ATOM     96  C   UNL A   1      42.728  38.652  27.675  1.00  0.00     0.060 A 
BRANCH  96  97
ATOM     97  S   UNL A   1      42.719  40.357  27.115  1.00  0.00     0.124 S 
ATOM     98  O   UNL A   1      43.502  41.004  28.163  1.00  0.00    -0.237 OA
ATOM     99  O   UNL A   1      43.364  40.264  25.808  1.00  0.00    -0.237 OA
ATOM    100  O   UNL A   1      41.300  40.695  27.084  1.00  0.00    -0.744 OA
ENDBRANCH  96  97
ENDBRANCH  64  89
ENDBRANCH  38  39
ENDBRANCH  30  33
ENDBRANCH  28  29
ENDBRANCH  27  28
ENDBRANCH   1  27
TORSDOF 17
ENDMDL
MODEL 2
REMARK VINA RESULT:     -12.7      1.660      2.383
REMARK SMILES Cc1ccc(NC(=O)C[C@H]2SC[C@H](C(=O)NCCCCNC(=O)c3ccc(-c4c5nc(c(-c6c(F)cc(S(=O)(=O)[O-])cc6F)c6ccc([nH]6)c(-c6c(F)cc(S(=O)(=O)[O-])cc6F)c6nc(c(-c7c(F)cc(S(=O)(=O)[O-])cc7F)c7ccc4[nH]7)C=C6)C=C5)cc3)NC2=O)cc1
REMARK SMILES IDX 18 1 17 2 16 3 14 4 15 5 13 7 10 8 11 9 91 10 12 11 90 12
REMARK SMILES IDX 92 13 9 15 7 16 6 17 8 19 5 20 1 21 2 22 3 23 94 24 4 25
REMARK SMILES IDX 93 26 19 27 20 28 21 29 22 30 23 32 24 33 25 34 89 35 26 36
REMARK SMILES IDX 88 37 27 38 28 39 29 40 82 41 30 42 87 43 81 44 83 45 31 46
REMARK SMILES IDX 86 47 80 48 79 49 32 51 66 52 45 53 65 54 46 55 49 56 64 57
REMARK SMILES IDX 84 58 47 59 48 60 63 62 85 63 50 64 33 65 34 66 43 67 35 68
REMARK SMILES IDX 36 69 42 70 44 71 37 72 38 73 39 74 40 75 41 76 67 77 68 78
REMARK SMILES IDX 77 79 69 80 70 81 76 82 78 83 71 84 72 85 73 86 74 87 75 88
REMARK SMILES IDX 51 89 52 90 61 91 53 92 54 93 60 94 62 95 55 96 56 97 57 98
REMARK SMILES IDX 58 99 59 100
REMARK H PARENT 16 6 90 14 6 18 21 31 83 50 49 61
REMARK Flexibility Score: inf
ROOT
ATOM      1  C   UNL A   1      36.609  22.651  24.857  1.00  0.00     0.023 C 
ENDROOT
BRANCH   1   2
ATOM      2  C   UNL A   1      35.493  22.000  25.679  1.00  0.00     0.116 C 
BRANCH   2   3
ATOM      3  N   UNL A   1      34.457  21.421  24.846  1.00  0.00    -0.354 N 
ATOM      4  C   UNL A   1      33.303  21.957  24.365  1.00  0.00     0.243 C 
ATOM      5  O   UNL A   1      32.544  21.202  23.745  1.00  0.00    -0.273 OA
ATOM      6  H   UNL A   1      34.614  20.484  24.585  1.00  0.00     0.163 HD
BRANCH   4   7
ATOM      7  C   UNL A   1      32.934  23.441  24.548  1.00  0.00     0.181 C 
ATOM      8  C   UNL A   1      31.074  25.837  24.446  1.00  0.00     0.145 C 
ATOM      9  S   UNL A   1      32.695  26.018  23.565  1.00  0.00    -0.145 SA
ATOM     10  C   UNL A   1      31.247  24.876  25.632  1.00  0.00     0.234 C 
ATOM     11  C   UNL A   1      33.000  24.242  23.251  1.00  0.00     0.105 C 
ATOM     12  N   UNL A   1      31.708  23.612  25.327  1.00  0.00    -0.343 N 
ATOM     13  O   UNL A   1      30.959  25.129  26.797  1.00  0.00    -0.274 OA
ATOM     14  H   UNL A   1      31.211  22.820  25.636  1.00  0.00     0.164 HD
BRANCH   8  15
ATOM     15  C   UNL A   1      30.444  27.222  24.685  1.00  0.00     0.124 C 
BRANCH  15  16
ATOM     16  C   UNL A   1      31.319  28.448  24.933  1.00  0.00     0.226 C 
ATOM     17  N   UNL A   1      31.101  29.661  24.340  1.00  0.00    -0.326 N 
ATOM     18  H   UNL A   1      31.792  30.346  24.491  1.00  0.00     0.169 HD
ATOM     19  O   UNL A   1      32.296  28.351  25.687  1.00  0.00    -0.275 OA
BRANCH  17  20
ATOM     20  C   UNL A   1      30.017  30.047  23.549  1.00  0.00     0.041 A 
ATOM     21  C   UNL A   1      27.943  32.381  20.722  1.00  0.00     0.044 C 
ATOM     22  C   UNL A   1      28.523  31.430  21.705  1.00  0.00    -0.051 A 
ATOM     23  C   UNL A   1      28.311  31.655  23.066  1.00  0.00     0.005 A 
ATOM     24  C   UNL A   1      29.291  30.345  21.282  1.00  0.00     0.005 A 
ATOM     25  C   UNL A   1      29.058  30.950  23.995  1.00  0.00     0.026 A 
ATOM     26  C   UNL A   1      30.030  29.632  22.216  1.00  0.00     0.026 A 
ENDBRANCH  17  20
ENDBRANCH  15  16
ENDBRANCH   8  15
ENDBRANCH   4   7
ENDBRANCH   2   3
ENDBRANCH   1   2
BRANCH   1  27
ATOM     27  C   UNL A   1      37.980  22.731  25.527  1.00  0.00     0.023 C 
BRANCH  27  28
ATOM     28  C   UNL A   1      38.146  23.855  26.540  1.00  0.00     0.116 C 
BRANCH  28  29
ATOM     29  N   UNL A   1      39.323  23.757  27.399  1.00  0.00    -0.352 N 
ATOM     30  C   UNL A   1      40.092  24.777  27.948  1.00  0.00     0.251 C 
ATOM     31  H   UNL A   1      39.613  22.842  27.620  1.00  0.00     0.163 HD
ATOM     32  O   UNL A   1      41.222  24.600  28.394  1.00  0.00    -0.269 OA
BRANCH  30  33
ATOM     33  C   UNL A   1      39.456  26.090  28.163  1.00  0.00     0.039 A 
ATOM     34  C   UNL A   1      39.802  27.099  27.251  1.00  0.00     0.014 A 
ATOM     35  C   UNL A   1      38.952  26.392  29.419  1.00  0.00     0.014 A 
ATOM     36  C   UNL A   1      39.932  28.390  27.715  1.00  0.00     0.010 A 
ATOM     37  C   UNL A   1      39.289  27.604  29.940  1.00  0.00     0.010 A 
ATOM     38  C   UNL A   1      39.806  28.575  29.085  1.00  0.00    -0.014 A 
BRANCH  38  39
ATOM     39  C   UNL A   1      40.041  29.833  29.734  1.00  0.00     0.031 A 
ATOM     40  C   UNL A   1      38.954  30.794  29.546  1.00  0.00     0.074 A 
ATOM     41  C   UNL A   1      41.153  29.927  30.485  1.00  0.00     0.049 A 
ATOM     42  N   UNL A   1      39.095  32.056  29.395  1.00  0.00    -0.248 NA
ATOM     43  C   UNL A   1      37.570  30.351  29.329  1.00  0.00     0.031 C 
ATOM     44  C   UNL A   1      41.570  30.958  31.418  1.00  0.00     0.029 A 
ATOM     45  N   UNL A   1      42.284  29.122  30.323  1.00  0.00    -0.354 N 
ATOM     46  C   UNL A   1      37.829  32.587  29.533  1.00  0.00     0.074 A 
ATOM     47  C   UNL A   1      36.930  31.513  29.219  1.00  0.00     0.031 C 
ATOM     48  C   UNL A   1      42.914  30.933  31.500  1.00  0.00     0.029 A 
ATOM     49  C   UNL A   1      43.395  29.936  30.547  1.00  0.00     0.049 A 
ATOM     50  H   UNL A   1      42.295  28.165  30.096  1.00  0.00     0.167 HD
ATOM     51  C   UNL A   1      37.694  33.766  30.201  1.00  0.00     0.037 A 
ATOM     52  C   UNL A   1      44.274  30.170  29.533  1.00  0.00     0.037 A 
ATOM     53  C   UNL A   1      39.030  34.223  30.607  1.00  0.00     0.049 A 
ATOM     54  C   UNL A   1      44.157  31.618  29.139  1.00  0.00     0.074 A 
ATOM     55  C   UNL A   1      39.719  34.123  31.807  1.00  0.00     0.029 A 
ATOM     56  N   UNL A   1      39.992  34.458  29.627  1.00  0.00    -0.354 N 
ATOM     57  N   UNL A   1      43.034  32.296  29.175  1.00  0.00    -0.248 NA
ATOM     58  C   UNL A   1      45.330  32.460  28.931  1.00  0.00     0.031 C 
ATOM     59  C   UNL A   1      41.110  34.239  31.525  1.00  0.00     0.029 A 
ATOM     60  C   UNL A   1      41.269  34.377  30.154  1.00  0.00     0.049 A 
ATOM     61  H   UNL A   1      39.790  34.658  28.684  1.00  0.00     0.167 HD
ATOM     62  C   UNL A   1      43.328  33.638  29.120  1.00  0.00     0.074 A 
ATOM     63  C   UNL A   1      44.772  33.682  28.943  1.00  0.00     0.031 C 
ATOM     64  C   UNL A   1      42.426  34.650  29.314  1.00  0.00     0.037 A 
BRANCH  51  65
ATOM     65  C   UNL A   1      36.389  34.281  30.784  1.00  0.00     0.058 A 
ATOM     66  C   UNL A   1      35.334  34.673  29.933  1.00  0.00     0.135 A 
ATOM     67  C   UNL A   1      36.100  34.415  32.161  1.00  0.00     0.135 A 
ATOM     68  F   UNL A   1      35.428  34.554  28.602  1.00  0.00    -0.206 F 
ATOM     69  C   UNL A   1      34.124  35.191  30.402  1.00  0.00     0.059 A 
ATOM     70  C   UNL A   1      34.920  34.979  32.654  1.00  0.00     0.059 A 
ATOM     71  F   UNL A   1      36.917  33.940  33.107  1.00  0.00    -0.206 F 
ATOM     72  C   UNL A   1      33.927  35.351  31.765  1.00  0.00     0.060 A 
BRANCH  72  73
ATOM     73  S   UNL A   1      32.339  35.965  32.355  1.00  0.00     0.124 S 
ATOM     74  O   UNL A   1      31.761  36.531  31.141  1.00  0.00    -0.237 OA
ATOM     75  O   UNL A   1      31.711  34.746  32.852  1.00  0.00    -0.237 OA
ATOM     76  O   UNL A   1      32.709  36.940  33.379  1.00  0.00    -0.744 OA
ENDBRANCH  72  73
ENDBRANCH  51  65
BRANCH  52  77
ATOM     77  C   UNL A   1      44.629  28.949  28.736  1.00  0.00     0.058 A 
ATOM     78  C   UNL A   1      44.066  28.857  27.444  1.00  0.00     0.135 A 
ATOM     79  C   UNL A   1      45.799  28.204  28.949  1.00  0.00     0.135 A 
ATOM     80  F   UNL A   1      42.916  29.492  27.171  1.00  0.00    -0.206 F 
ATOM     81  C   UNL A   1      44.725  28.239  26.379  1.00  0.00     0.059 A 
ATOM     82  C   UNL A   1      46.481  27.571  27.894  1.00  0.00     0.059 A 
ATOM     83  F   UNL A   1      46.349  28.169  30.171  1.00  0.00    -0.206 F 
ATOM     84  C   UNL A   1      45.963  27.647  26.600  1.00  0.00     0.060 A 
BRANCH  84  85
ATOM     85  S   UNL A   1      46.899  27.106  25.149  1.00  0.00     0.124 S 
ATOM     86  O   UNL A   1      48.147  26.642  25.740  1.00  0.00    -0.237 OA
ATOM     87  O   UNL A   1      46.033  26.061  24.608  1.00  0.00    -0.237 OA
ATOM     88  O   UNL A   1      46.990  28.302  24.324  1.00  0.00    -0.744 OA
ENDBRANCH  84  85
ENDBRANCH  52  77
BRANCH  64  89
ATOM     89  C   UNL A   1      42.594  36.062  28.789  1.00  0.00     0.058 A 
ATOM     90  C   UNL A   1      43.442  37.015  29.379  1.00  0.00     0.135 A 
ATOM     91  C   UNL A   1      42.045  36.438  27.534  1.00  0.00     0.135 A 
ATOM     92  F   UNL A   1      44.128  36.757  30.500  1.00  0.00    -0.206 F 
ATOM     93  C   UNL A   1      43.670  38.264  28.811  1.00  0.00     0.059 A 
ATOM     94  C   UNL A   1      42.334  37.642  26.907  1.00  0.00     0.059 A 
ATOM     95  F   UNL A   1      41.224  35.635  26.842  1.00  0.00    -0.206 F 
ATOM     96  C   UNL A   1      43.120  38.565  27.571  1.00  0.00     0.060 A 
BRANCH  96  97
ATOM     97  S   UNL A   1      43.478  40.154  26.818  1.00  0.00     0.124 S 
ATOM     98  O   UNL A   1      42.286  40.355  26.001  1.00  0.00    -0.237 OA
ATOM     99  O   UNL A   1      43.607  41.031  27.978  1.00  0.00    -0.237 OA
ATOM    100  O   UNL A   1      44.716  39.910  26.085  1.00  0.00    -0.744 OA
ENDBRANCH  96  97
ENDBRANCH  64  89
ENDBRANCH  38  39
ENDBRANCH  30  33
ENDBRANCH  28  29
ENDBRANCH  27  28
ENDBRANCH   1  27
TORSDOF 17
ENDMDL
MODEL 3
REMARK VINA RESULT:     -12.6      2.807      3.921
REMARK SMILES Cc1ccc(NC(=O)C[C@H]2SC[C@H](C(=O)NCCCCNC(=O)c3ccc(-c4c5nc(c(-c6c(F)cc(S(=O)(=O)[O-])cc6F)c6ccc([nH]6)c(-c6c(F)cc(S(=O)(=O)[O-])cc6F)c6nc(c(-c7c(F)cc(S(=O)(=O)[O-])cc7F)c7ccc4[nH]7)C=C6)C=C5)cc3)NC2=O)cc1
REMARK SMILES IDX 18 1 17 2 16 3 14 4 15 5 13 7 10 8 11 9 91 10 12 11 90 12
REMARK SMILES IDX 92 13 9 15 7 16 6 17 8 19 5 20 1 21 2 22 3 23 94 24 4 25
REMARK SMILES IDX 93 26 19 27 20 28 21 29 22 30 23 32 24 33 25 34 89 35 26 36
REMARK SMILES IDX 88 37 27 38 28 39 29 40 82 41 30 42 87 43 81 44 83 45 31 46
REMARK SMILES IDX 86 47 80 48 79 49 32 51 66 52 45 53 65 54 46 55 49 56 64 57
REMARK SMILES IDX 84 58 47 59 48 60 63 62 85 63 50 64 33 65 34 66 43 67 35 68
REMARK SMILES IDX 36 69 42 70 44 71 37 72 38 73 39 74 40 75 41 76 67 77 68 78
REMARK SMILES IDX 77 79 69 80 70 81 76 82 78 83 71 84 72 85 73 86 74 87 75 88
REMARK SMILES IDX 51 89 52 90 61 91 53 92 54 93 60 94 62 95 55 96 56 97 57 98
REMARK SMILES IDX 58 99 59 100
REMARK H PARENT 16 6 90 14 6 18 21 31 83 50 49 61
REMARK Flexibility Score: inf
ROOT
ATOM      1  C   UNL A   1      36.806  19.536  24.986  1.00  0.00     0.023 C 
ENDROOT
BRANCH   1   2
ATOM      2  C   UNL A   1      35.628  20.480  25.248  1.00  0.00     0.116 C 
BRANCH   2   3
ATOM      3  N   UNL A   1      34.345  19.834  25.044  1.00  0.00    -0.354 N 
ATOM      4  C   UNL A   1      33.081  20.330  25.119  1.00  0.00     0.243 C 
ATOM      5  O   UNL A   1      32.150  19.527  24.987  1.00  0.00    -0.273 OA
ATOM      6  H   UNL A   1      34.398  18.878  24.814  1.00  0.00     0.163 HD
BRANCH   4   7
ATOM      7  C   UNL A   1      32.784  21.825  25.338  1.00  0.00     0.181 C 
ATOM      8  C   UNL A   1      31.062  24.322  25.241  1.00  0.00     0.145 C 
ATOM      9  S   UNL A   1      32.727  24.442  24.436  1.00  0.00    -0.145 SA
ATOM     10  C   UNL A   1      31.131  23.316  26.400  1.00  0.00     0.234 C 
ATOM     11  C   UNL A   1      32.950  22.663  24.074  1.00  0.00     0.105 C 
ATOM     12  N   UNL A   1      31.537  22.038  26.070  1.00  0.00    -0.343 N 
ATOM     13  O   UNL A   1      30.806  23.546  27.559  1.00  0.00    -0.274 OA
ATOM     14  H   UNL A   1      30.984  21.266  26.331  1.00  0.00     0.164 HD
BRANCH   8  15
ATOM     15  C   UNL A   1      30.497  25.732  25.501  1.00  0.00     0.124 C 
BRANCH  15  16
ATOM     16  C   UNL A   1      30.575  26.816  24.430  1.00  0.00     0.226 C 
ATOM     17  N   UNL A   1      31.203  28.017  24.618  1.00  0.00    -0.326 N 
ATOM     18  H   UNL A   1      31.094  28.678  23.896  1.00  0.00     0.169 HD
ATOM     19  O   UNL A   1      30.025  26.626  23.337  1.00  0.00    -0.275 OA
BRANCH  17  20
ATOM     20  C   UNL A   1      31.979  28.417  25.706  1.00  0.00     0.041 A 
ATOM     21  C   UNL A   1      34.952  30.618  27.720  1.00  0.00     0.044 C 
ATOM     22  C   UNL A   1      33.844  29.785  27.190  1.00  0.00    -0.051 A 
ATOM     23  C   UNL A   1      34.120  28.481  26.774  1.00  0.00     0.005 A 
ATOM     24  C   UNL A   1      32.552  30.299  27.080  1.00  0.00     0.005 A 
ATOM     25  C   UNL A   1      33.176  27.789  26.035  1.00  0.00     0.026 A 
ATOM     26  C   UNL A   1      31.602  29.598  26.348  1.00  0.00     0.026 A 
ENDBRANCH  17  20
ENDBRANCH  15  16
ENDBRANCH   8  15
ENDBRANCH   4   7
ENDBRANCH   2   3
ENDBRANCH   1   2
BRANCH   1  27
ATOM     27  C   UNL A   1      38.141  20.201  24.659  1.00  0.00     0.023 C 
BRANCH  27  28
ATOM     28  C   UNL A   1      38.488  21.418  25.506  1.00  0.00     0.116 C 
BRANCH  28  29
ATOM     29  N   UNL A   1      37.771  22.645  25.165  1.00  0.00    -0.352 N 
ATOM     30  C   UNL A   1      37.822  23.888  25.784  1.00  0.00     0.251 C 
ATOM     31  H   UNL A   1      37.168  22.583  24.389  1.00  0.00     0.163 HD
ATOM     32  O   UNL A   1      36.969  24.755  25.621  1.00  0.00    -0.269 OA
BRANCH  30  33
ATOM     33  C   UNL A   1      39.044  24.243  26.531  1.00  0.00     0.039 A 
ATOM     34  C   UNL A   1      39.011  24.006  27.915  1.00  0.00     0.014 A 
ATOM     35  C   UNL A   1      39.926  25.156  25.975  1.00  0.00     0.014 A 
ATOM     36  C   UNL A   1      39.640  24.901  28.752  1.00  0.00     0.010 A 
ATOM     37  C   UNL A   1      40.358  26.164  26.783  1.00  0.00     0.010 A 
ATOM     38  C   UNL A   1      40.178  26.036  28.159  1.00  0.00    -0.014 A 
BRANCH  38  39
ATOM     39  C   UNL A   1      40.749  27.119  28.907  1.00  0.00     0.031 A 
ATOM     40  C   UNL A   1      39.881  28.294  28.980  1.00  0.00     0.074 A 
ATOM     41  C   UNL A   1      41.931  26.883  29.505  1.00  0.00     0.049 A 
ATOM     42  N   UNL A   1      40.273  29.511  28.955  1.00  0.00    -0.248 NA
ATOM     43  C   UNL A   1      38.419  28.170  28.907  1.00  0.00     0.031 C 
ATOM     44  C   UNL A   1      42.661  27.670  30.482  1.00  0.00     0.029 A 
ATOM     45  N   UNL A   1      42.838  25.899  29.099  1.00  0.00    -0.354 N 
ATOM     46  C   UNL A   1      39.174  30.259  29.325  1.00  0.00     0.074 A 
ATOM     47  C   UNL A   1      38.036  29.441  29.018  1.00  0.00     0.031 C 
ATOM     48  C   UNL A   1      43.969  27.366  30.375  1.00  0.00     0.029 A 
ATOM     49  C   UNL A   1      44.115  26.436  29.258  1.00  0.00     0.049 A 
ATOM     50  H   UNL A   1      42.617  25.000  28.765  1.00  0.00     0.167 HD
ATOM     51  C   UNL A   1      39.371  31.336  30.134  1.00  0.00     0.037 A 
ATOM     52  C   UNL A   1      44.906  26.629  28.166  1.00  0.00     0.037 A 
ATOM     53  C   UNL A   1      40.811  31.457  30.403  1.00  0.00     0.049 A 
ATOM     54  C   UNL A   1      45.062  28.112  27.959  1.00  0.00     0.074 A 
ATOM     55  C   UNL A   1      41.591  31.055  31.477  1.00  0.00     0.029 A 
ATOM     56  N   UNL A   1      41.687  31.629  29.332  1.00  0.00    -0.354 N 
ATOM     57  N   UNL A   1      44.122  28.989  28.225  1.00  0.00    -0.248 NA
ATOM     58  C   UNL A   1      46.358  28.723  27.688  1.00  0.00     0.031 C 
ATOM     59  C   UNL A   1      42.934  30.929  31.022  1.00  0.00     0.029 A 
ATOM     60  C   UNL A   1      42.967  31.222  29.666  1.00  0.00     0.049 A 
ATOM     61  H   UNL A   1      41.429  31.995  28.455  1.00  0.00     0.167 HD
ATOM     62  C   UNL A   1      44.690  30.239  28.282  1.00  0.00     0.074 A 
ATOM     63  C   UNL A   1      46.081  30.018  27.915  1.00  0.00     0.031 C 
ATOM     64  C   UNL A   1      44.055  31.373  28.712  1.00  0.00     0.037 A 
BRANCH  51  65
ATOM     65  C   UNL A   1      38.281  32.015  30.945  1.00  0.00     0.058 A 
ATOM     66  C   UNL A   1      37.429  32.964  30.341  1.00  0.00     0.135 A 
ATOM     67  C   UNL A   1      38.010  31.785  32.314  1.00  0.00     0.135 A 
ATOM     68  F   UNL A   1      37.518  33.253  29.037  1.00  0.00    -0.206 F 
ATOM     69  C   UNL A   1      36.433  33.652  31.039  1.00  0.00     0.059 A 
ATOM     70  C   UNL A   1      37.056  32.498  33.046  1.00  0.00     0.059 A 
ATOM     71  F   UNL A   1      38.607  30.805  33.000  1.00  0.00    -0.206 F 
ATOM     72  C   UNL A   1      36.258  33.422  32.394  1.00  0.00     0.060 A 
BRANCH  72  73
ATOM     73  S   UNL A   1      34.931  34.274  33.264  1.00  0.00     0.124 S 
ATOM     74  O   UNL A   1      35.388  35.660  33.237  1.00  0.00    -0.237 OA
ATOM     75  O   UNL A   1      33.776  33.968  32.427  1.00  0.00    -0.237 OA
ATOM     76  O   UNL A   1      34.929  33.648  34.584  1.00  0.00    -0.744 OA
ENDBRANCH  72  73
ENDBRANCH  51  65
BRANCH  52  77
ATOM     77  C   UNL A   1      44.900  25.485  27.195  1.00  0.00     0.058 A 
ATOM     78  C   UNL A   1      45.346  24.240  27.689  1.00  0.00     0.135 A 
ATOM     79  C   UNL A   1      44.059  25.433  26.073  1.00  0.00     0.135 A 
ATOM     80  F   UNL A   1      46.199  24.200  28.725  1.00  0.00    -0.206 F 
ATOM     81  C   UNL A   1      44.835  23.023  27.234  1.00  0.00     0.059 A 
ATOM     82  C   UNL A   1      43.531  24.220  25.593  1.00  0.00     0.059 A 
ATOM     83  F   UNL A   1      43.660  26.572  25.490  1.00  0.00    -0.206 F 
ATOM     84  C   UNL A   1      43.881  23.025  26.222  1.00  0.00     0.060 A 
BRANCH  84  85
ATOM     85  S   UNL A   1      43.049  21.459  25.858  1.00  0.00     0.124 S 
ATOM     86  O   UNL A   1      42.949  20.847  27.176  1.00  0.00    -0.237 OA
ATOM     87  O   UNL A   1      41.789  21.919  25.281  1.00  0.00    -0.237 OA
ATOM     88  O   UNL A   1      43.941  20.800  24.914  1.00  0.00    -0.744 OA
ENDBRANCH  84  85
ENDBRANCH  52  77
BRANCH  64  89
ATOM     89  C   UNL A   1      44.464  32.783  28.332  1.00  0.00     0.058 A 
ATOM     90  C   UNL A   1      45.122  33.663  29.208  1.00  0.00     0.135 A 
ATOM     91  C   UNL A   1      44.381  33.222  26.984  1.00  0.00     0.135 A 
ATOM     92  F   UNL A   1      45.385  33.335  30.479  1.00  0.00    -0.206 F 
ATOM     93  C   UNL A   1      45.592  34.907  28.800  1.00  0.00     0.059 A 
ATOM     94  C   UNL A   1      44.926  34.419  26.539  1.00  0.00     0.059 A 
ATOM     95  F   UNL A   1      43.790  32.492  26.027  1.00  0.00    -0.206 F 
ATOM     96  C   UNL A   1      45.499  35.272  27.463  1.00  0.00     0.060 A 
BRANCH  96  97
ATOM     97  S   UNL A   1      46.172  36.850  26.938  1.00  0.00     0.124 S 
ATOM     98  O   UNL A   1      47.034  37.182  28.067  1.00  0.00    -0.237 OA
ATOM     99  O   UNL A   1      46.859  36.504  25.696  1.00  0.00    -0.237 OA
ATOM    100  O   UNL A   1      44.987  37.687  26.778  1.00  0.00    -0.744 OA
ENDBRANCH  96  97
ENDBRANCH  64  89
ENDBRANCH  38  39
ENDBRANCH  30  33
ENDBRANCH  28  29
ENDBRANCH  27  28
ENDBRANCH   1  27
TORSDOF 17
ENDMDL
