MODEL 1
REMARK VINA RESULT:     -12.2      0.000      0.000
REMARK SMILES CC(C)[C@H](NC(=O)Cn1ccc2c(Br)cccc21)C(=O)NCCCCNC(=O)c1ccc(-c2c3nc(c(-c4c(F)cc(S(=O)(=O)[O-])cc4F)c4ccc([nH]4)c(-c4c(F)cc(S(=O)(=O)[O-])cc4F)c4nc(c(-c5c(F)cc(S(=O)(=O)[O-])cc5F)c5ccc2[nH]5)C=C4)C=C3)cc1
REMARK SMILES IDX 23 1 22 2 21 3 19 4 20 5 4 7 2 8 1 9 3 10 5 11 6 12 7 14
REMARK SMILES IDX 8 15 9 16 10 17 18 18 11 19 12 20 17 21 13 22 16 23 14 24
REMARK SMILES IDX 15 25 24 26 25 27 26 28 27 29 28 31 29 32 30 33 94 34 31 35
REMARK SMILES IDX 93 36 32 37 33 38 34 39 87 40 35 41 92 42 86 43 88 44 36 45
REMARK SMILES IDX 91 46 85 47 84 48 37 50 71 51 50 52 70 53 51 54 54 55 69 56
REMARK SMILES IDX 89 57 52 58 53 59 68 61 90 62 55 63 38 64 39 65 48 66 40 67
REMARK SMILES IDX 41 68 47 69 49 70 42 71 43 72 44 73 45 74 46 75 72 76 73 77
REMARK SMILES IDX 82 78 74 79 75 80 81 81 83 82 76 83 77 84 78 85 79 86 80 87
REMARK SMILES IDX 56 88 57 89 66 90 58 91 59 92 65 93 67 94 60 95 61 96 62 97
REMARK SMILES IDX 63 98 64 99
REMARK H PARENT 21 6 5 13 26 30 88 49 54 60
REMARK Flexibility Score: inf
ROOT
ATOM      1  C   UNL A   1      32.754  28.575  27.301  1.00  0.00     0.023 C 
ENDROOT
BRANCH   1   2
ATOM      2  C   UNL A   1      32.734  27.823  25.962  1.00  0.00     0.116 C 
BRANCH   2   3
ATOM      3  N   UNL A   1      31.587  26.985  25.698  1.00  0.00    -0.354 N 
ATOM      4  C   UNL A   1      31.037  26.660  24.486  1.00  0.00     0.242 C 
ATOM      5  O   UNL A   1      30.414  25.590  24.442  1.00  0.00    -0.273 OA
ATOM      6  H   UNL A   1      31.144  26.600  26.490  1.00  0.00     0.163 HD
BRANCH   4   7
ATOM      7  C   UNL A   1      31.177  27.527  23.177  1.00  0.00     0.173 C 
BRANCH   7   8
ATOM      8  C   UNL A   1      30.012  28.473  22.836  1.00  0.00     0.015 C 
ATOM      9  C   UNL A   1      28.597  27.958  23.079  1.00  0.00     0.010 C 
ATOM     10  C   UNL A   1      30.192  29.833  23.529  1.00  0.00     0.010 C 
ENDBRANCH   7   8
BRANCH   7  11
ATOM     11  N   UNL A   1      31.773  26.811  22.016  1.00  0.00    -0.343 N 
ATOM     12  C   UNL A   1      32.837  26.000  21.750  1.00  0.00     0.240 C 
ATOM     13  H   UNL A   1      31.244  26.969  21.201  1.00  0.00     0.164 HD
ATOM     14  O   UNL A   1      33.022  25.779  20.543  1.00  0.00    -0.273 OA
BRANCH  12  15
ATOM     15  C   UNL A   1      33.759  25.323  22.774  1.00  0.00     0.222 C 
BRANCH  15  16
ATOM     16  N   UNL A   1      33.216  24.112  23.377  1.00  0.00    -0.338 N 
ATOM     17  C   UNL A   1      32.406  23.239  22.714  1.00  0.00     0.087 A 
ATOM     18  C   UNL A   1      33.598  23.545  24.584  1.00  0.00     0.050 A 
ATOM     19  C   UNL A   1      32.709  22.007  23.234  1.00  0.00     0.029 A 
ATOM     20  C   UNL A   1      33.492  22.163  24.398  1.00  0.00     0.014 A 
ATOM     21  C   UNL A   1      34.157  24.082  25.753  1.00  0.00     0.027 A 
ATOM     22  C   UNL A   1      34.147  21.310  25.309  1.00  0.00     0.027 A 
ATOM     23  C   UNL A   1      34.604  23.190  26.739  1.00  0.00     0.003 A 
ATOM     24  Br  UNL A   1      34.602  19.539  24.849  1.00  0.00    -0.050 Br
ATOM     25  C   UNL A   1      34.633  21.819  26.510  1.00  0.00     0.016 A 
ENDBRANCH  15  16
ENDBRANCH  12  15
ENDBRANCH   7  11
ENDBRANCH   4   7
ENDBRANCH   2   3
ENDBRANCH   1   2
BRANCH   1  26
ATOM     26  C   UNL A   1      32.730  30.113  27.255  1.00  0.00     0.023 C 
BRANCH  26  27
ATOM     27  C   UNL A   1      34.082  30.830  27.257  1.00  0.00     0.116 C 
BRANCH  27  28
ATOM     28  N   UNL A   1      34.228  31.937  28.203  1.00  0.00    -0.352 N 
ATOM     29  C   UNL A   1      35.089  32.037  29.299  1.00  0.00     0.251 C 
ATOM     30  H   UNL A   1      33.645  32.714  28.047  1.00  0.00     0.163 HD
ATOM     31  O   UNL A   1      34.865  32.862  30.174  1.00  0.00    -0.269 OA
BRANCH  29  32
ATOM     32  C   UNL A   1      36.303  31.179  29.381  1.00  0.00     0.039 A 
ATOM     33  C   UNL A   1      36.273  29.782  29.463  1.00  0.00     0.014 A 
ATOM     34  C   UNL A   1      37.530  31.813  29.453  1.00  0.00     0.014 A 
ATOM     35  C   UNL A   1      37.480  29.073  29.609  1.00  0.00     0.010 A 
ATOM     36  C   UNL A   1      38.707  31.133  29.493  1.00  0.00     0.010 A 
ATOM     37  C   UNL A   1      38.691  29.773  29.660  1.00  0.00    -0.014 A 
BRANCH  37  38
ATOM     38  C   UNL A   1      40.016  29.183  29.687  1.00  0.00     0.031 A 
ATOM     39  C   UNL A   1      40.473  28.875  31.061  1.00  0.00     0.074 A 
ATOM     40  C   UNL A   1      40.612  28.622  28.611  1.00  0.00     0.049 A 
ATOM     41  N   UNL A   1      41.347  29.536  31.739  1.00  0.00    -0.248 NA
ATOM     42  C   UNL A   1      39.759  27.851  31.847  1.00  0.00     0.031 C 
ATOM     43  C   UNL A   1      40.110  28.468  27.239  1.00  0.00     0.029 A 
ATOM     44  N   UNL A   1      41.809  27.982  28.555  1.00  0.00    -0.354 N 
ATOM     45  C   UNL A   1      41.480  28.860  32.942  1.00  0.00     0.074 A 
ATOM     46  C   UNL A   1      40.334  27.995  33.044  1.00  0.00     0.031 C 
ATOM     47  C   UNL A   1      40.916  27.625  26.548  1.00  0.00     0.029 A 
ATOM     48  C   UNL A   1      42.074  27.310  27.366  1.00  0.00     0.049 A 
ATOM     49  H   UNL A   1      42.447  27.994  29.306  1.00  0.00     0.167 HD
ATOM     50  C   UNL A   1      42.657  28.889  33.626  1.00  0.00     0.037 A 
ATOM     51  C   UNL A   1      43.176  26.560  27.093  1.00  0.00     0.037 A 
ATOM     52  C   UNL A   1      43.543  29.892  33.077  1.00  0.00     0.049 A 
ATOM     53  C   UNL A   1      44.233  27.009  28.041  1.00  0.00     0.074 A 
ATOM     54  C   UNL A   1      43.466  31.261  32.903  1.00  0.00     0.029 A 
ATOM     55  N   UNL A   1      44.524  29.464  32.213  1.00  0.00    -0.354 N 
ATOM     56  N   UNL A   1      44.757  28.205  28.030  1.00  0.00    -0.248 NA
ATOM     57  C   UNL A   1      44.362  26.286  29.295  1.00  0.00     0.031 C 
ATOM     58  C   UNL A   1      44.046  31.507  31.621  1.00  0.00     0.029 A 
ATOM     59  C   UNL A   1      44.510  30.291  31.115  1.00  0.00     0.049 A 
ATOM     60  H   UNL A   1      45.129  28.700  32.355  1.00  0.00     0.167 HD
ATOM     61  C   UNL A   1      44.880  28.552  29.368  1.00  0.00     0.074 A 
ATOM     62  C   UNL A   1      44.701  27.298  30.099  1.00  0.00     0.031 C 
ATOM     63  C   UNL A   1      44.832  29.859  29.769  1.00  0.00     0.037 A 
BRANCH  50  64
ATOM     64  C   UNL A   1      43.147  27.792  34.535  1.00  0.00     0.058 A 
ATOM     65  C   UNL A   1      43.420  28.095  35.883  1.00  0.00     0.135 A 
ATOM     66  C   UNL A   1      43.601  26.529  34.089  1.00  0.00     0.135 A 
ATOM     67  F   UNL A   1      43.039  29.270  36.410  1.00  0.00    -0.206 F 
ATOM     68  C   UNL A   1      44.149  27.239  36.708  1.00  0.00     0.059 A 
ATOM     69  C   UNL A   1      44.280  25.636  34.911  1.00  0.00     0.059 A 
ATOM     70  F   UNL A   1      43.498  26.140  32.814  1.00  0.00    -0.206 F 
ATOM     71  C   UNL A   1      44.586  26.018  36.206  1.00  0.00     0.060 A 
BRANCH  71  72
ATOM     72  S   UNL A   1      45.616  24.961  37.237  1.00  0.00     0.124 S 
ATOM     73  O   UNL A   1      46.182  24.053  36.246  1.00  0.00    -0.237 OA
ATOM     74  O   UNL A   1      46.541  25.924  37.825  1.00  0.00    -0.237 OA
ATOM     75  O   UNL A   1      44.662  24.366  38.167  1.00  0.00    -0.744 OA
ENDBRANCH  71  72
ENDBRANCH  50  64
BRANCH  51  76
ATOM     76  C   UNL A   1      43.285  25.268  26.359  1.00  0.00     0.058 A 
ATOM     77  C   UNL A   1      44.239  25.094  25.336  1.00  0.00     0.135 A 
ATOM     78  C   UNL A   1      42.698  24.091  26.861  1.00  0.00     0.135 A 
ATOM     79  F   UNL A   1      44.857  26.158  24.802  1.00  0.00    -0.206 F 
ATOM     80  C   UNL A   1      44.643  23.828  24.893  1.00  0.00     0.059 A 
ATOM     81  C   UNL A   1      43.083  22.818  26.434  1.00  0.00     0.059 A 
ATOM     82  F   UNL A   1      41.799  24.142  27.856  1.00  0.00    -0.206 F 
ATOM     83  C   UNL A   1      44.080  22.693  25.472  1.00  0.00     0.060 A 
BRANCH  83  84
ATOM     84  S   UNL A   1      44.740  21.060  25.047  1.00  0.00     0.124 S 
ATOM     85  O   UNL A   1      43.786  20.168  25.695  1.00  0.00    -0.237 OA
ATOM     86  O   UNL A   1      44.701  21.083  23.588  1.00  0.00    -0.237 OA
ATOM     87  O   UNL A   1      46.079  21.073  25.631  1.00  0.00    -0.744 OA
ENDBRANCH  83  84
ENDBRANCH  51  76
BRANCH  63  88
ATOM     88  C   UNL A   1      44.927  30.927  28.701  1.00  0.00     0.058 A 
ATOM     89  C   UNL A   1      46.126  31.391  28.127  1.00  0.00     0.135 A 
ATOM     90  C   UNL A   1      43.735  31.430  28.159  1.00  0.00     0.135 A 
ATOM     91  F   UNL A   1      47.310  30.891  28.502  1.00  0.00    -0.206 F 
ATOM     92  C   UNL A   1      46.142  32.352  27.112  1.00  0.00     0.059 A 
ATOM     93  C   UNL A   1      43.724  32.364  27.124  1.00  0.00     0.059 A 
ATOM     94  F   UNL A   1      42.551  30.986  28.612  1.00  0.00    -0.206 F 
ATOM     95  C   UNL A   1      44.933  32.838  26.620  1.00  0.00     0.060 A 
BRANCH  95  96
ATOM     96  S   UNL A   1      44.951  34.066  25.296  1.00  0.00     0.124 S 
ATOM     97  O   UNL A   1      44.332  33.338  24.192  1.00  0.00    -0.237 OA
ATOM     98  O   UNL A   1      44.158  35.154  25.860  1.00  0.00    -0.237 OA
ATOM     99  O   UNL A   1      46.370  34.365  25.125  1.00  0.00    -0.744 OA
ENDBRANCH  95  96
ENDBRANCH  63  88
ENDBRANCH  37  38
ENDBRANCH  29  32
ENDBRANCH  27  28
ENDBRANCH  26  27
ENDBRANCH   1  26
TORSDOF 18
ENDMDL
MODEL 2
REMARK VINA RESULT:     -12.1      1.348      2.030
REMARK SMILES CC(C)[C@H](NC(=O)Cn1ccc2c(Br)cccc21)C(=O)NCCCCNC(=O)c1ccc(-c2c3nc(c(-c4c(F)cc(S(=O)(=O)[O-])cc4F)c4ccc([nH]4)c(-c4c(F)cc(S(=O)(=O)[O-])cc4F)c4nc(c(-c5c(F)cc(S(=O)(=O)[O-])cc5F)c5ccc2[nH]5)C=C4)C=C3)cc1
REMARK SMILES IDX 23 1 22 2 21 3 19 4 20 5 4 7 2 8 1 9 3 10 5 11 6 12 7 14
REMARK SMILES IDX 8 15 9 16 10 17 18 18 11 19 12 20 17 21 13 22 16 23 14 24
REMARK SMILES IDX 15 25 24 26 25 27 26 28 27 29 28 31 29 32 30 33 94 34 31 35
REMARK SMILES IDX 93 36 32 37 33 38 34 39 87 40 35 41 92 42 86 43 88 44 36 45
REMARK SMILES IDX 91 46 85 47 84 48 37 50 71 51 50 52 70 53 51 54 54 55 69 56
REMARK SMILES IDX 89 57 52 58 53 59 68 61 90 62 55 63 38 64 39 65 48 66 40 67
REMARK SMILES IDX 41 68 47 69 49 70 42 71 43 72 44 73 45 74 46 75 72 76 73 77
REMARK SMILES IDX 82 78 74 79 75 80 81 81 83 82 76 83 77 84 78 85 79 86 80 87
REMARK SMILES IDX 56 88 57 89 66 90 58 91 59 92 65 93 67 94 60 95 61 96 62 97
REMARK SMILES IDX 63 98 64 99
REMARK H PARENT 21 6 5 13 26 30 88 49 54 60
REMARK Flexibility Score: inf
ROOT
ATOM      1  C   UNL A   1      32.436  28.914  26.755  1.00  0.00     0.023 C 
ENDROOT
BRANCH   1   2
ATOM      2  C   UNL A   1      32.285  27.397  26.563  1.00  0.00     0.116 C 
BRANCH   2   3
ATOM      3  N   UNL A   1      30.941  26.868  26.554  1.00  0.00    -0.354 N 
ATOM      4  C   UNL A   1      30.508  25.667  26.057  1.00  0.00     0.242 C 
ATOM      5  O   UNL A   1      29.479  25.207  26.570  1.00  0.00    -0.273 OA
ATOM      6  H   UNL A   1      30.249  27.444  26.954  1.00  0.00     0.163 HD
BRANCH   4   7
ATOM      7  C   UNL A   1      31.241  24.846  24.929  1.00  0.00     0.173 C 
BRANCH   7   8
ATOM      8  C   UNL A   1      31.062  25.334  23.480  1.00  0.00     0.015 C 
ATOM      9  C   UNL A   1      30.672  26.795  23.276  1.00  0.00     0.010 C 
ATOM     10  C   UNL A   1      32.305  25.009  22.637  1.00  0.00     0.010 C 
ENDBRANCH   7   8
BRANCH   7  11
ATOM     11  N   UNL A   1      31.207  23.369  25.110  1.00  0.00    -0.343 N 
ATOM     12  C   UNL A   1      31.980  22.386  25.651  1.00  0.00     0.240 C 
ATOM     13  H   UNL A   1      30.383  22.992  24.727  1.00  0.00     0.164 HD
ATOM     14  O   UNL A   1      31.592  21.234  25.401  1.00  0.00    -0.273 OA
BRANCH  12  15
ATOM     15  C   UNL A   1      33.212  22.571  26.549  1.00  0.00     0.222 C 
BRANCH  15  16
ATOM     16  N   UNL A   1      34.451  22.855  25.835  1.00  0.00    -0.338 N 
ATOM     17  C   UNL A   1      34.974  24.107  25.703  1.00  0.00     0.087 A 
ATOM     18  C   UNL A   1      35.384  21.927  25.394  1.00  0.00     0.050 A 
ATOM     19  C   UNL A   1      36.333  23.925  25.691  1.00  0.00     0.029 A 
ATOM     20  C   UNL A   1      36.627  22.554  25.532  1.00  0.00     0.014 A 
ATOM     21  C   UNL A   1      35.284  20.575  25.034  1.00  0.00     0.027 A 
ATOM     22  C   UNL A   1      37.788  21.755  25.510  1.00  0.00     0.027 A 
ATOM     23  C   UNL A   1      36.473  19.866  24.808  1.00  0.00     0.003 A 
ATOM     24  Br  UNL A   1      39.405  22.344  26.280  1.00  0.00    -0.050 Br
ATOM     25  C   UNL A   1      37.713  20.435  25.075  1.00  0.00     0.016 A 
ENDBRANCH  15  16
ENDBRANCH  12  15
ENDBRANCH   7  11
ENDBRANCH   4   7
ENDBRANCH   2   3
ENDBRANCH   1   2
BRANCH   1  26
ATOM     26  C   UNL A   1      33.621  29.410  27.603  1.00  0.00     0.023 C 
BRANCH  26  27
ATOM     27  C   UNL A   1      34.258  30.740  27.196  1.00  0.00     0.116 C 
BRANCH  27  28
ATOM     28  N   UNL A   1      34.281  31.788  28.217  1.00  0.00    -0.352 N 
ATOM     29  C   UNL A   1      35.029  31.839  29.397  1.00  0.00     0.251 C 
ATOM     30  H   UNL A   1      33.693  32.560  28.052  1.00  0.00     0.163 HD
ATOM     31  O   UNL A   1      34.699  32.601  30.294  1.00  0.00    -0.269 OA
BRANCH  29  32
ATOM     32  C   UNL A   1      36.254  31.006  29.544  1.00  0.00     0.039 A 
ATOM     33  C   UNL A   1      36.254  29.684  30.006  1.00  0.00     0.014 A 
ATOM     34  C   UNL A   1      37.471  31.604  29.276  1.00  0.00     0.014 A 
ATOM     35  C   UNL A   1      37.479  29.012  30.175  1.00  0.00     0.010 A 
ATOM     36  C   UNL A   1      38.652  30.932  29.340  1.00  0.00     0.010 A 
ATOM     37  C   UNL A   1      38.676  29.670  29.871  1.00  0.00    -0.014 A 
BRANCH  37  38
ATOM     38  C   UNL A   1      40.000  29.077  29.880  1.00  0.00     0.031 A 
ATOM     39  C   UNL A   1      40.487  28.792  31.248  1.00  0.00     0.074 A 
ATOM     40  C   UNL A   1      40.571  28.495  28.800  1.00  0.00     0.049 A 
ATOM     41  N   UNL A   1      41.378  29.463  31.894  1.00  0.00    -0.248 NA
ATOM     42  C   UNL A   1      39.789  27.785  32.068  1.00  0.00     0.031 C 
ATOM     43  C   UNL A   1      40.038  28.318  27.443  1.00  0.00     0.029 A 
ATOM     44  N   UNL A   1      41.765  27.851  28.729  1.00  0.00    -0.354 N 
ATOM     45  C   UNL A   1      41.536  28.808  33.106  1.00  0.00     0.074 A 
ATOM     46  C   UNL A   1      40.391  27.948  33.249  1.00  0.00     0.031 C 
ATOM     47  C   UNL A   1      40.827  27.460  26.749  1.00  0.00     0.029 A 
ATOM     48  C   UNL A   1      42.002  27.157  27.547  1.00  0.00     0.049 A 
ATOM     49  H   UNL A   1      42.419  27.874  29.465  1.00  0.00     0.167 HD
ATOM     50  C   UNL A   1      42.728  28.846  33.763  1.00  0.00     0.037 A 
ATOM     51  C   UNL A   1      43.096  26.400  27.263  1.00  0.00     0.037 A 
ATOM     52  C   UNL A   1      43.604  29.837  33.177  1.00  0.00     0.049 A 
ATOM     53  C   UNL A   1      44.174  26.863  28.178  1.00  0.00     0.074 A 
ATOM     54  C   UNL A   1      43.526  31.203  32.979  1.00  0.00     0.029 A 
ATOM     55  N   UNL A   1      44.564  29.391  32.299  1.00  0.00    -0.354 N 
ATOM     56  N   UNL A   1      44.701  28.057  28.135  1.00  0.00    -0.248 NA
ATOM     57  C   UNL A   1      44.330  26.162  29.442  1.00  0.00     0.031 C 
ATOM     58  C   UNL A   1      44.078  31.424  31.681  1.00  0.00     0.029 A 
ATOM     59  C   UNL A   1      44.528  30.198  31.186  1.00  0.00     0.049 A 
ATOM     60  H   UNL A   1      45.171  28.628  32.441  1.00  0.00     0.167 HD
ATOM     61  C   UNL A   1      44.855  28.428  29.463  1.00  0.00     0.074 A 
ATOM     62  C   UNL A   1      44.689  27.187  30.221  1.00  0.00     0.031 C 
ATOM     63  C   UNL A   1      44.819  29.742  29.841  1.00  0.00     0.037 A 
BRANCH  50  64
ATOM     64  C   UNL A   1      43.237  27.764  34.680  1.00  0.00     0.058 A 
ATOM     65  C   UNL A   1      43.530  28.089  36.019  1.00  0.00     0.135 A 
ATOM     66  C   UNL A   1      43.686  26.496  34.246  1.00  0.00     0.135 A 
ATOM     67  F   UNL A   1      43.155  29.270  36.534  1.00  0.00    -0.206 F 
ATOM     68  C   UNL A   1      44.275  27.247  36.844  1.00  0.00     0.059 A 
ATOM     69  C   UNL A   1      44.381  25.618  35.070  1.00  0.00     0.059 A 
ATOM     70  F   UNL A   1      43.563  26.087  32.979  1.00  0.00    -0.206 F 
ATOM     71  C   UNL A   1      44.707  26.019  36.354  1.00  0.00     0.060 A 
BRANCH  71  72
ATOM     72  S   UNL A   1      45.757  24.981  37.384  1.00  0.00     0.124 S 
ATOM     73  O   UNL A   1      46.675  25.964  37.947  1.00  0.00    -0.237 OA
ATOM     74  O   UNL A   1      44.790  24.402  38.312  1.00  0.00    -0.237 OA
ATOM     75  O   UNL A   1      46.341  24.043  36.431  1.00  0.00    -0.744 OA
ENDBRANCH  71  72
ENDBRANCH  50  64
BRANCH  51  76
ATOM     76  C   UNL A   1      43.185  25.094  26.549  1.00  0.00     0.058 A 
ATOM     77  C   UNL A   1      43.923  24.970  25.355  1.00  0.00     0.135 A 
ATOM     78  C   UNL A   1      42.838  23.888  27.187  1.00  0.00     0.135 A 
ATOM     79  F   UNL A   1      44.305  26.067  24.681  1.00  0.00    -0.206 F 
ATOM     80  C   UNL A   1      44.356  23.732  24.865  1.00  0.00     0.059 A 
ATOM     81  C   UNL A   1      43.258  22.642  26.716  1.00  0.00     0.059 A 
ATOM     82  F   UNL A   1      42.161  23.894  28.346  1.00  0.00    -0.206 F 
ATOM     83  C   UNL A   1      44.045  22.573  25.571  1.00  0.00     0.060 A 
BRANCH  83  84
ATOM     84  S   UNL A   1      44.769  20.996  25.054  1.00  0.00     0.124 S 
ATOM     85  O   UNL A   1      44.708  21.096  23.600  1.00  0.00    -0.237 OA
ATOM     86  O   UNL A   1      46.104  21.063  25.641  1.00  0.00    -0.237 OA
ATOM     87  O   UNL A   1      43.880  20.002  25.648  1.00  0.00    -0.744 OA
ENDBRANCH  83  84
ENDBRANCH  51  76
BRANCH  63  88
ATOM     88  C   UNL A   1      44.892  30.790  28.753  1.00  0.00     0.058 A 
ATOM     89  C   UNL A   1      46.074  31.208  28.112  1.00  0.00     0.135 A 
ATOM     90  C   UNL A   1      43.690  31.322  28.262  1.00  0.00     0.135 A 
ATOM     91  F   UNL A   1      47.259  30.677  28.436  1.00  0.00    -0.206 F 
ATOM     92  C   UNL A   1      46.068  32.153  27.082  1.00  0.00     0.059 A 
ATOM     93  C   UNL A   1      43.655  32.240  27.214  1.00  0.00     0.059 A 
ATOM     94  F   UNL A   1      42.517  30.921  28.781  1.00  0.00    -0.206 F 
ATOM     95  C   UNL A   1      44.851  32.669  26.643  1.00  0.00     0.060 A 
BRANCH  95  96
ATOM     96  S   UNL A   1      44.839  33.876  25.299  1.00  0.00     0.124 S 
ATOM     97  O   UNL A   1      44.321  33.090  24.184  1.00  0.00    -0.237 OA
ATOM     98  O   UNL A   1      43.949  34.913  25.811  1.00  0.00    -0.237 OA
ATOM     99  O   UNL A   1      46.240  34.272  25.182  1.00  0.00    -0.744 OA
ENDBRANCH  95  96
ENDBRANCH  63  88
ENDBRANCH  37  38
ENDBRANCH  29  32
ENDBRANCH  27  28
ENDBRANCH  26  27
ENDBRANCH   1  26
TORSDOF 18
ENDMDL
MODEL 3
REMARK VINA RESULT:     -12.0      1.111      1.825
REMARK SMILES CC(C)[C@H](NC(=O)Cn1ccc2c(Br)cccc21)C(=O)NCCCCNC(=O)c1ccc(-c2c3nc(c(-c4c(F)cc(S(=O)(=O)[O-])cc4F)c4ccc([nH]4)c(-c4c(F)cc(S(=O)(=O)[O-])cc4F)c4nc(c(-c5c(F)cc(S(=O)(=O)[O-])cc5F)c5ccc2[nH]5)C=C4)C=C3)cc1
REMARK SMILES IDX 23 1 22 2 21 3 19 4 20 5 4 7 2 8 1 9 3 10 5 11 6 12 7 14
REMARK SMILES IDX 8 15 9 16 10 17 18 18 11 19 12 20 17 21 13 22 16 23 14 24
REMARK SMILES IDX 15 25 24 26 25 27 26 28 27 29 28 31 29 32 30 33 94 34 31 35
REMARK SMILES IDX 93 36 32 37 33 38 34 39 87 40 35 41 92 42 86 43 88 44 36 45
REMARK SMILES IDX 91 46 85 47 84 48 37 50 71 51 50 52 70 53 51 54 54 55 69 56
REMARK SMILES IDX 89 57 52 58 53 59 68 61 90 62 55 63 38 64 39 65 48 66 40 67
REMARK SMILES IDX 41 68 47 69 49 70 42 71 43 72 44 73 45 74 46 75 72 76 73 77
REMARK SMILES IDX 82 78 74 79 75 80 81 81 83 82 76 83 77 84 78 85 79 86 80 87
REMARK SMILES IDX 56 88 57 89 66 90 58 91 59 92 65 93 67 94 60 95 61 96 62 97
REMARK SMILES IDX 63 98 64 99
REMARK H PARENT 21 6 5 13 26 30 88 49 54 60
REMARK Flexibility Score: inf
ROOT
ATOM      1  C   UNL A   1      32.442  30.691  26.903  1.00  0.00     0.023 C 
ENDROOT
BRANCH   1   2
ATOM      2  C   UNL A   1      32.136  30.039  25.547  1.00  0.00     0.116 C 
BRANCH   2   3
ATOM      3  N   UNL A   1      33.267  29.642  24.741  1.00  0.00    -0.354 N 
ATOM      4  C   UNL A   1      33.347  28.610  23.843  1.00  0.00     0.242 C 
ATOM      5  O   UNL A   1      34.181  28.741  22.937  1.00  0.00    -0.273 OA
ATOM      6  H   UNL A   1      34.085  30.181  24.851  1.00  0.00     0.163 HD
BRANCH   4   7
ATOM      7  C   UNL A   1      32.440  27.321  23.877  1.00  0.00     0.173 C 
BRANCH   7   8
ATOM      8  C   UNL A   1      31.243  27.282  22.910  1.00  0.00     0.015 C 
ATOM      9  C   UNL A   1      30.697  28.618  22.417  1.00  0.00     0.010 C 
ATOM     10  C   UNL A   1      31.540  26.371  21.709  1.00  0.00     0.010 C 
ENDBRANCH   7   8
BRANCH   7  11
ATOM     11  N   UNL A   1      32.175  26.782  25.239  1.00  0.00    -0.343 N 
ATOM     12  C   UNL A   1      31.464  25.775  25.821  1.00  0.00     0.240 C 
ATOM     13  H   UNL A   1      32.653  27.308  25.919  1.00  0.00     0.164 HD
ATOM     14  O   UNL A   1      31.419  25.830  27.060  1.00  0.00    -0.273 OA
BRANCH  12  15
ATOM     15  C   UNL A   1      30.784  24.596  25.110  1.00  0.00     0.222 C 
BRANCH  15  16
ATOM     16  N   UNL A   1      31.698  23.576  24.608  1.00  0.00    -0.338 N 
ATOM     17  C   UNL A   1      31.727  23.165  23.309  1.00  0.00     0.087 A 
ATOM     18  C   UNL A   1      32.795  23.048  25.274  1.00  0.00     0.050 A 
ATOM     19  C   UNL A   1      33.039  22.852  23.064  1.00  0.00     0.029 A 
ATOM     20  C   UNL A   1      33.751  22.804  24.282  1.00  0.00     0.014 A 
ATOM     21  C   UNL A   1      33.101  22.897  26.634  1.00  0.00     0.027 A 
ATOM     22  C   UNL A   1      35.091  22.608  24.674  1.00  0.00     0.027 A 
ATOM     23  C   UNL A   1      34.398  22.486  26.975  1.00  0.00     0.003 A 
ATOM     24  Br  UNL A   1      36.519  22.888  23.476  1.00  0.00    -0.050 Br
ATOM     25  C   UNL A   1      35.395  22.375  26.012  1.00  0.00     0.016 A 
ENDBRANCH  15  16
ENDBRANCH  12  15
ENDBRANCH   7  11
ENDBRANCH   4   7
ENDBRANCH   2   3
ENDBRANCH   1   2
BRANCH   1  26
ATOM     26  C   UNL A   1      33.870  30.540  27.460  1.00  0.00     0.023 C 
BRANCH  26  27
ATOM     27  C   UNL A   1      34.679  31.824  27.654  1.00  0.00     0.116 C 
BRANCH  27  28
ATOM     28  N   UNL A   1      34.589  32.456  28.971  1.00  0.00    -0.352 N 
ATOM     29  C   UNL A   1      35.193  32.064  30.168  1.00  0.00     0.251 C 
ATOM     30  H   UNL A   1      34.028  33.263  29.021  1.00  0.00     0.163 HD
ATOM     31  O   UNL A   1      34.764  32.486  31.232  1.00  0.00    -0.269 OA
BRANCH  29  32
ATOM     32  C   UNL A   1      36.387  31.175  30.149  1.00  0.00     0.039 A 
ATOM     33  C   UNL A   1      36.327  29.777  30.213  1.00  0.00     0.014 A 
ATOM     34  C   UNL A   1      37.632  31.776  30.142  1.00  0.00     0.014 A 
ATOM     35  C   UNL A   1      37.522  29.036  30.261  1.00  0.00     0.010 A 
ATOM     36  C   UNL A   1      38.792  31.066  30.087  1.00  0.00     0.010 A 
ATOM     37  C   UNL A   1      38.752  29.705  30.235  1.00  0.00    -0.014 A 
BRANCH  37  38
ATOM     38  C   UNL A   1      40.060  29.082  30.158  1.00  0.00     0.031 A 
ATOM     39  C   UNL A   1      40.626  28.782  31.493  1.00  0.00     0.074 A 
ATOM     40  C   UNL A   1      40.547  28.491  29.044  1.00  0.00     0.049 A 
ATOM     41  N   UNL A   1      41.571  29.430  32.082  1.00  0.00    -0.248 NA
ATOM     42  C   UNL A   1      39.958  27.788  32.353  1.00  0.00     0.031 C 
ATOM     43  C   UNL A   1      39.925  28.331  27.722  1.00  0.00     0.029 A 
ATOM     44  N   UNL A   1      41.720  27.820  28.896  1.00  0.00    -0.354 N 
ATOM     45  C   UNL A   1      41.790  28.768  33.281  1.00  0.00     0.074 A 
ATOM     46  C   UNL A   1      40.637  27.933  33.494  1.00  0.00     0.031 C 
ATOM     47  C   UNL A   1      40.649  27.457  26.979  1.00  0.00     0.029 A 
ATOM     48  C   UNL A   1      41.864  27.124  27.699  1.00  0.00     0.049 A 
ATOM     49  H   UNL A   1      42.419  27.826  29.589  1.00  0.00     0.167 HD
ATOM     50  C   UNL A   1      43.022  28.776  33.860  1.00  0.00     0.037 A 
ATOM     51  C   UNL A   1      42.920  26.343  27.345  1.00  0.00     0.037 A 
ATOM     52  C   UNL A   1      43.881  29.748  33.221  1.00  0.00     0.049 A 
ATOM     53  C   UNL A   1      44.065  26.779  28.191  1.00  0.00     0.074 A 
ATOM     54  C   UNL A   1      43.823  31.117  33.032  1.00  0.00     0.029 A 
ATOM     55  N   UNL A   1      44.774  29.283  32.283  1.00  0.00    -0.354 N 
ATOM     56  N   UNL A   1      44.616  27.961  28.117  1.00  0.00    -0.248 NA
ATOM     57  C   UNL A   1      44.284  26.070  29.441  1.00  0.00     0.031 C 
ATOM     58  C   UNL A   1      44.296  31.329  31.701  1.00  0.00     0.029 A 
ATOM     59  C   UNL A   1      44.685  30.095  31.177  1.00  0.00     0.049 A 
ATOM     60  H   UNL A   1      45.370  28.506  32.385  1.00  0.00     0.167 HD
ATOM     61  C   UNL A   1      44.862  28.323  29.433  1.00  0.00     0.074 A 
ATOM     62  C   UNL A   1      44.716  27.084  30.197  1.00  0.00     0.031 C 
ATOM     63  C   UNL A   1      44.880  29.636  29.815  1.00  0.00     0.037 A 
BRANCH  50  64
ATOM     64  C   UNL A   1      43.563  27.680  34.741  1.00  0.00     0.058 A 
ATOM     65  C   UNL A   1      44.000  28.004  36.041  1.00  0.00     0.135 A 
ATOM     66  C   UNL A   1      43.905  26.386  34.286  1.00  0.00     0.135 A 
ATOM     67  F   UNL A   1      43.734  29.208  36.571  1.00  0.00    -0.206 F 
ATOM     68  C   UNL A   1      44.778  27.134  36.804  1.00  0.00     0.059 A 
ATOM     69  C   UNL A   1      44.632  25.482  35.053  1.00  0.00     0.059 A 
ATOM     70  F   UNL A   1      43.641  25.970  33.043  1.00  0.00    -0.206 F 
ATOM     71  C   UNL A   1      45.100  25.881  36.294  1.00  0.00     0.060 A 
BRANCH  71  72
ATOM     72  S   UNL A   1      46.191  24.802  37.235  1.00  0.00     0.124 S 
ATOM     73  O   UNL A   1      46.449  23.739  36.270  1.00  0.00    -0.237 OA
ATOM     74  O   UNL A   1      47.313  25.688  37.526  1.00  0.00    -0.237 OA
ATOM     75  O   UNL A   1      45.380  24.426  38.388  1.00  0.00    -0.744 OA
ENDBRANCH  71  72
ENDBRANCH  50  64
BRANCH  51  76
ATOM     76  C   UNL A   1      42.934  25.038  26.625  1.00  0.00     0.058 A 
ATOM     77  C   UNL A   1      43.543  24.915  25.360  1.00  0.00     0.135 A 
ATOM     78  C   UNL A   1      42.656  23.832  27.295  1.00  0.00     0.135 A 
ATOM     79  F   UNL A   1      43.852  26.012  24.651  1.00  0.00    -0.206 F 
ATOM     80  C   UNL A   1      43.922  23.678  24.826  1.00  0.00     0.059 A 
ATOM     81  C   UNL A   1      43.023  22.586  26.782  1.00  0.00     0.059 A 
ATOM     82  F   UNL A   1      42.104  23.836  28.518  1.00  0.00    -0.206 F 
ATOM     83  C   UNL A   1      43.686  22.518  25.560  1.00  0.00     0.060 A 
BRANCH  83  84
ATOM     84  S   UNL A   1      44.352  20.941  24.968  1.00  0.00     0.124 S 
ATOM     85  O   UNL A   1      45.615  20.853  25.693  1.00  0.00    -0.237 OA
ATOM     86  O   UNL A   1      43.316  19.997  25.376  1.00  0.00    -0.237 OA
ATOM     87  O   UNL A   1      44.472  21.144  23.527  1.00  0.00    -0.744 OA
ENDBRANCH  83  84
ENDBRANCH  51  76
BRANCH  63  88
ATOM     88  C   UNL A   1      44.908  30.686  28.726  1.00  0.00     0.058 A 
ATOM     89  C   UNL A   1      43.776  31.343  28.208  1.00  0.00     0.135 A 
ATOM     90  C   UNL A   1      46.157  31.123  28.257  1.00  0.00     0.135 A 
ATOM     91  F   UNL A   1      42.549  31.072  28.670  1.00  0.00    -0.206 F 
ATOM     92  C   UNL A   1      43.874  32.336  27.230  1.00  0.00     0.059 A 
ATOM     93  C   UNL A   1      46.282  32.134  27.307  1.00  0.00     0.059 A 
ATOM     94  F   UNL A   1      47.284  30.586  28.753  1.00  0.00    -0.206 F 
ATOM     95  C   UNL A   1      45.135  32.721  26.780  1.00  0.00     0.060 A 
BRANCH  95  96
ATOM     96  S   UNL A   1      45.266  34.018  25.529  1.00  0.00     0.124 S 
ATOM     97  O   UNL A   1      44.628  33.397  24.373  1.00  0.00    -0.237 OA
ATOM     98  O   UNL A   1      44.535  35.124  26.139  1.00  0.00    -0.237 OA
ATOM     99  O   UNL A   1      46.706  34.229  25.404  1.00  0.00    -0.744 OA
ENDBRANCH  95  96
ENDBRANCH  63  88
ENDBRANCH  37  38
ENDBRANCH  29  32
ENDBRANCH  27  28
ENDBRANCH  26  27
ENDBRANCH   1  26
TORSDOF 18
ENDMDL
