MODEL 1
REMARK VINA RESULT:     -11.9      0.000      0.000
REMARK SMILES CC(C)[NH2+][C@]1(C(=O)NCCCCNC(=O)c2ccc(-c3c4nc(c(-c5c(F)cc(S(=O)(=O)[O-])cc5F)c5ccc([nH]5)c(-c5c(F)cc(S(=O)(=O)[O-])cc5F)c5nc(c(-c6c(F)cc(S(=O)(=O)[O-])cc6F)c6ccc3[nH]6)C=C5)C=C4)cc2)CCC[C@@H](Sc2nnnn2C)C1
REMARK SMILES IDX 11 1 10 2 9 3 8 4 6 5 7 6 5 8 82 9 93 10 83 11 85 12 84 13
REMARK SMILES IDX 4 14 2 17 1 18 3 19 86 20 87 21 88 22 91 23 89 24 90 25
REMARK SMILES IDX 92 26 12 27 13 28 14 29 15 31 16 32 17 33 81 34 18 35 80 36
REMARK SMILES IDX 19 37 20 38 21 39 74 40 22 41 79 42 73 43 75 44 23 45 78 46
REMARK SMILES IDX 72 47 71 48 24 50 58 51 37 52 57 53 38 54 41 55 56 56 76 57
REMARK SMILES IDX 39 58 40 59 55 61 77 62 42 63 25 64 26 65 35 66 27 67 28 68
REMARK SMILES IDX 34 69 36 70 29 71 30 72 31 73 32 74 33 75 59 76 60 77 69 78
REMARK SMILES IDX 61 79 62 80 68 81 70 82 63 83 64 84 65 85 66 86 67 87 43 88
REMARK SMILES IDX 44 89 53 90 45 91 46 92 52 93 54 94 47 95 48 96 49 97 50 98
REMARK SMILES IDX 51 99
REMARK H PARENT 8 7 4 15 4 16 13 30 75 49 41 60
REMARK Flexibility Score: inf
ROOT
ATOM      1  C   UNL A   1      37.614  23.835  25.411  1.00  0.00     0.023 C 
ENDROOT
BRANCH   1   2
ATOM      2  C   UNL A   1      36.368  23.016  25.764  1.00  0.00     0.023 C 
BRANCH   2   3
ATOM      3  C   UNL A   1      35.063  23.807  25.682  1.00  0.00     0.116 C 
BRANCH   3   4
ATOM      4  N   UNL A   1      34.775  24.172  24.314  1.00  0.00    -0.351 N 
ATOM      5  C   UNL A   1      33.725  24.815  23.749  1.00  0.00     0.281 C 
ATOM      6  O   UNL A   1      33.787  24.942  22.516  1.00  0.00    -0.268 OA
ATOM      7  H   UNL A   1      35.472  23.903  23.672  1.00  0.00     0.163 HD
BRANCH   5   8
ATOM      8  C   UNL A   1      32.570  25.541  24.542  1.00  0.00     0.176 C 
ATOM      9  C   UNL A   1      32.858  26.206  25.905  1.00  0.00     0.079 C 
ATOM     10  C   UNL A   1      32.130  26.648  23.549  1.00  0.00     0.094 C 
ATOM     11  C   UNL A   1      31.676  27.038  26.427  1.00  0.00     0.008 C 
ATOM     12  C   UNL A   1      31.000  27.548  24.050  1.00  0.00     0.061 C 
ATOM     13  C   UNL A   1      31.299  28.136  25.432  1.00  0.00     0.015 C 
BRANCH   8  14
ATOM     14  N   UNL A   1      31.441  24.558  24.660  1.00  0.00    -0.332 N 
ATOM     15  H   UNL A   1      30.590  25.089  24.846  1.00  0.00     0.347 HD
ATOM     16  H   UNL A   1      31.444  24.046  23.778  1.00  0.00     0.347 HD
BRANCH  14  17
ATOM     17  C   UNL A   1      31.557  23.521  25.706  1.00  0.00     0.176 C 
ATOM     18  C   UNL A   1      30.278  23.568  26.548  1.00  0.00     0.075 C 
ATOM     19  C   UNL A   1      31.765  22.090  25.200  1.00  0.00     0.075 C 
ENDBRANCH  14  17
ENDBRANCH   8  14
BRANCH  12  20
ATOM     20  S   UNL A   1      30.609  28.833  22.792  1.00  0.00    -0.081 SA
BRANCH  20  21
ATOM     21  C   UNL A   1      28.925  29.127  23.043  1.00  0.00     0.209 A 
ATOM     22  N   UNL A   1      27.979  28.217  23.027  1.00  0.00    -0.102 NA
ATOM     23  N   UNL A   1      28.352  30.346  23.269  1.00  0.00    -0.224 N 
ATOM     24  N   UNL A   1      26.806  28.890  23.274  1.00  0.00    -0.023 NA
ATOM     25  N   UNL A   1      27.027  30.187  23.439  1.00  0.00    -0.045 NA
ATOM     26  C   UNL A   1      28.927  31.654  23.417  1.00  0.00     0.179 C 
ENDBRANCH  20  21
ENDBRANCH  12  20
ENDBRANCH   5   8
ENDBRANCH   3   4
ENDBRANCH   2   3
ENDBRANCH   1   2
BRANCH   1  27
ATOM     27  C   UNL A   1      38.513  24.179  26.595  1.00  0.00     0.116 C 
BRANCH  27  28
ATOM     28  N   UNL A   1      39.922  23.915  26.339  1.00  0.00    -0.352 N 
ATOM     29  C   UNL A   1      41.015  24.605  26.801  1.00  0.00     0.251 C 
ATOM     30  H   UNL A   1      40.115  23.142  25.760  1.00  0.00     0.163 HD
ATOM     31  O   UNL A   1      42.135  24.325  26.402  1.00  0.00    -0.269 OA
BRANCH  29  32
ATOM     32  C   UNL A   1      40.810  25.721  27.747  1.00  0.00     0.039 A 
ATOM     33  C   UNL A   1      39.733  25.658  28.635  1.00  0.00     0.014 A 
ATOM     34  C   UNL A   1      41.699  26.799  27.782  1.00  0.00     0.014 A 
ATOM     35  C   UNL A   1      39.586  26.649  29.606  1.00  0.00     0.010 A 
ATOM     36  C   UNL A   1      41.586  27.750  28.790  1.00  0.00     0.010 A 
ATOM     37  C   UNL A   1      40.531  27.682  29.714  1.00  0.00    -0.014 A 
BRANCH  37  38
ATOM     38  C   UNL A   1      40.439  28.695  30.792  1.00  0.00     0.031 A 
ATOM     39  C   UNL A   1      41.329  28.597  31.998  1.00  0.00     0.074 A 
ATOM     40  C   UNL A   1      39.502  29.660  30.715  1.00  0.00     0.049 A 
ATOM     41  N   UNL A   1      41.353  29.345  33.070  1.00  0.00    -0.248 NA
ATOM     42  C   UNL A   1      42.302  27.492  32.015  1.00  0.00     0.031 C 
ATOM     43  C   UNL A   1      38.546  29.826  29.617  1.00  0.00     0.029 A 
ATOM     44  N   UNL A   1      39.192  30.678  31.581  1.00  0.00    -0.354 N 
ATOM     45  C   UNL A   1      42.320  28.791  33.898  1.00  0.00     0.074 A 
ATOM     46  C   UNL A   1      42.833  27.618  33.222  1.00  0.00     0.031 C 
ATOM     47  C   UNL A   1      37.777  30.900  29.863  1.00  0.00     0.029 A 
ATOM     48  C   UNL A   1      38.160  31.476  31.147  1.00  0.00     0.049 A 
ATOM     49  H   UNL A   1      39.664  30.823  32.432  1.00  0.00     0.167 HD
ATOM     50  C   UNL A   1      42.755  29.230  35.103  1.00  0.00     0.037 A 
ATOM     51  C   UNL A   1      37.590  32.553  31.721  1.00  0.00     0.037 A 
ATOM     52  C   UNL A   1      42.269  30.421  35.749  1.00  0.00     0.049 A 
ATOM     53  C   UNL A   1      38.104  33.034  33.050  1.00  0.00     0.074 A 
ATOM     54  C   UNL A   1      42.703  31.000  36.928  1.00  0.00     0.029 A 
ATOM     55  N   UNL A   1      41.238  31.215  35.269  1.00  0.00    -0.354 N 
ATOM     56  N   UNL A   1      39.070  32.540  33.786  1.00  0.00    -0.248 NA
ATOM     57  C   UNL A   1      37.454  34.220  33.623  1.00  0.00     0.031 C 
ATOM     58  C   UNL A   1      41.912  32.125  37.180  1.00  0.00     0.029 A 
ATOM     59  C   UNL A   1      41.008  32.268  36.139  1.00  0.00     0.049 A 
ATOM     60  H   UNL A   1      40.742  31.055  34.434  1.00  0.00     0.167 HD
ATOM     61  C   UNL A   1      39.163  33.370  34.897  1.00  0.00     0.074 A 
ATOM     62  C   UNL A   1      38.158  34.401  34.733  1.00  0.00     0.031 C 
ATOM     63  C   UNL A   1      40.007  33.289  35.956  1.00  0.00     0.037 A 
BRANCH  50  64
ATOM     64  C   UNL A   1      43.809  28.414  35.799  1.00  0.00     0.058 A 
ATOM     65  C   UNL A   1      43.474  27.388  36.696  1.00  0.00     0.135 A 
ATOM     66  C   UNL A   1      45.170  28.658  35.560  1.00  0.00     0.135 A 
ATOM     67  F   UNL A   1      42.187  27.125  36.973  1.00  0.00    -0.206 F 
ATOM     68  C   UNL A   1      44.453  26.655  37.358  1.00  0.00     0.059 A 
ATOM     69  C   UNL A   1      46.165  27.919  36.192  1.00  0.00     0.059 A 
ATOM     70  F   UNL A   1      45.545  29.629  34.711  1.00  0.00    -0.206 F 
ATOM     71  C   UNL A   1      45.795  26.933  37.105  1.00  0.00     0.060 A 
BRANCH  71  72
ATOM     72  S   UNL A   1      47.058  25.985  37.984  1.00  0.00     0.124 S 
ATOM     73  O   UNL A   1      46.959  26.549  39.326  1.00  0.00    -0.237 OA
ATOM     74  O   UNL A   1      46.581  24.614  37.836  1.00  0.00    -0.237 OA
ATOM     75  O   UNL A   1      48.284  26.301  37.259  1.00  0.00    -0.744 OA
ENDBRANCH  71  72
ENDBRANCH  50  64
BRANCH  51  76
ATOM     76  C   UNL A   1      36.497  33.275  31.019  1.00  0.00     0.058 A 
ATOM     77  C   UNL A   1      36.762  34.019  29.860  1.00  0.00     0.135 A 
ATOM     78  C   UNL A   1      35.171  33.219  31.474  1.00  0.00     0.135 A 
ATOM     79  F   UNL A   1      38.017  34.103  29.391  1.00  0.00    -0.206 F 
ATOM     80  C   UNL A   1      35.754  34.690  29.179  1.00  0.00     0.059 A 
ATOM     81  C   UNL A   1      34.141  33.868  30.798  1.00  0.00     0.059 A 
ATOM     82  F   UNL A   1      34.865  32.507  32.569  1.00  0.00    -0.206 F 
ATOM     83  C   UNL A   1      34.445  34.608  29.655  1.00  0.00     0.060 A 
BRANCH  83  84
ATOM     84  S   UNL A   1      33.132  35.435  28.731  1.00  0.00     0.124 S 
ATOM     85  O   UNL A   1      33.894  36.375  27.917  1.00  0.00    -0.237 OA
ATOM     86  O   UNL A   1      32.513  34.324  28.015  1.00  0.00    -0.237 OA
ATOM     87  O   UNL A   1      32.308  36.029  29.780  1.00  0.00    -0.744 OA
ENDBRANCH  83  84
ENDBRANCH  51  76
BRANCH  63  88
ATOM     88  C   UNL A   1      39.901  34.359  37.003  1.00  0.00     0.058 A 
ATOM     89  C   UNL A   1      40.673  35.529  36.940  1.00  0.00     0.135 A 
ATOM     90  C   UNL A   1      38.980  34.234  38.056  1.00  0.00     0.135 A 
ATOM     91  F   UNL A   1      41.573  35.692  35.958  1.00  0.00    -0.206 F 
ATOM     92  C   UNL A   1      40.548  36.533  37.894  1.00  0.00     0.059 A 
ATOM     93  C   UNL A   1      38.820  35.236  39.008  1.00  0.00     0.059 A 
ATOM     94  F   UNL A   1      38.212  33.138  38.155  1.00  0.00    -0.206 F 
ATOM     95  C   UNL A   1      39.618  36.378  38.924  1.00  0.00     0.060 A 
BRANCH  95  96
ATOM     96  S   UNL A   1      39.435  37.703  40.137  1.00  0.00     0.124 S 
ATOM     97  O   UNL A   1      38.233  38.376  39.657  1.00  0.00    -0.237 OA
ATOM     98  O   UNL A   1      39.290  36.965  41.389  1.00  0.00    -0.237 OA
ATOM     99  O   UNL A   1      40.676  38.459  40.003  1.00  0.00    -0.744 OA
ENDBRANCH  95  96
ENDBRANCH  63  88
ENDBRANCH  37  38
ENDBRANCH  29  32
ENDBRANCH  27  28
ENDBRANCH   1  27
TORSDOF 18
ENDMDL
MODEL 2
REMARK VINA RESULT:     -11.8      5.114     10.783
REMARK SMILES CC(C)[NH2+][C@]1(C(=O)NCCCCNC(=O)c2ccc(-c3c4nc(c(-c5c(F)cc(S(=O)(=O)[O-])cc5F)c5ccc([nH]5)c(-c5c(F)cc(S(=O)(=O)[O-])cc5F)c5nc(c(-c6c(F)cc(S(=O)(=O)[O-])cc6F)c6ccc3[nH]6)C=C5)C=C4)cc2)CCC[C@@H](Sc2nnnn2C)C1
REMARK SMILES IDX 11 1 10 2 9 3 8 4 6 5 7 6 5 8 82 9 93 10 83 11 85 12 84 13
REMARK SMILES IDX 4 14 2 17 1 18 3 19 86 20 87 21 88 22 91 23 89 24 90 25
REMARK SMILES IDX 92 26 12 27 13 28 14 29 15 31 16 32 17 33 81 34 18 35 80 36
REMARK SMILES IDX 19 37 20 38 21 39 74 40 22 41 79 42 73 43 75 44 23 45 78 46
REMARK SMILES IDX 72 47 71 48 24 50 58 51 37 52 57 53 38 54 41 55 56 56 76 57
REMARK SMILES IDX 39 58 40 59 55 61 77 62 42 63 25 64 26 65 35 66 27 67 28 68
REMARK SMILES IDX 34 69 36 70 29 71 30 72 31 73 32 74 33 75 59 76 60 77 69 78
REMARK SMILES IDX 61 79 62 80 68 81 70 82 63 83 64 84 65 85 66 86 67 87 43 88
REMARK SMILES IDX 44 89 53 90 45 91 46 92 52 93 54 94 47 95 48 96 49 97 50 98
REMARK SMILES IDX 51 99
REMARK H PARENT 8 7 4 15 4 16 13 30 75 49 41 60
REMARK Flexibility Score: inf
ROOT
ATOM      1  C   UNL A   1      32.879  27.499  26.800  1.00  0.00     0.023 C 
ENDROOT
BRANCH   1   2
ATOM      2  C   UNL A   1      31.522  27.779  26.143  1.00  0.00     0.023 C 
BRANCH   2   3
ATOM      3  C   UNL A   1      30.952  26.592  25.369  1.00  0.00     0.116 C 
BRANCH   3   4
ATOM      4  N   UNL A   1      30.632  25.506  26.265  1.00  0.00    -0.351 N 
ATOM      5  C   UNL A   1      31.021  24.209  26.293  1.00  0.00     0.281 C 
ATOM      6  O   UNL A   1      30.524  23.530  27.206  1.00  0.00    -0.268 OA
ATOM      7  H   UNL A   1      30.016  25.755  26.991  1.00  0.00     0.163 HD
BRANCH   5   8
ATOM      8  C   UNL A   1      32.153  23.580  25.392  1.00  0.00     0.176 C 
ATOM      9  C   UNL A   1      33.621  24.028  25.558  1.00  0.00     0.079 C 
ATOM     10  C   UNL A   1      32.066  22.073  25.753  1.00  0.00     0.094 C 
ATOM     11  C   UNL A   1      34.605  23.165  24.753  1.00  0.00     0.008 C 
ATOM     12  C   UNL A   1      33.073  21.180  25.027  1.00  0.00     0.061 C 
ATOM     13  C   UNL A   1      34.507  21.696  25.164  1.00  0.00     0.015 C 
BRANCH   8  14
ATOM     14  N   UNL A   1      31.709  23.734  23.967  1.00  0.00    -0.332 N 
ATOM     15  H   UNL A   1      31.499  22.802  23.608  1.00  0.00     0.347 HD
ATOM     16  H   UNL A   1      30.913  24.369  24.005  1.00  0.00     0.347 HD
BRANCH  14  17
ATOM     17  C   UNL A   1      32.660  24.367  23.030  1.00  0.00     0.176 C 
ATOM     18  C   UNL A   1      33.011  23.333  21.956  1.00  0.00     0.075 C 
ATOM     19  C   UNL A   1      32.162  25.644  22.344  1.00  0.00     0.075 C 
ENDBRANCH  14  17
ENDBRANCH   8  14
BRANCH  12  20
ATOM     20  S   UNL A   1      32.882  19.434  25.578  1.00  0.00    -0.081 SA
BRANCH  20  21
ATOM     21  C   UNL A   1      32.939  18.548  24.096  1.00  0.00     0.209 A 
ATOM     22  N   UNL A   1      32.208  18.787  23.032  1.00  0.00    -0.102 NA
ATOM     23  N   UNL A   1      33.737  17.468  23.842  1.00  0.00    -0.224 N 
ATOM     24  N   UNL A   1      32.584  17.851  22.099  1.00  0.00    -0.023 NA
ATOM     25  N   UNL A   1      33.528  17.052  22.579  1.00  0.00    -0.045 NA
ATOM     26  C   UNL A   1      34.739  16.818  24.638  1.00  0.00     0.179 C 
ENDBRANCH  20  21
ENDBRANCH  12  20
ENDBRANCH   5   8
ENDBRANCH   3   4
ENDBRANCH   2   3
ENDBRANCH   1   2
BRANCH   1  27
ATOM     27  C   UNL A   1      33.962  28.530  26.500  1.00  0.00     0.116 C 
BRANCH  27  28
ATOM     28  N   UNL A   1      33.733  29.809  27.157  1.00  0.00    -0.352 N 
ATOM     29  C   UNL A   1      34.579  30.505  27.983  1.00  0.00     0.251 C 
ATOM     30  H   UNL A   1      32.858  30.228  26.988  1.00  0.00     0.163 HD
ATOM     31  O   UNL A   1      34.195  31.516  28.551  1.00  0.00    -0.269 OA
BRANCH  29  32
ATOM     32  C   UNL A   1      35.945  29.986  28.213  1.00  0.00     0.039 A 
ATOM     33  C   UNL A   1      36.885  30.098  27.186  1.00  0.00     0.014 A 
ATOM     34  C   UNL A   1      36.299  29.432  29.446  1.00  0.00     0.014 A 
ATOM     35  C   UNL A   1      38.205  29.712  27.420  1.00  0.00     0.010 A 
ATOM     36  C   UNL A   1      37.628  29.108  29.696  1.00  0.00     0.010 A 
ATOM     37  C   UNL A   1      38.594  29.248  28.688  1.00  0.00    -0.014 A 
BRANCH  37  38
ATOM     38  C   UNL A   1      40.008  28.914  28.981  1.00  0.00     0.031 A 
ATOM     39  C   UNL A   1      40.913  29.941  29.600  1.00  0.00     0.074 A 
ATOM     40  C   UNL A   1      40.491  27.709  28.620  1.00  0.00     0.049 A 
ATOM     41  N   UNL A   1      42.190  29.860  29.870  1.00  0.00    -0.248 NA
ATOM     42  C   UNL A   1      40.310  31.242  29.931  1.00  0.00     0.031 C 
ATOM     43  C   UNL A   1      39.721  26.649  27.965  1.00  0.00     0.029 A 
ATOM     44  N   UNL A   1      41.750  27.176  28.744  1.00  0.00    -0.354 N 
ATOM     45  C   UNL A   1      42.549  31.101  30.379  1.00  0.00     0.074 A 
ATOM     46  C   UNL A   1      41.364  31.932  30.341  1.00  0.00     0.031 C 
ATOM     47  C   UNL A   1      40.516  25.583  27.772  1.00  0.00     0.029 A 
ATOM     48  C   UNL A   1      41.856  25.895  28.257  1.00  0.00     0.049 A 
ATOM     49  H   UNL A   1      42.504  27.665  29.145  1.00  0.00     0.167 HD
ATOM     50  C   UNL A   1      43.752  31.507  30.851  1.00  0.00     0.037 A 
ATOM     51  C   UNL A   1      42.917  25.066  28.208  1.00  0.00     0.037 A 
ATOM     52  C   UNL A   1      44.915  30.661  30.924  1.00  0.00     0.049 A 
ATOM     53  C   UNL A   1      44.237  25.531  28.758  1.00  0.00     0.074 A 
ATOM     54  C   UNL A   1      46.155  30.947  31.464  1.00  0.00     0.029 A 
ATOM     55  N   UNL A   1      44.979  29.362  30.439  1.00  0.00    -0.354 N 
ATOM     56  N   UNL A   1      44.541  26.685  29.303  1.00  0.00    -0.248 NA
ATOM     57  C   UNL A   1      45.355  24.581  28.691  1.00  0.00     0.031 C 
ATOM     58  C   UNL A   1      46.981  29.834  31.275  1.00  0.00     0.029 A 
ATOM     59  C   UNL A   1      46.244  28.841  30.650  1.00  0.00     0.049 A 
ATOM     60  H   UNL A   1      44.235  28.882  30.008  1.00  0.00     0.167 HD
ATOM     61  C   UNL A   1      45.878  26.591  29.669  1.00  0.00     0.074 A 
ATOM     62  C   UNL A   1      46.323  25.265  29.288  1.00  0.00     0.031 C 
ATOM     63  C   UNL A   1      46.667  27.517  30.269  1.00  0.00     0.037 A 
BRANCH  50  64
ATOM     64  C   UNL A   1      43.867  32.929  31.325  1.00  0.00     0.058 A 
ATOM     65  C   UNL A   1      43.626  33.283  32.661  1.00  0.00     0.135 A 
ATOM     66  C   UNL A   1      44.234  33.948  30.432  1.00  0.00     0.135 A 
ATOM     67  F   UNL A   1      43.257  32.349  33.552  1.00  0.00    -0.206 F 
ATOM     68  C   UNL A   1      43.707  34.604  33.088  1.00  0.00     0.059 A 
ATOM     69  C   UNL A   1      44.346  35.272  30.844  1.00  0.00     0.059 A 
ATOM     70  F   UNL A   1      44.476  33.663  29.142  1.00  0.00    -0.206 F 
ATOM     71  C   UNL A   1      44.061  35.592  32.171  1.00  0.00     0.060 A 
BRANCH  71  72
ATOM     72  S   UNL A   1      44.149  37.307  32.733  1.00  0.00     0.124 S 
ATOM     73  O   UNL A   1      43.044  37.353  33.687  1.00  0.00    -0.237 OA
ATOM     74  O   UNL A   1      45.486  37.380  33.310  1.00  0.00    -0.237 OA
ATOM     75  O   UNL A   1      43.954  38.075  31.509  1.00  0.00    -0.744 OA
ENDBRANCH  71  72
ENDBRANCH  50  64
BRANCH  51  76
ATOM     76  C   UNL A   1      42.761  23.695  27.656  1.00  0.00     0.058 A 
ATOM     77  C   UNL A   1      42.512  22.608  28.507  1.00  0.00     0.135 A 
ATOM     78  C   UNL A   1      42.832  23.447  26.277  1.00  0.00     0.135 A 
ATOM     79  F   UNL A   1      42.440  22.798  29.834  1.00  0.00    -0.206 F 
ATOM     80  C   UNL A   1      42.349  21.319  28.013  1.00  0.00     0.059 A 
ATOM     81  C   UNL A   1      42.652  22.168  25.757  1.00  0.00     0.059 A 
ATOM     82  F   UNL A   1      43.051  24.458  25.422  1.00  0.00    -0.206 F 
ATOM     83  C   UNL A   1      42.419  21.109  26.635  1.00  0.00     0.060 A 
BRANCH  83  84
ATOM     84  S   UNL A   1      42.147  19.442  25.996  1.00  0.00     0.124 S 
ATOM     85  O   UNL A   1      40.707  19.447  25.767  1.00  0.00    -0.237 OA
ATOM     86  O   UNL A   1      42.985  19.430  24.801  1.00  0.00    -0.237 OA
ATOM     87  O   UNL A   1      42.611  18.587  27.085  1.00  0.00    -0.744 OA
ENDBRANCH  83  84
ENDBRANCH  51  76
BRANCH  63  88
ATOM     88  C   UNL A   1      48.081  27.119  30.580  1.00  0.00     0.058 A 
ATOM     89  C   UNL A   1      49.143  27.453  29.726  1.00  0.00     0.135 A 
ATOM     90  C   UNL A   1      48.383  26.440  31.771  1.00  0.00     0.135 A 
ATOM     91  F   UNL A   1      48.905  28.095  28.571  1.00  0.00    -0.206 F 
ATOM     92  C   UNL A   1      50.455  27.112  30.034  1.00  0.00     0.059 A 
ATOM     93  C   UNL A   1      49.691  26.110  32.111  1.00  0.00     0.059 A 
ATOM     94  F   UNL A   1      47.403  26.106  32.625  1.00  0.00    -0.206 F 
ATOM     95  C   UNL A   1      50.720  26.442  31.230  1.00  0.00     0.060 A 
BRANCH  95  96
ATOM     96  S   UNL A   1      52.431  26.037  31.640  1.00  0.00     0.124 S 
ATOM     97  O   UNL A   1      52.775  27.115  32.561  1.00  0.00    -0.237 OA
ATOM     98  O   UNL A   1      52.306  24.710  32.236  1.00  0.00    -0.237 OA
ATOM     99  O   UNL A   1      53.107  26.074  30.346  1.00  0.00    -0.744 OA
ENDBRANCH  95  96
ENDBRANCH  63  88
ENDBRANCH  37  38
ENDBRANCH  29  32
ENDBRANCH  27  28
ENDBRANCH   1  27
TORSDOF 18
ENDMDL
MODEL 3
REMARK VINA RESULT:     -11.8      6.825     12.235
REMARK SMILES CC(C)[NH2+][C@]1(C(=O)NCCCCNC(=O)c2ccc(-c3c4nc(c(-c5c(F)cc(S(=O)(=O)[O-])cc5F)c5ccc([nH]5)c(-c5c(F)cc(S(=O)(=O)[O-])cc5F)c5nc(c(-c6c(F)cc(S(=O)(=O)[O-])cc6F)c6ccc3[nH]6)C=C5)C=C4)cc2)CCC[C@@H](Sc2nnnn2C)C1
REMARK SMILES IDX 11 1 10 2 9 3 8 4 6 5 7 6 5 8 82 9 93 10 83 11 85 12 84 13
REMARK SMILES IDX 4 14 2 17 1 18 3 19 86 20 87 21 88 22 91 23 89 24 90 25
REMARK SMILES IDX 92 26 12 27 13 28 14 29 15 31 16 32 17 33 81 34 18 35 80 36
REMARK SMILES IDX 19 37 20 38 21 39 74 40 22 41 79 42 73 43 75 44 23 45 78 46
REMARK SMILES IDX 72 47 71 48 24 50 58 51 37 52 57 53 38 54 41 55 56 56 76 57
REMARK SMILES IDX 39 58 40 59 55 61 77 62 42 63 25 64 26 65 35 66 27 67 28 68
REMARK SMILES IDX 34 69 36 70 29 71 30 72 31 73 32 74 33 75 59 76 60 77 69 78
REMARK SMILES IDX 61 79 62 80 68 81 70 82 63 83 64 84 65 85 66 86 67 87 43 88
REMARK SMILES IDX 44 89 53 90 45 91 46 92 52 93 54 94 47 95 48 96 49 97 50 98
REMARK SMILES IDX 51 99
REMARK H PARENT 8 7 4 15 4 16 13 30 75 49 41 60
REMARK Flexibility Score: inf
ROOT
ATOM      1  C   UNL A   1      34.207  29.333  26.748  1.00  0.00     0.023 C 
ENDROOT
BRANCH   1   2
ATOM      2  C   UNL A   1      33.114  28.312  27.085  1.00  0.00     0.023 C 
BRANCH   2   3
ATOM      3  C   UNL A   1      33.265  26.979  26.355  1.00  0.00     0.116 C 
BRANCH   3   4
ATOM      4  N   UNL A   1      32.321  26.011  26.861  1.00  0.00    -0.351 N 
ATOM      5  C   UNL A   1      31.917  24.806  26.392  1.00  0.00     0.281 C 
ATOM      6  O   UNL A   1      31.052  24.237  27.077  1.00  0.00    -0.268 OA
ATOM      7  H   UNL A   1      31.889  26.276  27.706  1.00  0.00     0.163 HD
BRANCH   5   8
ATOM      8  C   UNL A   1      32.577  24.033  25.185  1.00  0.00     0.176 C 
ATOM      9  C   UNL A   1      34.032  24.337  24.767  1.00  0.00     0.079 C 
ATOM     10  C   UNL A   1      32.511  22.557  25.660  1.00  0.00     0.094 C 
ATOM     11  C   UNL A   1      34.572  23.350  23.720  1.00  0.00     0.008 C 
ATOM     12  C   UNL A   1      33.099  21.541  24.681  1.00  0.00     0.061 C 
ATOM     13  C   UNL A   1      34.518  21.914  24.242  1.00  0.00     0.015 C 
BRANCH   8  14
ATOM     14  N   UNL A   1      31.647  24.178  24.016  1.00  0.00    -0.332 N 
ATOM     15  H   UNL A   1      32.042  23.646  23.241  1.00  0.00     0.347 HD
ATOM     16  H   UNL A   1      30.745  23.843  24.353  1.00  0.00     0.347 HD
BRANCH  14  17
ATOM     17  C   UNL A   1      31.388  25.548  23.528  1.00  0.00     0.176 C 
ATOM     18  C   UNL A   1      31.752  25.586  22.040  1.00  0.00     0.075 C 
ATOM     19  C   UNL A   1      29.952  26.053  23.700  1.00  0.00     0.075 C 
ENDBRANCH  14  17
ENDBRANCH   8  14
BRANCH  12  20
ATOM     20  S   UNL A   1      32.988  19.844  25.386  1.00  0.00    -0.081 SA
BRANCH  20  21
ATOM     21  C   UNL A   1      32.928  18.840  23.983  1.00  0.00     0.209 A 
ATOM     22  N   UNL A   1      32.161  19.034  22.935  1.00  0.00    -0.102 NA
ATOM     23  N   UNL A   1      33.652  17.699  23.786  1.00  0.00    -0.224 N 
ATOM     24  N   UNL A   1      32.441  18.005  22.067  1.00  0.00    -0.023 NA
ATOM     25  N   UNL A   1      33.362  17.195  22.572  1.00  0.00    -0.045 NA
ATOM     26  C   UNL A   1      34.654  17.057  24.590  1.00  0.00     0.179 C 
ENDBRANCH  20  21
ENDBRANCH  12  20
ENDBRANCH   5   8
ENDBRANCH   3   4
ENDBRANCH   2   3
ENDBRANCH   1   2
BRANCH   1  27
ATOM     27  C   UNL A   1      35.442  29.269  27.640  1.00  0.00     0.116 C 
BRANCH  27  28
ATOM     28  N   UNL A   1      35.256  29.928  28.924  1.00  0.00    -0.352 N 
ATOM     29  C   UNL A   1      36.207  30.261  29.856  1.00  0.00     0.251 C 
ATOM     30  H   UNL A   1      34.328  30.164  29.155  1.00  0.00     0.163 HD
ATOM     31  O   UNL A   1      35.876  30.711  30.943  1.00  0.00    -0.269 OA
BRANCH  29  32
ATOM     32  C   UNL A   1      37.631  30.021  29.544  1.00  0.00     0.039 A 
ATOM     33  C   UNL A   1      38.499  29.694  30.588  1.00  0.00     0.014 A 
ATOM     34  C   UNL A   1      38.092  30.078  28.226  1.00  0.00     0.014 A 
ATOM     35  C   UNL A   1      39.823  29.360  30.299  1.00  0.00     0.010 A 
ATOM     36  C   UNL A   1      39.393  29.683  27.936  1.00  0.00     0.010 A 
ATOM     37  C   UNL A   1      40.270  29.316  28.969  1.00  0.00    -0.014 A 
BRANCH  37  38
ATOM     38  C   UNL A   1      41.647  28.881  28.636  1.00  0.00     0.031 A 
ATOM     39  C   UNL A   1      42.772  29.877  28.626  1.00  0.00     0.074 A 
ATOM     40  C   UNL A   1      41.867  27.603  28.271  1.00  0.00     0.049 A 
ATOM     41  N   UNL A   1      44.025  29.704  28.299  1.00  0.00    -0.248 NA
ATOM     42  C   UNL A   1      42.436  31.260  29.005  1.00  0.00     0.031 C 
ATOM     43  C   UNL A   1      40.845  26.556  28.194  1.00  0.00     0.029 A 
ATOM     44  N   UNL A   1      43.022  26.967  27.889  1.00  0.00    -0.354 N 
ATOM     45  C   UNL A   1      44.622  30.953  28.408  1.00  0.00     0.074 A 
ATOM     46  C   UNL A   1      43.583  31.886  28.792  1.00  0.00     0.031 C 
ATOM     47  C   UNL A   1      41.424  25.404  27.816  1.00  0.00     0.029 A 
ATOM     48  C   UNL A   1      42.846  25.636  27.593  1.00  0.00     0.049 A 
ATOM     49  H   UNL A   1      43.893  27.422  27.832  1.00  0.00     0.167 HD
ATOM     50  C   UNL A   1      45.921  31.290  28.223  1.00  0.00     0.037 A 
ATOM     51  C   UNL A   1      43.735  24.708  27.190  1.00  0.00     0.037 A 
ATOM     52  C   UNL A   1      46.956  30.349  27.882  1.00  0.00     0.049 A 
ATOM     53  C   UNL A   1      45.176  25.101  27.012  1.00  0.00     0.074 A 
ATOM     54  C   UNL A   1      48.315  30.572  27.757  1.00  0.00     0.029 A 
ATOM     55  N   UNL A   1      46.743  29.005  27.611  1.00  0.00    -0.354 N 
ATOM     56  N   UNL A   1      45.738  26.273  27.190  1.00  0.00    -0.248 NA
ATOM     57  C   UNL A   1      46.104  24.046  26.583  1.00  0.00     0.031 C 
ATOM     58  C   UNL A   1      48.922  29.370  27.376  1.00  0.00     0.029 A 
ATOM     59  C   UNL A   1      47.945  28.390  27.300  1.00  0.00     0.049 A 
ATOM     60  H   UNL A   1      45.869  28.554  27.636  1.00  0.00     0.167 HD
ATOM     61  C   UNL A   1      47.089  26.091  26.922  1.00  0.00     0.074 A 
ATOM     62  C   UNL A   1      47.261  24.694  26.574  1.00  0.00     0.031 C 
ATOM     63  C   UNL A   1      48.097  26.997  26.963  1.00  0.00     0.037 A 
BRANCH  50  64
ATOM     64  C   UNL A   1      46.292  32.738  28.385  1.00  0.00     0.058 A 
ATOM     65  C   UNL A   1      46.242  33.637  27.309  1.00  0.00     0.135 A 
ATOM     66  C   UNL A   1      46.694  33.233  29.636  1.00  0.00     0.135 A 
ATOM     67  F   UNL A   1      45.879  33.212  26.089  1.00  0.00    -0.206 F 
ATOM     68  C   UNL A   1      46.613  34.969  27.459  1.00  0.00     0.059 A 
ATOM     69  C   UNL A   1      47.045  34.568  29.813  1.00  0.00     0.059 A 
ATOM     70  F   UNL A   1      46.761  32.414  30.698  1.00  0.00    -0.206 F 
ATOM     71  C   UNL A   1      47.020  35.423  28.713  1.00  0.00     0.060 A 
BRANCH  71  72
ATOM     72  S   UNL A   1      47.514  37.151  28.891  1.00  0.00     0.124 S 
ATOM     73  O   UNL A   1      46.240  37.837  28.693  1.00  0.00    -0.237 OA
ATOM     74  O   UNL A   1      48.048  37.187  30.248  1.00  0.00    -0.237 OA
ATOM     75  O   UNL A   1      48.496  37.333  27.828  1.00  0.00    -0.744 OA
ENDBRANCH  71  72
ENDBRANCH  50  64
BRANCH  51  76
ATOM     76  C   UNL A   1      43.295  23.306  26.970  1.00  0.00     0.058 A 
ATOM     77  C   UNL A   1      43.168  22.794  25.670  1.00  0.00     0.135 A 
ATOM     78  C   UNL A   1      43.017  22.447  28.044  1.00  0.00     0.135 A 
ATOM     79  F   UNL A   1      43.420  23.581  24.612  1.00  0.00    -0.206 F 
ATOM     80  C   UNL A   1      42.772  21.482  25.440  1.00  0.00     0.059 A 
ATOM     81  C   UNL A   1      42.637  21.123  27.839  1.00  0.00     0.059 A 
ATOM     82  F   UNL A   1      43.140  22.887  29.306  1.00  0.00    -0.206 F 
ATOM     83  C   UNL A   1      42.510  20.653  26.532  1.00  0.00     0.060 A 
BRANCH  83  84
ATOM     84  S   UNL A   1      42.053  18.933  26.225  1.00  0.00     0.124 S 
ATOM     85  O   UNL A   1      43.018  18.552  25.200  1.00  0.00    -0.237 OA
ATOM     86  O   UNL A   1      42.241  18.325  27.538  1.00  0.00    -0.237 OA
ATOM     87  O   UNL A   1      40.665  19.029  25.782  1.00  0.00    -0.744 OA
ENDBRANCH  83  84
ENDBRANCH  51  76
BRANCH  63  88
ATOM     88  C   UNL A   1      49.480  26.501  26.654  1.00  0.00     0.058 A 
ATOM     89  C   UNL A   1      50.010  26.560  25.356  1.00  0.00     0.135 A 
ATOM     90  C   UNL A   1      50.303  26.008  27.679  1.00  0.00     0.135 A 
ATOM     91  F   UNL A   1      49.260  27.015  24.340  1.00  0.00    -0.206 F 
ATOM     92  C   UNL A   1      51.304  26.131  25.081  1.00  0.00     0.059 A 
ATOM     93  C   UNL A   1      51.609  25.596  27.432  1.00  0.00     0.059 A 
ATOM     94  F   UNL A   1      49.846  25.940  28.939  1.00  0.00    -0.206 F 
ATOM     95  C   UNL A   1      52.097  25.651  26.126  1.00  0.00     0.060 A 
BRANCH  95  96
ATOM     96  S   UNL A   1      53.788  25.132  25.766  1.00  0.00     0.124 S 
ATOM     97  O   UNL A   1      53.585  23.756  25.326  1.00  0.00    -0.237 OA
ATOM     98  O   UNL A   1      54.192  26.075  24.728  1.00  0.00    -0.237 OA
ATOM     99  O   UNL A   1      54.470  25.289  27.048  1.00  0.00    -0.744 OA
ENDBRANCH  95  96
ENDBRANCH  63  88
ENDBRANCH  37  38
ENDBRANCH  29  32
ENDBRANCH  27  28
ENDBRANCH   1  27
TORSDOF 18
ENDMDL
