MODEL 1
REMARK VINA RESULT:     -15.2      0.000      0.000
REMARK SMILES Cc1ccc(-c2cc(C(=O)NCCCCNC(=O)c3ccc(-c4c5nc(c(-c6c(F)cc(S(=O)(=O)[O-])cc6F)c6ccc([nH]6)c(-c6c(F)cc(S(=O)(=O)[O-])cc6F)c6nc(c(-c7c(F)cc(S(=O)(=O)[O-])cc7F)c7ccc4[nH]7)C=C6)C=C5)cc3)c3c(-c4cccc([N+](=O)[O-])c4)[nH]nc3n2)cc1
REMARK SMILES IDX 14 1 13 2 12 3 11 4 9 5 10 6 8 8 6 9 7 10 99 11 98 12 85 13
REMARK SMILES IDX 97 14 86 15 96 16 5 18 1 19 2 20 3 21 101 22 4 23 100 24
REMARK SMILES IDX 87 25 88 26 95 27 89 28 91 29 90 30 92 31 93 32 94 33 15 34
REMARK SMILES IDX 16 35 17 36 18 38 19 39 20 40 84 41 21 42 83 43 22 44 23 45
REMARK SMILES IDX 24 46 77 47 25 48 82 49 76 50 78 51 26 52 81 53 75 54 74 55
REMARK SMILES IDX 27 57 61 58 40 59 60 60 41 61 44 62 59 63 79 64 42 65 43 66
REMARK SMILES IDX 58 68 80 69 45 70 28 71 29 72 38 73 30 74 31 75 37 76 39 77
REMARK SMILES IDX 32 78 33 79 34 80 35 81 36 82 62 83 63 84 72 85 64 86 65 87
REMARK SMILES IDX 71 88 73 89 66 90 67 91 68 92 69 93 70 94 46 95 47 96 56 97
REMARK SMILES IDX 48 98 49 99 55 100 57 101 50 102 51 103 52 104 53 105 54 106
REMARK H PARENT 11 7 96 17 16 37 78 56 44 67
REMARK Flexibility Score: inf
ROOT
ATOM      1  C   UNL A   1      33.018  29.968  26.275  1.00  0.00     0.023 C 
ENDROOT
BRANCH   1   2
ATOM      2  C   UNL A   1      32.342  28.647  25.886  1.00  0.00     0.023 C 
BRANCH   2   3
ATOM      3  C   UNL A   1      31.975  27.741  27.072  1.00  0.00     0.116 C 
BRANCH   3   4
ATOM      4  N   UNL A   1      31.154  26.600  26.685  1.00  0.00    -0.352 N 
ATOM      5  C   UNL A   1      31.255  25.543  25.816  1.00  0.00     0.252 C 
ATOM      6  O   UNL A   1      30.332  24.736  25.905  1.00  0.00    -0.269 OA
ATOM      7  H   UNL A   1      30.302  26.583  27.177  1.00  0.00     0.163 HD
BRANCH   5   8
ATOM      8  C   UNL A   1      32.365  25.319  24.854  1.00  0.00     0.055 A 
ATOM      9  C   UNL A   1      34.568  24.301  24.275  1.00  0.00     0.074 A 
ATOM     10  C   UNL A   1      33.555  24.671  25.197  1.00  0.00     0.043 A 
ATOM     11  N   UNL A   1      34.586  24.605  22.956  1.00  0.00    -0.226 NA
ATOM     12  C   UNL A   1      33.483  25.295  22.571  1.00  0.00     0.182 A 
ATOM     13  C   UNL A   1      32.406  25.647  23.477  1.00  0.00     0.059 A 
ATOM     14  N   UNL A   1      33.255  25.719  21.328  1.00  0.00    -0.154 NA
ATOM     15  C   UNL A   1      31.516  26.352  22.677  1.00  0.00     0.076 A 
ATOM     16  N   UNL A   1      32.067  26.325  21.418  1.00  0.00    -0.275 N 
ATOM     17  H   UNL A   1      31.618  26.722  20.637  1.00  0.00     0.190 HD
BRANCH   9  18
ATOM     18  C   UNL A   1      35.666  23.468  24.789  1.00  0.00     0.000 A 
ATOM     19  C   UNL A   1      39.334  21.438  25.836  1.00  0.00     0.044 C 
ATOM     20  C   UNL A   1      38.028  22.111  25.526  1.00  0.00    -0.051 A 
ATOM     21  C   UNL A   1      37.140  21.548  24.600  1.00  0.00     0.004 A 
ATOM     22  C   UNL A   1      37.706  23.331  26.123  1.00  0.00     0.004 A 
ATOM     23  C   UNL A   1      35.965  22.217  24.239  1.00  0.00     0.010 A 
ATOM     24  C   UNL A   1      36.535  23.995  25.764  1.00  0.00     0.010 A 
ENDBRANCH   9  18
BRANCH  15  25
ATOM     25  C   UNL A   1      30.270  27.072  22.898  1.00  0.00     0.007 A 
ATOM     26  C   UNL A   1      29.178  26.432  23.500  1.00  0.00     0.011 A 
ATOM     27  C   UNL A   1      30.172  28.424  22.547  1.00  0.00     0.096 A 
ATOM     28  C   UNL A   1      28.013  27.145  23.798  1.00  0.00     0.008 A 
ATOM     29  C   UNL A   1      29.017  29.142  22.881  1.00  0.00     0.270 A 
ATOM     30  C   UNL A   1      27.932  28.506  23.501  1.00  0.00     0.085 A 
BRANCH  29  31
ATOM     31  N   UNL A   1      28.956  30.581  22.605  1.00  0.00     0.062 N 
ATOM     32  O   UNL A   1      28.670  31.339  23.543  1.00  0.00    -0.258 OA
ATOM     33  O   UNL A   1      29.159  30.957  21.441  1.00  0.00    -0.258 OA
ENDBRANCH  29  31
ENDBRANCH  15  25
ENDBRANCH   5   8
ENDBRANCH   3   4
ENDBRANCH   2   3
ENDBRANCH   1   2
BRANCH   1  34
ATOM     34  C   UNL A   1      34.312  29.787  27.058  1.00  0.00     0.116 C 
BRANCH  34  35
ATOM     35  N   UNL A   1      35.058  31.004  27.310  1.00  0.00    -0.352 N 
ATOM     36  C   UNL A   1      36.259  31.124  28.002  1.00  0.00     0.251 C 
ATOM     37  H   UNL A   1      34.673  31.837  26.952  1.00  0.00     0.163 HD
ATOM     38  O   UNL A   1      36.649  32.174  28.452  1.00  0.00    -0.269 OA
BRANCH  36  39
ATOM     39  C   UNL A   1      37.117  29.912  28.039  1.00  0.00     0.039 A 
ATOM     40  C   UNL A   1      37.150  29.212  29.252  1.00  0.00     0.014 A 
ATOM     41  C   UNL A   1      38.060  29.672  27.044  1.00  0.00     0.014 A 
ATOM     42  C   UNL A   1      38.246  28.406  29.547  1.00  0.00     0.010 A 
ATOM     43  C   UNL A   1      39.181  28.927  27.367  1.00  0.00     0.010 A 
ATOM     44  C   UNL A   1      39.300  28.344  28.639  1.00  0.00    -0.014 A 
BRANCH  44  45
ATOM     45  C   UNL A   1      40.606  27.775  28.957  1.00  0.00     0.031 A 
ATOM     46  C   UNL A   1      40.899  26.359  28.628  1.00  0.00     0.074 A 
ATOM     47  C   UNL A   1      41.582  28.556  29.472  1.00  0.00     0.049 A 
ATOM     48  N   UNL A   1      41.950  25.724  29.022  1.00  0.00    -0.248 NA
ATOM     49  C   UNL A   1      39.963  25.508  27.895  1.00  0.00     0.031 C 
ATOM     50  C   UNL A   1      43.018  28.290  29.469  1.00  0.00     0.029 A 
ATOM     51  N   UNL A   1      41.440  29.659  30.315  1.00  0.00    -0.354 N 
ATOM     52  C   UNL A   1      41.982  24.516  28.367  1.00  0.00     0.074 A 
ATOM     53  C   UNL A   1      40.666  24.375  27.801  1.00  0.00     0.031 C 
ATOM     54  C   UNL A   1      43.605  29.029  30.422  1.00  0.00     0.029 A 
ATOM     55  C   UNL A   1      42.548  29.669  31.182  1.00  0.00     0.049 A 
ATOM     56  H   UNL A   1      40.700  30.310  30.304  1.00  0.00     0.167 HD
ATOM     57  C   UNL A   1      43.169  23.856  28.268  1.00  0.00     0.037 A 
ATOM     58  C   UNL A   1      42.398  29.547  32.534  1.00  0.00     0.037 A 
ATOM     59  C   UNL A   1      44.124  24.368  29.255  1.00  0.00     0.049 A 
ATOM     60  C   UNL A   1      43.071  28.333  33.132  1.00  0.00     0.074 A 
ATOM     61  C   UNL A   1      45.254  25.163  29.178  1.00  0.00     0.029 A 
ATOM     62  N   UNL A   1      43.811  24.263  30.610  1.00  0.00    -0.354 N 
ATOM     63  N   UNL A   1      43.498  27.315  32.436  1.00  0.00    -0.248 NA
ATOM     64  C   UNL A   1      43.308  28.163  34.563  1.00  0.00     0.031 C 
ATOM     65  C   UNL A   1      45.552  25.624  30.491  1.00  0.00     0.029 A 
ATOM     66  C   UNL A   1      44.635  25.068  31.369  1.00  0.00     0.049 A 
ATOM     67  H   UNL A   1      43.097  23.691  30.975  1.00  0.00     0.167 HD
ATOM     68  C   UNL A   1      44.010  26.359  33.277  1.00  0.00     0.074 A 
ATOM     69  C   UNL A   1      43.903  26.957  34.597  1.00  0.00     0.031 C 
ATOM     70  C   UNL A   1      44.464  25.154  32.817  1.00  0.00     0.037 A 
BRANCH  57  71
ATOM     71  C   UNL A   1      43.543  22.892  27.148  1.00  0.00     0.058 A 
ATOM     72  C   UNL A   1      42.914  21.627  27.052  1.00  0.00     0.135 A 
ATOM     73  C   UNL A   1      44.606  23.072  26.231  1.00  0.00     0.135 A 
ATOM     74  F   UNL A   1      41.894  21.298  27.860  1.00  0.00    -0.206 F 
ATOM     75  C   UNL A   1      43.323  20.629  26.156  1.00  0.00     0.059 A 
ATOM     76  C   UNL A   1      45.002  22.109  25.300  1.00  0.00     0.059 A 
ATOM     77  F   UNL A   1      45.373  24.164  26.220  1.00  0.00    -0.206 F 
ATOM     78  C   UNL A   1      44.377  20.877  25.286  1.00  0.00     0.060 A 
BRANCH  78  79
ATOM     79  S   UNL A   1      44.953  19.585  24.169  1.00  0.00     0.124 S 
ATOM     80  O   UNL A   1      44.528  20.101  22.871  1.00  0.00    -0.237 OA
ATOM     81  O   UNL A   1      46.391  19.576  24.413  1.00  0.00    -0.237 OA
ATOM     82  O   UNL A   1      44.239  18.396  24.628  1.00  0.00    -0.744 OA
ENDBRANCH  78  79
ENDBRANCH  57  71
BRANCH  58  83
ATOM     83  C   UNL A   1      41.165  30.204  33.046  1.00  0.00     0.058 A 
ATOM     84  C   UNL A   1      41.189  31.605  33.171  1.00  0.00     0.135 A 
ATOM     85  C   UNL A   1      39.913  29.580  32.936  1.00  0.00     0.135 A 
ATOM     86  F   UNL A   1      42.362  32.249  33.299  1.00  0.00    -0.206 F 
ATOM     87  C   UNL A   1      40.044  32.371  33.002  1.00  0.00     0.059 A 
ATOM     88  C   UNL A   1      38.747  30.331  32.773  1.00  0.00     0.059 A 
ATOM     89  F   UNL A   1      39.829  28.247  32.820  1.00  0.00    -0.206 F 
ATOM     90  C   UNL A   1      38.843  31.724  32.726  1.00  0.00     0.060 A 
BRANCH  90  91
ATOM     91  S   UNL A   1      37.480  32.730  32.090  1.00  0.00     0.124 S 
ATOM     92  O   UNL A   1      36.544  31.713  31.623  1.00  0.00    -0.237 OA
ATOM     93  O   UNL A   1      37.076  33.455  33.295  1.00  0.00    -0.237 OA
ATOM     94  O   UNL A   1      38.114  33.532  31.051  1.00  0.00    -0.744 OA
ENDBRANCH  90  91
ENDBRANCH  58  83
BRANCH  70  95
ATOM     95  C   UNL A   1      44.857  23.965  33.673  1.00  0.00     0.058 A 
ATOM     96  C   UNL A   1      43.979  22.934  34.056  1.00  0.00     0.135 A 
ATOM     97  C   UNL A   1      46.212  23.762  34.033  1.00  0.00     0.135 A 
ATOM     98  F   UNL A   1      42.694  22.933  33.674  1.00  0.00    -0.206 F 
ATOM     99  C   UNL A   1      44.394  21.829  34.805  1.00  0.00     0.059 A 
ATOM    100  C   UNL A   1      46.658  22.640  34.730  1.00  0.00     0.059 A 
ATOM    101  F   UNL A   1      47.162  24.652  33.706  1.00  0.00    -0.206 F 
ATOM    102  C   UNL A   1      45.736  21.690  35.139  1.00  0.00     0.060 A 
BRANCH 102 103
ATOM    103  S   UNL A   1      46.296  20.235  36.046  1.00  0.00     0.124 S 
ATOM    104  O   UNL A   1      45.521  19.176  35.407  1.00  0.00    -0.237 OA
ATOM    105  O   UNL A   1      47.731  20.214  35.776  1.00  0.00    -0.237 OA
ATOM    106  O   UNL A   1      45.932  20.545  37.425  1.00  0.00    -0.744 OA
ENDBRANCH 102 103
ENDBRANCH  70  95
ENDBRANCH  44  45
ENDBRANCH  36  39
ENDBRANCH  34  35
ENDBRANCH   1  34
TORSDOF 17
ENDMDL
MODEL 2
REMARK VINA RESULT:     -15.1      1.625      2.224
REMARK SMILES Cc1ccc(-c2cc(C(=O)NCCCCNC(=O)c3ccc(-c4c5nc(c(-c6c(F)cc(S(=O)(=O)[O-])cc6F)c6ccc([nH]6)c(-c6c(F)cc(S(=O)(=O)[O-])cc6F)c6nc(c(-c7c(F)cc(S(=O)(=O)[O-])cc7F)c7ccc4[nH]7)C=C6)C=C5)cc3)c3c(-c4cccc([N+](=O)[O-])c4)[nH]nc3n2)cc1
REMARK SMILES IDX 14 1 13 2 12 3 11 4 9 5 10 6 8 8 6 9 7 10 99 11 98 12 85 13
REMARK SMILES IDX 97 14 86 15 96 16 5 18 1 19 2 20 3 21 101 22 4 23 100 24
REMARK SMILES IDX 87 25 88 26 95 27 89 28 91 29 90 30 92 31 93 32 94 33 15 34
REMARK SMILES IDX 16 35 17 36 18 38 19 39 20 40 84 41 21 42 83 43 22 44 23 45
REMARK SMILES IDX 24 46 77 47 25 48 82 49 76 50 78 51 26 52 81 53 75 54 74 55
REMARK SMILES IDX 27 57 61 58 40 59 60 60 41 61 44 62 59 63 79 64 42 65 43 66
REMARK SMILES IDX 58 68 80 69 45 70 28 71 29 72 38 73 30 74 31 75 37 76 39 77
REMARK SMILES IDX 32 78 33 79 34 80 35 81 36 82 62 83 63 84 72 85 64 86 65 87
REMARK SMILES IDX 71 88 73 89 66 90 67 91 68 92 69 93 70 94 46 95 47 96 56 97
REMARK SMILES IDX 48 98 49 99 55 100 57 101 50 102 51 103 52 104 53 105 54 106
REMARK H PARENT 11 7 96 17 16 37 78 56 44 67
REMARK Flexibility Score: inf
ROOT
ATOM      1  C   UNL A   1      32.020  30.485  26.862  1.00  0.00     0.023 C 
ENDROOT
BRANCH   1   2
ATOM      2  C   UNL A   1      31.578  29.413  25.858  1.00  0.00     0.023 C 
BRANCH   2   3
ATOM      3  C   UNL A   1      32.538  28.219  25.732  1.00  0.00     0.116 C 
BRANCH   3   4
ATOM      4  N   UNL A   1      31.975  26.978  26.250  1.00  0.00    -0.352 N 
ATOM      5  C   UNL A   1      32.165  25.634  26.054  1.00  0.00     0.252 C 
ATOM      6  O   UNL A   1      31.516  24.923  26.818  1.00  0.00    -0.269 OA
ATOM      7  H   UNL A   1      31.272  27.150  26.918  1.00  0.00     0.163 HD
BRANCH   5   8
ATOM      8  C   UNL A   1      33.078  25.028  25.052  1.00  0.00     0.055 A 
ATOM      9  C   UNL A   1      35.124  23.716  24.487  1.00  0.00     0.074 A 
ATOM     10  C   UNL A   1      34.302  24.439  25.388  1.00  0.00     0.043 A 
ATOM     11  N   UNL A   1      34.908  23.574  23.158  1.00  0.00    -0.226 NA
ATOM     12  C   UNL A   1      33.764  24.182  22.754  1.00  0.00     0.182 A 
ATOM     13  C   UNL A   1      32.874  24.888  23.657  1.00  0.00     0.059 A 
ATOM     14  N   UNL A   1      33.321  24.196  21.497  1.00  0.00    -0.154 NA
ATOM     15  C   UNL A   1      31.864  25.359  22.828  1.00  0.00     0.076 A 
ATOM     16  N   UNL A   1      32.178  24.884  21.577  1.00  0.00    -0.275 N 
ATOM     17  H   UNL A   1      31.601  25.038  20.794  1.00  0.00     0.190 HD
BRANCH   9  18
ATOM     18  C   UNL A   1      36.285  23.016  25.058  1.00  0.00     0.000 A 
ATOM     19  C   UNL A   1      40.086  21.289  26.171  1.00  0.00     0.044 C 
ATOM     20  C   UNL A   1      38.739  21.867  25.846  1.00  0.00    -0.051 A 
ATOM     21  C   UNL A   1      37.804  21.123  25.115  1.00  0.00     0.004 A 
ATOM     22  C   UNL A   1      38.422  23.172  26.228  1.00  0.00     0.004 A 
ATOM     23  C   UNL A   1      36.584  21.690  24.729  1.00  0.00     0.010 A 
ATOM     24  C   UNL A   1      37.206  23.734  25.846  1.00  0.00     0.010 A 
ENDBRANCH   9  18
BRANCH  15  25
ATOM     25  C   UNL A   1      30.691  26.203  23.001  1.00  0.00     0.007 A 
ATOM     26  C   UNL A   1      29.566  25.721  23.686  1.00  0.00     0.011 A 
ATOM     27  C   UNL A   1      30.697  27.517  22.518  1.00  0.00     0.096 A 
ATOM     28  C   UNL A   1      28.474  26.558  23.933  1.00  0.00     0.008 A 
ATOM     29  C   UNL A   1      29.616  28.361  22.802  1.00  0.00     0.270 A 
ATOM     30  C   UNL A   1      28.500  27.886  23.504  1.00  0.00     0.085 A 
BRANCH  29  31
ATOM     31  N   UNL A   1      29.669  29.766  22.384  1.00  0.00     0.062 N 
ATOM     32  O   UNL A   1      29.287  30.625  23.193  1.00  0.00    -0.258 OA
ATOM     33  O   UNL A   1      30.058  30.015  21.233  1.00  0.00    -0.258 OA
ENDBRANCH  29  31
ENDBRANCH  15  25
ENDBRANCH   5   8
ENDBRANCH   3   4
ENDBRANCH   2   3
ENDBRANCH   1   2
BRANCH   1  34
ATOM     34  C   UNL A   1      33.510  30.453  27.178  1.00  0.00     0.116 C 
BRANCH  34  35
ATOM     35  N   UNL A   1      34.034  31.647  27.812  1.00  0.00    -0.352 N 
ATOM     36  C   UNL A   1      35.063  31.718  28.746  1.00  0.00     0.251 C 
ATOM     37  H   UNL A   1      33.617  32.501  27.553  1.00  0.00     0.163 HD
ATOM     38  O   UNL A   1      35.226  32.675  29.463  1.00  0.00    -0.269 OA
BRANCH  36  39
ATOM     39  C   UNL A   1      36.049  30.607  28.720  1.00  0.00     0.039 A 
ATOM     40  C   UNL A   1      36.250  29.926  29.927  1.00  0.00     0.014 A 
ATOM     41  C   UNL A   1      36.935  30.461  27.656  1.00  0.00     0.014 A 
ATOM     42  C   UNL A   1      37.446  29.247  30.139  1.00  0.00     0.010 A 
ATOM     43  C   UNL A   1      38.152  29.846  27.894  1.00  0.00     0.010 A 
ATOM     44  C   UNL A   1      38.429  29.292  29.155  1.00  0.00    -0.014 A 
BRANCH  44  45
ATOM     45  C   UNL A   1      39.810  28.871  29.373  1.00  0.00     0.031 A 
ATOM     46  C   UNL A   1      40.231  27.494  29.024  1.00  0.00     0.074 A 
ATOM     47  C   UNL A   1      40.730  29.759  29.812  1.00  0.00     0.049 A 
ATOM     48  N   UNL A   1      41.372  26.980  29.337  1.00  0.00    -0.248 NA
ATOM     49  C   UNL A   1      39.341  26.539  28.365  1.00  0.00     0.031 C 
ATOM     50  C   UNL A   1      42.183  29.652  29.701  1.00  0.00     0.029 A 
ATOM     51  N   UNL A   1      40.532  30.847  30.663  1.00  0.00    -0.354 N 
ATOM     52  C   UNL A   1      41.486  25.777  28.683  1.00  0.00     0.074 A 
ATOM     53  C   UNL A   1      40.155  25.488  28.218  1.00  0.00     0.031 C 
ATOM     54  C   UNL A   1      42.754  30.458  30.607  1.00  0.00     0.029 A 
ATOM     55  C   UNL A   1      41.694  30.986  31.444  1.00  0.00     0.049 A 
ATOM     56  H   UNL A   1      39.727  31.413  30.708  1.00  0.00     0.167 HD
ATOM     57  C   UNL A   1      42.728  25.250  28.495  1.00  0.00     0.037 A 
ATOM     58  C   UNL A   1      41.660  30.860  32.804  1.00  0.00     0.037 A 
ATOM     59  C   UNL A   1      43.693  25.872  29.407  1.00  0.00     0.049 A 
ATOM     60  C   UNL A   1      42.505  29.732  33.350  1.00  0.00     0.074 A 
ATOM     61  C   UNL A   1      44.719  26.785  29.245  1.00  0.00     0.029 A 
ATOM     62  N   UNL A   1      43.495  25.745  30.782  1.00  0.00    -0.354 N 
ATOM     63  N   UNL A   1      42.988  28.761  32.625  1.00  0.00    -0.248 NA
ATOM     64  C   UNL A   1      42.866  29.602  34.759  1.00  0.00     0.031 C 
ATOM     65  C   UNL A   1      45.063  27.287  30.532  1.00  0.00     0.029 A 
ATOM     66  C   UNL A   1      44.281  26.642  31.476  1.00  0.00     0.049 A 
ATOM     67  H   UNL A   1      42.878  25.102  31.200  1.00  0.00     0.167 HD
ATOM     68  C   UNL A   1      43.663  27.874  33.425  1.00  0.00     0.074 A 
ATOM     69  C   UNL A   1      43.589  28.468  34.749  1.00  0.00     0.031 C 
ATOM     70  C   UNL A   1      44.210  26.721  32.933  1.00  0.00     0.037 A 
BRANCH  57  71
ATOM     71  C   UNL A   1      43.120  24.322  27.350  1.00  0.00     0.058 A 
ATOM     72  C   UNL A   1      43.121  22.919  27.535  1.00  0.00     0.135 A 
ATOM     73  C   UNL A   1      43.649  24.735  26.105  1.00  0.00     0.135 A 
ATOM     74  F   UNL A   1      42.661  22.368  28.669  1.00  0.00    -0.206 F 
ATOM     75  C   UNL A   1      43.628  22.018  26.587  1.00  0.00     0.059 A 
ATOM     76  C   UNL A   1      44.118  23.854  25.128  1.00  0.00     0.059 A 
ATOM     77  F   UNL A   1      43.807  26.019  25.777  1.00  0.00    -0.206 F 
ATOM     78  C   UNL A   1      44.134  22.497  25.385  1.00  0.00     0.060 A 
BRANCH  78  79
ATOM     79  S   UNL A   1      44.841  21.358  24.181  1.00  0.00     0.124 S 
ATOM     80  O   UNL A   1      44.108  20.128  24.465  1.00  0.00    -0.237 OA
ATOM     81  O   UNL A   1      44.531  22.008  22.913  1.00  0.00    -0.237 OA
ATOM     82  O   UNL A   1      46.259  21.330  24.533  1.00  0.00    -0.744 OA
ENDBRANCH  78  79
ENDBRANCH  57  71
BRANCH  58  83
ATOM     83  C   UNL A   1      40.404  31.383  33.407  1.00  0.00     0.058 A 
ATOM     84  C   UNL A   1      39.441  30.436  33.804  1.00  0.00     0.135 A 
ATOM     85  C   UNL A   1      40.362  32.648  34.010  1.00  0.00     0.135 A 
ATOM     86  F   UNL A   1      39.426  29.216  33.242  1.00  0.00    -0.206 F 
ATOM     87  C   UNL A   1      38.598  30.664  34.883  1.00  0.00     0.059 A 
ATOM     88  C   UNL A   1      39.517  32.902  35.092  1.00  0.00     0.059 A 
ATOM     89  F   UNL A   1      41.252  33.592  33.667  1.00  0.00    -0.206 F 
ATOM     90  C   UNL A   1      38.702  31.873  35.568  1.00  0.00     0.060 A 
BRANCH  90  91
ATOM     91  S   UNL A   1      37.923  31.977  37.197  1.00  0.00     0.124 S 
ATOM     92  O   UNL A   1      37.478  30.604  37.410  1.00  0.00    -0.237 OA
ATOM     93  O   UNL A   1      39.049  32.411  38.023  1.00  0.00    -0.237 OA
ATOM     94  O   UNL A   1      36.866  32.962  37.000  1.00  0.00    -0.744 OA
ENDBRANCH  90  91
ENDBRANCH  58  83
BRANCH  70  95
ATOM     95  C   UNL A   1      44.793  25.590  33.757  1.00  0.00     0.058 A 
ATOM     96  C   UNL A   1      46.164  25.278  33.826  1.00  0.00     0.135 A 
ATOM     97  C   UNL A   1      43.965  24.846  34.634  1.00  0.00     0.135 A 
ATOM     98  F   UNL A   1      47.076  25.987  33.145  1.00  0.00    -0.206 F 
ATOM     99  C   UNL A   1      46.666  24.257  34.638  1.00  0.00     0.059 A 
ATOM    100  C   UNL A   1      44.452  23.863  35.494  1.00  0.00     0.059 A 
ATOM    101  F   UNL A   1      42.642  25.060  34.694  1.00  0.00    -0.206 F 
ATOM    102  C   UNL A   1      45.802  23.553  35.469  1.00  0.00     0.060 A 
BRANCH 102 103
ATOM    103  S   UNL A   1      46.447  22.280  36.572  1.00  0.00     0.124 S 
ATOM    104  O   UNL A   1      46.019  21.061  35.893  1.00  0.00    -0.237 OA
ATOM    105  O   UNL A   1      47.885  22.533  36.561  1.00  0.00    -0.237 OA
ATOM    106  O   UNL A   1      45.778  22.570  37.837  1.00  0.00    -0.744 OA
ENDBRANCH 102 103
ENDBRANCH  70  95
ENDBRANCH  44  45
ENDBRANCH  36  39
ENDBRANCH  34  35
ENDBRANCH   1  34
TORSDOF 17
ENDMDL
MODEL 3
REMARK VINA RESULT:     -14.9      1.508      1.967
REMARK SMILES Cc1ccc(-c2cc(C(=O)NCCCCNC(=O)c3ccc(-c4c5nc(c(-c6c(F)cc(S(=O)(=O)[O-])cc6F)c6ccc([nH]6)c(-c6c(F)cc(S(=O)(=O)[O-])cc6F)c6nc(c(-c7c(F)cc(S(=O)(=O)[O-])cc7F)c7ccc4[nH]7)C=C6)C=C5)cc3)c3c(-c4cccc([N+](=O)[O-])c4)[nH]nc3n2)cc1
REMARK SMILES IDX 14 1 13 2 12 3 11 4 9 5 10 6 8 8 6 9 7 10 99 11 98 12 85 13
REMARK SMILES IDX 97 14 86 15 96 16 5 18 1 19 2 20 3 21 101 22 4 23 100 24
REMARK SMILES IDX 87 25 88 26 95 27 89 28 91 29 90 30 92 31 93 32 94 33 15 34
REMARK SMILES IDX 16 35 17 36 18 38 19 39 20 40 84 41 21 42 83 43 22 44 23 45
REMARK SMILES IDX 24 46 77 47 25 48 82 49 76 50 78 51 26 52 81 53 75 54 74 55
REMARK SMILES IDX 27 57 61 58 40 59 60 60 41 61 44 62 59 63 79 64 42 65 43 66
REMARK SMILES IDX 58 68 80 69 45 70 28 71 29 72 38 73 30 74 31 75 37 76 39 77
REMARK SMILES IDX 32 78 33 79 34 80 35 81 36 82 62 83 63 84 72 85 64 86 65 87
REMARK SMILES IDX 71 88 73 89 66 90 67 91 68 92 69 93 70 94 46 95 47 96 56 97
REMARK SMILES IDX 48 98 49 99 55 100 57 101 50 102 51 103 52 104 53 105 54 106
REMARK H PARENT 11 7 96 17 16 37 78 56 44 67
REMARK Flexibility Score: inf
ROOT
ATOM      1  C   UNL A   1      32.227  30.549  26.408  1.00  0.00     0.023 C 
ENDROOT
BRANCH   1   2
ATOM      2  C   UNL A   1      31.747  29.230  25.790  1.00  0.00     0.023 C 
BRANCH   2   3
ATOM      3  C   UNL A   1      32.764  28.080  25.864  1.00  0.00     0.116 C 
BRANCH   3   4
ATOM      4  N   UNL A   1      32.180  26.834  26.346  1.00  0.00    -0.352 N 
ATOM      5  C   UNL A   1      32.371  25.491  26.135  1.00  0.00     0.252 C 
ATOM      6  O   UNL A   1      31.696  24.772  26.868  1.00  0.00    -0.269 OA
ATOM      7  H   UNL A   1      31.458  26.998  26.994  1.00  0.00     0.163 HD
BRANCH   5   8
ATOM      8  C   UNL A   1      33.314  24.897  25.153  1.00  0.00     0.055 A 
ATOM      9  C   UNL A   1      35.408  23.645  24.631  1.00  0.00     0.074 A 
ATOM     10  C   UNL A   1      34.553  24.358  25.510  1.00  0.00     0.043 A 
ATOM     11  N   UNL A   1      35.208  23.469  23.303  1.00  0.00    -0.226 NA
ATOM     12  C   UNL A   1      34.048  24.029  22.878  1.00  0.00     0.182 A 
ATOM     13  C   UNL A   1      33.126  24.722  23.759  1.00  0.00     0.059 A 
ATOM     14  N   UNL A   1      33.615  24.003  21.618  1.00  0.00    -0.154 NA
ATOM     15  C   UNL A   1      32.108  25.142  22.913  1.00  0.00     0.076 A 
ATOM     16  N   UNL A   1      32.449  24.653  21.674  1.00  0.00    -0.275 N 
ATOM     17  H   UNL A   1      31.873  24.772  20.884  1.00  0.00     0.190 HD
BRANCH   9  18
ATOM     18  C   UNL A   1      36.587  22.997  25.226  1.00  0.00     0.000 A 
ATOM     19  C   UNL A   1      40.435  21.431  26.409  1.00  0.00     0.044 C 
ATOM     20  C   UNL A   1      39.073  21.952  26.059  1.00  0.00    -0.051 A 
ATOM     21  C   UNL A   1      38.177  21.165  25.324  1.00  0.00     0.004 A 
ATOM     22  C   UNL A   1      38.700  23.248  26.423  1.00  0.00     0.004 A 
ATOM     23  C   UNL A   1      36.941  21.679  24.915  1.00  0.00     0.010 A 
ATOM     24  C   UNL A   1      37.468  23.758  26.018  1.00  0.00     0.010 A 
ENDBRANCH   9  18
BRANCH  15  25
ATOM     25  C   UNL A   1      30.905  25.948  23.059  1.00  0.00     0.007 A 
ATOM     26  C   UNL A   1      29.851  25.508  23.873  1.00  0.00     0.011 A 
ATOM     27  C   UNL A   1      30.813  27.190  22.419  1.00  0.00     0.096 A 
ATOM     28  C   UNL A   1      28.734  26.321  24.088  1.00  0.00     0.008 A 
ATOM     29  C   UNL A   1      29.709  28.015  22.669  1.00  0.00     0.270 A 
ATOM     30  C   UNL A   1      28.665  27.583  23.498  1.00  0.00     0.085 A 
BRANCH  29  31
ATOM     31  N   UNL A   1      29.663  29.356  22.078  1.00  0.00     0.062 N 
ATOM     32  O   UNL A   1      28.622  29.698  21.497  1.00  0.00    -0.258 OA
ATOM     33  O   UNL A   1      30.680  30.062  22.161  1.00  0.00    -0.258 OA
ENDBRANCH  29  31
ENDBRANCH  15  25
ENDBRANCH   5   8
ENDBRANCH   3   4
ENDBRANCH   2   3
ENDBRANCH   1   2
BRANCH   1  34
ATOM     34  C   UNL A   1      33.524  30.420  27.198  1.00  0.00     0.116 C 
BRANCH  34  35
ATOM     35  N   UNL A   1      33.991  31.642  27.824  1.00  0.00    -0.352 N 
ATOM     36  C   UNL A   1      34.993  31.764  28.782  1.00  0.00     0.251 C 
ATOM     37  H   UNL A   1      33.553  32.477  27.538  1.00  0.00     0.163 HD
ATOM     38  O   UNL A   1      35.105  32.737  29.485  1.00  0.00    -0.269 OA
BRANCH  36  39
ATOM     39  C   UNL A   1      36.015  30.686  28.801  1.00  0.00     0.039 A 
ATOM     40  C   UNL A   1      36.124  29.954  29.990  1.00  0.00     0.014 A 
ATOM     41  C   UNL A   1      37.003  30.619  27.822  1.00  0.00     0.014 A 
ATOM     42  C   UNL A   1      37.318  29.303  30.285  1.00  0.00     0.010 A 
ATOM     43  C   UNL A   1      38.212  30.030  28.148  1.00  0.00     0.010 A 
ATOM     44  C   UNL A   1      38.388  29.426  29.404  1.00  0.00    -0.014 A 
BRANCH  44  45
ATOM     45  C   UNL A   1      39.756  29.037  29.735  1.00  0.00     0.031 A 
ATOM     46  C   UNL A   1      40.293  27.737  29.268  1.00  0.00     0.074 A 
ATOM     47  C   UNL A   1      40.566  29.897  30.394  1.00  0.00     0.049 A 
ATOM     48  N   UNL A   1      41.417  27.235  29.651  1.00  0.00    -0.248 NA
ATOM     49  C   UNL A   1      39.542  26.843  28.387  1.00  0.00     0.031 C 
ATOM     50  C   UNL A   1      42.025  29.865  30.449  1.00  0.00     0.029 A 
ATOM     51  N   UNL A   1      40.207  30.852  31.345  1.00  0.00    -0.354 N 
ATOM     52  C   UNL A   1      41.676  26.136  28.869  1.00  0.00     0.074 A 
ATOM     53  C   UNL A   1      40.427  25.856  28.210  1.00  0.00     0.031 C 
ATOM     54  C   UNL A   1      42.440  30.567  31.514  1.00  0.00     0.029 A 
ATOM     55  C   UNL A   1      41.260  30.934  32.275  1.00  0.00     0.049 A 
ATOM     56  H   UNL A   1      39.371  31.373  31.362  1.00  0.00     0.167 HD
ATOM     57  C   UNL A   1      42.960  25.691  28.769  1.00  0.00     0.037 A 
ATOM     58  C   UNL A   1      41.075  30.627  33.593  1.00  0.00     0.037 A 
ATOM     59  C   UNL A   1      43.774  26.225  29.864  1.00  0.00     0.049 A 
ATOM     60  C   UNL A   1      41.914  29.471  34.091  1.00  0.00     0.074 A 
ATOM     61  C   UNL A   1      44.758  27.193  29.948  1.00  0.00     0.029 A 
ATOM     62  N   UNL A   1      43.425  25.908  31.177  1.00  0.00    -0.354 N 
ATOM     63  N   UNL A   1      42.534  28.627  33.312  1.00  0.00    -0.248 NA
ATOM     64  C   UNL A   1      42.115  29.170  35.505  1.00  0.00     0.031 C 
ATOM     65  C   UNL A   1      44.920  27.533  31.320  1.00  0.00     0.029 A 
ATOM     66  C   UNL A   1      44.071  26.736  32.072  1.00  0.00     0.049 A 
ATOM     67  H   UNL A   1      42.801  25.190  31.431  1.00  0.00     0.167 HD
ATOM     68  C   UNL A   1      43.160  27.670  34.070  1.00  0.00     0.074 A 
ATOM     69  C   UNL A   1      42.899  28.079  35.440  1.00  0.00     0.031 C 
ATOM     70  C   UNL A   1      43.827  26.617  33.506  1.00  0.00     0.037 A 
BRANCH  57  71
ATOM     71  C   UNL A   1      43.536  24.941  27.573  1.00  0.00     0.058 A 
ATOM     72  C   UNL A   1      43.456  23.529  27.506  1.00  0.00     0.135 A 
ATOM     73  C   UNL A   1      44.307  25.519  26.537  1.00  0.00     0.135 A 
ATOM     74  F   UNL A   1      42.769  22.830  28.423  1.00  0.00    -0.206 F 
ATOM     75  C   UNL A   1      44.107  22.766  26.526  1.00  0.00     0.059 A 
ATOM     76  C   UNL A   1      44.928  24.782  25.525  1.00  0.00     0.059 A 
ATOM     77  F   UNL A   1      44.567  26.826  26.473  1.00  0.00    -0.206 F 
ATOM     78  C   UNL A   1      44.850  23.403  25.541  1.00  0.00     0.060 A 
BRANCH  78  79
ATOM     79  S   UNL A   1      45.740  22.435  24.309  1.00  0.00     0.124 S 
ATOM     80  O   UNL A   1      46.364  21.403  25.132  1.00  0.00    -0.237 OA
ATOM     81  O   UNL A   1      44.668  21.986  23.427  1.00  0.00    -0.237 OA
ATOM     82  O   UNL A   1      46.664  23.401  23.719  1.00  0.00    -0.744 OA
ENDBRANCH  78  79
ENDBRANCH  57  71
BRANCH  58  83
ATOM     83  C   UNL A   1      39.730  31.011  34.098  1.00  0.00     0.058 A 
ATOM     84  C   UNL A   1      39.558  32.344  34.515  1.00  0.00     0.135 A 
ATOM     85  C   UNL A   1      38.584  30.290  33.730  1.00  0.00     0.135 A 
ATOM     86  F   UNL A   1      40.622  33.072  34.896  1.00  0.00    -0.206 F 
ATOM     87  C   UNL A   1      38.338  32.995  34.390  1.00  0.00     0.059 A 
ATOM     88  C   UNL A   1      37.346  30.922  33.606  1.00  0.00     0.059 A 
ATOM     89  F   UNL A   1      38.687  29.014  33.331  1.00  0.00    -0.206 F 
ATOM     90  C   UNL A   1      37.258  32.292  33.860  1.00  0.00     0.060 A 
BRANCH  90  91
ATOM     91  S   UNL A   1      35.828  33.253  33.309  1.00  0.00     0.124 S 
ATOM     92  O   UNL A   1      36.459  34.328  32.549  1.00  0.00    -0.237 OA
ATOM     93  O   UNL A   1      35.106  32.259  32.516  1.00  0.00    -0.237 OA
ATOM     94  O   UNL A   1      35.192  33.651  34.559  1.00  0.00    -0.744 OA
ENDBRANCH  90  91
ENDBRANCH  58  83
BRANCH  70  95
ATOM     95  C   UNL A   1      44.374  25.411  34.246  1.00  0.00     0.058 A 
ATOM     96  C   UNL A   1      43.580  24.412  34.838  1.00  0.00     0.135 A 
ATOM     97  C   UNL A   1      45.768  25.158  34.263  1.00  0.00     0.135 A 
ATOM     98  F   UNL A   1      42.242  24.459  34.783  1.00  0.00    -0.206 F 
ATOM     99  C   UNL A   1      44.126  23.289  35.468  1.00  0.00     0.059 A 
ATOM    100  C   UNL A   1      46.330  24.017  34.835  1.00  0.00     0.059 A 
ATOM    101  F   UNL A   1      46.640  26.013  33.708  1.00  0.00    -0.206 F 
ATOM    102  C   UNL A   1      45.503  23.100  35.463  1.00  0.00     0.060 A 
BRANCH 102 103
ATOM    103  S   UNL A   1      46.216  21.622  36.212  1.00  0.00     0.124 S 
ATOM    104  O   UNL A   1      47.617  21.743  35.820  1.00  0.00    -0.237 OA
ATOM    105  O   UNL A   1      45.943  21.811  37.634  1.00  0.00    -0.237 OA
ATOM    106  O   UNL A   1      45.471  20.539  35.578  1.00  0.00    -0.744 OA
ENDBRANCH 102 103
ENDBRANCH  70  95
ENDBRANCH  44  45
ENDBRANCH  36  39
ENDBRANCH  34  35
ENDBRANCH   1  34
TORSDOF 17
ENDMDL
