MODEL 1
REMARK VINA RESULT:     -11.5      0.000      0.000
REMARK SMILES Cc1n[nH]c(CN(C)C(=O)N[C@](C)(C(=O)NCCCCNC(=O)c2ccc(-c3c4nc(c(-c5c(F)cc(S(=O)(=O)[O-])cc5F)c5ccc([nH]5)c(-c5c(F)cc(S(=O)(=O)[O-])cc5F)c5nc(c(-c6c(F)cc(S(=O)(=O)[O-])cc6F)c6ccc3[nH]6)C=C5)C=C4)cc2)C(F)(F)F)n1
REMARK SMILES IDX 18 1 17 2 16 3 14 4 15 5 12 7 13 8 11 9 9 10 10 11 7 13 8 14
REMARK SMILES IDX 6 15 5 16 1 17 2 18 3 19 94 20 4 21 90 23 91 24 92 25 93 26
REMARK SMILES IDX 19 27 20 28 21 29 22 30 23 32 24 33 25 34 89 35 26 36 88 37
REMARK SMILES IDX 27 38 28 39 29 40 82 41 30 42 87 43 81 44 83 45 31 46 86 47
REMARK SMILES IDX 80 48 79 49 32 51 66 52 45 53 65 54 46 55 49 56 64 57 84 58
REMARK SMILES IDX 47 59 48 60 63 62 85 63 50 64 33 65 34 66 43 67 35 68 36 69
REMARK SMILES IDX 42 70 44 71 37 72 38 73 39 74 40 75 41 76 67 77 68 78 77 79
REMARK SMILES IDX 69 80 70 81 76 82 78 83 71 84 72 85 73 86 74 87 75 88 51 89
REMARK SMILES IDX 52 90 61 91 53 92 54 93 60 94 62 95 55 96 56 97 57 98 58 99
REMARK SMILES IDX 59 100
REMARK H PARENT 16 6 11 12 4 22 21 31 83 50 49 61
REMARK Flexibility Score: inf
ROOT
ATOM      1  C   UNL A   1      38.026  22.009  25.749  1.00  0.00     0.023 C 
ENDROOT
BRANCH   1   2
ATOM      2  C   UNL A   1      36.695  21.386  25.324  1.00  0.00     0.116 C 
BRANCH   2   3
ATOM      3  N   UNL A   1      35.681  21.552  26.356  1.00  0.00    -0.354 N 
ATOM      4  C   UNL A   1      34.320  21.396  26.328  1.00  0.00     0.255 C 
ATOM      5  O   UNL A   1      33.732  21.644  27.384  1.00  0.00    -0.272 OA
ATOM      6  H   UNL A   1      36.037  21.825  27.233  1.00  0.00     0.163 HD
BRANCH   4   7
ATOM      7  C   UNL A   1      33.561  21.080  25.032  1.00  0.00     0.213 C 
ATOM      8  C   UNL A   1      32.088  21.489  25.323  1.00  0.00     0.056 C 
BRANCH   7   9
ATOM      9  N   UNL A   1      34.022  21.885  23.864  1.00  0.00    -0.316 N 
ATOM     10  C   UNL A   1      34.247  23.176  23.570  1.00  0.00     0.318 C 
ATOM     11  O   UNL A   1      34.643  23.363  22.413  1.00  0.00    -0.249 OA
ATOM     12  H   UNL A   1      34.215  21.308  23.091  1.00  0.00     0.166 HD
BRANCH  10  13
ATOM     13  N   UNL A   1      33.901  24.216  24.377  1.00  0.00    -0.320 N 
ATOM     14  C   UNL A   1      34.686  24.875  25.413  1.00  0.00     0.149 C 
BRANCH  13  15
ATOM     15  C   UNL A   1      32.682  24.941  24.006  1.00  0.00     0.197 C 
BRANCH  15  16
ATOM     16  C   UNL A   1      32.269  25.810  25.133  1.00  0.00     0.144 A 
ATOM     17  C   UNL A   1      31.776  28.841  26.833  1.00  0.00     0.092 C 
ATOM     18  C   UNL A   1      31.822  27.438  26.385  1.00  0.00     0.147 A 
ATOM     19  N   UNL A   1      31.039  26.469  26.875  1.00  0.00    -0.159 NA
ATOM     20  N   UNL A   1      32.609  27.064  25.335  1.00  0.00    -0.215 NA
ATOM     21  N   UNL A   1      31.364  25.437  26.082  1.00  0.00    -0.262 N 
ATOM     22  H   UNL A   1      30.996  24.528  26.175  1.00  0.00     0.192 HD
ENDBRANCH  15  16
ENDBRANCH  13  15
ENDBRANCH  10  13
ENDBRANCH   7   9
BRANCH   7  23
ATOM     23  C   UNL A   1      33.502  19.556  24.764  1.00  0.00     0.420 C 
ATOM     24  F   UNL A   1      34.732  18.998  24.657  1.00  0.00    -0.168 F 
ATOM     25  F   UNL A   1      32.911  18.937  25.829  1.00  0.00    -0.168 F 
ATOM     26  F   UNL A   1      32.790  19.192  23.684  1.00  0.00    -0.168 F 
ENDBRANCH   7  23
ENDBRANCH   4   7
ENDBRANCH   2   3
ENDBRANCH   1   2
BRANCH   1  27
ATOM     27  C   UNL A   1      39.223  21.046  25.716  1.00  0.00     0.023 C 
BRANCH  27  28
ATOM     28  C   UNL A   1      40.389  21.480  26.599  1.00  0.00     0.116 C 
BRANCH  28  29
ATOM     29  N   UNL A   1      41.604  21.693  25.827  1.00  0.00    -0.352 N 
ATOM     30  C   UNL A   1      42.263  22.879  25.576  1.00  0.00     0.251 C 
ATOM     31  H   UNL A   1      42.009  20.887  25.433  1.00  0.00     0.163 HD
ATOM     32  O   UNL A   1      43.028  22.958  24.627  1.00  0.00    -0.269 OA
BRANCH  30  33
ATOM     33  C   UNL A   1      42.032  24.046  26.453  1.00  0.00     0.039 A 
ATOM     34  C   UNL A   1      42.676  24.120  27.690  1.00  0.00     0.014 A 
ATOM     35  C   UNL A   1      41.145  25.051  26.060  1.00  0.00     0.014 A 
ATOM     36  C   UNL A   1      42.473  25.241  28.492  1.00  0.00     0.010 A 
ATOM     37  C   UNL A   1      41.014  26.200  26.813  1.00  0.00     0.010 A 
ATOM     38  C   UNL A   1      41.658  26.293  28.040  1.00  0.00    -0.014 A 
BRANCH  38  39
ATOM     39  C   UNL A   1      41.633  27.552  28.787  1.00  0.00     0.031 A 
ATOM     40  C   UNL A   1      42.653  28.533  28.328  1.00  0.00     0.074 A 
ATOM     41  C   UNL A   1      40.695  27.919  29.686  1.00  0.00     0.049 A 
ATOM     42  N   UNL A   1      43.735  28.875  28.943  1.00  0.00    -0.248 NA
ATOM     43  C   UNL A   1      42.559  29.060  26.957  1.00  0.00     0.031 C 
ATOM     44  C   UNL A   1      39.445  27.241  30.031  1.00  0.00     0.029 A 
ATOM     45  N   UNL A   1      40.627  29.061  30.430  1.00  0.00    -0.354 N 
ATOM     46  C   UNL A   1      44.335  29.850  28.153  1.00  0.00     0.074 A 
ATOM     47  C   UNL A   1      43.689  29.768  26.871  1.00  0.00     0.031 C 
ATOM     48  C   UNL A   1      38.647  28.087  30.722  1.00  0.00     0.029 A 
ATOM     49  C   UNL A   1      39.386  29.305  31.013  1.00  0.00     0.049 A 
ATOM     50  H   UNL A   1      41.396  29.666  30.545  1.00  0.00     0.167 HD
ATOM     51  C   UNL A   1      45.140  30.799  28.710  1.00  0.00     0.037 A 
ATOM     52  C   UNL A   1      38.990  30.437  31.657  1.00  0.00     0.037 A 
ATOM     53  C   UNL A   1      45.543  30.409  30.042  1.00  0.00     0.049 A 
ATOM     54  C   UNL A   1      40.222  31.149  32.088  1.00  0.00     0.074 A 
ATOM     55  C   UNL A   1      46.161  29.294  30.581  1.00  0.00     0.029 A 
ATOM     56  N   UNL A   1      44.953  31.051  31.106  1.00  0.00    -0.354 N 
ATOM     57  N   UNL A   1      41.039  30.702  33.003  1.00  0.00    -0.248 NA
ATOM     58  C   UNL A   1      40.788  32.128  31.173  1.00  0.00     0.031 C 
ATOM     59  C   UNL A   1      45.476  29.053  31.808  1.00  0.00     0.029 A 
ATOM     60  C   UNL A   1      44.553  30.083  31.990  1.00  0.00     0.049 A 
ATOM     61  H   UNL A   1      44.839  32.023  31.213  1.00  0.00     0.167 HD
ATOM     62  C   UNL A   1      42.303  30.979  32.507  1.00  0.00     0.074 A 
ATOM     63  C   UNL A   1      42.086  31.935  31.422  1.00  0.00     0.031 C 
ATOM     64  C   UNL A   1      43.379  30.200  32.825  1.00  0.00     0.037 A 
BRANCH  51  65
ATOM     65  C   UNL A   1      45.244  32.234  28.232  1.00  0.00     0.058 A 
ATOM     66  C   UNL A   1      46.525  32.777  27.989  1.00  0.00     0.135 A 
ATOM     67  C   UNL A   1      44.192  33.174  28.288  1.00  0.00     0.135 A 
ATOM     68  F   UNL A   1      47.603  31.982  27.899  1.00  0.00    -0.206 F 
ATOM     69  C   UNL A   1      46.757  34.151  27.922  1.00  0.00     0.059 A 
ATOM     70  C   UNL A   1      44.394  34.545  28.170  1.00  0.00     0.059 A 
ATOM     71  F   UNL A   1      42.928  32.830  28.553  1.00  0.00    -0.206 F 
ATOM     72  C   UNL A   1      45.685  35.027  28.035  1.00  0.00     0.060 A 
BRANCH  72  73
ATOM     73  S   UNL A   1      45.990  36.800  28.049  1.00  0.00     0.124 S 
ATOM     74  O   UNL A   1      47.204  36.877  28.854  1.00  0.00    -0.237 OA
ATOM     75  O   UNL A   1      46.142  37.090  26.628  1.00  0.00    -0.237 OA
ATOM     76  O   UNL A   1      44.783  37.341  28.668  1.00  0.00    -0.744 OA
ENDBRANCH  72  73
ENDBRANCH  51  65
BRANCH  52  77
ATOM     77  C   UNL A   1      37.651  31.092  31.662  1.00  0.00     0.058 A 
ATOM     78  C   UNL A   1      36.974  31.379  32.865  1.00  0.00     0.135 A 
ATOM     79  C   UNL A   1      37.142  31.720  30.510  1.00  0.00     0.135 A 
ATOM     80  F   UNL A   1      37.401  30.849  34.022  1.00  0.00    -0.206 F 
ATOM     81  C   UNL A   1      35.896  32.272  32.927  1.00  0.00     0.059 A 
ATOM     82  C   UNL A   1      36.063  32.603  30.547  1.00  0.00     0.059 A 
ATOM     83  F   UNL A   1      37.748  31.579  29.323  1.00  0.00    -0.206 F 
ATOM     84  C   UNL A   1      35.460  32.898  31.761  1.00  0.00     0.060 A 
BRANCH  84  85
ATOM     85  S   UNL A   1      34.199  34.192  31.847  1.00  0.00     0.124 S 
ATOM     86  O   UNL A   1      33.282  33.662  32.849  1.00  0.00    -0.237 OA
ATOM     87  O   UNL A   1      34.980  35.358  32.248  1.00  0.00    -0.237 OA
ATOM     88  O   UNL A   1      33.671  34.242  30.485  1.00  0.00    -0.744 OA
ENDBRANCH  84  85
ENDBRANCH  52  77
BRANCH  64  89
ATOM     89  C   UNL A   1      43.282  29.246  33.988  1.00  0.00     0.058 A 
ATOM     90  C   UNL A   1      43.508  29.577  35.335  1.00  0.00     0.135 A 
ATOM     91  C   UNL A   1      42.786  27.958  33.722  1.00  0.00     0.135 A 
ATOM     92  F   UNL A   1      43.873  30.816  35.695  1.00  0.00    -0.206 F 
ATOM     93  C   UNL A   1      43.296  28.652  36.362  1.00  0.00     0.059 A 
ATOM     94  C   UNL A   1      42.531  27.037  34.730  1.00  0.00     0.059 A 
ATOM     95  F   UNL A   1      42.494  27.595  32.460  1.00  0.00    -0.206 F 
ATOM     96  C   UNL A   1      42.806  27.383  36.049  1.00  0.00     0.060 A 
BRANCH  96  97
ATOM     97  S   UNL A   1      42.476  26.207  37.378  1.00  0.00     0.124 S 
ATOM     98  O   UNL A   1      41.060  26.435  37.645  1.00  0.00    -0.237 OA
ATOM     99  O   UNL A   1      42.808  24.927  36.759  1.00  0.00    -0.237 OA
ATOM    100  O   UNL A   1      43.386  26.628  38.441  1.00  0.00    -0.744 OA
ENDBRANCH  96  97
ENDBRANCH  64  89
ENDBRANCH  38  39
ENDBRANCH  30  33
ENDBRANCH  28  29
ENDBRANCH  27  28
ENDBRANCH   1  27
TORSDOF 19
ENDMDL
MODEL 2
REMARK VINA RESULT:     -11.4      3.017      9.221
REMARK SMILES Cc1n[nH]c(CN(C)C(=O)N[C@](C)(C(=O)NCCCCNC(=O)c2ccc(-c3c4nc(c(-c5c(F)cc(S(=O)(=O)[O-])cc5F)c5ccc([nH]5)c(-c5c(F)cc(S(=O)(=O)[O-])cc5F)c5nc(c(-c6c(F)cc(S(=O)(=O)[O-])cc6F)c6ccc3[nH]6)C=C5)C=C4)cc2)C(F)(F)F)n1
REMARK SMILES IDX 18 1 17 2 16 3 14 4 15 5 12 7 13 8 11 9 9 10 10 11 7 13 8 14
REMARK SMILES IDX 6 15 5 16 1 17 2 18 3 19 94 20 4 21 90 23 91 24 92 25 93 26
REMARK SMILES IDX 19 27 20 28 21 29 22 30 23 32 24 33 25 34 89 35 26 36 88 37
REMARK SMILES IDX 27 38 28 39 29 40 82 41 30 42 87 43 81 44 83 45 31 46 86 47
REMARK SMILES IDX 80 48 79 49 32 51 66 52 45 53 65 54 46 55 49 56 64 57 84 58
REMARK SMILES IDX 47 59 48 60 63 62 85 63 50 64 33 65 34 66 43 67 35 68 36 69
REMARK SMILES IDX 42 70 44 71 37 72 38 73 39 74 40 75 41 76 67 77 68 78 77 79
REMARK SMILES IDX 69 80 70 81 76 82 78 83 71 84 72 85 73 86 74 87 75 88 51 89
REMARK SMILES IDX 52 90 61 91 53 92 54 93 60 94 62 95 55 96 56 97 57 98 58 99
REMARK SMILES IDX 59 100
REMARK H PARENT 16 6 11 12 4 22 21 31 83 50 49 61
REMARK Flexibility Score: inf
ROOT
ATOM      1  C   UNL A   1      31.853  27.927  26.344  1.00  0.00     0.023 C 
ENDROOT
BRANCH   1   2
ATOM      2  C   UNL A   1      32.639  26.654  26.662  1.00  0.00     0.116 C 
BRANCH   2   3
ATOM      3  N   UNL A   1      31.925  25.466  26.211  1.00  0.00    -0.354 N 
ATOM      4  C   UNL A   1      32.276  24.471  25.337  1.00  0.00     0.255 C 
ATOM      5  O   UNL A   1      31.421  23.604  25.144  1.00  0.00    -0.272 OA
ATOM      6  H   UNL A   1      31.029  25.359  26.605  1.00  0.00     0.163 HD
BRANCH   4   7
ATOM      7  C   UNL A   1      33.585  24.512  24.537  1.00  0.00     0.213 C 
ATOM      8  C   UNL A   1      33.377  23.490  23.381  1.00  0.00     0.056 C 
BRANCH   7   9
ATOM      9  N   UNL A   1      33.857  25.838  23.912  1.00  0.00    -0.316 N 
ATOM     10  C   UNL A   1      33.250  26.682  23.061  1.00  0.00     0.318 C 
ATOM     11  O   UNL A   1      33.897  27.711  22.831  1.00  0.00    -0.249 OA
ATOM     12  H   UNL A   1      34.726  26.196  24.204  1.00  0.00     0.166 HD
BRANCH  10  13
ATOM     13  N   UNL A   1      32.125  26.380  22.356  1.00  0.00    -0.320 N 
ATOM     14  C   UNL A   1      32.001  25.683  21.082  1.00  0.00     0.149 C 
BRANCH  13  15
ATOM     15  C   UNL A   1      30.854  26.546  23.066  1.00  0.00     0.197 C 
BRANCH  15  16
ATOM     16  C   UNL A   1      30.205  27.800  22.618  1.00  0.00     0.144 A 
ATOM     17  C   UNL A   1      27.787  30.345  22.641  1.00  0.00     0.092 C 
ATOM     18  C   UNL A   1      28.951  29.474  22.402  1.00  0.00     0.147 A 
ATOM     19  N   UNL A   1      30.085  29.881  21.820  1.00  0.00    -0.159 NA
ATOM     20  N   UNL A   1      28.978  28.195  22.879  1.00  0.00    -0.215 NA
ATOM     21  N   UNL A   1      30.856  28.790  21.943  1.00  0.00    -0.262 N 
ATOM     22  H   UNL A   1      31.772  28.714  21.591  1.00  0.00     0.192 HD
ENDBRANCH  15  16
ENDBRANCH  13  15
ENDBRANCH  10  13
ENDBRANCH   7   9
BRANCH   7  23
ATOM     23  C   UNL A   1      34.771  23.946  25.356  1.00  0.00     0.420 C 
ATOM     24  F   UNL A   1      34.438  23.688  26.643  1.00  0.00    -0.168 F 
ATOM     25  F   UNL A   1      35.146  22.743  24.828  1.00  0.00    -0.168 F 
ATOM     26  F   UNL A   1      35.878  24.708  25.362  1.00  0.00    -0.168 F 
ENDBRANCH   7  23
ENDBRANCH   4   7
ENDBRANCH   2   3
ENDBRANCH   1   2
BRANCH   1  27
ATOM     27  C   UNL A   1      32.101  29.092  27.315  1.00  0.00     0.023 C 
BRANCH  27  28
ATOM     28  C   UNL A   1      33.458  29.764  27.139  1.00  0.00     0.116 C 
BRANCH  28  29
ATOM     29  N   UNL A   1      33.508  31.067  27.785  1.00  0.00    -0.352 N 
ATOM     30  C   UNL A   1      34.485  31.575  28.616  1.00  0.00     0.251 C 
ATOM     31  H   UNL A   1      32.745  31.664  27.606  1.00  0.00     0.163 HD
ATOM     32  O   UNL A   1      34.220  32.501  29.367  1.00  0.00    -0.269 OA
BRANCH  30  33
ATOM     33  C   UNL A   1      35.842  30.990  28.594  1.00  0.00     0.039 A 
ATOM     34  C   UNL A   1      36.953  31.811  28.797  1.00  0.00     0.014 A 
ATOM     35  C   UNL A   1      36.011  29.628  28.335  1.00  0.00     0.014 A 
ATOM     36  C   UNL A   1      38.223  31.240  28.805  1.00  0.00     0.010 A 
ATOM     37  C   UNL A   1      37.261  29.049  28.432  1.00  0.00     0.010 A 
ATOM     38  C   UNL A   1      38.374  29.852  28.646  1.00  0.00    -0.014 A 
BRANCH  38  39
ATOM     39  C   UNL A   1      39.684  29.241  28.878  1.00  0.00     0.031 A 
ATOM     40  C   UNL A   1      39.990  29.028  30.319  1.00  0.00     0.074 A 
ATOM     41  C   UNL A   1      40.500  28.735  27.929  1.00  0.00     0.049 A 
ATOM     42  N   UNL A   1      40.829  29.690  31.041  1.00  0.00    -0.248 NA
ATOM     43  C   UNL A   1      39.147  28.100  31.090  1.00  0.00     0.031 C 
ATOM     44  C   UNL A   1      40.238  28.554  26.501  1.00  0.00     0.029 A 
ATOM     45  N   UNL A   1      41.737  28.177  28.077  1.00  0.00    -0.354 N 
ATOM     46  C   UNL A   1      40.804  29.099  32.301  1.00  0.00     0.074 A 
ATOM     47  C   UNL A   1      39.621  28.281  32.326  1.00  0.00     0.031 C 
ATOM     48  C   UNL A   1      41.170  27.727  25.972  1.00  0.00     0.029 A 
ATOM     49  C   UNL A   1      42.185  27.452  26.976  1.00  0.00     0.049 A 
ATOM     50  H   UNL A   1      42.271  28.279  28.898  1.00  0.00     0.167 HD
ATOM     51  C   UNL A   1      41.896  29.148  33.115  1.00  0.00     0.037 A 
ATOM     52  C   UNL A   1      43.290  26.661  26.909  1.00  0.00     0.037 A 
ATOM     53  C   UNL A   1      42.825  30.158  32.662  1.00  0.00     0.049 A 
ATOM     54  C   UNL A   1      44.204  27.092  27.999  1.00  0.00     0.074 A 
ATOM     55  C   UNL A   1      42.728  31.512  32.389  1.00  0.00     0.029 A 
ATOM     56  N   UNL A   1      43.976  29.740  32.035  1.00  0.00    -0.354 N 
ATOM     57  N   UNL A   1      44.815  28.247  28.023  1.00  0.00    -0.248 NA
ATOM     58  C   UNL A   1      44.075  26.431  29.288  1.00  0.00     0.031 C 
ATOM     59  C   UNL A   1      43.509  31.705  31.211  1.00  0.00     0.029 A 
ATOM     60  C   UNL A   1      44.109  30.486  30.894  1.00  0.00     0.049 A 
ATOM     61  H   UNL A   1      44.590  29.037  32.349  1.00  0.00     0.167 HD
ATOM     62  C   UNL A   1      44.731  28.658  29.344  1.00  0.00     0.074 A 
ATOM     63  C   UNL A   1      44.345  27.463  30.091  1.00  0.00     0.031 C 
ATOM     64  C   UNL A   1      44.702  29.983  29.675  1.00  0.00     0.037 A 
BRANCH  51  65
ATOM     65  C   UNL A   1      42.317  28.046  34.065  1.00  0.00     0.058 A 
ATOM     66  C   UNL A   1      42.147  28.243  35.453  1.00  0.00     0.135 A 
ATOM     67  C   UNL A   1      43.138  26.952  33.709  1.00  0.00     0.135 A 
ATOM     68  F   UNL A   1      41.376  29.241  35.915  1.00  0.00    -0.206 F 
ATOM     69  C   UNL A   1      42.827  27.488  36.409  1.00  0.00     0.059 A 
ATOM     70  C   UNL A   1      43.783  26.154  34.647  1.00  0.00     0.059 A 
ATOM     71  F   UNL A   1      43.436  26.655  32.441  1.00  0.00    -0.206 F 
ATOM     72  C   UNL A   1      43.660  26.458  35.991  1.00  0.00     0.060 A 
BRANCH  72  73
ATOM     73  S   UNL A   1      44.618  25.547  37.212  1.00  0.00     0.124 S 
ATOM     74  O   UNL A   1      44.237  24.172  36.909  1.00  0.00    -0.237 OA
ATOM     75  O   UNL A   1      45.983  25.926  36.868  1.00  0.00    -0.237 OA
ATOM     76  O   UNL A   1      44.129  26.075  38.482  1.00  0.00    -0.744 OA
ENDBRANCH  72  73
ENDBRANCH  51  65
BRANCH  52  77
ATOM     77  C   UNL A   1      43.481  25.377  26.175  1.00  0.00     0.058 A 
ATOM     78  C   UNL A   1      44.609  25.152  25.362  1.00  0.00     0.135 A 
ATOM     79  C   UNL A   1      42.718  24.237  26.490  1.00  0.00     0.135 A 
ATOM     80  F   UNL A   1      45.415  26.173  25.029  1.00  0.00    -0.206 F 
ATOM     81  C   UNL A   1      44.986  23.872  24.933  1.00  0.00     0.059 A 
ATOM     82  C   UNL A   1      43.067  22.956  26.065  1.00  0.00     0.059 A 
ATOM     83  F   UNL A   1      41.665  24.318  27.315  1.00  0.00    -0.206 F 
ATOM     84  C   UNL A   1      44.216  22.773  25.310  1.00  0.00     0.060 A 
BRANCH  84  85
ATOM     85  S   UNL A   1      44.785  21.098  24.930  1.00  0.00     0.124 S 
ATOM     86  O   UNL A   1      43.873  20.278  25.719  1.00  0.00    -0.237 OA
ATOM     87  O   UNL A   1      44.611  21.034  23.482  1.00  0.00    -0.237 OA
ATOM     88  O   UNL A   1      46.173  21.100  25.387  1.00  0.00    -0.744 OA
ENDBRANCH  84  85
ENDBRANCH  52  77
BRANCH  64  89
ATOM     89  C   UNL A   1      45.111  31.010  28.651  1.00  0.00     0.058 A 
ATOM     90  C   UNL A   1      44.317  31.458  27.583  1.00  0.00     0.135 A 
ATOM     91  C   UNL A   1      46.329  31.680  28.865  1.00  0.00     0.135 A 
ATOM     92  F   UNL A   1      43.091  30.957  27.370  1.00  0.00    -0.206 F 
ATOM     93  C   UNL A   1      44.738  32.490  26.738  1.00  0.00     0.059 A 
ATOM     94  C   UNL A   1      46.749  32.733  28.062  1.00  0.00     0.059 A 
ATOM     95  F   UNL A   1      47.112  31.340  29.904  1.00  0.00    -0.206 F 
ATOM     96  C   UNL A   1      45.956  33.122  26.988  1.00  0.00     0.060 A 
BRANCH  96  97
ATOM     97  S   UNL A   1      46.475  34.494  25.935  1.00  0.00     0.124 S 
ATOM     98  O   UNL A   1      46.274  35.645  26.808  1.00  0.00    -0.237 OA
ATOM     99  O   UNL A   1      47.865  34.158  25.637  1.00  0.00    -0.237 OA
ATOM    100  O   UNL A   1      45.567  34.411  24.793  1.00  0.00    -0.744 OA
ENDBRANCH  96  97
ENDBRANCH  64  89
ENDBRANCH  38  39
ENDBRANCH  30  33
ENDBRANCH  28  29
ENDBRANCH  27  28
ENDBRANCH   1  27
TORSDOF 19
ENDMDL
MODEL 3
REMARK VINA RESULT:     -11.4      1.399      2.042
REMARK SMILES Cc1n[nH]c(CN(C)C(=O)N[C@](C)(C(=O)NCCCCNC(=O)c2ccc(-c3c4nc(c(-c5c(F)cc(S(=O)(=O)[O-])cc5F)c5ccc([nH]5)c(-c5c(F)cc(S(=O)(=O)[O-])cc5F)c5nc(c(-c6c(F)cc(S(=O)(=O)[O-])cc6F)c6ccc3[nH]6)C=C5)C=C4)cc2)C(F)(F)F)n1
REMARK SMILES IDX 18 1 17 2 16 3 14 4 15 5 12 7 13 8 11 9 9 10 10 11 7 13 8 14
REMARK SMILES IDX 6 15 5 16 1 17 2 18 3 19 94 20 4 21 90 23 91 24 92 25 93 26
REMARK SMILES IDX 19 27 20 28 21 29 22 30 23 32 24 33 25 34 89 35 26 36 88 37
REMARK SMILES IDX 27 38 28 39 29 40 82 41 30 42 87 43 81 44 83 45 31 46 86 47
REMARK SMILES IDX 80 48 79 49 32 51 66 52 45 53 65 54 46 55 49 56 64 57 84 58
REMARK SMILES IDX 47 59 48 60 63 62 85 63 50 64 33 65 34 66 43 67 35 68 36 69
REMARK SMILES IDX 42 70 44 71 37 72 38 73 39 74 40 75 41 76 67 77 68 78 77 79
REMARK SMILES IDX 69 80 70 81 76 82 78 83 71 84 72 85 73 86 74 87 75 88 51 89
REMARK SMILES IDX 52 90 61 91 53 92 54 93 60 94 62 95 55 96 56 97 57 98 58 99
REMARK SMILES IDX 59 100
REMARK H PARENT 16 6 11 12 4 22 21 31 83 50 49 61
REMARK Flexibility Score: inf
ROOT
ATOM      1  C   UNL A   1      36.103  21.061  24.706  1.00  0.00     0.023 C 
ENDROOT
BRANCH   1   2
ATOM      2  C   UNL A   1      35.233  21.204  25.956  1.00  0.00     0.116 C 
BRANCH   2   3
ATOM      3  N   UNL A   1      33.951  20.532  25.786  1.00  0.00    -0.354 N 
ATOM      4  C   UNL A   1      32.790  20.930  25.178  1.00  0.00     0.255 C 
ATOM      5  O   UNL A   1      31.857  20.124  25.230  1.00  0.00    -0.272 OA
ATOM      6  H   UNL A   1      33.912  19.631  26.179  1.00  0.00     0.163 HD
BRANCH   4   7
ATOM      7  C   UNL A   1      32.611  22.340  24.600  1.00  0.00     0.213 C 
ATOM      8  C   UNL A   1      31.169  22.759  25.011  1.00  0.00     0.056 C 
BRANCH   7   9
ATOM      9  N   UNL A   1      33.547  23.342  25.185  1.00  0.00    -0.316 N 
ATOM     10  C   UNL A   1      33.708  24.676  25.185  1.00  0.00     0.318 C 
ATOM     11  O   UNL A   1      34.678  25.063  25.848  1.00  0.00    -0.249 OA
ATOM     12  H   UNL A   1      34.245  22.903  25.723  1.00  0.00     0.166 HD
BRANCH  10  13
ATOM     13  N   UNL A   1      33.009  25.530  24.389  1.00  0.00    -0.320 N 
ATOM     14  C   UNL A   1      33.280  25.935  23.015  1.00  0.00     0.149 C 
BRANCH  13  15
ATOM     15  C   UNL A   1      31.676  25.910  24.865  1.00  0.00     0.197 C 
BRANCH  15  16
ATOM     16  C   UNL A   1      31.810  26.933  25.928  1.00  0.00     0.144 A 
ATOM     17  C   UNL A   1      32.638  30.065  27.280  1.00  0.00     0.092 C 
ATOM     18  C   UNL A   1      32.165  28.695  27.020  1.00  0.00     0.147 A 
ATOM     19  N   UNL A   1      31.269  28.054  27.781  1.00  0.00    -0.159 NA
ATOM     20  N   UNL A   1      32.540  28.026  25.890  1.00  0.00    -0.215 NA
ATOM     21  N   UNL A   1      31.082  26.925  27.081  1.00  0.00    -0.262 N 
ATOM     22  H   UNL A   1      30.496  26.186  27.365  1.00  0.00     0.192 HD
ENDBRANCH  15  16
ENDBRANCH  13  15
ENDBRANCH  10  13
ENDBRANCH   7   9
BRANCH   7  23
ATOM     23  C   UNL A   1      32.591  22.323  23.052  1.00  0.00     0.420 C 
ATOM     24  F   UNL A   1      32.311  21.098  22.548  1.00  0.00    -0.168 F 
ATOM     25  F   UNL A   1      31.589  23.139  22.608  1.00  0.00    -0.168 F 
ATOM     26  F   UNL A   1      33.715  22.765  22.460  1.00  0.00    -0.168 F 
ENDBRANCH   7  23
ENDBRANCH   4   7
ENDBRANCH   2   3
ENDBRANCH   1   2
BRANCH   1  27
ATOM     27  C   UNL A   1      37.088  22.218  24.475  1.00  0.00     0.023 C 
BRANCH  27  28
ATOM     28  C   UNL A   1      37.676  22.793  25.759  1.00  0.00     0.116 C 
BRANCH  28  29
ATOM     29  N   UNL A   1      38.677  21.912  26.342  1.00  0.00    -0.352 N 
ATOM     30  C   UNL A   1      39.902  22.246  26.882  1.00  0.00     0.251 C 
ATOM     31  H   UNL A   1      38.451  20.954  26.351  1.00  0.00     0.163 HD
ATOM     32  O   UNL A   1      40.773  21.395  26.980  1.00  0.00    -0.269 OA
BRANCH  30  33
ATOM     33  C   UNL A   1      40.151  23.631  27.332  1.00  0.00     0.039 A 
ATOM     34  C   UNL A   1      39.131  24.580  27.252  1.00  0.00     0.014 A 
ATOM     35  C   UNL A   1      41.415  23.994  27.803  1.00  0.00     0.014 A 
ATOM     36  C   UNL A   1      39.372  25.873  27.710  1.00  0.00     0.010 A 
ATOM     37  C   UNL A   1      41.626  25.250  28.338  1.00  0.00     0.010 A 
ATOM     38  C   UNL A   1      40.616  26.201  28.276  1.00  0.00    -0.014 A 
BRANCH  38  39
ATOM     39  C   UNL A   1      40.780  27.489  28.951  1.00  0.00     0.031 A 
ATOM     40  C   UNL A   1      41.805  28.363  28.318  1.00  0.00     0.074 A 
ATOM     41  C   UNL A   1      39.995  27.970  29.939  1.00  0.00     0.049 A 
ATOM     42  N   UNL A   1      42.978  28.642  28.777  1.00  0.00    -0.248 NA
ATOM     43  C   UNL A   1      41.578  28.835  26.944  1.00  0.00     0.031 C 
ATOM     44  C   UNL A   1      38.751  27.410  30.470  1.00  0.00     0.029 A 
ATOM     45  N   UNL A   1      40.107  29.145  30.623  1.00  0.00    -0.354 N 
ATOM     46  C   UNL A   1      43.546  29.530  27.868  1.00  0.00     0.074 A 
ATOM     47  C   UNL A   1      42.737  29.444  26.681  1.00  0.00     0.031 C 
ATOM     48  C   UNL A   1      38.113  28.349  31.208  1.00  0.00     0.029 A 
ATOM     49  C   UNL A   1      38.973  29.514  31.340  1.00  0.00     0.049 A 
ATOM     50  H   UNL A   1      40.928  29.690  30.610  1.00  0.00     0.167 HD
ATOM     51  C   UNL A   1      44.484  30.433  28.270  1.00  0.00     0.037 A 
ATOM     52  C   UNL A   1      38.748  30.701  31.966  1.00  0.00     0.037 A 
ATOM     53  C   UNL A   1      45.022  30.071  29.561  1.00  0.00     0.049 A 
ATOM     54  C   UNL A   1      40.074  31.329  32.204  1.00  0.00     0.074 A 
ATOM     55  C   UNL A   1      45.617  28.933  30.079  1.00  0.00     0.029 A 
ATOM     56  N   UNL A   1      44.621  30.804  30.654  1.00  0.00    -0.354 N 
ATOM     57  N   UNL A   1      40.965  30.857  33.034  1.00  0.00    -0.248 NA
ATOM     58  C   UNL A   1      40.592  32.218  31.175  1.00  0.00     0.031 C 
ATOM     59  C   UNL A   1      45.077  28.803  31.392  1.00  0.00     0.029 A 
ATOM     60  C   UNL A   1      44.265  29.912  31.631  1.00  0.00     0.049 A 
ATOM     61  H   UNL A   1      44.596  31.786  30.722  1.00  0.00     0.167 HD
ATOM     62  C   UNL A   1      42.173  31.009  32.372  1.00  0.00     0.074 A 
ATOM     63  C   UNL A   1      41.892  31.931  31.272  1.00  0.00     0.031 C 
ATOM     64  C   UNL A   1      43.219  30.159  32.597  1.00  0.00     0.037 A 
BRANCH  51  65
ATOM     65  C   UNL A   1      44.634  31.832  27.707  1.00  0.00     0.058 A 
ATOM     66  C   UNL A   1      45.786  32.141  26.951  1.00  0.00     0.135 A 
ATOM     67  C   UNL A   1      43.867  32.946  28.116  1.00  0.00     0.135 A 
ATOM     68  F   UNL A   1      46.588  31.165  26.493  1.00  0.00    -0.206 F 
ATOM     69  C   UNL A   1      46.204  33.451  26.719  1.00  0.00     0.059 A 
ATOM     70  C   UNL A   1      44.237  34.259  27.848  1.00  0.00     0.059 A 
ATOM     71  F   UNL A   1      42.772  32.831  28.873  1.00  0.00    -0.206 F 
ATOM     72  C   UNL A   1      45.430  34.503  27.191  1.00  0.00     0.060 A 
BRANCH  72  73
ATOM     73  S   UNL A   1      46.015  36.192  26.982  1.00  0.00     0.124 S 
ATOM     74  O   UNL A   1      46.812  36.373  28.190  1.00  0.00    -0.237 OA
ATOM     75  O   UNL A   1      46.758  36.100  25.730  1.00  0.00    -0.237 OA
ATOM     76  O   UNL A   1      44.779  36.967  26.915  1.00  0.00    -0.744 OA
ENDBRANCH  72  73
ENDBRANCH  51  65
BRANCH  52  77
ATOM     77  C   UNL A   1      37.473  31.463  32.101  1.00  0.00     0.058 A 
ATOM     78  C   UNL A   1      37.003  31.899  33.356  1.00  0.00     0.135 A 
ATOM     79  C   UNL A   1      36.844  32.036  30.980  1.00  0.00     0.135 A 
ATOM     80  F   UNL A   1      37.558  31.430  34.485  1.00  0.00    -0.206 F 
ATOM     81  C   UNL A   1      36.011  32.880  33.489  1.00  0.00     0.059 A 
ATOM     82  C   UNL A   1      35.847  33.005  31.089  1.00  0.00     0.059 A 
ATOM     83  F   UNL A   1      37.256  31.752  29.738  1.00  0.00    -0.206 F 
ATOM     84  C   UNL A   1      35.452  33.444  32.344  1.00  0.00     0.060 A 
BRANCH  84  85
ATOM     85  S   UNL A   1      34.311  34.841  32.489  1.00  0.00     0.124 S 
ATOM     86  O   UNL A   1      34.138  35.241  31.097  1.00  0.00    -0.237 OA
ATOM     87  O   UNL A   1      33.151  34.228  33.127  1.00  0.00    -0.237 OA
ATOM     88  O   UNL A   1      35.045  35.792  33.323  1.00  0.00    -0.744 OA
ENDBRANCH  84  85
ENDBRANCH  52  77
BRANCH  64  89
ATOM     89  C   UNL A   1      43.199  29.268  33.812  1.00  0.00     0.058 A 
ATOM     90  C   UNL A   1      42.516  28.045  33.915  1.00  0.00     0.135 A 
ATOM     91  C   UNL A   1      44.047  29.618  34.878  1.00  0.00     0.135 A 
ATOM     92  F   UNL A   1      41.774  27.575  32.901  1.00  0.00    -0.206 F 
ATOM     93  C   UNL A   1      42.635  27.232  35.046  1.00  0.00     0.059 A 
ATOM     94  C   UNL A   1      44.209  28.806  35.994  1.00  0.00     0.059 A 
ATOM     95  F   UNL A   1      44.772  30.748  34.819  1.00  0.00    -0.206 F 
ATOM     96  C   UNL A   1      43.486  27.622  36.081  1.00  0.00     0.060 A 
BRANCH  96  97
ATOM     97  S   UNL A   1      43.686  26.546  37.517  1.00  0.00     0.124 S 
ATOM     98  O   UNL A   1      44.407  25.411  36.952  1.00  0.00    -0.237 OA
ATOM     99  O   UNL A   1      44.445  27.386  38.440  1.00  0.00    -0.237 OA
ATOM    100  O   UNL A   1      42.312  26.268  37.930  1.00  0.00    -0.744 OA
ENDBRANCH  96  97
ENDBRANCH  64  89
ENDBRANCH  38  39
ENDBRANCH  30  33
ENDBRANCH  28  29
ENDBRANCH  27  28
ENDBRANCH   1  27
TORSDOF 19
ENDMDL
