MODEL 1
REMARK VINA RESULT:     -13.0      0.000      0.000
REMARK SMILES O=C(NCCCCNC(=O)c1ccccc1Nc1nc(Cl)nc(Nc2ccc(N3CCOCC3=O)cc2)n1)c1ccc(-c2c3nc(c(-c4c(F)cc(S(=O)(=O)[O-])cc4F)c4ccc([nH]4)c(-c4c(F)cc(S(=O)(=O)[O-])cc4F)c4nc(c(-c5c(F)cc(S(=O)(=O)[O-])cc5F)c5ccc2[nH]5)C=C4)C=C3)cc1
REMARK SMILES IDX 6 1 5 2 4 3 3 4 1 5 2 6 39 8 40 9 104 10 41 11 103 12 42 13
REMARK SMILES IDX 43 14 44 15 97 16 45 17 102 18 96 19 98 20 46 21 101 22
REMARK SMILES IDX 95 23 94 24 47 26 81 27 60 28 80 29 61 30 64 31 79 32 99 33
REMARK SMILES IDX 62 34 63 35 78 37 100 38 65 39 48 40 49 41 58 42 50 43 51 44
REMARK SMILES IDX 57 45 59 46 52 47 53 48 54 49 55 50 56 51 82 52 83 53 92 54
REMARK SMILES IDX 84 55 85 56 91 57 93 58 86 59 87 60 88 61 89 62 90 63 66 64
REMARK SMILES IDX 67 65 76 66 68 67 69 68 75 69 77 70 70 71 71 72 72 73 73 74
REMARK SMILES IDX 74 75 7 76 8 77 9 78 10 80 11 81 12 82 16 83 13 84 15 85
REMARK SMILES IDX 14 86 17 87 18 89 19 90 38 91 20 92 23 93 21 94 22 95 24 96
REMARK SMILES IDX 25 98 26 99 37 100 27 101 36 102 28 103 29 104 30 105 34 106
REMARK SMILES IDX 31 107 33 108 35 109 32 110
REMARK H PARENT 3 7 98 25 64 36 8 79 17 88 24 97
REMARK Flexibility Score: inf
ROOT
ATOM      1  C   UNL A   1      37.587  21.659  24.260  1.00  0.00     0.023 C 
ENDROOT
BRANCH   1   2
ATOM      2  C   UNL A   1      37.971  20.356  24.955  1.00  0.00     0.023 C 
BRANCH   2   3
ATOM      3  C   UNL A   1      38.986  20.485  26.082  1.00  0.00     0.116 C 
BRANCH   3   4
ATOM      4  N   UNL A   1      40.097  19.552  25.973  1.00  0.00    -0.352 N 
ATOM      5  O   UNL A   1      42.254  18.897  25.855  1.00  0.00    -0.269 OA
ATOM      6  C   UNL A   1      41.448  19.791  26.094  1.00  0.00     0.251 C 
ATOM      7  H   UNL A   1      39.849  18.619  25.786  1.00  0.00     0.163 HD
BRANCH   6   8
ATOM      8  C   UNL A   1      41.923  21.141  26.477  1.00  0.00     0.039 A 
ATOM      9  C   UNL A   1      42.216  22.092  25.500  1.00  0.00     0.014 A 
ATOM     10  C   UNL A   1      42.105  21.449  27.830  1.00  0.00     0.014 A 
ATOM     11  C   UNL A   1      42.854  23.273  25.858  1.00  0.00     0.010 A 
ATOM     12  C   UNL A   1      42.655  22.684  28.196  1.00  0.00     0.010 A 
ATOM     13  C   UNL A   1      43.073  23.590  27.210  1.00  0.00    -0.014 A 
BRANCH  13  14
ATOM     14  C   UNL A   1      43.684  24.905  27.541  1.00  0.00     0.031 A 
ATOM     15  C   UNL A   1      45.135  25.195  27.264  1.00  0.00     0.074 A 
ATOM     16  C   UNL A   1      42.883  25.874  28.028  1.00  0.00     0.049 A 
ATOM     17  N   UNL A   1      45.791  26.319  27.416  1.00  0.00    -0.248 NA
ATOM     18  C   UNL A   1      45.962  24.088  26.760  1.00  0.00     0.031 C 
ATOM     19  C   UNL A   1      41.466  25.699  28.366  1.00  0.00     0.029 A 
ATOM     20  N   UNL A   1      43.123  27.197  28.288  1.00  0.00    -0.354 N 
ATOM     21  C   UNL A   1      47.103  26.055  27.040  1.00  0.00     0.074 A 
ATOM     22  C   UNL A   1      47.160  24.654  26.677  1.00  0.00     0.031 C 
ATOM     23  C   UNL A   1      40.948  26.883  28.723  1.00  0.00     0.029 A 
ATOM     24  C   UNL A   1      42.005  27.887  28.696  1.00  0.00     0.049 A 
ATOM     25  H   UNL A   1      44.010  27.614  28.191  1.00  0.00     0.167 HD
ATOM     26  C   UNL A   1      48.158  26.905  26.995  1.00  0.00     0.037 A 
ATOM     27  C   UNL A   1      41.845  29.183  29.019  1.00  0.00     0.037 A 
ATOM     28  C   UNL A   1      48.091  28.303  27.344  1.00  0.00     0.049 A 
ATOM     29  C   UNL A   1      43.024  30.106  28.933  1.00  0.00     0.074 A 
ATOM     30  C   UNL A   1      49.105  29.246  27.326  1.00  0.00     0.029 A 
ATOM     31  N   UNL A   1      46.945  28.961  27.767  1.00  0.00    -0.354 N 
ATOM     32  N   UNL A   1      44.254  29.834  28.568  1.00  0.00    -0.248 NA
ATOM     33  C   UNL A   1      42.796  31.508  29.303  1.00  0.00     0.031 C 
ATOM     34  C   UNL A   1      48.577  30.468  27.762  1.00  0.00     0.029 A 
ATOM     35  C   UNL A   1      47.228  30.294  28.019  1.00  0.00     0.049 A 
ATOM     36  H   UNL A   1      46.060  28.541  27.873  1.00  0.00     0.167 HD
ATOM     37  C   UNL A   1      44.950  31.031  28.673  1.00  0.00     0.074 A 
ATOM     38  C   UNL A   1      43.995  32.035  29.097  1.00  0.00     0.031 C 
ATOM     39  C   UNL A   1      46.266  31.274  28.455  1.00  0.00     0.037 A 
BRANCH  26  40
ATOM     40  C   UNL A   1      49.486  26.354  26.550  1.00  0.00     0.058 A 
ATOM     41  C   UNL A   1      49.877  26.380  25.203  1.00  0.00     0.135 A 
ATOM     42  C   UNL A   1      50.407  25.861  27.489  1.00  0.00     0.135 A 
ATOM     43  F   UNL A   1      49.030  26.827  24.262  1.00  0.00    -0.206 F 
ATOM     44  C   UNL A   1      51.130  25.926  24.799  1.00  0.00     0.059 A 
ATOM     45  C   UNL A   1      51.673  25.420  27.110  1.00  0.00     0.059 A 
ATOM     46  F   UNL A   1      50.086  25.815  28.791  1.00  0.00    -0.206 F 
ATOM     47  C   UNL A   1      52.023  25.450  25.761  1.00  0.00     0.060 A 
BRANCH  47  48
ATOM     48  S   UNL A   1      53.653  24.888  25.225  1.00  0.00     0.124 S 
ATOM     49  O   UNL A   1      54.483  25.278  26.359  1.00  0.00    -0.237 OA
ATOM     50  O   UNL A   1      53.449  23.452  25.055  1.00  0.00    -0.237 OA
ATOM     51  O   UNL A   1      53.882  25.635  23.992  1.00  0.00    -0.744 OA
ENDBRANCH  47  48
ENDBRANCH  26  40
BRANCH  27  52
ATOM     52  C   UNL A   1      40.515  29.671  29.467  1.00  0.00     0.058 A 
ATOM     53  C   UNL A   1      39.462  29.850  28.559  1.00  0.00     0.135 A 
ATOM     54  C   UNL A   1      40.268  29.943  30.821  1.00  0.00     0.135 A 
ATOM     55  F   UNL A   1      39.651  29.604  27.253  1.00  0.00    -0.206 F 
ATOM     56  C   UNL A   1      38.213  30.299  28.975  1.00  0.00     0.059 A 
ATOM     57  C   UNL A   1      39.021  30.366  31.265  1.00  0.00     0.059 A 
ATOM     58  F   UNL A   1      41.239  29.766  31.731  1.00  0.00    -0.206 F 
ATOM     59  C   UNL A   1      38.003  30.554  30.332  1.00  0.00     0.060 A 
BRANCH  59  60
ATOM     60  S   UNL A   1      36.368  31.090  30.880  1.00  0.00     0.124 S 
ATOM     61  O   UNL A   1      35.615  31.045  29.632  1.00  0.00    -0.237 OA
ATOM     62  O   UNL A   1      36.023  30.076  31.871  1.00  0.00    -0.237 OA
ATOM     63  O   UNL A   1      36.620  32.423  31.421  1.00  0.00    -0.744 OA
ENDBRANCH  59  60
ENDBRANCH  27  52
BRANCH  39  64
ATOM     64  C   UNL A   1      46.735  32.683  28.677  1.00  0.00     0.058 A 
ATOM     65  C   UNL A   1      47.374  33.059  29.869  1.00  0.00     0.135 A 
ATOM     66  C   UNL A   1      46.541  33.666  27.694  1.00  0.00     0.135 A 
ATOM     67  F   UNL A   1      47.575  32.157  30.842  1.00  0.00    -0.206 F 
ATOM     68  C   UNL A   1      47.770  34.372  30.096  1.00  0.00     0.059 A 
ATOM     69  C   UNL A   1      46.951  34.981  27.891  1.00  0.00     0.059 A 
ATOM     70  F   UNL A   1      45.944  33.354  26.534  1.00  0.00    -0.206 F 
ATOM     71  C   UNL A   1      47.547  35.329  29.103  1.00  0.00     0.060 A 
BRANCH  71  72
ATOM     72  S   UNL A   1      48.057  37.033  29.408  1.00  0.00     0.124 S 
ATOM     73  O   UNL A   1      49.475  36.979  29.063  1.00  0.00    -0.237 OA
ATOM     74  O   UNL A   1      47.209  37.787  28.490  1.00  0.00    -0.237 OA
ATOM     75  O   UNL A   1      47.762  37.225  30.825  1.00  0.00    -0.744 OA
ENDBRANCH  71  72
ENDBRANCH  39  64
ENDBRANCH  13  14
ENDBRANCH   6   8
ENDBRANCH   3   4
ENDBRANCH   2   3
ENDBRANCH   1   2
BRANCH   1  76
ATOM     76  C   UNL A   1      36.099  21.998  24.269  1.00  0.00     0.116 C 
BRANCH  76  77
ATOM     77  N   UNL A   1      35.491  21.893  25.587  1.00  0.00    -0.352 N 
ATOM     78  C   UNL A   1      34.518  21.024  26.016  1.00  0.00     0.253 C 
ATOM     79  H   UNL A   1      35.820  22.530  26.261  1.00  0.00     0.163 HD
ATOM     80  O   UNL A   1      34.111  21.054  27.173  1.00  0.00    -0.269 OA
BRANCH  78  81
ATOM     81  C   UNL A   1      33.927  20.065  25.065  1.00  0.00     0.063 A 
ATOM     82  C   UNL A   1      34.719  18.963  24.711  1.00  0.00     0.016 A 
ATOM     83  C   UNL A   1      32.624  20.227  24.558  1.00  0.00     0.054 A 
ATOM     84  C   UNL A   1      34.194  17.969  23.890  1.00  0.00     0.001 A 
ATOM     85  C   UNL A   1      32.104  19.183  23.775  1.00  0.00     0.027 A 
ATOM     86  C   UNL A   1      32.882  18.070  23.438  1.00  0.00     0.002 A 
BRANCH  83  87
ATOM     87  N   UNL A   1      31.860  21.370  24.841  1.00  0.00    -0.323 N 
ATOM     88  H   UNL A   1      31.342  21.327  25.678  1.00  0.00     0.170 HD
BRANCH  87  89
ATOM     89  C   UNL A   1      31.721  22.552  24.124  1.00  0.00     0.233 A 
ATOM     90  N   UNL A   1      32.562  22.823  23.139  1.00  0.00    -0.182 NA
ATOM     91  N   UNL A   1      30.722  23.349  24.488  1.00  0.00    -0.176 NA
ATOM     92  C   UNL A   1      32.303  23.960  22.518  1.00  0.00     0.228 A 
ATOM     93  C   UNL A   1      30.614  24.508  23.843  1.00  0.00     0.233 A 
ATOM     94  Cl  UNL A   1      33.345  24.361  21.225  1.00  0.00    -0.041 Cl
ATOM     95  N   UNL A   1      31.374  24.850  22.815  1.00  0.00    -0.182 NA
BRANCH  93  96
ATOM     96  N   UNL A   1      29.731  25.428  24.403  1.00  0.00    -0.324 N 
ATOM     97  H   UNL A   1      29.221  25.107  25.181  1.00  0.00     0.170 HD
BRANCH  96  98
ATOM     98  C   UNL A   1      29.469  26.743  24.012  1.00  0.00     0.041 A 
ATOM     99  C   UNL A   1      30.526  27.649  23.881  1.00  0.00     0.028 A 
ATOM    100  C   UNL A   1      28.187  27.163  23.652  1.00  0.00     0.028 A 
ATOM    101  C   UNL A   1      30.309  28.939  23.381  1.00  0.00     0.028 A 
ATOM    102  C   UNL A   1      27.958  28.469  23.209  1.00  0.00     0.028 A 
ATOM    103  C   UNL A   1      29.019  29.365  23.048  1.00  0.00     0.044 A 
BRANCH 103 104
ATOM    104  N   UNL A   1      28.800  30.666  22.506  1.00  0.00    -0.308 N 
ATOM    105  C   UNL A   1      28.085  30.740  21.226  1.00  0.00     0.154 C 
ATOM    106  C   UNL A   1      28.959  31.813  23.293  1.00  0.00     0.253 C 
ATOM    107  C   UNL A   1      28.150  32.115  20.576  1.00  0.00     0.183 C 
ATOM    108  C   UNL A   1      28.575  33.140  22.618  1.00  0.00     0.260 C 
ATOM    109  O   UNL A   1      29.467  31.828  24.416  1.00  0.00    -0.272 OA
ATOM    110  O   UNL A   1      27.701  33.098  21.503  1.00  0.00    -0.370 OA
ENDBRANCH 103 104
ENDBRANCH  96  98
ENDBRANCH  93  96
ENDBRANCH  87  89
ENDBRANCH  83  87
ENDBRANCH  78  81
ENDBRANCH  76  77
ENDBRANCH   1  76
TORSDOF 19
ENDMDL
MODEL 2
REMARK VINA RESULT:     -12.5      2.548      9.426
REMARK SMILES O=C(NCCCCNC(=O)c1ccccc1Nc1nc(Cl)nc(Nc2ccc(N3CCOCC3=O)cc2)n1)c1ccc(-c2c3nc(c(-c4c(F)cc(S(=O)(=O)[O-])cc4F)c4ccc([nH]4)c(-c4c(F)cc(S(=O)(=O)[O-])cc4F)c4nc(c(-c5c(F)cc(S(=O)(=O)[O-])cc5F)c5ccc2[nH]5)C=C4)C=C3)cc1
REMARK SMILES IDX 6 1 5 2 4 3 3 4 1 5 2 6 39 8 40 9 104 10 41 11 103 12 42 13
REMARK SMILES IDX 43 14 44 15 97 16 45 17 102 18 96 19 98 20 46 21 101 22
REMARK SMILES IDX 95 23 94 24 47 26 81 27 60 28 80 29 61 30 64 31 79 32 99 33
REMARK SMILES IDX 62 34 63 35 78 37 100 38 65 39 48 40 49 41 58 42 50 43 51 44
REMARK SMILES IDX 57 45 59 46 52 47 53 48 54 49 55 50 56 51 82 52 83 53 92 54
REMARK SMILES IDX 84 55 85 56 91 57 93 58 86 59 87 60 88 61 89 62 90 63 66 64
REMARK SMILES IDX 67 65 76 66 68 67 69 68 75 69 77 70 70 71 71 72 72 73 73 74
REMARK SMILES IDX 74 75 7 76 8 77 9 78 10 80 11 81 12 82 16 83 13 84 15 85
REMARK SMILES IDX 14 86 17 87 18 89 19 90 38 91 20 92 23 93 21 94 22 95 24 96
REMARK SMILES IDX 25 98 26 99 37 100 27 101 36 102 28 103 29 104 30 105 34 106
REMARK SMILES IDX 31 107 33 108 35 109 32 110
REMARK H PARENT 3 7 98 25 64 36 8 79 17 88 24 97
REMARK Flexibility Score: inf
ROOT
ATOM      1  C   UNL A   1      32.871  29.609  27.196  1.00  0.00     0.023 C 
ENDROOT
BRANCH   1   2
ATOM      2  C   UNL A   1      34.133  28.811  26.879  1.00  0.00     0.023 C 
BRANCH   2   3
ATOM      3  C   UNL A   1      35.425  29.360  27.467  1.00  0.00     0.116 C 
BRANCH   3   4
ATOM      4  N   UNL A   1      35.244  30.023  28.750  1.00  0.00    -0.352 N 
ATOM      5  O   UNL A   1      35.827  30.785  30.793  1.00  0.00    -0.269 OA
ATOM      6  C   UNL A   1      36.182  30.322  29.713  1.00  0.00     0.251 C 
ATOM      7  H   UNL A   1      34.322  30.294  28.959  1.00  0.00     0.163 HD
BRANCH   6   8
ATOM      8  C   UNL A   1      37.615  30.050  29.452  1.00  0.00     0.039 A 
ATOM      9  C   UNL A   1      38.113  30.065  28.150  1.00  0.00     0.014 A 
ATOM     10  C   UNL A   1      38.464  29.748  30.523  1.00  0.00     0.014 A 
ATOM     11  C   UNL A   1      39.401  29.609  27.901  1.00  0.00     0.010 A 
ATOM     12  C   UNL A   1      39.794  29.385  30.277  1.00  0.00     0.010 A 
ATOM     13  C   UNL A   1      40.262  29.272  28.959  1.00  0.00    -0.014 A 
BRANCH  13  14
ATOM     14  C   UNL A   1      41.657  28.868  28.639  1.00  0.00     0.031 A 
ATOM     15  C   UNL A   1      41.996  27.466  28.207  1.00  0.00     0.074 A 
ATOM     16  C   UNL A   1      42.615  29.816  28.668  1.00  0.00     0.049 A 
ATOM     17  N   UNL A   1      43.148  26.986  27.811  1.00  0.00    -0.248 NA
ATOM     18  C   UNL A   1      40.911  26.473  28.225  1.00  0.00     0.031 C 
ATOM     19  C   UNL A   1      42.411  31.203  29.101  1.00  0.00     0.029 A 
ATOM     20  N   UNL A   1      43.933  29.779  28.294  1.00  0.00    -0.354 N 
ATOM     21  C   UNL A   1      42.934  25.638  27.545  1.00  0.00     0.074 A 
ATOM     22  C   UNL A   1      41.545  25.368  27.851  1.00  0.00     0.031 C 
ATOM     23  C   UNL A   1      43.540  31.897  28.906  1.00  0.00     0.029 A 
ATOM     24  C   UNL A   1      44.565  30.997  28.389  1.00  0.00     0.049 A 
ATOM     25  H   UNL A   1      44.384  28.959  27.987  1.00  0.00     0.167 HD
ATOM     26  C   UNL A   1      43.814  24.717  27.082  1.00  0.00     0.037 A 
ATOM     27  C   UNL A   1      45.829  31.353  28.100  1.00  0.00     0.037 A 
ATOM     28  C   UNL A   1      45.193  24.996  26.767  1.00  0.00     0.049 A 
ATOM     29  C   UNL A   1      46.772  30.318  27.563  1.00  0.00     0.074 A 
ATOM     30  C   UNL A   1      46.161  24.130  26.287  1.00  0.00     0.029 A 
ATOM     31  N   UNL A   1      45.800  26.238  26.891  1.00  0.00    -0.354 N 
ATOM     32  N   UNL A   1      46.545  29.051  27.313  1.00  0.00    -0.248 NA
ATOM     33  C   UNL A   1      48.141  30.758  27.270  1.00  0.00     0.031 C 
ATOM     34  C   UNL A   1      47.359  24.842  26.146  1.00  0.00     0.029 A 
ATOM     35  C   UNL A   1      47.128  26.159  26.504  1.00  0.00     0.049 A 
ATOM     36  H   UNL A   1      45.351  27.055  27.208  1.00  0.00     0.167 HD
ATOM     37  C   UNL A   1      47.746  28.539  26.842  1.00  0.00     0.074 A 
ATOM     38  C   UNL A   1      48.684  29.642  26.803  1.00  0.00     0.031 C 
ATOM     39  C   UNL A   1      48.050  27.266  26.487  1.00  0.00     0.037 A 
BRANCH  26  40
ATOM     40  C   UNL A   1      43.319  23.309  26.883  1.00  0.00     0.058 A 
ATOM     41  C   UNL A   1      43.148  22.766  25.601  1.00  0.00     0.135 A 
ATOM     42  C   UNL A   1      43.081  22.471  27.985  1.00  0.00     0.135 A 
ATOM     43  F   UNL A   1      43.347  23.527  24.513  1.00  0.00    -0.206 F 
ATOM     44  C   UNL A   1      42.747  21.445  25.417  1.00  0.00     0.059 A 
ATOM     45  C   UNL A   1      42.699  21.142  27.825  1.00  0.00     0.059 A 
ATOM     46  F   UNL A   1      43.230  22.940  29.235  1.00  0.00    -0.206 F 
ATOM     47  C   UNL A   1      42.527  20.639  26.536  1.00  0.00     0.060 A 
BRANCH  47  48
ATOM     48  S   UNL A   1      42.033  18.921  26.280  1.00  0.00     0.124 S 
ATOM     49  O   UNL A   1      40.645  19.077  25.859  1.00  0.00    -0.237 OA
ATOM     50  O   UNL A   1      42.963  18.478  25.246  1.00  0.00    -0.237 OA
ATOM     51  O   UNL A   1      42.226  18.313  27.593  1.00  0.00    -0.744 OA
ENDBRANCH  47  48
ENDBRANCH  26  40
BRANCH  27  52
ATOM     52  C   UNL A   1      46.270  32.753  28.330  1.00  0.00     0.058 A 
ATOM     53  C   UNL A   1      46.187  33.718  27.317  1.00  0.00     0.135 A 
ATOM     54  C   UNL A   1      46.761  33.155  29.581  1.00  0.00     0.135 A 
ATOM     55  F   UNL A   1      45.726  33.380  26.102  1.00  0.00    -0.206 F 
ATOM     56  C   UNL A   1      46.592  35.032  27.530  1.00  0.00     0.059 A 
ATOM     57  C   UNL A   1      47.145  34.468  29.827  1.00  0.00     0.059 A 
ATOM     58  F   UNL A   1      46.839  32.272  30.589  1.00  0.00    -0.206 F 
ATOM     59  C   UNL A   1      47.070  35.396  28.790  1.00  0.00     0.060 A 
BRANCH  59  60
ATOM     60  S   UNL A   1      47.549  37.112  29.083  1.00  0.00     0.124 S 
ATOM     61  O   UNL A   1      46.578  37.518  30.092  1.00  0.00    -0.237 OA
ATOM     62  O   UNL A   1      48.928  36.977  29.543  1.00  0.00    -0.237 OA
ATOM     63  O   UNL A   1      47.394  37.729  27.769  1.00  0.00    -0.744 OA
ENDBRANCH  59  60
ENDBRANCH  27  52
BRANCH  39  64
ATOM     64  C   UNL A   1      49.459  27.014  26.033  1.00  0.00     0.058 A 
ATOM     65  C   UNL A   1      50.485  26.746  26.954  1.00  0.00     0.135 A 
ATOM     66  C   UNL A   1      49.787  27.043  24.669  1.00  0.00     0.135 A 
ATOM     67  F   UNL A   1      50.220  26.715  28.269  1.00  0.00    -0.206 F 
ATOM     68  C   UNL A   1      51.798  26.554  26.540  1.00  0.00     0.059 A 
ATOM     69  C   UNL A   1      51.091  26.831  24.231  1.00  0.00     0.059 A 
ATOM     70  F   UNL A   1      48.840  27.285  23.750  1.00  0.00    -0.206 F 
ATOM     71  C   UNL A   1      52.093  26.607  25.176  1.00  0.00     0.060 A 
BRANCH  71  72
ATOM     72  S   UNL A   1      53.802  26.365  24.647  1.00  0.00     0.124 S 
ATOM     73  O   UNL A   1      54.149  25.126  25.336  1.00  0.00    -0.237 OA
ATOM     74  O   UNL A   1      53.674  26.270  23.196  1.00  0.00    -0.237 OA
ATOM     75  O   UNL A   1      54.478  27.565  25.133  1.00  0.00    -0.744 OA
ENDBRANCH  71  72
ENDBRANCH  39  64
ENDBRANCH  13  14
ENDBRANCH   6   8
ENDBRANCH   3   4
ENDBRANCH   2   3
ENDBRANCH   1   2
BRANCH   1  76
ATOM     76  C   UNL A   1      31.965  29.912  26.006  1.00  0.00     0.116 C 
BRANCH  76  77
ATOM     77  N   UNL A   1      32.557  29.556  24.724  1.00  0.00    -0.352 N 
ATOM     78  C   UNL A   1      31.935  29.369  23.514  1.00  0.00     0.253 C 
ATOM     79  H   UNL A   1      33.534  29.432  24.725  1.00  0.00     0.163 HD
ATOM     80  O   UNL A   1      32.581  29.077  22.512  1.00  0.00    -0.269 OA
BRANCH  78  81
ATOM     81  C   UNL A   1      30.468  29.484  23.422  1.00  0.00     0.063 A 
ATOM     82  C   UNL A   1      29.912  30.721  23.781  1.00  0.00     0.016 A 
ATOM     83  C   UNL A   1      29.665  28.420  22.973  1.00  0.00     0.054 A 
ATOM     84  C   UNL A   1      28.545  30.933  23.634  1.00  0.00     0.001 A 
ATOM     85  C   UNL A   1      28.298  28.681  22.785  1.00  0.00     0.027 A 
ATOM     86  C   UNL A   1      27.742  29.920  23.119  1.00  0.00     0.002 A 
BRANCH  83  87
ATOM     87  N   UNL A   1      30.206  27.155  22.695  1.00  0.00    -0.323 N 
ATOM     88  H   UNL A   1      30.432  26.998  21.749  1.00  0.00     0.170 HD
BRANCH  87  89
ATOM     89  C   UNL A   1      30.471  26.090  23.547  1.00  0.00     0.233 A 
ATOM     90  N   UNL A   1      29.835  26.003  24.704  1.00  0.00    -0.182 NA
ATOM     91  N   UNL A   1      31.371  25.207  23.126  1.00  0.00    -0.176 NA
ATOM     92  C   UNL A   1      30.155  24.930  25.405  1.00  0.00     0.228 A 
ATOM     93  C   UNL A   1      31.672  24.214  23.958  1.00  0.00     0.233 A 
ATOM     94  Cl  UNL A   1      29.357  24.751  26.905  1.00  0.00    -0.041 Cl
ATOM     95  N   UNL A   1      31.060  24.013  25.114  1.00  0.00    -0.182 NA
BRANCH  93  96
ATOM     96  N   UNL A   1      32.786  23.453  23.611  1.00  0.00    -0.324 N 
ATOM     97  H   UNL A   1      33.499  23.939  23.136  1.00  0.00     0.170 HD
BRANCH  96  98
ATOM     98  C   UNL A   1      33.032  22.099  23.844  1.00  0.00     0.041 A 
ATOM     99  C   UNL A   1      34.052  21.722  24.723  1.00  0.00     0.028 A 
ATOM    100  C   UNL A   1      32.223  21.100  23.299  1.00  0.00     0.028 A 
ATOM    101  C   UNL A   1      34.246  20.378  25.065  1.00  0.00     0.028 A 
ATOM    102  C   UNL A   1      32.452  19.752  23.591  1.00  0.00     0.028 A 
ATOM    103  C   UNL A   1      33.453  19.378  24.494  1.00  0.00     0.044 A 
BRANCH 103 104
ATOM    104  N   UNL A   1      33.625  18.011  24.868  1.00  0.00    -0.308 N 
ATOM    105  C   UNL A   1      32.406  17.208  25.025  1.00  0.00     0.154 C 
ATOM    106  C   UNL A   1      34.875  17.388  24.768  1.00  0.00     0.253 C 
ATOM    107  C   UNL A   1      32.652  15.866  25.702  1.00  0.00     0.183 C 
ATOM    108  C   UNL A   1      34.894  15.884  25.089  1.00  0.00     0.260 C 
ATOM    109  O   UNL A   1      35.936  17.975  24.549  1.00  0.00    -0.272 OA
ATOM    110  O   UNL A   1      33.675  15.163  25.004  1.00  0.00    -0.370 OA
ENDBRANCH 103 104
ENDBRANCH  96  98
ENDBRANCH  93  96
ENDBRANCH  87  89
ENDBRANCH  83  87
ENDBRANCH  78  81
ENDBRANCH  76  77
ENDBRANCH   1  76
TORSDOF 19
ENDMDL
MODEL 3
REMARK VINA RESULT:     -12.4      6.123      8.169
REMARK SMILES O=C(NCCCCNC(=O)c1ccccc1Nc1nc(Cl)nc(Nc2ccc(N3CCOCC3=O)cc2)n1)c1ccc(-c2c3nc(c(-c4c(F)cc(S(=O)(=O)[O-])cc4F)c4ccc([nH]4)c(-c4c(F)cc(S(=O)(=O)[O-])cc4F)c4nc(c(-c5c(F)cc(S(=O)(=O)[O-])cc5F)c5ccc2[nH]5)C=C4)C=C3)cc1
REMARK SMILES IDX 6 1 5 2 4 3 3 4 1 5 2 6 39 8 40 9 104 10 41 11 103 12 42 13
REMARK SMILES IDX 43 14 44 15 97 16 45 17 102 18 96 19 98 20 46 21 101 22
REMARK SMILES IDX 95 23 94 24 47 26 81 27 60 28 80 29 61 30 64 31 79 32 99 33
REMARK SMILES IDX 62 34 63 35 78 37 100 38 65 39 48 40 49 41 58 42 50 43 51 44
REMARK SMILES IDX 57 45 59 46 52 47 53 48 54 49 55 50 56 51 82 52 83 53 92 54
REMARK SMILES IDX 84 55 85 56 91 57 93 58 86 59 87 60 88 61 89 62 90 63 66 64
REMARK SMILES IDX 67 65 76 66 68 67 69 68 75 69 77 70 70 71 71 72 72 73 73 74
REMARK SMILES IDX 74 75 7 76 8 77 9 78 10 80 11 81 12 82 16 83 13 84 15 85
REMARK SMILES IDX 14 86 17 87 18 89 19 90 38 91 20 92 23 93 21 94 22 95 24 96
REMARK SMILES IDX 25 98 26 99 37 100 27 101 36 102 28 103 29 104 30 105 34 106
REMARK SMILES IDX 31 107 33 108 35 109 32 110
REMARK H PARENT 3 7 98 25 64 36 8 79 17 88 24 97
REMARK Flexibility Score: inf
ROOT
ATOM      1  C   UNL A   1      37.536  22.641  25.053  1.00  0.00     0.023 C 
ENDROOT
BRANCH   1   2
ATOM      2  C   UNL A   1      37.484  23.691  26.160  1.00  0.00     0.023 C 
BRANCH   2   3
ATOM      3  C   UNL A   1      38.807  23.987  26.850  1.00  0.00     0.116 C 
BRANCH   3   4
ATOM      4  N   UNL A   1      39.838  24.475  25.945  1.00  0.00    -0.352 N 
ATOM      5  O   UNL A   1      41.411  25.890  25.160  1.00  0.00    -0.269 OA
ATOM      6  C   UNL A   1      40.675  25.559  26.085  1.00  0.00     0.251 C 
ATOM      7  H   UNL A   1      39.951  23.957  25.116  1.00  0.00     0.163 HD
BRANCH   6   8
ATOM      8  C   UNL A   1      40.657  26.344  27.342  1.00  0.00     0.039 A 
ATOM      9  C   UNL A   1      39.804  25.988  28.385  1.00  0.00     0.014 A 
ATOM     10  C   UNL A   1      41.484  27.465  27.465  1.00  0.00     0.014 A 
ATOM     11  C   UNL A   1      39.646  26.845  29.467  1.00  0.00     0.010 A 
ATOM     12  C   UNL A   1      41.397  28.274  28.605  1.00  0.00     0.010 A 
ATOM     13  C   UNL A   1      40.446  27.994  29.598  1.00  0.00    -0.014 A 
BRANCH  13  14
ATOM     14  C   UNL A   1      40.293  28.831  30.816  1.00  0.00     0.031 A 
ATOM     15  C   UNL A   1      41.209  28.681  32.001  1.00  0.00     0.074 A 
ATOM     16  C   UNL A   1      39.353  29.798  30.809  1.00  0.00     0.049 A 
ATOM     17  N   UNL A   1      41.256  29.396  33.098  1.00  0.00    -0.248 NA
ATOM     18  C   UNL A   1      42.194  27.589  31.960  1.00  0.00     0.031 C 
ATOM     19  C   UNL A   1      38.385  30.019  29.728  1.00  0.00     0.029 A 
ATOM     20  N   UNL A   1      39.076  30.795  31.706  1.00  0.00    -0.354 N 
ATOM     21  C   UNL A   1      42.261  28.838  33.880  1.00  0.00     0.074 A 
ATOM     22  C   UNL A   1      42.783  27.705  33.145  1.00  0.00     0.031 C 
ATOM     23  C   UNL A   1      37.670  31.120  29.994  1.00  0.00     0.029 A 
ATOM     24  C   UNL A   1      38.084  31.651  31.287  1.00  0.00     0.049 A 
ATOM     25  H   UNL A   1      39.542  30.890  32.569  1.00  0.00     0.167 HD
ATOM     26  C   UNL A   1      42.710  29.239  35.094  1.00  0.00     0.037 A 
ATOM     27  C   UNL A   1      37.559  32.740  31.877  1.00  0.00     0.037 A 
ATOM     28  C   UNL A   1      42.195  30.377  35.816  1.00  0.00     0.049 A 
ATOM     29  C   UNL A   1      38.095  33.176  33.208  1.00  0.00     0.074 A 
ATOM     30  C   UNL A   1      42.589  30.866  37.051  1.00  0.00     0.029 A 
ATOM     31  N   UNL A   1      41.180  31.209  35.366  1.00  0.00    -0.354 N 
ATOM     32  N   UNL A   1      39.050  32.636  33.926  1.00  0.00    -0.248 NA
ATOM     33  C   UNL A   1      37.482  34.366  33.811  1.00  0.00     0.031 C 
ATOM     34  C   UNL A   1      41.795  31.978  37.358  1.00  0.00     0.029 A 
ATOM     35  C   UNL A   1      40.931  32.202  36.299  1.00  0.00     0.049 A 
ATOM     36  H   UNL A   1      40.707  31.108  34.508  1.00  0.00     0.167 HD
ATOM     37  C   UNL A   1      39.148  33.416  35.070  1.00  0.00     0.074 A 
ATOM     38  C   UNL A   1      38.183  34.487  34.930  1.00  0.00     0.031 C 
ATOM     39  C   UNL A   1      39.954  33.251  36.148  1.00  0.00     0.037 A 
BRANCH  26  40
ATOM     40  C   UNL A   1      43.819  28.446  35.732  1.00  0.00     0.058 A 
ATOM     41  C   UNL A   1      43.553  27.317  36.523  1.00  0.00     0.135 A 
ATOM     42  C   UNL A   1      45.164  28.774  35.492  1.00  0.00     0.135 A 
ATOM     43  F   UNL A   1      42.286  26.968  36.796  1.00  0.00    -0.206 F 
ATOM     44  C   UNL A   1      44.580  26.549  37.064  1.00  0.00     0.059 A 
ATOM     45  C   UNL A   1      46.207  28.008  36.007  1.00  0.00     0.059 A 
ATOM     46  F   UNL A   1      45.475  29.843  34.742  1.00  0.00    -0.206 F 
ATOM     47  C   UNL A   1      45.905  26.900  36.798  1.00  0.00     0.060 A 
BRANCH  47  48
ATOM     48  S   UNL A   1      47.226  25.879  37.485  1.00  0.00     0.124 S 
ATOM     49  O   UNL A   1      48.014  25.583  36.295  1.00  0.00    -0.237 OA
ATOM     50  O   UNL A   1      47.850  26.781  38.449  1.00  0.00    -0.237 OA
ATOM     51  O   UNL A   1      46.513  24.745  38.064  1.00  0.00    -0.744 OA
ENDBRANCH  47  48
ENDBRANCH  26  40
BRANCH  27  52
ATOM     52  C   UNL A   1      36.454  33.477  31.211  1.00  0.00     0.058 A 
ATOM     53  C   UNL A   1      36.682  34.247  30.063  1.00  0.00     0.135 A 
ATOM     54  C   UNL A   1      35.142  33.402  31.702  1.00  0.00     0.135 A 
ATOM     55  F   UNL A   1      37.921  34.350  29.557  1.00  0.00    -0.206 F 
ATOM     56  C   UNL A   1      35.649  34.933  29.432  1.00  0.00     0.059 A 
ATOM     57  C   UNL A   1      34.089  34.055  31.074  1.00  0.00     0.059 A 
ATOM     58  F   UNL A   1      34.870  32.660  32.788  1.00  0.00    -0.206 F 
ATOM     59  C   UNL A   1      34.355  34.830  29.946  1.00  0.00     0.060 A 
BRANCH  59  60
ATOM     60  S   UNL A   1      33.006  35.680  29.099  1.00  0.00     0.124 S 
ATOM     61  O   UNL A   1      33.730  36.700  28.350  1.00  0.00    -0.237 OA
ATOM     62  O   UNL A   1      32.410  34.609  28.307  1.00  0.00    -0.237 OA
ATOM     63  O   UNL A   1      32.179  36.168  30.199  1.00  0.00    -0.744 OA
ENDBRANCH  59  60
ENDBRANCH  27  52
BRANCH  39  64
ATOM     64  C   UNL A   1      39.811  34.257  37.253  1.00  0.00     0.058 A 
ATOM     65  C   UNL A   1      40.513  35.473  37.227  1.00  0.00     0.135 A 
ATOM     66  C   UNL A   1      38.970  34.004  38.348  1.00  0.00     0.135 A 
ATOM     67  F   UNL A   1      41.335  35.757  36.205  1.00  0.00    -0.206 F 
ATOM     68  C   UNL A   1      40.416  36.388  38.269  1.00  0.00     0.059 A 
ATOM     69  C   UNL A   1      38.841  34.916  39.391  1.00  0.00     0.059 A 
ATOM     70  F   UNL A   1      38.271  32.861  38.414  1.00  0.00    -0.206 F 
ATOM     71  C   UNL A   1      39.583  36.097  39.352  1.00  0.00     0.060 A 
BRANCH  71  72
ATOM     72  S   UNL A   1      39.469  37.286  40.704  1.00  0.00     0.124 S 
ATOM     73  O   UNL A   1      38.486  38.230  40.181  1.00  0.00    -0.237 OA
ATOM     74  O   UNL A   1      39.021  36.457  41.819  1.00  0.00    -0.237 OA
ATOM     75  O   UNL A   1      40.832  37.798  40.819  1.00  0.00    -0.744 OA
ENDBRANCH  71  72
ENDBRANCH  39  64
ENDBRANCH  13  14
ENDBRANCH   6   8
ENDBRANCH   3   4
ENDBRANCH   2   3
ENDBRANCH   1   2
BRANCH   1  76
ATOM     76  C   UNL A   1      36.203  21.988  24.699  1.00  0.00     0.116 C 
BRANCH  76  77
ATOM     77  N   UNL A   1      35.262  21.957  25.809  1.00  0.00    -0.352 N 
ATOM     78  C   UNL A   1      34.266  21.047  26.065  1.00  0.00     0.253 C 
ATOM     79  H   UNL A   1      35.351  22.687  26.465  1.00  0.00     0.163 HD
ATOM     80  O   UNL A   1      33.554  21.154  27.059  1.00  0.00    -0.269 OA
BRANCH  78  81
ATOM     81  C   UNL A   1      34.022  19.947  25.115  1.00  0.00     0.063 A 
ATOM     82  C   UNL A   1      35.020  18.966  25.022  1.00  0.00     0.016 A 
ATOM     83  C   UNL A   1      32.839  19.865  24.358  1.00  0.00     0.054 A 
ATOM     84  C   UNL A   1      34.820  17.850  24.215  1.00  0.00     0.001 A 
ATOM     85  C   UNL A   1      32.643  18.704  23.594  1.00  0.00     0.027 A 
ATOM     86  C   UNL A   1      33.625  17.711  23.515  1.00  0.00     0.002 A 
BRANCH  83  87
ATOM     87  N   UNL A   1      31.876  20.888  24.383  1.00  0.00    -0.323 N 
ATOM     88  H   UNL A   1      31.081  20.696  24.930  1.00  0.00     0.170 HD
BRANCH  87  89
ATOM     89  C   UNL A   1      31.873  22.127  23.754  1.00  0.00     0.233 A 
ATOM     90  N   UNL A   1      32.589  22.306  22.656  1.00  0.00    -0.182 NA
ATOM     91  N   UNL A   1      31.127  23.072  24.317  1.00  0.00    -0.176 NA
ATOM     92  C   UNL A   1      32.476  23.517  22.141  1.00  0.00     0.228 A 
ATOM     93  C   UNL A   1      31.160  24.277  23.754  1.00  0.00     0.233 A 
ATOM     94  Cl  UNL A   1      33.365  23.810  20.712  1.00  0.00    -0.041 Cl
ATOM     95  N   UNL A   1      31.807  24.545  22.630  1.00  0.00    -0.182 NA
BRANCH  93  96
ATOM     96  N   UNL A   1      30.581  25.304  24.495  1.00  0.00    -0.324 N 
ATOM     97  H   UNL A   1      29.610  25.228  24.638  1.00  0.00     0.170 HD
BRANCH  96  98
ATOM     98  C   UNL A   1      31.187  26.425  25.065  1.00  0.00     0.041 A 
ATOM     99  C   UNL A   1      31.055  26.661  26.437  1.00  0.00     0.028 A 
ATOM    100  C   UNL A   1      32.009  27.275  24.322  1.00  0.00     0.028 A 
ATOM    101  C   UNL A   1      31.746  27.710  27.056  1.00  0.00     0.028 A 
ATOM    102  C   UNL A   1      32.653  28.359  24.926  1.00  0.00     0.028 A 
ATOM    103  C   UNL A   1      32.545  28.576  26.303  1.00  0.00     0.044 A 
BRANCH 103 104
ATOM    104  N   UNL A   1      33.278  29.625  26.936  1.00  0.00    -0.308 N 
ATOM    105  C   UNL A   1      34.709  29.392  27.162  1.00  0.00     0.154 C 
ATOM    106  C   UNL A   1      32.747  30.917  27.037  1.00  0.00     0.253 C 
ATOM    107  C   UNL A   1      35.348  30.414  28.092  1.00  0.00     0.183 C 
ATOM    108  C   UNL A   1      33.689  31.976  27.634  1.00  0.00     0.260 C 
ATOM    109  O   UNL A   1      31.580  31.218  26.782  1.00  0.00    -0.272 OA
ATOM    110  O   UNL A   1      35.085  31.726  27.606  1.00  0.00    -0.370 OA
ENDBRANCH 103 104
ENDBRANCH  96  98
ENDBRANCH  93  96
ENDBRANCH  87  89
ENDBRANCH  83  87
ENDBRANCH  78  81
ENDBRANCH  76  77
ENDBRANCH   1  76
TORSDOF 19
ENDMDL
