MODEL 1
REMARK VINA RESULT:     -12.7      0.000      0.000
REMARK SMILES O=C(Nc1ccc2c(c1)OCO2)N[C@H]1C=C[C@@H](C(=O)NCCCCNC(=O)c2ccc(-c3c4nc(c(-c5c(F)cc(S(=O)(=O)[O-])cc5F)c5ccc([nH]5)c(-c5c(F)cc(S(=O)(=O)[O-])cc5F)c5nc(c(-c6c(F)cc(S(=O)(=O)[O-])cc6F)c6ccc3[nH]6)C=C5)C=C4)cc2)C1
REMARK SMILES IDX 23 1 22 2 21 3 20 4 18 5 19 6 17 8 14 9 15 10 94 11 16 12
REMARK SMILES IDX 13 13 1 14 2 15 3 16 4 19 5 20 9 21 6 22 8 23 7 24 10 25
REMARK SMILES IDX 12 26 11 27 24 28 25 29 26 30 27 32 28 33 29 34 93 35 30 36
REMARK SMILES IDX 92 37 31 38 32 39 33 40 86 41 34 42 91 43 85 44 87 45 35 46
REMARK SMILES IDX 90 47 84 48 83 49 36 51 70 52 49 53 69 54 50 55 53 56 68 57
REMARK SMILES IDX 88 58 51 59 52 60 67 62 89 63 54 64 37 65 38 66 47 67 39 68
REMARK SMILES IDX 40 69 46 70 48 71 41 72 42 73 43 74 44 75 45 76 71 77 72 78
REMARK SMILES IDX 81 79 73 80 74 81 80 82 82 83 75 84 76 85 77 86 78 87 79 88
REMARK SMILES IDX 55 89 56 90 65 91 57 92 58 93 64 94 66 95 59 96 60 97 61 98
REMARK SMILES IDX 62 99 63 100
REMARK H PARENT 20 7 3 17 13 18 25 31 87 50 53 61
REMARK Flexibility Score: inf
ROOT
ATOM      1  C   UNL A   1      40.192  22.081  27.000  1.00  0.00     0.023 C 
ENDROOT
BRANCH   1   2
ATOM      2  C   UNL A   1      38.992  22.692  26.280  1.00  0.00     0.023 C 
BRANCH   2   3
ATOM      3  C   UNL A   1      38.159  21.700  25.476  1.00  0.00     0.116 C 
BRANCH   3   4
ATOM      4  N   UNL A   1      37.257  22.385  24.574  1.00  0.00    -0.356 N 
ATOM      5  C   UNL A   1      35.900  22.456  24.562  1.00  0.00     0.227 C 
ATOM      6  O   UNL A   1      35.380  23.124  23.660  1.00  0.00    -0.274 OA
ATOM      7  H   UNL A   1      37.701  22.884  23.851  1.00  0.00     0.163 HD
BRANCH   5   8
ATOM      8  C   UNL A   1      35.014  21.789  25.620  1.00  0.00     0.103 C 
ATOM      9  C   UNL A   1      32.746  22.226  26.515  1.00  0.00     0.107 C 
ATOM     10  C   UNL A   1      32.767  21.140  25.493  1.00  0.00    -0.006 C 
ATOM     11  C   UNL A   1      34.212  22.715  26.546  1.00  0.00     0.047 C 
ATOM     12  C   UNL A   1      33.989  20.891  25.013  1.00  0.00    -0.016 C 
BRANCH   9  13
ATOM     13  N   UNL A   1      31.838  23.329  26.234  1.00  0.00    -0.332 N 
ATOM     14  O   UNL A   1      29.952  22.650  27.345  1.00  0.00    -0.248 OA
ATOM     15  C   UNL A   1      30.573  23.492  26.703  1.00  0.00     0.319 C 
ATOM     16  N   UNL A   1      29.982  24.709  26.526  1.00  0.00    -0.308 N 
ATOM     17  H   UNL A   1      29.133  24.800  27.015  1.00  0.00     0.171 HD
ATOM     18  H   UNL A   1      32.177  24.034  25.638  1.00  0.00     0.165 HD
BRANCH  16  19
ATOM     19  C   UNL A   1      30.322  25.862  25.797  1.00  0.00     0.046 A 
ATOM     20  C   UNL A   1      29.822  26.163  24.517  1.00  0.00     0.030 A 
ATOM     21  C   UNL A   1      31.202  26.758  26.420  1.00  0.00     0.076 A 
ATOM     22  C   UNL A   1      30.221  27.320  23.836  1.00  0.00     0.053 A 
ATOM     23  C   UNL A   1      31.613  27.867  25.710  1.00  0.00     0.167 A 
ATOM     24  C   UNL A   1      31.138  28.139  24.450  1.00  0.00     0.165 A 
ATOM     25  O   UNL A   1      32.524  28.786  26.129  1.00  0.00    -0.454 OA
ATOM     26  O   UNL A   1      31.680  29.267  23.923  1.00  0.00    -0.454 OA
ATOM     27  C   UNL A   1      32.612  29.630  24.961  1.00  0.00     0.468 C 
ENDBRANCH  16  19
ENDBRANCH   9  13
ENDBRANCH   5   8
ENDBRANCH   3   4
ENDBRANCH   2   3
ENDBRANCH   1   2
BRANCH   1  28
ATOM     28  C   UNL A   1      41.308  23.070  27.308  1.00  0.00     0.116 C 
BRANCH  28  29
ATOM     29  N   UNL A   1      41.658  23.903  26.166  1.00  0.00    -0.352 N 
ATOM     30  C   UNL A   1      41.699  25.271  26.071  1.00  0.00     0.251 C 
ATOM     31  H   UNL A   1      41.900  23.415  25.347  1.00  0.00     0.163 HD
ATOM     32  O   UNL A   1      41.865  25.803  24.976  1.00  0.00    -0.269 OA
BRANCH  30  33
ATOM     33  C   UNL A   1      41.520  26.096  27.284  1.00  0.00     0.039 A 
ATOM     34  C   UNL A   1      42.476  27.068  27.585  1.00  0.00     0.014 A 
ATOM     35  C   UNL A   1      40.410  25.918  28.114  1.00  0.00     0.014 A 
ATOM     36  C   UNL A   1      42.288  27.895  28.693  1.00  0.00     0.010 A 
ATOM     37  C   UNL A   1      40.178  26.804  29.160  1.00  0.00     0.010 A 
ATOM     38  C   UNL A   1      41.123  27.792  29.472  1.00  0.00    -0.014 A 
BRANCH  38  39
ATOM     39  C   UNL A   1      40.893  28.697  30.624  1.00  0.00     0.031 A 
ATOM     40  C   UNL A   1      41.731  28.566  31.869  1.00  0.00     0.074 A 
ATOM     41  C   UNL A   1      39.905  29.612  30.564  1.00  0.00     0.049 A 
ATOM     42  N   UNL A   1      41.678  29.262  32.975  1.00  0.00    -0.248 NA
ATOM     43  C   UNL A   1      42.742  27.496  31.885  1.00  0.00     0.031 C 
ATOM     44  C   UNL A   1      38.985  29.789  29.437  1.00  0.00     0.029 A 
ATOM     45  N   UNL A   1      39.509  30.565  31.466  1.00  0.00    -0.354 N 
ATOM     46  C   UNL A   1      42.638  28.711  33.817  1.00  0.00     0.074 A 
ATOM     47  C   UNL A   1      43.211  27.581  33.120  1.00  0.00     0.031 C 
ATOM     48  C   UNL A   1      38.157  30.813  29.701  1.00  0.00     0.029 A 
ATOM     49  C   UNL A   1      38.462  31.341  31.027  1.00  0.00     0.049 A 
ATOM     50  H   UNL A   1      39.934  30.682  32.347  1.00  0.00     0.167 HD
ATOM     51  C   UNL A   1      43.027  29.124  35.046  1.00  0.00     0.037 A 
ATOM     52  C   UNL A   1      37.822  32.364  31.625  1.00  0.00     0.037 A 
ATOM     53  C   UNL A   1      42.465  30.264  35.723  1.00  0.00     0.049 A 
ATOM     54  C   UNL A   1      38.281  32.815  32.986  1.00  0.00     0.074 A 
ATOM     55  C   UNL A   1      42.827  30.805  36.944  1.00  0.00     0.029 A 
ATOM     56  N   UNL A   1      41.418  31.036  35.239  1.00  0.00    -0.354 N 
ATOM     57  N   UNL A   1      39.242  32.328  33.735  1.00  0.00    -0.248 NA
ATOM     58  C   UNL A   1      37.578  33.961  33.575  1.00  0.00     0.031 C 
ATOM     59  C   UNL A   1      41.965  31.871  37.223  1.00  0.00     0.029 A 
ATOM     60  C   UNL A   1      41.105  32.035  36.149  1.00  0.00     0.049 A 
ATOM     61  H   UNL A   1      40.963  30.895  34.378  1.00  0.00     0.167 HD
ATOM     62  C   UNL A   1      39.277  33.127  34.874  1.00  0.00     0.074 A 
ATOM     63  C   UNL A   1      38.254  34.139  34.702  1.00  0.00     0.031 C 
ATOM     64  C   UNL A   1      40.080  33.032  35.964  1.00  0.00     0.037 A 
BRANCH  51  65
ATOM     65  C   UNL A   1      44.117  28.344  35.734  1.00  0.00     0.058 A 
ATOM     66  C   UNL A   1      43.828  27.286  36.611  1.00  0.00     0.135 A 
ATOM     67  C   UNL A   1      45.467  28.639  35.491  1.00  0.00     0.135 A 
ATOM     68  F   UNL A   1      42.554  26.969  36.894  1.00  0.00    -0.206 F 
ATOM     69  C   UNL A   1      44.837  26.570  37.247  1.00  0.00     0.059 A 
ATOM     70  C   UNL A   1      46.494  27.915  36.091  1.00  0.00     0.059 A 
ATOM     71  F   UNL A   1      45.804  29.641  34.664  1.00  0.00    -0.206 F 
ATOM     72  C   UNL A   1      46.168  26.892  36.979  1.00  0.00     0.060 A 
BRANCH  72  73
ATOM     73  S   UNL A   1      47.465  25.947  37.806  1.00  0.00     0.124 S 
ATOM     74  O   UNL A   1      46.899  24.601  37.793  1.00  0.00    -0.237 OA
ATOM     75  O   UNL A   1      48.613  26.160  36.929  1.00  0.00    -0.237 OA
ATOM     76  O   UNL A   1      47.558  26.574  39.121  1.00  0.00    -0.744 OA
ENDBRANCH  72  73
ENDBRANCH  51  65
BRANCH  52  77
ATOM     77  C   UNL A   1      36.702  33.051  30.926  1.00  0.00     0.058 A 
ATOM     78  C   UNL A   1      35.368  32.827  31.299  1.00  0.00     0.135 A 
ATOM     79  C   UNL A   1      36.943  33.953  29.879  1.00  0.00     0.135 A 
ATOM     80  F   UNL A   1      35.084  31.969  32.292  1.00  0.00    -0.206 F 
ATOM     81  C   UNL A   1      34.312  33.457  30.648  1.00  0.00     0.059 A 
ATOM     82  C   UNL A   1      35.906  34.618  29.231  1.00  0.00     0.059 A 
ATOM     83  F   UNL A   1      38.202  34.217  29.495  1.00  0.00    -0.206 F 
ATOM     84  C   UNL A   1      34.593  34.354  29.617  1.00  0.00     0.060 A 
BRANCH  84  85
ATOM     85  S   UNL A   1      33.218  35.203  28.810  1.00  0.00     0.124 S 
ATOM     86  O   UNL A   1      32.417  35.620  29.955  1.00  0.00    -0.237 OA
ATOM     87  O   UNL A   1      33.901  36.271  28.086  1.00  0.00    -0.237 OA
ATOM     88  O   UNL A   1      32.628  34.164  27.971  1.00  0.00    -0.744 OA
ENDBRANCH  84  85
ENDBRANCH  52  77
BRANCH  64  89
ATOM     89  C   UNL A   1      39.904  34.072  37.038  1.00  0.00     0.058 A 
ATOM     90  C   UNL A   1      39.119  33.836  38.178  1.00  0.00     0.135 A 
ATOM     91  C   UNL A   1      40.545  35.317  36.933  1.00  0.00     0.135 A 
ATOM     92  F   UNL A   1      38.482  32.664  38.329  1.00  0.00    -0.206 F 
ATOM     93  C   UNL A   1      38.937  34.814  39.150  1.00  0.00     0.059 A 
ATOM     94  C   UNL A   1      40.407  36.297  37.910  1.00  0.00     0.059 A 
ATOM     95  F   UNL A   1      41.321  35.592  35.872  1.00  0.00    -0.206 F 
ATOM     96  C   UNL A   1      39.582  36.043  39.005  1.00  0.00     0.060 A 
BRANCH  96  97
ATOM     97  S   UNL A   1      39.334  37.306  40.271  1.00  0.00     0.124 S 
ATOM     98  O   UNL A   1      38.540  38.293  39.547  1.00  0.00    -0.237 OA
ATOM     99  O   UNL A   1      38.630  36.568  41.315  1.00  0.00    -0.237 OA
ATOM    100  O   UNL A   1      40.692  37.718  40.610  1.00  0.00    -0.744 OA
ENDBRANCH  96  97
ENDBRANCH  64  89
ENDBRANCH  38  39
ENDBRANCH  30  33
ENDBRANCH  28  29
ENDBRANCH   1  28
TORSDOF 16
ENDMDL
MODEL 2
REMARK VINA RESULT:     -12.5      3.858      6.536
REMARK SMILES O=C(Nc1ccc2c(c1)OCO2)N[C@H]1C=C[C@@H](C(=O)NCCCCNC(=O)c2ccc(-c3c4nc(c(-c5c(F)cc(S(=O)(=O)[O-])cc5F)c5ccc([nH]5)c(-c5c(F)cc(S(=O)(=O)[O-])cc5F)c5nc(c(-c6c(F)cc(S(=O)(=O)[O-])cc6F)c6ccc3[nH]6)C=C5)C=C4)cc2)C1
REMARK SMILES IDX 23 1 22 2 21 3 20 4 18 5 19 6 17 8 14 9 15 10 94 11 16 12
REMARK SMILES IDX 13 13 1 14 2 15 3 16 4 19 5 20 9 21 6 22 8 23 7 24 10 25
REMARK SMILES IDX 12 26 11 27 24 28 25 29 26 30 27 32 28 33 29 34 93 35 30 36
REMARK SMILES IDX 92 37 31 38 32 39 33 40 86 41 34 42 91 43 85 44 87 45 35 46
REMARK SMILES IDX 90 47 84 48 83 49 36 51 70 52 49 53 69 54 50 55 53 56 68 57
REMARK SMILES IDX 88 58 51 59 52 60 67 62 89 63 54 64 37 65 38 66 47 67 39 68
REMARK SMILES IDX 40 69 46 70 48 71 41 72 42 73 43 74 44 75 45 76 71 77 72 78
REMARK SMILES IDX 81 79 73 80 74 81 80 82 82 83 75 84 76 85 77 86 78 87 79 88
REMARK SMILES IDX 55 89 56 90 65 91 57 92 58 93 64 94 66 95 59 96 60 97 61 98
REMARK SMILES IDX 62 99 63 100
REMARK H PARENT 20 7 3 17 13 18 25 31 87 50 53 61
REMARK Flexibility Score: inf
ROOT
ATOM      1  C   UNL A   1      39.878  21.817  26.772  1.00  0.00     0.023 C 
ENDROOT
BRANCH   1   2
ATOM      2  C   UNL A   1      40.980  20.815  27.110  1.00  0.00     0.023 C 
BRANCH   2   3
ATOM      3  C   UNL A   1      41.110  19.656  26.127  1.00  0.00     0.116 C 
BRANCH   3   4
ATOM      4  N   UNL A   1      41.965  18.615  26.656  1.00  0.00    -0.356 N 
ATOM      5  C   UNL A   1      43.214  18.222  26.291  1.00  0.00     0.227 C 
ATOM      6  O   UNL A   1      43.718  17.289  26.927  1.00  0.00    -0.274 OA
ATOM      7  H   UNL A   1      41.578  18.109  27.407  1.00  0.00     0.163 HD
BRANCH   5   8
ATOM      8  C   UNL A   1      44.016  18.903  25.175  1.00  0.00     0.103 C 
ATOM      9  C   UNL A   1      45.120  21.106  24.925  1.00  0.00     0.107 C 
ATOM     10  C   UNL A   1      46.073  20.017  25.283  1.00  0.00    -0.006 C 
ATOM     11  C   UNL A   1      43.748  20.394  24.932  1.00  0.00     0.047 C 
ATOM     12  C   UNL A   1      45.487  18.823  25.410  1.00  0.00    -0.016 C 
BRANCH   9  13
ATOM     13  N   UNL A   1      45.115  22.251  25.825  1.00  0.00    -0.332 N 
ATOM     14  O   UNL A   1      45.194  23.991  24.336  1.00  0.00    -0.248 OA
ATOM     15  C   UNL A   1      45.088  23.566  25.483  1.00  0.00     0.319 C 
ATOM     16  N   UNL A   1      44.835  24.473  26.470  1.00  0.00    -0.308 N 
ATOM     17  H   UNL A   1      44.687  25.383  26.127  1.00  0.00     0.171 HD
ATOM     18  H   UNL A   1      45.135  22.050  26.788  1.00  0.00     0.165 HD
BRANCH  16  19
ATOM     19  C   UNL A   1      44.743  24.391  27.870  1.00  0.00     0.046 A 
ATOM     20  C   UNL A   1      43.751  23.665  28.554  1.00  0.00     0.030 A 
ATOM     21  C   UNL A   1      45.726  25.070  28.602  1.00  0.00     0.076 A 
ATOM     22  C   UNL A   1      43.703  23.644  29.954  1.00  0.00     0.053 A 
ATOM     23  C   UNL A   1      45.631  25.071  29.978  1.00  0.00     0.167 A 
ATOM     24  C   UNL A   1      44.644  24.379  30.636  1.00  0.00     0.165 A 
ATOM     25  O   UNL A   1      46.447  25.747  30.831  1.00  0.00    -0.454 OA
ATOM     26  O   UNL A   1      44.719  24.523  31.985  1.00  0.00    -0.454 OA
ATOM     27  C   UNL A   1      45.818  25.450  32.096  1.00  0.00     0.468 C 
ENDBRANCH  16  19
ENDBRANCH   9  13
ENDBRANCH   5   8
ENDBRANCH   3   4
ENDBRANCH   2   3
ENDBRANCH   1   2
BRANCH   1  28
ATOM     28  C   UNL A   1      40.208  23.257  27.141  1.00  0.00     0.116 C 
BRANCH  28  29
ATOM     29  N   UNL A   1      41.015  23.929  26.134  1.00  0.00    -0.352 N 
ATOM     30  C   UNL A   1      41.492  25.216  26.122  1.00  0.00     0.251 C 
ATOM     31  H   UNL A   1      41.254  23.383  25.350  1.00  0.00     0.163 HD
ATOM     32  O   UNL A   1      42.027  25.660  25.109  1.00  0.00    -0.269 OA
BRANCH  30  33
ATOM     33  C   UNL A   1      41.338  26.067  27.320  1.00  0.00     0.039 A 
ATOM     34  C   UNL A   1      42.221  27.131  27.510  1.00  0.00     0.014 A 
ATOM     35  C   UNL A   1      40.321  25.821  28.247  1.00  0.00     0.014 A 
ATOM     36  C   UNL A   1      42.050  27.978  28.605  1.00  0.00     0.010 A 
ATOM     37  C   UNL A   1      40.095  26.721  29.282  1.00  0.00     0.010 A 
ATOM     38  C   UNL A   1      40.967  27.800  29.483  1.00  0.00    -0.014 A 
BRANCH  38  39
ATOM     39  C   UNL A   1      40.750  28.723  30.623  1.00  0.00     0.031 A 
ATOM     40  C   UNL A   1      41.584  28.595  31.871  1.00  0.00     0.074 A 
ATOM     41  C   UNL A   1      39.776  29.653  30.550  1.00  0.00     0.049 A 
ATOM     42  N   UNL A   1      41.540  29.306  32.968  1.00  0.00    -0.248 NA
ATOM     43  C   UNL A   1      42.578  27.509  31.902  1.00  0.00     0.031 C 
ATOM     44  C   UNL A   1      38.861  29.830  29.419  1.00  0.00     0.029 A 
ATOM     45  N   UNL A   1      39.394  30.623  31.439  1.00  0.00    -0.354 N 
ATOM     46  C   UNL A   1      42.489  28.750  33.819  1.00  0.00     0.074 A 
ATOM     47  C   UNL A   1      43.045  27.603  33.137  1.00  0.00     0.031 C 
ATOM     48  C   UNL A   1      38.049  30.871  29.669  1.00  0.00     0.029 A 
ATOM     49  C   UNL A   1      38.360  31.410  30.989  1.00  0.00     0.049 A 
ATOM     50  H   UNL A   1      39.819  30.745  32.319  1.00  0.00     0.167 HD
ATOM     51  C   UNL A   1      42.883  29.173  35.043  1.00  0.00     0.037 A 
ATOM     52  C   UNL A   1      37.735  32.451  31.572  1.00  0.00     0.037 A 
ATOM     53  C   UNL A   1      42.338  30.330  35.704  1.00  0.00     0.049 A 
ATOM     54  C   UNL A   1      38.200  32.911  32.928  1.00  0.00     0.074 A 
ATOM     55  C   UNL A   1      42.707  30.881  36.919  1.00  0.00     0.029 A 
ATOM     56  N   UNL A   1      41.304  31.113  35.209  1.00  0.00    -0.354 N 
ATOM     57  N   UNL A   1      39.152  32.419  33.686  1.00  0.00    -0.248 NA
ATOM     58  C   UNL A   1      37.514  34.077  33.501  1.00  0.00     0.031 C 
ATOM     59  C   UNL A   1      41.862  31.964  37.183  1.00  0.00     0.029 A 
ATOM     60  C   UNL A   1      41.006  32.127  36.105  1.00  0.00     0.049 A 
ATOM     61  H   UNL A   1      40.849  30.968  34.349  1.00  0.00     0.167 HD
ATOM     62  C   UNL A   1      39.197  33.232  34.814  1.00  0.00     0.074 A 
ATOM     63  C   UNL A   1      38.191  34.258  34.627  1.00  0.00     0.031 C 
ATOM     64  C   UNL A   1      39.997  33.138  35.906  1.00  0.00     0.037 A 
BRANCH  51  65
ATOM     65  C   UNL A   1      43.960  28.384  35.742  1.00  0.00     0.058 A 
ATOM     66  C   UNL A   1      45.323  28.650  35.536  1.00  0.00     0.135 A 
ATOM     67  C   UNL A   1      43.623  27.369  36.651  1.00  0.00     0.135 A 
ATOM     68  F   UNL A   1      45.705  29.598  34.666  1.00  0.00    -0.206 F 
ATOM     69  C   UNL A   1      46.314  27.917  36.181  1.00  0.00     0.059 A 
ATOM     70  C   UNL A   1      44.598  26.645  37.332  1.00  0.00     0.059 A 
ATOM     71  F   UNL A   1      42.336  27.069  36.886  1.00  0.00    -0.206 F 
ATOM     72  C   UNL A   1      45.941  26.916  37.079  1.00  0.00     0.060 A 
BRANCH  72  73
ATOM     73  S   UNL A   1      47.239  25.981  37.914  1.00  0.00     0.124 S 
ATOM     74  O   UNL A   1      46.601  25.669  39.189  1.00  0.00    -0.237 OA
ATOM     75  O   UNL A   1      47.438  24.850  37.011  1.00  0.00    -0.237 OA
ATOM     76  O   UNL A   1      48.350  26.926  37.984  1.00  0.00    -0.744 OA
ENDBRANCH  72  73
ENDBRANCH  51  65
BRANCH  52  77
ATOM     77  C   UNL A   1      36.627  33.147  30.863  1.00  0.00     0.058 A 
ATOM     78  C   UNL A   1      35.295  32.997  31.276  1.00  0.00     0.135 A 
ATOM     79  C   UNL A   1      36.879  33.983  29.765  1.00  0.00     0.135 A 
ATOM     80  F   UNL A   1      35.000  32.204  32.318  1.00  0.00    -0.206 F 
ATOM     81  C   UNL A   1      34.250  33.636  30.616  1.00  0.00     0.059 A 
ATOM     82  C   UNL A   1      35.854  34.656  29.106  1.00  0.00     0.059 A 
ATOM     83  F   UNL A   1      38.138  34.175  29.340  1.00  0.00    -0.206 F 
ATOM     84  C   UNL A   1      34.541  34.467  29.534  1.00  0.00     0.060 A 
BRANCH  84  85
ATOM     85  S   UNL A   1      33.183  35.329  28.714  1.00  0.00     0.124 S 
ATOM     86  O   UNL A   1      33.899  36.319  27.919  1.00  0.00    -0.237 OA
ATOM     87  O   UNL A   1      32.544  34.249  27.966  1.00  0.00    -0.237 OA
ATOM     88  O   UNL A   1      32.401  35.858  29.827  1.00  0.00    -0.744 OA
ENDBRANCH  84  85
ENDBRANCH  52  77
BRANCH  64  89
ATOM     89  C   UNL A   1      39.836  34.194  36.967  1.00  0.00     0.058 A 
ATOM     90  C   UNL A   1      40.418  35.466  36.842  1.00  0.00     0.135 A 
ATOM     91  C   UNL A   1      39.072  33.934  38.117  1.00  0.00     0.135 A 
ATOM     92  F   UNL A   1      41.159  35.767  35.764  1.00  0.00    -0.206 F 
ATOM     93  C   UNL A   1      40.289  36.425  37.841  1.00  0.00     0.059 A 
ATOM     94  C   UNL A   1      38.900  34.891  39.112  1.00  0.00     0.059 A 
ATOM     95  F   UNL A   1      38.480  32.741  38.281  1.00  0.00    -0.206 F 
ATOM     96  C   UNL A   1      39.531  36.126  38.974  1.00  0.00     0.060 A 
BRANCH  96  97
ATOM     97  S   UNL A   1      39.375  37.377  40.267  1.00  0.00     0.124 S 
ATOM     98  O   UNL A   1      40.770  37.748  40.484  1.00  0.00    -0.237 OA
ATOM     99  O   UNL A   1      38.543  38.389  39.623  1.00  0.00    -0.237 OA
ATOM    100  O   UNL A   1      38.739  36.656  41.364  1.00  0.00    -0.744 OA
ENDBRANCH  96  97
ENDBRANCH  64  89
ENDBRANCH  38  39
ENDBRANCH  30  33
ENDBRANCH  28  29
ENDBRANCH   1  28
TORSDOF 16
ENDMDL
MODEL 3
REMARK VINA RESULT:     -12.4      6.618     13.287
REMARK SMILES O=C(Nc1ccc2c(c1)OCO2)N[C@H]1C=C[C@@H](C(=O)NCCCCNC(=O)c2ccc(-c3c4nc(c(-c5c(F)cc(S(=O)(=O)[O-])cc5F)c5ccc([nH]5)c(-c5c(F)cc(S(=O)(=O)[O-])cc5F)c5nc(c(-c6c(F)cc(S(=O)(=O)[O-])cc6F)c6ccc3[nH]6)C=C5)C=C4)cc2)C1
REMARK SMILES IDX 23 1 22 2 21 3 20 4 18 5 19 6 17 8 14 9 15 10 94 11 16 12
REMARK SMILES IDX 13 13 1 14 2 15 3 16 4 19 5 20 9 21 6 22 8 23 7 24 10 25
REMARK SMILES IDX 12 26 11 27 24 28 25 29 26 30 27 32 28 33 29 34 93 35 30 36
REMARK SMILES IDX 92 37 31 38 32 39 33 40 86 41 34 42 91 43 85 44 87 45 35 46
REMARK SMILES IDX 90 47 84 48 83 49 36 51 70 52 49 53 69 54 50 55 53 56 68 57
REMARK SMILES IDX 88 58 51 59 52 60 67 62 89 63 54 64 37 65 38 66 47 67 39 68
REMARK SMILES IDX 40 69 46 70 48 71 41 72 42 73 43 74 44 75 45 76 71 77 72 78
REMARK SMILES IDX 81 79 73 80 74 81 80 82 82 83 75 84 76 85 77 86 78 87 79 88
REMARK SMILES IDX 55 89 56 90 65 91 57 92 58 93 64 94 66 95 59 96 60 97 61 98
REMARK SMILES IDX 62 99 63 100
REMARK H PARENT 20 7 3 17 13 18 25 31 87 50 53 61
REMARK Flexibility Score: inf
ROOT
ATOM      1  C   UNL A   1      36.062  33.001  28.931  1.00  0.00     0.023 C 
ENDROOT
BRANCH   1   2
ATOM      2  C   UNL A   1      37.512  33.476  28.920  1.00  0.00     0.023 C 
BRANCH   2   3
ATOM      3  C   UNL A   1      38.126  33.678  30.302  1.00  0.00     0.116 C 
BRANCH   3   4
ATOM      4  N   UNL A   1      39.495  34.139  30.203  1.00  0.00    -0.356 N 
ATOM      5  C   UNL A   1      40.462  34.255  31.152  1.00  0.00     0.227 C 
ATOM      6  O   UNL A   1      41.561  34.685  30.783  1.00  0.00    -0.274 OA
ATOM      7  H   UNL A   1      39.772  34.413  29.299  1.00  0.00     0.163 HD
BRANCH   5   8
ATOM      8  C   UNL A   1      40.257  33.845  32.614  1.00  0.00     0.103 C 
ATOM      9  C   UNL A   1      38.302  33.733  34.131  1.00  0.00     0.107 C 
ATOM     10  C   UNL A   1      38.663  32.408  33.552  1.00  0.00    -0.006 C 
ATOM     11  C   UNL A   1      39.298  34.701  33.453  1.00  0.00     0.047 C 
ATOM     12  C   UNL A   1      39.724  32.458  32.741  1.00  0.00    -0.016 C 
BRANCH   9  13
ATOM     13  N   UNL A   1      36.928  34.159  33.901  1.00  0.00    -0.332 N 
ATOM     14  O   UNL A   1      35.921  33.489  35.847  1.00  0.00    -0.248 OA
ATOM     15  C   UNL A   1      35.884  34.071  34.767  1.00  0.00     0.319 C 
ATOM     16  N   UNL A   1      34.743  34.751  34.457  1.00  0.00    -0.308 N 
ATOM     17  H   UNL A   1      34.089  34.760  35.192  1.00  0.00     0.171 HD
ATOM     18  H   UNL A   1      36.734  34.554  33.021  1.00  0.00     0.165 HD
BRANCH  16  19
ATOM     19  C   UNL A   1      34.297  35.440  33.315  1.00  0.00     0.046 A 
ATOM     20  C   UNL A   1      34.071  36.827  33.269  1.00  0.00     0.030 A 
ATOM     21  C   UNL A   1      34.093  34.670  32.162  1.00  0.00     0.076 A 
ATOM     22  C   UNL A   1      33.605  37.448  32.103  1.00  0.00     0.053 A 
ATOM     23  C   UNL A   1      33.591  35.298  31.040  1.00  0.00     0.167 A 
ATOM     24  C   UNL A   1      33.350  36.650  31.013  1.00  0.00     0.165 A 
ATOM     25  O   UNL A   1      33.256  34.688  29.871  1.00  0.00    -0.454 OA
ATOM     26  O   UNL A   1      32.844  37.063  29.822  1.00  0.00    -0.454 OA
ATOM     27  C   UNL A   1      32.718  35.804  29.131  1.00  0.00     0.468 C 
ENDBRANCH  16  19
ENDBRANCH   9  13
ENDBRANCH   5   8
ENDBRANCH   3   4
ENDBRANCH   2   3
ENDBRANCH   1   2
BRANCH   1  28
ATOM     28  C   UNL A   1      35.899  31.486  28.906  1.00  0.00     0.116 C 
BRANCH  28  29
ATOM     29  N   UNL A   1      35.745  30.911  30.234  1.00  0.00    -0.352 N 
ATOM     30  C   UNL A   1      36.608  30.107  30.936  1.00  0.00     0.251 C 
ATOM     31  H   UNL A   1      34.904  31.131  30.694  1.00  0.00     0.163 HD
ATOM     32  O   UNL A   1      36.241  29.586  31.986  1.00  0.00    -0.269 OA
BRANCH  30  33
ATOM     33  C   UNL A   1      37.967  29.856  30.412  1.00  0.00     0.039 A 
ATOM     34  C   UNL A   1      38.975  29.484  31.302  1.00  0.00     0.014 A 
ATOM     35  C   UNL A   1      38.242  29.978  29.047  1.00  0.00     0.014 A 
ATOM     36  C   UNL A   1      40.247  29.184  30.813  1.00  0.00     0.010 A 
ATOM     37  C   UNL A   1      39.481  29.587  28.552  1.00  0.00     0.010 A 
ATOM     38  C   UNL A   1      40.503  29.202  29.432  1.00  0.00    -0.014 A 
BRANCH  38  39
ATOM     39  C   UNL A   1      41.839  28.841  28.899  1.00  0.00     0.031 A 
ATOM     40  C   UNL A   1      42.921  29.884  28.794  1.00  0.00     0.074 A 
ATOM     41  C   UNL A   1      42.067  27.582  28.475  1.00  0.00     0.049 A 
ATOM     42  N   UNL A   1      44.146  29.760  28.354  1.00  0.00    -0.248 NA
ATOM     43  C   UNL A   1      42.572  31.252  29.211  1.00  0.00     0.031 C 
ATOM     44  C   UNL A   1      41.078  26.501  28.466  1.00  0.00     0.029 A 
ATOM     45  N   UNL A   1      43.200  26.996  27.971  1.00  0.00    -0.354 N 
ATOM     46  C   UNL A   1      44.709  31.029  28.434  1.00  0.00     0.074 A 
ATOM     47  C   UNL A   1      43.671  31.922  28.899  1.00  0.00     0.031 C 
ATOM     48  C   UNL A   1      41.658  25.376  28.016  1.00  0.00     0.029 A 
ATOM     49  C   UNL A   1      43.047  25.663  27.671  1.00  0.00     0.049 A 
ATOM     50  H   UNL A   1      44.045  27.485  27.837  1.00  0.00     0.167 HD
ATOM     51  C   UNL A   1      45.981  31.411  28.171  1.00  0.00     0.037 A 
ATOM     52  C   UNL A   1      43.927  24.772  27.176  1.00  0.00     0.037 A 
ATOM     53  C   UNL A   1      47.013  30.510  27.729  1.00  0.00     0.049 A 
ATOM     54  C   UNL A   1      45.339  25.217  26.904  1.00  0.00     0.074 A 
ATOM     55  C   UNL A   1      48.348  30.782  27.490  1.00  0.00     0.029 A 
ATOM     56  N   UNL A   1      46.824  29.163  27.452  1.00  0.00    -0.354 N 
ATOM     57  N   UNL A   1      45.873  26.406  27.058  1.00  0.00    -0.248 NA
ATOM     58  C   UNL A   1      46.270  24.197  26.406  1.00  0.00     0.031 C 
ATOM     59  C   UNL A   1      48.956  29.613  27.020  1.00  0.00     0.029 A 
ATOM     60  C   UNL A   1      48.014  28.596  27.023  1.00  0.00     0.049 A 
ATOM     61  H   UNL A   1      45.971  28.682  27.546  1.00  0.00     0.167 HD
ATOM     62  C   UNL A   1      47.211  26.270  26.699  1.00  0.00     0.074 A 
ATOM     63  C   UNL A   1      47.405  24.878  26.343  1.00  0.00     0.031 C 
ATOM     64  C   UNL A   1      48.190  27.210  26.667  1.00  0.00     0.037 A 
BRANCH  51  65
ATOM     65  C   UNL A   1      46.327  32.865  28.363  1.00  0.00     0.058 A 
ATOM     66  C   UNL A   1      46.222  33.794  27.315  1.00  0.00     0.135 A 
ATOM     67  C   UNL A   1      46.743  33.340  29.617  1.00  0.00     0.135 A 
ATOM     68  F   UNL A   1      45.846  33.395  26.090  1.00  0.00    -0.206 F 
ATOM     69  C   UNL A   1      46.547  35.135  27.496  1.00  0.00     0.059 A 
ATOM     70  C   UNL A   1      47.041  34.683  29.828  1.00  0.00     0.059 A 
ATOM     71  F   UNL A   1      46.863  32.497  30.654  1.00  0.00    -0.206 F 
ATOM     72  C   UNL A   1      46.954  35.570  28.757  1.00  0.00     0.060 A 
BRANCH  72  73
ATOM     73  S   UNL A   1      47.363  37.315  28.975  1.00  0.00     0.124 S 
ATOM     74  O   UNL A   1      47.659  37.719  27.604  1.00  0.00    -0.237 OA
ATOM     75  O   UNL A   1      46.131  37.855  29.543  1.00  0.00    -0.237 OA
ATOM     76  O   UNL A   1      48.507  37.287  29.881  1.00  0.00    -0.744 OA
ENDBRANCH  72  73
ENDBRANCH  51  65
BRANCH  52  77
ATOM     77  C   UNL A   1      43.506  23.364  26.937  1.00  0.00     0.058 A 
ATOM     78  C   UNL A   1      43.300  22.479  28.005  1.00  0.00     0.135 A 
ATOM     79  C   UNL A   1      43.292  22.880  25.638  1.00  0.00     0.135 A 
ATOM     80  F   UNL A   1      43.497  22.891  29.267  1.00  0.00    -0.206 F 
ATOM     81  C   UNL A   1      42.915  21.158  27.795  1.00  0.00     0.059 A 
ATOM     82  C   UNL A   1      42.878  21.572  25.403  1.00  0.00     0.059 A 
ATOM     83  F   UNL A   1      43.457  23.691  24.582  1.00  0.00    -0.206 F 
ATOM     84  C   UNL A   1      42.703  20.716  26.489  1.00  0.00     0.060 A 
BRANCH  84  85
ATOM     85  S   UNL A   1      42.157  19.014  26.229  1.00  0.00     0.124 S 
ATOM     86  O   UNL A   1      42.347  18.438  27.555  1.00  0.00    -0.237 OA
ATOM     87  O   UNL A   1      40.772  19.200  25.805  1.00  0.00    -0.237 OA
ATOM     88  O   UNL A   1      43.062  18.526  25.193  1.00  0.00    -0.744 OA
ENDBRANCH  84  85
ENDBRANCH  52  77
BRANCH  64  89
ATOM     89  C   UNL A   1      49.565  26.753  26.262  1.00  0.00     0.058 A 
ATOM     90  C   UNL A   1      50.045  26.912  24.952  1.00  0.00     0.135 A 
ATOM     91  C   UNL A   1      50.423  26.162  27.206  1.00  0.00     0.135 A 
ATOM     92  F   UNL A   1      49.266  27.468  24.011  1.00  0.00    -0.206 F 
ATOM     93  C   UNL A   1      51.306  26.459  24.581  1.00  0.00     0.059 A 
ATOM     94  C   UNL A   1      51.702  25.734  26.864  1.00  0.00     0.059 A 
ATOM     95  F   UNL A   1      50.023  26.000  28.476  1.00  0.00    -0.206 F 
ATOM     96  C   UNL A   1      52.126  25.867  25.543  1.00  0.00     0.060 A 
BRANCH  96  97
ATOM     97  S   UNL A   1      53.759  25.279  25.047  1.00  0.00     0.124 S 
ATOM     98  O   UNL A   1      53.842  25.769  23.675  1.00  0.00    -0.237 OA
ATOM     99  O   UNL A   1      54.635  25.939  26.010  1.00  0.00    -0.237 OA
ATOM    100  O   UNL A   1      53.657  23.830  25.191  1.00  0.00    -0.744 OA
ENDBRANCH  96  97
ENDBRANCH  64  89
ENDBRANCH  38  39
ENDBRANCH  30  33
ENDBRANCH  28  29
ENDBRANCH   1  28
TORSDOF 16
ENDMDL
