MODEL 1
REMARK VINA RESULT:     -13.5      0.000      0.000
REMARK SMILES O=C(NCCCCNC(=O)c1cc2c(c(S(=O)(=O)Nc3cc(C(F)(F)F)ccc3-n3cccn3)c1)CCC2)c1ccc(-c2c3nc(c(-c4c(F)cc(S(=O)(=O)[O-])cc4F)c4ccc([nH]4)c(-c4c(F)cc(S(=O)(=O)[O-])cc4F)c4nc(c(-c5c(F)cc(S(=O)(=O)[O-])cc5F)c5ccc2[nH]5)C=C4)C=C3)cc1
REMARK SMILES IDX 6 1 5 2 4 3 3 4 1 5 2 6 39 8 40 9 104 10 41 11 103 12 42 13
REMARK SMILES IDX 43 14 44 15 97 16 45 17 102 18 96 19 98 20 46 21 101 22
REMARK SMILES IDX 95 23 94 24 47 26 81 27 60 28 80 29 61 30 64 31 79 32 99 33
REMARK SMILES IDX 62 34 63 35 78 37 100 38 65 39 48 40 49 41 58 42 50 43 51 44
REMARK SMILES IDX 57 45 59 46 52 47 53 48 54 49 55 50 56 51 82 52 83 53 92 54
REMARK SMILES IDX 84 55 85 56 91 57 93 58 86 59 87 60 88 61 89 62 90 63 66 64
REMARK SMILES IDX 67 65 76 66 68 67 69 68 75 69 77 70 70 71 71 72 72 73 73 74
REMARK SMILES IDX 74 75 7 76 8 77 9 78 10 80 11 81 12 82 35 83 13 84 15 85
REMARK SMILES IDX 14 86 38 87 36 88 37 89 16 90 17 91 18 92 19 93 20 95 21 96
REMARK SMILES IDX 29 97 22 98 28 99 27 100 30 101 31 102 34 103 32 104 33 105
REMARK SMILES IDX 23 106 24 107 25 108 26 109
REMARK H PARENT 3 7 98 25 64 36 8 79 19 94
REMARK Flexibility Score: inf
ROOT
ATOM      1  C   UNL A   1      39.100  23.184  26.689  1.00  0.00     0.023 C 
ENDROOT
BRANCH   1   2
ATOM      2  C   UNL A   1      39.454  21.777  26.202  1.00  0.00     0.023 C 
BRANCH   2   3
ATOM      3  C   UNL A   1      40.894  21.321  26.447  1.00  0.00     0.116 C 
BRANCH   3   4
ATOM      4  N   UNL A   1      41.862  21.817  25.489  1.00  0.00    -0.352 N 
ATOM      5  O   UNL A   1      43.435  22.952  24.448  1.00  0.00    -0.269 OA
ATOM      6  C   UNL A   1      42.578  22.976  25.337  1.00  0.00     0.251 C 
ATOM      7  H   UNL A   1      42.051  21.165  24.775  1.00  0.00     0.163 HD
BRANCH   6   8
ATOM      8  C   UNL A   1      42.393  24.233  26.120  1.00  0.00     0.039 A 
ATOM      9  C   UNL A   1      42.672  24.398  27.476  1.00  0.00     0.014 A 
ATOM     10  C   UNL A   1      41.864  25.336  25.417  1.00  0.00     0.014 A 
ATOM     11  C   UNL A   1      42.395  25.608  28.119  1.00  0.00     0.010 A 
ATOM     12  C   UNL A   1      41.599  26.552  26.053  1.00  0.00     0.010 A 
ATOM     13  C   UNL A   1      41.846  26.686  27.416  1.00  0.00    -0.014 A 
BRANCH  13  14
ATOM     14  C   UNL A   1      41.634  27.940  28.146  1.00  0.00     0.031 A 
ATOM     15  C   UNL A   1      42.725  28.959  28.063  1.00  0.00     0.074 A 
ATOM     16  C   UNL A   1      40.486  28.295  28.760  1.00  0.00     0.049 A 
ATOM     17  N   UNL A   1      43.434  29.471  29.020  1.00  0.00    -0.248 NA
ATOM     18  C   UNL A   1      43.085  29.449  26.725  1.00  0.00     0.031 C 
ATOM     19  C   UNL A   1      39.177  27.644  28.681  1.00  0.00     0.029 A 
ATOM     20  N   UNL A   1      40.241  29.402  29.524  1.00  0.00    -0.354 N 
ATOM     21  C   UNL A   1      44.213  30.471  28.435  1.00  0.00     0.074 A 
ATOM     22  C   UNL A   1      44.027  30.350  27.011  1.00  0.00     0.031 C 
ATOM     23  C   UNL A   1      38.241  28.472  29.198  1.00  0.00     0.029 A 
ATOM     24  C   UNL A   1      38.897  29.639  29.765  1.00  0.00     0.049 A 
ATOM     25  H   UNL A   1      40.957  29.981  29.872  1.00  0.00     0.167 HD
ATOM     26  C   UNL A   1      44.849  31.437  29.158  1.00  0.00     0.037 A 
ATOM     27  C   UNL A   1      38.357  30.741  30.338  1.00  0.00     0.037 A 
ATOM     28  C   UNL A   1      44.950  31.099  30.551  1.00  0.00     0.049 A 
ATOM     29  C   UNL A   1      39.417  31.427  31.117  1.00  0.00     0.074 A 
ATOM     30  C   UNL A   1      45.533  30.076  31.270  1.00  0.00     0.029 A 
ATOM     31  N   UNL A   1      44.137  31.757  31.440  1.00  0.00    -0.354 N 
ATOM     32  N   UNL A   1      39.967  30.958  32.203  1.00  0.00    -0.248 NA
ATOM     33  C   UNL A   1      40.116  32.543  30.499  1.00  0.00     0.031 C 
ATOM     34  C   UNL A   1      44.692  29.886  32.404  1.00  0.00     0.029 A 
ATOM     35  C   UNL A   1      43.652  30.811  32.305  1.00  0.00     0.049 A 
ATOM     36  H   UNL A   1      43.941  32.722  31.453  1.00  0.00     0.167 HD
ATOM     37  C   UNL A   1      41.262  31.449  32.190  1.00  0.00     0.074 A 
ATOM     38  C   UNL A   1      41.254  32.513  31.194  1.00  0.00     0.031 C 
ATOM     39  C   UNL A   1      42.287  30.773  32.786  1.00  0.00     0.037 A 
BRANCH  26  40
ATOM     40  C   UNL A   1      45.158  32.826  28.653  1.00  0.00     0.058 A 
ATOM     41  C   UNL A   1      46.495  33.272  28.583  1.00  0.00     0.135 A 
ATOM     42  C   UNL A   1      44.172  33.823  28.496  1.00  0.00     0.135 A 
ATOM     43  F   UNL A   1      47.513  32.411  28.739  1.00  0.00    -0.206 F 
ATOM     44  C   UNL A   1      46.827  34.620  28.424  1.00  0.00     0.059 A 
ATOM     45  C   UNL A   1      44.481  35.165  28.285  1.00  0.00     0.059 A 
ATOM     46  F   UNL A   1      42.868  33.550  28.635  1.00  0.00    -0.206 F 
ATOM     47  C   UNL A   1      45.810  35.560  28.295  1.00  0.00     0.060 A 
BRANCH  47  48
ATOM     48  S   UNL A   1      46.230  37.312  28.210  1.00  0.00     0.124 S 
ATOM     49  O   UNL A   1      45.044  37.861  27.563  1.00  0.00    -0.237 OA
ATOM     50  O   UNL A   1      46.406  37.656  29.617  1.00  0.00    -0.237 OA
ATOM     51  O   UNL A   1      47.452  37.325  27.411  1.00  0.00    -0.744 OA
ENDBRANCH  47  48
ENDBRANCH  26  40
BRANCH  27  52
ATOM     52  C   UNL A   1      37.057  31.389  30.029  1.00  0.00     0.058 A 
ATOM     53  C   UNL A   1      36.292  32.008  31.033  1.00  0.00     0.135 A 
ATOM     54  C   UNL A   1      36.673  31.656  28.699  1.00  0.00     0.135 A 
ATOM     55  F   UNL A   1      36.605  31.831  32.326  1.00  0.00    -0.206 F 
ATOM     56  C   UNL A   1      35.236  32.875  30.735  1.00  0.00     0.059 A 
ATOM     57  C   UNL A   1      35.615  32.504  28.379  1.00  0.00     0.059 A 
ATOM     58  F   UNL A   1      37.378  31.172  27.665  1.00  0.00    -0.206 F 
ATOM     59  C   UNL A   1      34.916  33.131  29.403  1.00  0.00     0.060 A 
BRANCH  59  60
ATOM     60  S   UNL A   1      33.671  34.383  29.013  1.00  0.00     0.124 S 
ATOM     61  O   UNL A   1      33.099  34.657  30.326  1.00  0.00    -0.237 OA
ATOM     62  O   UNL A   1      34.479  35.450  28.433  1.00  0.00    -0.237 OA
ATOM     63  O   UNL A   1      32.785  33.697  28.076  1.00  0.00    -0.744 OA
ENDBRANCH  59  60
ENDBRANCH  27  52
BRANCH  39  64
ATOM     64  C   UNL A   1      41.960  29.696  33.783  1.00  0.00     0.058 A 
ATOM     65  C   UNL A   1      41.625  28.377  33.431  1.00  0.00     0.135 A 
ATOM     66  C   UNL A   1      42.178  29.962  35.145  1.00  0.00     0.135 A 
ATOM     67  F   UNL A   1      41.497  28.019  32.145  1.00  0.00    -0.206 F 
ATOM     68  C   UNL A   1      41.493  27.373  34.392  1.00  0.00     0.059 A 
ATOM     69  C   UNL A   1      42.082  28.969  36.116  1.00  0.00     0.059 A 
ATOM     70  F   UNL A   1      42.559  31.189  35.537  1.00  0.00    -0.206 F 
ATOM     71  C   UNL A   1      41.735  27.676  35.732  1.00  0.00     0.060 A 
BRANCH  71  72
ATOM     72  S   UNL A   1      41.706  26.343  36.951  1.00  0.00     0.124 S 
ATOM     73  O   UNL A   1      40.389  26.506  37.554  1.00  0.00    -0.237 OA
ATOM     74  O   UNL A   1      41.884  25.151  36.127  1.00  0.00    -0.237 OA
ATOM     75  O   UNL A   1      42.837  26.656  37.824  1.00  0.00    -0.744 OA
ENDBRANCH  71  72
ENDBRANCH  39  64
ENDBRANCH  13  14
ENDBRANCH   6   8
ENDBRANCH   3   4
ENDBRANCH   2   3
ENDBRANCH   1   2
BRANCH   1  76
ATOM     76  C   UNL A   1      37.760  23.754  26.232  1.00  0.00     0.116 C 
BRANCH  76  77
ATOM     77  N   UNL A   1      36.686  22.770  26.113  1.00  0.00    -0.352 N 
ATOM     78  C   UNL A   1      35.412  22.921  25.592  1.00  0.00     0.251 C 
ATOM     79  H   UNL A   1      36.899  21.871  26.454  1.00  0.00     0.163 HD
ATOM     80  O   UNL A   1      34.614  21.989  25.591  1.00  0.00    -0.269 OA
BRANCH  78  81
ATOM     81  C   UNL A   1      34.995  24.239  25.053  1.00  0.00     0.041 A 
ATOM     82  C   UNL A   1      34.991  25.344  25.904  1.00  0.00     0.018 A 
ATOM     83  C   UNL A   1      34.473  24.327  23.741  1.00  0.00     0.036 A 
ATOM     84  C   UNL A   1      34.239  26.434  25.527  1.00  0.00    -0.043 A 
ATOM     85  C   UNL A   1      33.760  25.474  23.338  1.00  0.00     0.092 A 
ATOM     86  C   UNL A   1      33.559  26.466  24.296  1.00  0.00    -0.024 A 
ATOM     87  C   UNL A   1      33.868  27.597  26.397  1.00  0.00     0.036 C 
ATOM     88  C   UNL A   1      32.539  27.560  24.362  1.00  0.00     0.037 C 
ATOM     89  C   UNL A   1      33.177  28.505  25.380  1.00  0.00     0.010 C 
BRANCH  85  90
ATOM     90  S   UNL A   1      32.903  25.482  21.775  1.00  0.00     0.262 S 
ATOM     91  O   UNL A   1      33.117  26.773  21.163  1.00  0.00    -0.201 OA
ATOM     92  O   UNL A   1      33.256  24.271  21.057  1.00  0.00    -0.201 OA
BRANCH  90  93
ATOM     93  N   UNL A   1      31.211  25.427  22.034  1.00  0.00    -0.277 N 
ATOM     94  H   UNL A   1      30.598  25.509  21.267  1.00  0.00     0.180 HD
BRANCH  93  95
ATOM     95  C   UNL A   1      30.676  25.262  23.354  1.00  0.00     0.075 A 
ATOM     96  C   UNL A   1      31.096  24.168  24.129  1.00  0.00     0.042 A 
ATOM     97  C   UNL A   1      29.864  26.249  23.938  1.00  0.00     0.089 A 
ATOM     98  C   UNL A   1      30.768  24.084  25.499  1.00  0.00     0.058 A 
ATOM     99  C   UNL A   1      29.513  26.155  25.295  1.00  0.00     0.031 A 
ATOM    100  C   UNL A   1      29.959  25.078  26.066  1.00  0.00     0.015 A 
BRANCH  97 101
ATOM    101  N   UNL A   1      29.426  27.380  23.203  1.00  0.00    -0.239 N 
ATOM    102  C   UNL A   1      30.183  28.264  22.467  1.00  0.00     0.115 A 
ATOM    103  N   UNL A   1      28.119  27.749  23.214  1.00  0.00    -0.177 NA
ATOM    104  C   UNL A   1      29.384  29.347  22.197  1.00  0.00     0.042 A 
ATOM    105  C   UNL A   1      28.131  28.987  22.712  1.00  0.00     0.135 A 
ENDBRANCH  97 101
BRANCH  98 106
ATOM    106  C   UNL A   1      31.345  22.981  26.359  1.00  0.00     0.416 C 
ATOM    107  F   UNL A   1      32.437  23.386  27.063  1.00  0.00    -0.166 F 
ATOM    108  F   UNL A   1      30.456  22.512  27.275  1.00  0.00    -0.166 F 
ATOM    109  F   UNL A   1      31.745  21.892  25.642  1.00  0.00    -0.166 F 
ENDBRANCH  98 106
ENDBRANCH  93  95
ENDBRANCH  90  93
ENDBRANCH  85  90
ENDBRANCH  78  81
ENDBRANCH  76  77
ENDBRANCH   1  76
TORSDOF 19
ENDMDL
MODEL 2
REMARK VINA RESULT:     -13.1      1.390      2.332
REMARK SMILES O=C(NCCCCNC(=O)c1cc2c(c(S(=O)(=O)Nc3cc(C(F)(F)F)ccc3-n3cccn3)c1)CCC2)c1ccc(-c2c3nc(c(-c4c(F)cc(S(=O)(=O)[O-])cc4F)c4ccc([nH]4)c(-c4c(F)cc(S(=O)(=O)[O-])cc4F)c4nc(c(-c5c(F)cc(S(=O)(=O)[O-])cc5F)c5ccc2[nH]5)C=C4)C=C3)cc1
REMARK SMILES IDX 6 1 5 2 4 3 3 4 1 5 2 6 39 8 40 9 104 10 41 11 103 12 42 13
REMARK SMILES IDX 43 14 44 15 97 16 45 17 102 18 96 19 98 20 46 21 101 22
REMARK SMILES IDX 95 23 94 24 47 26 81 27 60 28 80 29 61 30 64 31 79 32 99 33
REMARK SMILES IDX 62 34 63 35 78 37 100 38 65 39 48 40 49 41 58 42 50 43 51 44
REMARK SMILES IDX 57 45 59 46 52 47 53 48 54 49 55 50 56 51 82 52 83 53 92 54
REMARK SMILES IDX 84 55 85 56 91 57 93 58 86 59 87 60 88 61 89 62 90 63 66 64
REMARK SMILES IDX 67 65 76 66 68 67 69 68 75 69 77 70 70 71 71 72 72 73 73 74
REMARK SMILES IDX 74 75 7 76 8 77 9 78 10 80 11 81 12 82 35 83 13 84 15 85
REMARK SMILES IDX 14 86 38 87 36 88 37 89 16 90 17 91 18 92 19 93 20 95 21 96
REMARK SMILES IDX 29 97 22 98 28 99 27 100 30 101 31 102 34 103 32 104 33 105
REMARK SMILES IDX 23 106 24 107 25 108 26 109
REMARK H PARENT 3 7 98 25 64 36 8 79 19 94
REMARK Flexibility Score: inf
ROOT
ATOM      1  C   UNL A   1      38.897  20.008  24.920  1.00  0.00     0.023 C 
ENDROOT
BRANCH   1   2
ATOM      2  C   UNL A   1      39.822  19.560  26.054  1.00  0.00     0.023 C 
BRANCH   2   3
ATOM      3  C   UNL A   1      40.724  20.639  26.656  1.00  0.00     0.116 C 
BRANCH   3   4
ATOM      4  N   UNL A   1      41.884  20.980  25.856  1.00  0.00    -0.352 N 
ATOM      5  O   UNL A   1      43.729  21.878  25.059  1.00  0.00    -0.269 OA
ATOM      6  C   UNL A   1      42.753  22.038  25.799  1.00  0.00     0.251 C 
ATOM      7  H   UNL A   1      42.100  20.283  25.193  1.00  0.00     0.163 HD
BRANCH   6   8
ATOM      8  C   UNL A   1      42.605  23.337  26.519  1.00  0.00     0.039 A 
ATOM      9  C   UNL A   1      43.052  23.609  27.811  1.00  0.00     0.014 A 
ATOM     10  C   UNL A   1      41.929  24.363  25.826  1.00  0.00     0.014 A 
ATOM     11  C   UNL A   1      42.798  24.848  28.408  1.00  0.00     0.010 A 
ATOM     12  C   UNL A   1      41.685  25.607  26.414  1.00  0.00     0.010 A 
ATOM     13  C   UNL A   1      42.102  25.847  27.720  1.00  0.00    -0.014 A 
BRANCH  13  14
ATOM     14  C   UNL A   1      41.921  27.139  28.390  1.00  0.00     0.031 A 
ATOM     15  C   UNL A   1      43.047  28.115  28.284  1.00  0.00     0.074 A 
ATOM     16  C   UNL A   1      40.775  27.558  28.967  1.00  0.00     0.049 A 
ATOM     17  N   UNL A   1      43.756  28.646  29.231  1.00  0.00    -0.248 NA
ATOM     18  C   UNL A   1      43.447  28.535  26.933  1.00  0.00     0.031 C 
ATOM     19  C   UNL A   1      39.446  26.948  28.892  1.00  0.00     0.029 A 
ATOM     20  N   UNL A   1      40.555  28.705  29.678  1.00  0.00    -0.354 N 
ATOM     21  C   UNL A   1      44.579  29.592  28.618  1.00  0.00     0.074 A 
ATOM     22  C   UNL A   1      44.414  29.415  27.198  1.00  0.00     0.031 C 
ATOM     23  C   UNL A   1      38.530  27.829  29.355  1.00  0.00     0.029 A 
ATOM     24  C   UNL A   1      39.216  28.997  29.884  1.00  0.00     0.049 A 
ATOM     25  H   UNL A   1      41.285  29.274  30.014  1.00  0.00     0.167 HD
ATOM     26  C   UNL A   1      45.236  30.567  29.311  1.00  0.00     0.037 A 
ATOM     27  C   UNL A   1      38.704  30.140  30.399  1.00  0.00     0.037 A 
ATOM     28  C   UNL A   1      45.301  30.287  30.718  1.00  0.00     0.049 A 
ATOM     29  C   UNL A   1      39.774  30.824  31.167  1.00  0.00     0.074 A 
ATOM     30  C   UNL A   1      45.837  29.277  31.492  1.00  0.00     0.029 A 
ATOM     31  N   UNL A   1      44.496  31.010  31.563  1.00  0.00    -0.354 N 
ATOM     32  N   UNL A   1      40.288  30.385  32.282  1.00  0.00    -0.248 NA
ATOM     33  C   UNL A   1      40.521  31.888  30.514  1.00  0.00     0.031 C 
ATOM     34  C   UNL A   1      44.970  29.165  32.617  1.00  0.00     0.029 A 
ATOM     35  C   UNL A   1      43.964  30.119  32.459  1.00  0.00     0.049 A 
ATOM     36  H   UNL A   1      44.332  31.980  31.531  1.00  0.00     0.167 HD
ATOM     37  C   UNL A   1      41.600  30.831  32.272  1.00  0.00     0.074 A 
ATOM     38  C   UNL A   1      41.645  31.850  31.232  1.00  0.00     0.031 C 
ATOM     39  C   UNL A   1      42.590  30.148  32.916  1.00  0.00     0.037 A 
BRANCH  26  40
ATOM     40  C   UNL A   1      45.600  31.921  28.753  1.00  0.00     0.058 A 
ATOM     41  C   UNL A   1      44.590  32.790  28.288  1.00  0.00     0.135 A 
ATOM     42  C   UNL A   1      46.921  32.280  28.408  1.00  0.00     0.135 A 
ATOM     43  F   UNL A   1      43.298  32.534  28.542  1.00  0.00    -0.206 F 
ATOM     44  C   UNL A   1      44.869  33.904  27.492  1.00  0.00     0.059 A 
ATOM     45  C   UNL A   1      47.225  33.414  27.659  1.00  0.00     0.059 A 
ATOM     46  F   UNL A   1      47.964  31.493  28.704  1.00  0.00    -0.206 F 
ATOM     47  C   UNL A   1      46.189  34.195  27.168  1.00  0.00     0.060 A 
BRANCH  47  48
ATOM     48  S   UNL A   1      46.545  35.560  26.044  1.00  0.00     0.124 S 
ATOM     49  O   UNL A   1      45.501  36.512  26.407  1.00  0.00    -0.237 OA
ATOM     50  O   UNL A   1      47.904  35.928  26.424  1.00  0.00    -0.237 OA
ATOM     51  O   UNL A   1      46.415  34.949  24.724  1.00  0.00    -0.744 OA
ENDBRANCH  47  48
ENDBRANCH  26  40
BRANCH  27  52
ATOM     52  C   UNL A   1      37.433  30.817  30.038  1.00  0.00     0.058 A 
ATOM     53  C   UNL A   1      36.611  31.401  31.018  1.00  0.00     0.135 A 
ATOM     54  C   UNL A   1      37.136  31.147  28.699  1.00  0.00     0.135 A 
ATOM     55  F   UNL A   1      36.840  31.164  32.319  1.00  0.00    -0.206 F 
ATOM     56  C   UNL A   1      35.584  32.293  30.694  1.00  0.00     0.059 A 
ATOM     57  C   UNL A   1      36.109  32.021  28.352  1.00  0.00     0.059 A 
ATOM     58  F   UNL A   1      37.900  30.700  27.691  1.00  0.00    -0.206 F 
ATOM     59  C   UNL A   1      35.353  32.611  29.357  1.00  0.00     0.060 A 
BRANCH  59  60
ATOM     60  S   UNL A   1      34.147  33.894  28.945  1.00  0.00     0.124 S 
ATOM     61  O   UNL A   1      33.276  33.197  28.006  1.00  0.00    -0.237 OA
ATOM     62  O   UNL A   1      33.566  34.200  30.248  1.00  0.00    -0.237 OA
ATOM     63  O   UNL A   1      34.967  34.956  28.367  1.00  0.00    -0.744 OA
ENDBRANCH  59  60
ENDBRANCH  27  52
BRANCH  39  64
ATOM     64  C   UNL A   1      42.209  29.126  33.952  1.00  0.00     0.058 A 
ATOM     65  C   UNL A   1      41.745  27.836  33.647  1.00  0.00     0.135 A 
ATOM     66  C   UNL A   1      42.505  29.402  35.297  1.00  0.00     0.135 A 
ATOM     67  F   UNL A   1      41.534  27.462  32.376  1.00  0.00    -0.206 F 
ATOM     68  C   UNL A   1      41.564  26.869  34.637  1.00  0.00     0.059 A 
ATOM     69  C   UNL A   1      42.361  28.444  36.297  1.00  0.00     0.059 A 
ATOM     70  F   UNL A   1      43.008  30.599  35.643  1.00  0.00    -0.206 F 
ATOM     71  C   UNL A   1      41.885  27.179  35.960  1.00  0.00     0.060 A 
BRANCH  71  72
ATOM     72  S   UNL A   1      41.788  25.881  37.213  1.00  0.00     0.124 S 
ATOM     73  O   UNL A   1      42.127  24.688  36.446  1.00  0.00    -0.237 OA
ATOM     74  O   UNL A   1      42.781  26.309  38.194  1.00  0.00    -0.237 OA
ATOM     75  O   UNL A   1      40.403  25.956  37.673  1.00  0.00    -0.744 OA
ENDBRANCH  71  72
ENDBRANCH  39  64
ENDBRANCH  13  14
ENDBRANCH   6   8
ENDBRANCH   3   4
ENDBRANCH   2   3
ENDBRANCH   1   2
BRANCH   1  76
ATOM     76  C   UNL A   1      37.605  20.713  25.323  1.00  0.00     0.116 C 
BRANCH  76  77
ATOM     77  N   UNL A   1      37.771  22.106  25.735  1.00  0.00    -0.352 N 
ATOM     78  C   UNL A   1      36.865  23.151  25.679  1.00  0.00     0.251 C 
ATOM     79  H   UNL A   1      38.656  22.333  26.104  1.00  0.00     0.163 HD
ATOM     80  O   UNL A   1      37.177  24.279  26.047  1.00  0.00    -0.269 OA
BRANCH  78  81
ATOM     81  C   UNL A   1      35.504  22.910  25.139  1.00  0.00     0.041 A 
ATOM     82  C   UNL A   1      34.866  21.706  25.437  1.00  0.00     0.018 A 
ATOM     83  C   UNL A   1      34.941  23.826  24.220  1.00  0.00     0.036 A 
ATOM     84  C   UNL A   1      33.819  21.325  24.627  1.00  0.00    -0.043 A 
ATOM     85  C   UNL A   1      33.829  23.454  23.440  1.00  0.00     0.092 A 
ATOM     86  C   UNL A   1      33.360  22.150  23.584  1.00  0.00    -0.024 A 
ATOM     87  C   UNL A   1      33.181  19.969  24.585  1.00  0.00     0.036 C 
ATOM     88  C   UNL A   1      32.527  21.309  22.665  1.00  0.00     0.037 C 
ATOM     89  C   UNL A   1      32.024  20.228  23.621  1.00  0.00     0.010 C 
BRANCH  85  90
ATOM     90  S   UNL A   1      33.273  24.517  22.121  1.00  0.00     0.262 S 
ATOM     91  O   UNL A   1      34.027  25.747  22.201  1.00  0.00    -0.201 OA
ATOM     92  O   UNL A   1      33.266  23.749  20.891  1.00  0.00    -0.201 OA
BRANCH  90  93
ATOM     93  N   UNL A   1      31.658  25.008  22.406  1.00  0.00    -0.277 N 
ATOM     94  H   UNL A   1      31.057  25.174  21.644  1.00  0.00     0.180 HD
BRANCH  93  95
ATOM     95  C   UNL A   1      31.168  25.180  23.744  1.00  0.00     0.075 A 
ATOM     96  C   UNL A   1      30.880  24.043  24.516  1.00  0.00     0.042 A 
ATOM     97  C   UNL A   1      31.117  26.451  24.341  1.00  0.00     0.089 A 
ATOM     98  C   UNL A   1      30.607  24.157  25.897  1.00  0.00     0.058 A 
ATOM     99  C   UNL A   1      30.819  26.570  25.708  1.00  0.00     0.031 A 
ATOM    100  C   UNL A   1      30.562  25.432  26.477  1.00  0.00     0.015 A 
BRANCH  97 101
ATOM    101  N   UNL A   1      31.415  27.628  23.608  1.00  0.00    -0.239 N 
ATOM    102  C   UNL A   1      30.664  28.233  22.625  1.00  0.00     0.115 A 
ATOM    103  N   UNL A   1      32.592  28.280  23.793  1.00  0.00    -0.177 NA
ATOM    104  C   UNL A   1      31.477  29.148  22.006  1.00  0.00     0.042 A 
ATOM    105  C   UNL A   1      32.666  29.110  22.748  1.00  0.00     0.135 A 
ENDBRANCH  97 101
BRANCH  98 106
ATOM    106  C   UNL A   1      30.442  22.918  26.750  1.00  0.00     0.416 C 
ATOM    107  F   UNL A   1      30.397  21.778  26.010  1.00  0.00    -0.166 F 
ATOM    108  F   UNL A   1      31.461  22.755  27.637  1.00  0.00    -0.166 F 
ATOM    109  F   UNL A   1      29.301  22.926  27.496  1.00  0.00    -0.166 F 
ENDBRANCH  98 106
ENDBRANCH  93  95
ENDBRANCH  90  93
ENDBRANCH  85  90
ENDBRANCH  78  81
ENDBRANCH  76  77
ENDBRANCH   1  76
TORSDOF 19
ENDMDL
MODEL 3
REMARK VINA RESULT:     -13.0      3.326      7.954
REMARK SMILES O=C(NCCCCNC(=O)c1cc2c(c(S(=O)(=O)Nc3cc(C(F)(F)F)ccc3-n3cccn3)c1)CCC2)c1ccc(-c2c3nc(c(-c4c(F)cc(S(=O)(=O)[O-])cc4F)c4ccc([nH]4)c(-c4c(F)cc(S(=O)(=O)[O-])cc4F)c4nc(c(-c5c(F)cc(S(=O)(=O)[O-])cc5F)c5ccc2[nH]5)C=C4)C=C3)cc1
REMARK SMILES IDX 6 1 5 2 4 3 3 4 1 5 2 6 39 8 40 9 104 10 41 11 103 12 42 13
REMARK SMILES IDX 43 14 44 15 97 16 45 17 102 18 96 19 98 20 46 21 101 22
REMARK SMILES IDX 95 23 94 24 47 26 81 27 60 28 80 29 61 30 64 31 79 32 99 33
REMARK SMILES IDX 62 34 63 35 78 37 100 38 65 39 48 40 49 41 58 42 50 43 51 44
REMARK SMILES IDX 57 45 59 46 52 47 53 48 54 49 55 50 56 51 82 52 83 53 92 54
REMARK SMILES IDX 84 55 85 56 91 57 93 58 86 59 87 60 88 61 89 62 90 63 66 64
REMARK SMILES IDX 67 65 76 66 68 67 69 68 75 69 77 70 70 71 71 72 72 73 73 74
REMARK SMILES IDX 74 75 7 76 8 77 9 78 10 80 11 81 12 82 35 83 13 84 15 85
REMARK SMILES IDX 14 86 38 87 36 88 37 89 16 90 17 91 18 92 19 93 20 95 21 96
REMARK SMILES IDX 29 97 22 98 28 99 27 100 30 101 31 102 34 103 32 104 33 105
REMARK SMILES IDX 23 106 24 107 25 108 26 109
REMARK H PARENT 3 7 98 25 64 36 8 79 19 94
REMARK Flexibility Score: inf
ROOT
ATOM      1  C   UNL A   1      35.255  30.536  27.760  1.00  0.00     0.023 C 
ENDROOT
BRANCH   1   2
ATOM      2  C   UNL A   1      34.185  31.585  28.075  1.00  0.00     0.023 C 
BRANCH   2   3
ATOM      3  C   UNL A   1      34.619  32.740  28.980  1.00  0.00     0.116 C 
BRANCH   3   4
ATOM      4  N   UNL A   1      34.360  32.538  30.393  1.00  0.00    -0.352 N 
ATOM      5  O   UNL A   1      34.536  32.270  32.571  1.00  0.00    -0.269 OA
ATOM      6  C   UNL A   1      35.114  32.187  31.482  1.00  0.00     0.251 C 
ATOM      7  H   UNL A   1      33.414  32.687  30.626  1.00  0.00     0.163 HD
BRANCH   6   8
ATOM      8  C   UNL A   1      36.527  31.705  31.456  1.00  0.00     0.039 A 
ATOM      9  C   UNL A   1      37.631  32.386  31.966  1.00  0.00     0.014 A 
ATOM     10  C   UNL A   1      36.751  30.459  30.834  1.00  0.00     0.014 A 
ATOM     11  C   UNL A   1      38.919  31.863  31.825  1.00  0.00     0.010 A 
ATOM     12  C   UNL A   1      38.036  29.926  30.703  1.00  0.00     0.010 A 
ATOM     13  C   UNL A   1      39.131  30.639  31.182  1.00  0.00    -0.014 A 
BRANCH  13  14
ATOM     14  C   UNL A   1      40.504  30.128  31.120  1.00  0.00     0.031 A 
ATOM     15  C   UNL A   1      41.455  30.864  30.232  1.00  0.00     0.074 A 
ATOM     16  C   UNL A   1      41.001  29.146  31.899  1.00  0.00     0.049 A 
ATOM     17  N   UNL A   1      42.113  30.427  29.204  1.00  0.00    -0.248 NA
ATOM     18  C   UNL A   1      41.680  32.288  30.522  1.00  0.00     0.031 C 
ATOM     19  C   UNL A   1      40.388  28.521  33.073  1.00  0.00     0.029 A 
ATOM     20  N   UNL A   1      42.237  28.564  31.843  1.00  0.00    -0.354 N 
ATOM     21  C   UNL A   1      42.963  31.464  28.815  1.00  0.00     0.074 A 
ATOM     22  C   UNL A   1      42.588  32.612  29.600  1.00  0.00     0.031 C 
ATOM     23  C   UNL A   1      41.326  27.803  33.730  1.00  0.00     0.029 A 
ATOM     24  C   UNL A   1      42.556  27.802  32.955  1.00  0.00     0.049 A 
ATOM     25  H   UNL A   1      42.848  28.677  31.079  1.00  0.00     0.167 HD
ATOM     26  C   UNL A   1      44.025  31.281  27.979  1.00  0.00     0.037 A 
ATOM     27  C   UNL A   1      43.761  27.257  33.248  1.00  0.00     0.037 A 
ATOM     28  C   UNL A   1      43.947  30.040  27.260  1.00  0.00     0.049 A 
ATOM     29  C   UNL A   1      44.546  27.162  31.992  1.00  0.00     0.074 A 
ATOM     30  C   UNL A   1      43.055  29.481  26.366  1.00  0.00     0.029 A 
ATOM     31  N   UNL A   1      44.782  29.017  27.634  1.00  0.00    -0.354 N 
ATOM     32  N   UNL A   1      44.268  26.365  30.997  1.00  0.00    -0.248 NA
ATOM     33  C   UNL A   1      45.507  28.213  31.696  1.00  0.00     0.031 C 
ATOM     34  C   UNL A   1      43.104  28.079  26.613  1.00  0.00     0.029 A 
ATOM     35  C   UNL A   1      44.027  27.873  27.639  1.00  0.00     0.049 A 
ATOM     36  H   UNL A   1      45.739  29.092  27.856  1.00  0.00     0.167 HD
ATOM     37  C   UNL A   1      44.707  27.035  29.868  1.00  0.00     0.074 A 
ATOM     38  C   UNL A   1      45.570  28.098  30.369  1.00  0.00     0.031 C 
ATOM     39  C   UNL A   1      44.121  26.841  28.651  1.00  0.00     0.037 A 
BRANCH  26  40
ATOM     40  C   UNL A   1      45.287  32.110  27.998  1.00  0.00     0.058 A 
ATOM     41  C   UNL A   1      45.720  32.766  26.826  1.00  0.00     0.135 A 
ATOM     42  C   UNL A   1      46.225  32.057  29.050  1.00  0.00     0.135 A 
ATOM     43  F   UNL A   1      44.915  32.857  25.756  1.00  0.00    -0.206 F 
ATOM     44  C   UNL A   1      47.011  33.283  26.691  1.00  0.00     0.059 A 
ATOM     45  C   UNL A   1      47.499  32.611  28.956  1.00  0.00     0.059 A 
ATOM     46  F   UNL A   1      45.976  31.382  30.181  1.00  0.00    -0.206 F 
ATOM     47  C   UNL A   1      47.898  33.182  27.757  1.00  0.00     0.060 A 
BRANCH  47  48
ATOM     48  S   UNL A   1      49.601  33.739  27.547  1.00  0.00     0.124 S 
ATOM     49  O   UNL A   1      49.762  33.632  26.102  1.00  0.00    -0.237 OA
ATOM     50  O   UNL A   1      49.551  35.095  28.084  1.00  0.00    -0.237 OA
ATOM     51  O   UNL A   1      50.366  32.785  28.343  1.00  0.00    -0.744 OA
ENDBRANCH  47  48
ENDBRANCH  26  40
BRANCH  27  52
ATOM     52  C   UNL A   1      44.382  27.072  34.585  1.00  0.00     0.058 A 
ATOM     53  C   UNL A   1      44.916  28.159  35.299  1.00  0.00     0.135 A 
ATOM     54  C   UNL A   1      44.215  25.872  35.307  1.00  0.00     0.135 A 
ATOM     55  F   UNL A   1      45.082  29.346  34.698  1.00  0.00    -0.206 F 
ATOM     56  C   UNL A   1      45.226  28.073  36.660  1.00  0.00     0.059 A 
ATOM     57  C   UNL A   1      44.532  25.760  36.659  1.00  0.00     0.059 A 
ATOM     58  F   UNL A   1      43.650  24.796  34.739  1.00  0.00    -0.206 F 
ATOM     59  C   UNL A   1      45.013  26.873  37.336  1.00  0.00     0.060 A 
BRANCH  59  60
ATOM     60  S   UNL A   1      45.245  26.810  39.128  1.00  0.00     0.124 S 
ATOM     61  O   UNL A   1      46.240  25.752  39.265  1.00  0.00    -0.237 OA
ATOM     62  O   UNL A   1      45.706  28.162  39.427  1.00  0.00    -0.237 OA
ATOM     63  O   UNL A   1      43.913  26.484  39.630  1.00  0.00    -0.744 OA
ENDBRANCH  59  60
ENDBRANCH  27  52
BRANCH  39  64
ATOM     64  C   UNL A   1      43.257  25.627  28.449  1.00  0.00     0.058 A 
ATOM     65  C   UNL A   1      41.861  25.623  28.611  1.00  0.00     0.135 A 
ATOM     66  C   UNL A   1      43.842  24.480  27.889  1.00  0.00     0.135 A 
ATOM     67  F   UNL A   1      41.214  26.715  29.046  1.00  0.00    -0.206 F 
ATOM     68  C   UNL A   1      41.085  24.520  28.252  1.00  0.00     0.059 A 
ATOM     69  C   UNL A   1      43.084  23.381  27.496  1.00  0.00     0.059 A 
ATOM     70  F   UNL A   1      45.165  24.447  27.654  1.00  0.00    -0.206 F 
ATOM     71  C   UNL A   1      41.704  23.406  27.684  1.00  0.00     0.060 A 
BRANCH  71  72
ATOM     72  S   UNL A   1      40.680  22.043  27.087  1.00  0.00     0.124 S 
ATOM     73  O   UNL A   1      41.385  21.637  25.877  1.00  0.00    -0.237 OA
ATOM     74  O   UNL A   1      40.728  21.096  28.198  1.00  0.00    -0.237 OA
ATOM     75  O   UNL A   1      39.376  22.666  26.872  1.00  0.00    -0.744 OA
ENDBRANCH  71  72
ENDBRANCH  39  64
ENDBRANCH  13  14
ENDBRANCH   6   8
ENDBRANCH   3   4
ENDBRANCH   2   3
ENDBRANCH   1   2
BRANCH   1  76
ATOM     76  C   UNL A   1      34.797  29.291  27.005  1.00  0.00     0.116 C 
BRANCH  76  77
ATOM     77  N   UNL A   1      33.517  28.743  27.449  1.00  0.00    -0.352 N 
ATOM     78  C   UNL A   1      32.757  27.728  26.892  1.00  0.00     0.251 C 
ATOM     79  H   UNL A   1      33.140  29.157  28.260  1.00  0.00     0.163 HD
ATOM     80  O   UNL A   1      31.680  27.404  27.381  1.00  0.00    -0.269 OA
BRANCH  78  81
ATOM     81  C   UNL A   1      33.240  27.043  25.668  1.00  0.00     0.041 A 
ATOM     82  C   UNL A   1      32.631  27.336  24.448  1.00  0.00     0.018 A 
ATOM     83  C   UNL A   1      34.196  26.006  25.776  1.00  0.00     0.036 A 
ATOM     84  C   UNL A   1      32.793  26.430  23.423  1.00  0.00    -0.043 A 
ATOM     85  C   UNL A   1      34.406  25.121  24.699  1.00  0.00     0.092 A 
ATOM     86  C   UNL A   1      33.602  25.289  23.574  1.00  0.00    -0.024 A 
ATOM     87  C   UNL A   1      32.017  26.396  22.140  1.00  0.00     0.036 C 
ATOM     88  C   UNL A   1      33.254  24.331  22.476  1.00  0.00     0.037 C 
ATOM     89  C   UNL A   1      32.751  25.284  21.393  1.00  0.00     0.010 C 
BRANCH  85  90
ATOM     90  S   UNL A   1      35.432  23.680  24.921  1.00  0.00     0.262 S 
ATOM     91  O   UNL A   1      35.538  23.015  23.644  1.00  0.00    -0.201 OA
ATOM     92  O   UNL A   1      36.631  24.082  25.633  1.00  0.00    -0.201 OA
BRANCH  90  93
ATOM     93  N   UNL A   1      34.630  22.538  25.913  1.00  0.00    -0.277 N 
ATOM     94  H   UNL A   1      34.635  22.653  26.891  1.00  0.00     0.180 HD
BRANCH  93  95
ATOM     95  C   UNL A   1      33.948  21.415  25.336  1.00  0.00     0.075 A 
ATOM     96  C   UNL A   1      34.691  20.279  24.974  1.00  0.00     0.042 A 
ATOM     97  C   UNL A   1      32.546  21.373  25.268  1.00  0.00     0.089 A 
ATOM     98  C   UNL A   1      34.044  19.078  24.609  1.00  0.00     0.058 A 
ATOM     99  C   UNL A   1      31.899  20.188  24.879  1.00  0.00     0.031 A 
ATOM    100  C   UNL A   1      32.644  19.053  24.549  1.00  0.00     0.015 A 
BRANCH  97 101
ATOM    101  N   UNL A   1      31.750  22.487  25.637  1.00  0.00    -0.239 N 
ATOM    102  C   UNL A   1      30.902  23.229  24.845  1.00  0.00     0.115 A 
ATOM    103  N   UNL A   1      31.809  22.994  26.896  1.00  0.00    -0.177 NA
ATOM    104  C   UNL A   1      30.594  24.368  25.545  1.00  0.00     0.042 A 
ATOM    105  C   UNL A   1      31.209  24.183  26.791  1.00  0.00     0.135 A 
ENDBRANCH  97 101
BRANCH  98 106
ATOM    106  C   UNL A   1      34.847  17.819  24.363  1.00  0.00     0.416 C 
ATOM    107  F   UNL A   1      36.186  18.026  24.475  1.00  0.00    -0.166 F 
ATOM    108  F   UNL A   1      34.542  16.825  25.240  1.00  0.00    -0.166 F 
ATOM    109  F   UNL A   1      34.651  17.290  23.122  1.00  0.00    -0.166 F 
ENDBRANCH  98 106
ENDBRANCH  93  95
ENDBRANCH  90  93
ENDBRANCH  85  90
ENDBRANCH  78  81
ENDBRANCH  76  77
ENDBRANCH   1  76
TORSDOF 19
ENDMDL
