MODEL 1
REMARK VINA RESULT:     -10.8      0.000      0.000
REMARK SMILES CC(C)C[C@@H](CNc1ccc(C(=O)N(C)C)nn1)C(=O)NCCCCNC(=O)c1ccc(-c2c3nc(c(-c4c(F)cc(S(=O)(=O)[O-])cc4F)c4ccc([nH]4)c(-c4c(F)cc(S(=O)(=O)[O-])cc4F)c4nc(c(-c5c(F)cc(S(=O)(=O)[O-])cc5F)c5ccc2[nH]5)C=C4)C=C3)cc1
REMARK SMILES IDX 23 1 22 2 21 3 19 4 20 5 5 7 4 8 2 9 1 10 3 11 6 12 7 13
REMARK SMILES IDX 8 15 9 16 18 17 10 18 17 19 11 20 12 21 13 22 14 23 15 24
REMARK SMILES IDX 16 25 24 26 25 27 26 28 27 29 28 31 29 32 30 33 94 34 31 35
REMARK SMILES IDX 93 36 32 37 33 38 34 39 87 40 35 41 92 42 86 43 88 44 36 45
REMARK SMILES IDX 91 46 85 47 84 48 37 50 71 51 50 52 70 53 51 54 54 55 69 56
REMARK SMILES IDX 89 57 52 58 53 59 68 61 90 62 55 63 38 64 39 65 48 66 40 67
REMARK SMILES IDX 41 68 47 69 49 70 42 71 43 72 44 73 45 74 46 75 72 76 73 77
REMARK SMILES IDX 82 78 74 79 75 80 81 81 83 82 76 83 77 84 78 85 79 86 80 87
REMARK SMILES IDX 56 88 57 89 66 90 58 91 59 92 65 93 67 94 60 95 61 96 62 97
REMARK SMILES IDX 63 98 64 99
REMARK H PARENT 21 6 7 14 26 30 88 49 54 60
REMARK Flexibility Score: inf
ROOT
ATOM      1  C   UNL A   1      33.667  28.875  24.740  1.00  0.00     0.023 C 
ENDROOT
BRANCH   1   2
ATOM      2  C   UNL A   1      33.822  27.924  23.558  1.00  0.00     0.116 C 
BRANCH   2   3
ATOM      3  N   UNL A   1      32.552  27.585  22.946  1.00  0.00    -0.356 N 
ATOM      4  C   UNL A   1      31.816  26.446  22.991  1.00  0.00     0.224 C 
ATOM      5  O   UNL A   1      30.667  26.495  22.537  1.00  0.00    -0.275 OA
ATOM      6  H   UNL A   1      32.155  28.305  22.404  1.00  0.00     0.163 HD
BRANCH   4   7
ATOM      7  C   UNL A   1      32.327  25.131  23.580  1.00  0.00     0.098 C 
BRANCH   7   8
ATOM      8  C   UNL A   1      31.594  24.683  24.856  1.00  0.00     0.018 C 
BRANCH   8   9
ATOM      9  C   UNL A   1      32.434  24.638  26.146  1.00  0.00    -0.017 C 
ATOM     10  C   UNL A   1      32.352  23.291  26.861  1.00  0.00     0.007 C 
ATOM     11  C   UNL A   1      33.897  24.951  25.807  1.00  0.00     0.007 C 
ENDBRANCH   8   9
ENDBRANCH   7   8
BRANCH   7  12
ATOM     12  C   UNL A   1      32.647  24.093  22.491  1.00  0.00     0.128 C 
BRANCH  12  13
ATOM     13  N   UNL A   1      33.717  23.164  22.799  1.00  0.00    -0.368 N 
ATOM     14  H   UNL A   1      34.621  23.392  22.484  1.00  0.00     0.162 HD
BRANCH  13  15
ATOM     15  C   UNL A   1      33.565  21.989  23.498  1.00  0.00     0.148 A 
ATOM     16  C   UNL A   1      34.475  21.517  24.434  1.00  0.00     0.051 A 
ATOM     17  N   UNL A   1      32.466  21.256  23.233  1.00  0.00    -0.132 NA
ATOM     18  C   UNL A   1      34.287  20.272  25.038  1.00  0.00     0.040 A 
ATOM     19  N   UNL A   1      32.267  20.012  23.816  1.00  0.00    -0.143 NA
ATOM     20  C   UNL A   1      33.165  19.538  24.704  1.00  0.00     0.151 A 
BRANCH  20  21
ATOM     21  C   UNL A   1      32.957  18.147  25.195  1.00  0.00     0.273 C 
ATOM     22  O   UNL A   1      32.426  18.002  26.297  1.00  0.00    -0.267 OA
ATOM     23  N   UNL A   1      33.308  17.052  24.391  1.00  0.00    -0.343 N 
ATOM     24  C   UNL A   1      34.167  17.100  23.219  1.00  0.00     0.146 C 
ATOM     25  C   UNL A   1      32.925  15.729  24.861  1.00  0.00     0.146 C 
ENDBRANCH  20  21
ENDBRANCH  13  15
ENDBRANCH  12  13
ENDBRANCH   7  12
ENDBRANCH   4   7
ENDBRANCH   2   3
ENDBRANCH   1   2
BRANCH   1  26
ATOM     26  C   UNL A   1      32.883  28.299  25.917  1.00  0.00     0.023 C 
BRANCH  26  27
ATOM     27  C   UNL A   1      33.495  28.546  27.295  1.00  0.00     0.116 C 
BRANCH  27  28
ATOM     28  N   UNL A   1      33.471  29.945  27.700  1.00  0.00    -0.352 N 
ATOM     29  C   UNL A   1      34.485  30.694  28.253  1.00  0.00     0.251 C 
ATOM     30  H   UNL A   1      32.619  30.417  27.560  1.00  0.00     0.163 HD
ATOM     31  O   UNL A   1      34.278  31.833  28.651  1.00  0.00    -0.269 OA
BRANCH  29  32
ATOM     32  C   UNL A   1      35.816  30.073  28.412  1.00  0.00     0.039 A 
ATOM     33  C   UNL A   1      36.693  30.070  27.326  1.00  0.00     0.014 A 
ATOM     34  C   UNL A   1      36.219  29.573  29.654  1.00  0.00     0.014 A 
ATOM     35  C   UNL A   1      38.010  29.648  27.511  1.00  0.00     0.010 A 
ATOM     36  C   UNL A   1      37.550  29.229  29.854  1.00  0.00     0.010 A 
ATOM     37  C   UNL A   1      38.463  29.273  28.787  1.00  0.00    -0.014 A 
BRANCH  37  38
ATOM     38  C   UNL A   1      39.889  28.940  29.031  1.00  0.00     0.031 A 
ATOM     39  C   UNL A   1      40.825  29.986  29.571  1.00  0.00     0.074 A 
ATOM     40  C   UNL A   1      40.356  27.720  28.697  1.00  0.00     0.049 A 
ATOM     41  N   UNL A   1      42.115  29.913  29.773  1.00  0.00    -0.248 NA
ATOM     42  C   UNL A   1      40.239  31.296  29.896  1.00  0.00     0.031 C 
ATOM     43  C   UNL A   1      39.560  26.640  28.109  1.00  0.00     0.029 A 
ATOM     44  N   UNL A   1      41.617  27.186  28.791  1.00  0.00    -0.354 N 
ATOM     45  C   UNL A   1      42.497  31.168  30.232  1.00  0.00     0.074 A 
ATOM     46  C   UNL A   1      41.312  31.998  30.230  1.00  0.00     0.031 C 
ATOM     47  C   UNL A   1      40.347  25.569  27.913  1.00  0.00     0.029 A 
ATOM     48  C   UNL A   1      41.707  25.894  28.329  1.00  0.00     0.049 A 
ATOM     49  H   UNL A   1      42.386  27.682  29.155  1.00  0.00     0.167 HD
ATOM     50  C   UNL A   1      43.719  31.584  30.642  1.00  0.00     0.037 A 
ATOM     51  C   UNL A   1      42.767  25.066  28.244  1.00  0.00     0.037 A 
ATOM     52  C   UNL A   1      44.888  30.746  30.670  1.00  0.00     0.049 A 
ATOM     53  C   UNL A   1      44.109  25.543  28.728  1.00  0.00     0.074 A 
ATOM     54  C   UNL A   1      46.160  31.058  31.119  1.00  0.00     0.029 A 
ATOM     55  N   UNL A   1      44.929  29.430  30.234  1.00  0.00    -0.354 N 
ATOM     56  N   UNL A   1      44.440  26.715  29.217  1.00  0.00    -0.248 NA
ATOM     57  C   UNL A   1      45.221  24.584  28.659  1.00  0.00     0.031 C 
ATOM     58  C   UNL A   1      46.977  29.938  30.928  1.00  0.00     0.029 A 
ATOM     59  C   UNL A   1      46.206  28.918  30.395  1.00  0.00     0.049 A 
ATOM     60  H   UNL A   1      44.163  28.934  29.865  1.00  0.00     0.167 HD
ATOM     61  C   UNL A   1      45.790  26.628  29.532  1.00  0.00     0.074 A 
ATOM     62  C   UNL A   1      46.213  25.285  29.192  1.00  0.00     0.031 C 
ATOM     63  C   UNL A   1      46.607  27.575  30.058  1.00  0.00     0.037 A 
BRANCH  50  64
ATOM     64  C   UNL A   1      43.843  33.009  31.106  1.00  0.00     0.058 A 
ATOM     65  C   UNL A   1      44.241  34.032  30.230  1.00  0.00     0.135 A 
ATOM     66  C   UNL A   1      43.544  33.359  32.432  1.00  0.00     0.135 A 
ATOM     67  F   UNL A   1      44.554  33.749  28.956  1.00  0.00    -0.206 F 
ATOM     68  C   UNL A   1      44.370  35.349  30.662  1.00  0.00     0.059 A 
ATOM     69  C   UNL A   1      43.641  34.675  32.878  1.00  0.00     0.059 A 
ATOM     70  F   UNL A   1      43.159  32.421  33.310  1.00  0.00    -0.206 F 
ATOM     71  C   UNL A   1      44.070  35.659  31.989  1.00  0.00     0.060 A 
BRANCH  71  72
ATOM     72  S   UNL A   1      44.239  37.373  32.534  1.00  0.00     0.124 S 
ATOM     73  O   UNL A   1      43.807  38.101  31.346  1.00  0.00    -0.237 OA
ATOM     74  O   UNL A   1      43.334  37.430  33.677  1.00  0.00    -0.237 OA
ATOM     75  O   UNL A   1      45.658  37.487  32.858  1.00  0.00    -0.744 OA
ENDBRANCH  71  72
ENDBRANCH  50  64
BRANCH  51  76
ATOM     76  C   UNL A   1      42.595  23.693  27.701  1.00  0.00     0.058 A 
ATOM     77  C   UNL A   1      42.634  23.455  26.319  1.00  0.00     0.135 A 
ATOM     78  C   UNL A   1      42.405  22.592  28.549  1.00  0.00     0.135 A 
ATOM     79  F   UNL A   1      42.807  24.477  25.467  1.00  0.00    -0.206 F 
ATOM     80  C   UNL A   1      42.475  22.176  25.796  1.00  0.00     0.059 A 
ATOM     81  C   UNL A   1      42.266  21.301  28.051  1.00  0.00     0.059 A 
ATOM     82  F   UNL A   1      42.377  22.766  29.881  1.00  0.00    -0.206 F 
ATOM     83  C   UNL A   1      42.292  21.104  26.671  1.00  0.00     0.060 A 
BRANCH  83  84
ATOM     84  S   UNL A   1      42.136  19.440  25.985  1.00  0.00     0.124 S 
ATOM     85  O   UNL A   1      40.702  19.357  25.739  1.00  0.00    -0.237 OA
ATOM     86  O   UNL A   1      42.985  19.514  24.800  1.00  0.00    -0.237 OA
ATOM     87  O   UNL A   1      42.644  18.589  27.057  1.00  0.00    -0.744 OA
ENDBRANCH  83  84
ENDBRANCH  51  76
BRANCH  63  88
ATOM     88  C   UNL A   1      48.033  27.185  30.325  1.00  0.00     0.058 A 
ATOM     89  C   UNL A   1      49.040  27.386  29.370  1.00  0.00     0.135 A 
ATOM     90  C   UNL A   1      48.403  26.657  31.572  1.00  0.00     0.135 A 
ATOM     91  F   UNL A   1      48.737  27.882  28.160  1.00  0.00    -0.206 F 
ATOM     92  C   UNL A   1      50.366  27.056  29.634  1.00  0.00     0.059 A 
ATOM     93  C   UNL A   1      49.726  26.343  31.866  1.00  0.00     0.059 A 
ATOM     94  F   UNL A   1      47.478  26.455  32.522  1.00  0.00    -0.206 F 
ATOM     95  C   UNL A   1      50.699  26.536  30.887  1.00  0.00     0.060 A 
BRANCH  95  96
ATOM     96  S   UNL A   1      52.428  26.150  31.234  1.00  0.00     0.124 S 
ATOM     97  O   UNL A   1      52.809  27.260  32.100  1.00  0.00    -0.237 OA
ATOM     98  O   UNL A   1      52.336  24.845  31.880  1.00  0.00    -0.237 OA
ATOM     99  O   UNL A   1      53.046  26.143  29.911  1.00  0.00    -0.744 OA
ENDBRANCH  95  96
ENDBRANCH  63  88
ENDBRANCH  37  38
ENDBRANCH  29  32
ENDBRANCH  27  28
ENDBRANCH  26  27
ENDBRANCH   1  26
TORSDOF 20
ENDMDL
MODEL 2
REMARK VINA RESULT:     -10.7      1.488      2.478
REMARK SMILES CC(C)C[C@@H](CNc1ccc(C(=O)N(C)C)nn1)C(=O)NCCCCNC(=O)c1ccc(-c2c3nc(c(-c4c(F)cc(S(=O)(=O)[O-])cc4F)c4ccc([nH]4)c(-c4c(F)cc(S(=O)(=O)[O-])cc4F)c4nc(c(-c5c(F)cc(S(=O)(=O)[O-])cc5F)c5ccc2[nH]5)C=C4)C=C3)cc1
REMARK SMILES IDX 23 1 22 2 21 3 19 4 20 5 5 7 4 8 2 9 1 10 3 11 6 12 7 13
REMARK SMILES IDX 8 15 9 16 18 17 10 18 17 19 11 20 12 21 13 22 14 23 15 24
REMARK SMILES IDX 16 25 24 26 25 27 26 28 27 29 28 31 29 32 30 33 94 34 31 35
REMARK SMILES IDX 93 36 32 37 33 38 34 39 87 40 35 41 92 42 86 43 88 44 36 45
REMARK SMILES IDX 91 46 85 47 84 48 37 50 71 51 50 52 70 53 51 54 54 55 69 56
REMARK SMILES IDX 89 57 52 58 53 59 68 61 90 62 55 63 38 64 39 65 48 66 40 67
REMARK SMILES IDX 41 68 47 69 49 70 42 71 43 72 44 73 45 74 46 75 72 76 73 77
REMARK SMILES IDX 82 78 74 79 75 80 81 81 83 82 76 83 77 84 78 85 79 86 80 87
REMARK SMILES IDX 56 88 57 89 66 90 58 91 59 92 65 93 67 94 60 95 61 96 62 97
REMARK SMILES IDX 63 98 64 99
REMARK H PARENT 21 6 7 14 26 30 88 49 54 60
REMARK Flexibility Score: inf
ROOT
ATOM      1  C   UNL A   1      33.852  28.221  24.607  1.00  0.00     0.023 C 
ENDROOT
BRANCH   1   2
ATOM      2  C   UNL A   1      33.650  27.027  23.681  1.00  0.00     0.116 C 
BRANCH   2   3
ATOM      3  N   UNL A   1      32.343  27.022  23.055  1.00  0.00    -0.356 N 
ATOM      4  C   UNL A   1      31.268  26.214  23.241  1.00  0.00     0.224 C 
ATOM      5  O   UNL A   1      30.203  26.558  22.714  1.00  0.00    -0.275 OA
ATOM      6  H   UNL A   1      32.212  27.724  22.378  1.00  0.00     0.163 HD
BRANCH   4   7
ATOM      7  C   UNL A   1      31.307  24.931  24.070  1.00  0.00     0.098 C 
BRANCH   7   8
ATOM      8  C   UNL A   1      30.802  25.095  25.514  1.00  0.00     0.018 C 
BRANCH   8   9
ATOM      9  C   UNL A   1      31.679  24.478  26.618  1.00  0.00    -0.017 C 
ATOM     10  C   UNL A   1      31.368  23.004  26.870  1.00  0.00     0.007 C 
ATOM     11  C   UNL A   1      33.156  24.632  26.235  1.00  0.00     0.007 C 
ENDBRANCH   8   9
ENDBRANCH   7   8
BRANCH   7  12
ATOM     12  C   UNL A   1      30.873  23.701  23.256  1.00  0.00     0.128 C 
BRANCH  12  13
ATOM     13  N   UNL A   1      31.945  22.923  22.665  1.00  0.00    -0.368 N 
ATOM     14  H   UNL A   1      31.771  22.495  21.796  1.00  0.00     0.162 HD
BRANCH  13  15
ATOM     15  C   UNL A   1      33.187  22.739  23.227  1.00  0.00     0.148 A 
ATOM     16  C   UNL A   1      34.326  23.434  22.842  1.00  0.00     0.051 A 
ATOM     17  N   UNL A   1      33.289  21.811  24.199  1.00  0.00    -0.132 NA
ATOM     18  C   UNL A   1      35.566  23.127  23.406  1.00  0.00     0.040 A 
ATOM     19  N   UNL A   1      34.515  21.486  24.763  1.00  0.00    -0.143 NA
ATOM     20  C   UNL A   1      35.627  22.140  24.370  1.00  0.00     0.151 A 
BRANCH  20  21
ATOM     21  C   UNL A   1      36.924  21.655  24.922  1.00  0.00     0.273 C 
ATOM     22  O   UNL A   1      37.244  20.489  24.693  1.00  0.00    -0.267 OA
ATOM     23  N   UNL A   1      37.763  22.530  25.629  1.00  0.00    -0.343 N 
ATOM     24  C   UNL A   1      37.377  23.819  26.179  1.00  0.00     0.146 C 
ATOM     25  C   UNL A   1      39.084  22.038  25.994  1.00  0.00     0.146 C 
ENDBRANCH  20  21
ENDBRANCH  13  15
ENDBRANCH  12  13
ENDBRANCH   7  12
ENDBRANCH   4   7
ENDBRANCH   2   3
ENDBRANCH   1   2
BRANCH   1  26
ATOM     26  C   UNL A   1      32.980  28.204  25.862  1.00  0.00     0.023 C 
BRANCH  26  27
ATOM     27  C   UNL A   1      33.718  28.462  27.174  1.00  0.00     0.116 C 
BRANCH  27  28
ATOM     28  N   UNL A   1      33.660  29.851  27.611  1.00  0.00    -0.352 N 
ATOM     29  C   UNL A   1      34.645  30.601  28.213  1.00  0.00     0.251 C 
ATOM     30  H   UNL A   1      32.805  30.314  27.456  1.00  0.00     0.163 HD
ATOM     31  O   UNL A   1      34.409  31.727  28.630  1.00  0.00    -0.269 OA
BRANCH  29  32
ATOM     32  C   UNL A   1      35.980  29.995  28.399  1.00  0.00     0.039 A 
ATOM     33  C   UNL A   1      36.910  30.083  27.362  1.00  0.00     0.014 A 
ATOM     34  C   UNL A   1      36.330  29.420  29.624  1.00  0.00     0.014 A 
ATOM     35  C   UNL A   1      38.225  29.674  27.586  1.00  0.00     0.010 A 
ATOM     36  C   UNL A   1      37.657  29.088  29.869  1.00  0.00     0.010 A 
ATOM     37  C   UNL A   1      38.621  29.222  28.857  1.00  0.00    -0.014 A 
BRANCH  37  38
ATOM     38  C   UNL A   1      40.041  28.900  29.151  1.00  0.00     0.031 A 
ATOM     39  C   UNL A   1      40.932  29.933  29.784  1.00  0.00     0.074 A 
ATOM     40  C   UNL A   1      40.544  27.705  28.782  1.00  0.00     0.049 A 
ATOM     41  N   UNL A   1      42.212  29.870  30.043  1.00  0.00    -0.248 NA
ATOM     42  C   UNL A   1      40.307  31.216  30.144  1.00  0.00     0.031 C 
ATOM     43  C   UNL A   1      39.796  26.642  28.105  1.00  0.00     0.029 A 
ATOM     44  N   UNL A   1      41.809  27.187  28.909  1.00  0.00    -0.354 N 
ATOM     45  C   UNL A   1      42.549  31.107  30.579  1.00  0.00     0.074 A 
ATOM     46  C   UNL A   1      41.351  31.917  30.561  1.00  0.00     0.031 C 
ATOM     47  C   UNL A   1      40.610  25.594  27.895  1.00  0.00     0.029 A 
ATOM     48  C   UNL A   1      41.944  25.920  28.391  1.00  0.00     0.049 A 
ATOM     49  H   UNL A   1      42.551  27.677  29.333  1.00  0.00     0.167 HD
ATOM     50  C   UNL A   1      43.743  31.522  31.066  1.00  0.00     0.037 A 
ATOM     51  C   UNL A   1      43.021  25.114  28.316  1.00  0.00     0.037 A 
ATOM     52  C   UNL A   1      44.924  30.702  31.109  1.00  0.00     0.049 A 
ATOM     53  C   UNL A   1      44.330  25.588  28.886  1.00  0.00     0.074 A 
ATOM     54  C   UNL A   1      46.169  31.011  31.633  1.00  0.00     0.029 A 
ATOM     55  N   UNL A   1      45.010  29.410  30.613  1.00  0.00    -0.354 N 
ATOM     56  N   UNL A   1      44.617  26.740  29.445  1.00  0.00    -0.248 NA
ATOM     57  C   UNL A   1      45.461  24.651  28.823  1.00  0.00     0.031 C 
ATOM     58  C   UNL A   1      47.013  29.915  31.427  1.00  0.00     0.029 A 
ATOM     59  C   UNL A   1      46.287  28.910  30.809  1.00  0.00     0.049 A 
ATOM     60  H   UNL A   1      44.271  28.919  30.185  1.00  0.00     0.167 HD
ATOM     61  C   UNL A   1      45.952  26.658  29.820  1.00  0.00     0.074 A 
ATOM     62  C   UNL A   1      46.415  25.341  29.436  1.00  0.00     0.031 C 
ATOM     63  C   UNL A   1      46.727  27.592  30.428  1.00  0.00     0.037 A 
BRANCH  50  64
ATOM     64  C   UNL A   1      43.820  32.924  31.603  1.00  0.00     0.058 A 
ATOM     65  C   UNL A   1      43.646  33.195  32.970  1.00  0.00     0.135 A 
ATOM     66  C   UNL A   1      44.089  34.005  30.750  1.00  0.00     0.135 A 
ATOM     67  F   UNL A   1      43.371  32.199  33.828  1.00  0.00    -0.206 F 
ATOM     68  C   UNL A   1      43.703  34.493  33.467  1.00  0.00     0.059 A 
ATOM     69  C   UNL A   1      44.177  35.310  31.230  1.00  0.00     0.059 A 
ATOM     70  F   UNL A   1      44.264  33.802  29.435  1.00  0.00    -0.206 F 
ATOM     71  C   UNL A   1      43.967  35.544  32.588  1.00  0.00     0.060 A 
BRANCH  71  72
ATOM     72  S   UNL A   1      44.041  37.224  33.247  1.00  0.00     0.124 S 
ATOM     73  O   UNL A   1      42.740  37.340  33.897  1.00  0.00    -0.237 OA
ATOM     74  O   UNL A   1      45.192  37.160  34.142  1.00  0.00    -0.237 OA
ATOM     75  O   UNL A   1      44.223  38.048  32.057  1.00  0.00    -0.744 OA
ENDBRANCH  71  72
ENDBRANCH  50  64
BRANCH  51  76
ATOM     76  C   UNL A   1      42.899  23.766  27.701  1.00  0.00     0.058 A 
ATOM     77  C   UNL A   1      42.510  22.658  28.466  1.00  0.00     0.135 A 
ATOM     78  C   UNL A   1      43.155  23.563  26.336  1.00  0.00     0.135 A 
ATOM     79  F   UNL A   1      42.261  22.802  29.776  1.00  0.00    -0.206 F 
ATOM     80  C   UNL A   1      42.392  21.390  27.905  1.00  0.00     0.059 A 
ATOM     81  C   UNL A   1      43.022  22.309  25.747  1.00  0.00     0.059 A 
ATOM     82  F   UNL A   1      43.514  24.596  25.557  1.00  0.00    -0.206 F 
ATOM     83  C   UNL A   1      42.650  21.226  26.543  1.00  0.00     0.060 A 
BRANCH  83  84
ATOM     84  S   UNL A   1      42.445  19.587  25.812  1.00  0.00     0.124 S 
ATOM     85  O   UNL A   1      43.358  19.656  24.677  1.00  0.00    -0.237 OA
ATOM     86  O   UNL A   1      42.850  18.708  26.905  1.00  0.00    -0.237 OA
ATOM     87  O   UNL A   1      41.025  19.545  25.479  1.00  0.00    -0.744 OA
ENDBRANCH  83  84
ENDBRANCH  51  76
BRANCH  63  88
ATOM     88  C   UNL A   1      48.146  27.212  30.743  1.00  0.00     0.058 A 
ATOM     89  C   UNL A   1      48.485  26.572  31.944  1.00  0.00     0.135 A 
ATOM     90  C   UNL A   1      49.167  27.443  29.808  1.00  0.00     0.135 A 
ATOM     91  F   UNL A   1      47.547  26.334  32.873  1.00  0.00    -0.206 F 
ATOM     92  C   UNL A   1      49.796  26.190  32.216  1.00  0.00     0.059 A 
ATOM     93  C   UNL A   1      50.479  27.048  30.049  1.00  0.00     0.059 A 
ATOM     94  F   UNL A   1      48.892  28.044  28.640  1.00  0.00    -0.206 F 
ATOM     95  C   UNL A   1      50.785  26.432  31.261  1.00  0.00     0.060 A 
BRANCH  95  96
ATOM     96  S   UNL A   1      52.474  25.897  31.608  1.00  0.00     0.124 S 
ATOM     97  O   UNL A   1      53.112  26.078  30.309  1.00  0.00    -0.237 OA
ATOM     98  O   UNL A   1      52.891  26.825  32.654  1.00  0.00    -0.237 OA
ATOM     99  O   UNL A   1      52.309  24.512  32.040  1.00  0.00    -0.744 OA
ENDBRANCH  95  96
ENDBRANCH  63  88
ENDBRANCH  37  38
ENDBRANCH  29  32
ENDBRANCH  27  28
ENDBRANCH  26  27
ENDBRANCH   1  26
TORSDOF 20
ENDMDL
MODEL 3
REMARK VINA RESULT:     -10.5      2.868      9.516
REMARK SMILES CC(C)C[C@@H](CNc1ccc(C(=O)N(C)C)nn1)C(=O)NCCCCNC(=O)c1ccc(-c2c3nc(c(-c4c(F)cc(S(=O)(=O)[O-])cc4F)c4ccc([nH]4)c(-c4c(F)cc(S(=O)(=O)[O-])cc4F)c4nc(c(-c5c(F)cc(S(=O)(=O)[O-])cc5F)c5ccc2[nH]5)C=C4)C=C3)cc1
REMARK SMILES IDX 23 1 22 2 21 3 19 4 20 5 5 7 4 8 2 9 1 10 3 11 6 12 7 13
REMARK SMILES IDX 8 15 9 16 18 17 10 18 17 19 11 20 12 21 13 22 14 23 15 24
REMARK SMILES IDX 16 25 24 26 25 27 26 28 27 29 28 31 29 32 30 33 94 34 31 35
REMARK SMILES IDX 93 36 32 37 33 38 34 39 87 40 35 41 92 42 86 43 88 44 36 45
REMARK SMILES IDX 91 46 85 47 84 48 37 50 71 51 50 52 70 53 51 54 54 55 69 56
REMARK SMILES IDX 89 57 52 58 53 59 68 61 90 62 55 63 38 64 39 65 48 66 40 67
REMARK SMILES IDX 41 68 47 69 49 70 42 71 43 72 44 73 45 74 46 75 72 76 73 77
REMARK SMILES IDX 82 78 74 79 75 80 81 81 83 82 76 83 77 84 78 85 79 86 80 87
REMARK SMILES IDX 56 88 57 89 66 90 58 91 59 92 65 93 67 94 60 95 61 96 62 97
REMARK SMILES IDX 63 98 64 99
REMARK H PARENT 21 6 7 14 26 30 88 49 54 60
REMARK Flexibility Score: inf
ROOT
ATOM      1  C   UNL A   1      35.131  22.837  26.624  1.00  0.00     0.023 C 
ENDROOT
BRANCH   1   2
ATOM      2  C   UNL A   1      34.293  21.572  26.772  1.00  0.00     0.116 C 
BRANCH   2   3
ATOM      3  N   UNL A   1      32.883  21.805  26.532  1.00  0.00    -0.356 N 
ATOM      4  C   UNL A   1      32.109  21.550  25.447  1.00  0.00     0.224 C 
ATOM      5  O   UNL A   1      30.885  21.668  25.584  1.00  0.00    -0.275 OA
ATOM      6  H   UNL A   1      32.404  22.221  27.286  1.00  0.00     0.163 HD
BRANCH   4   7
ATOM      7  C   UNL A   1      32.667  21.118  24.092  1.00  0.00     0.098 C 
BRANCH   7   8
ATOM      8  C   UNL A   1      32.260  19.697  23.665  1.00  0.00     0.018 C 
BRANCH   8   9
ATOM      9  C   UNL A   1      33.195  18.557  24.108  1.00  0.00    -0.017 C 
ATOM     10  C   UNL A   1      32.871  18.032  25.506  1.00  0.00     0.007 C 
ATOM     11  C   UNL A   1      33.106  17.408  23.096  1.00  0.00     0.007 C 
ENDBRANCH   8   9
ENDBRANCH   7   8
BRANCH   7  12
ATOM     12  C   UNL A   1      32.628  22.255  23.058  1.00  0.00     0.128 C 
BRANCH  12  13
ATOM     13  N   UNL A   1      31.388  23.005  22.990  1.00  0.00    -0.368 N 
ATOM     14  H   UNL A   1      30.561  22.500  22.812  1.00  0.00     0.162 HD
BRANCH  13  15
ATOM     15  C   UNL A   1      31.279  24.366  23.156  1.00  0.00     0.148 A 
ATOM     16  C   UNL A   1      31.880  25.301  22.325  1.00  0.00     0.051 A 
ATOM     17  N   UNL A   1      30.554  24.800  24.206  1.00  0.00    -0.132 NA
ATOM     18  C   UNL A   1      31.789  26.665  22.613  1.00  0.00     0.040 A 
ATOM     19  N   UNL A   1      30.461  26.150  24.513  1.00  0.00    -0.143 NA
ATOM     20  C   UNL A   1      31.068  27.059  23.723  1.00  0.00     0.151 A 
BRANCH  20  21
ATOM     21  C   UNL A   1      31.034  28.478  24.179  1.00  0.00     0.273 C 
ATOM     22  O   UNL A   1      30.157  29.207  23.715  1.00  0.00    -0.267 OA
ATOM     23  N   UNL A   1      31.943  28.932  25.146  1.00  0.00    -0.343 N 
ATOM     24  C   UNL A   1      33.162  28.251  25.553  1.00  0.00     0.146 C 
ATOM     25  C   UNL A   1      31.747  30.278  25.666  1.00  0.00     0.146 C 
ENDBRANCH  20  21
ENDBRANCH  13  15
ENDBRANCH  12  13
ENDBRANCH   7  12
ENDBRANCH   4   7
ENDBRANCH   2   3
ENDBRANCH   1   2
BRANCH   1  26
ATOM     26  C   UNL A   1      35.583  23.133  25.195  1.00  0.00     0.023 C 
BRANCH  26  27
ATOM     27  C   UNL A   1      36.989  23.716  25.062  1.00  0.00     0.116 C 
BRANCH  27  28
ATOM     28  N   UNL A   1      38.046  22.765  25.376  1.00  0.00    -0.352 N 
ATOM     29  C   UNL A   1      39.186  22.967  26.122  1.00  0.00     0.251 C 
ATOM     30  H   UNL A   1      37.931  21.859  25.008  1.00  0.00     0.163 HD
ATOM     31  O   UNL A   1      40.044  22.098  26.203  1.00  0.00    -0.269 OA
BRANCH  29  32
ATOM     32  C   UNL A   1      39.380  24.278  26.774  1.00  0.00     0.039 A 
ATOM     33  C   UNL A   1      38.863  24.476  28.056  1.00  0.00     0.014 A 
ATOM     34  C   UNL A   1      40.140  25.272  26.151  1.00  0.00     0.014 A 
ATOM     35  C   UNL A   1      39.189  25.641  28.753  1.00  0.00     0.010 A 
ATOM     36  C   UNL A   1      40.526  26.393  26.876  1.00  0.00     0.010 A 
ATOM     37  C   UNL A   1      40.064  26.584  28.188  1.00  0.00    -0.014 A 
BRANCH  37  38
ATOM     38  C   UNL A   1      40.522  27.768  28.960  1.00  0.00     0.031 A 
ATOM     39  C   UNL A   1      41.871  27.760  29.623  1.00  0.00     0.074 A 
ATOM     40  C   UNL A   1      39.692  28.818  29.124  1.00  0.00     0.049 A 
ATOM     41  N   UNL A   1      42.412  28.659  30.403  1.00  0.00    -0.248 NA
ATOM     42  C   UNL A   1      42.709  26.569  29.406  1.00  0.00     0.031 C 
ATOM     43  C   UNL A   1      38.335  28.919  28.581  1.00  0.00     0.029 A 
ATOM     44  N   UNL A   1      39.862  29.997  29.807  1.00  0.00    -0.354 N 
ATOM     45  C   UNL A   1      43.644  28.138  30.782  1.00  0.00     0.074 A 
ATOM     46  C   UNL A   1      43.747  26.823  30.189  1.00  0.00     0.031 C 
ATOM     47  C   UNL A   1      37.805  30.101  28.936  1.00  0.00     0.029 A 
ATOM     48  C   UNL A   1      38.768  30.828  29.757  1.00  0.00     0.049 A 
ATOM     49  H   UNL A   1      40.691  30.225  30.287  1.00  0.00     0.167 HD
ATOM     50  C   UNL A   1      44.611  28.713  31.535  1.00  0.00     0.037 A 
ATOM     51  C   UNL A   1      38.561  32.037  30.314  1.00  0.00     0.037 A 
ATOM     52  C   UNL A   1      44.515  30.034  32.098  1.00  0.00     0.049 A 
ATOM     53  C   UNL A   1      39.659  32.666  31.127  1.00  0.00     0.074 A 
ATOM     54  C   UNL A   1      45.462  30.728  32.831  1.00  0.00     0.029 A 
ATOM     55  N   UNL A   1      43.408  30.862  31.990  1.00  0.00    -0.354 N 
ATOM     56  N   UNL A   1      40.843  32.184  31.426  1.00  0.00    -0.248 NA
ATOM     57  C   UNL A   1      39.400  34.007  31.672  1.00  0.00     0.031 C 
ATOM     58  C   UNL A   1      44.916  31.965  33.190  1.00  0.00     0.029 A 
ATOM     59  C   UNL A   1      43.644  32.057  32.649  1.00  0.00     0.049 A 
ATOM     60  H   UNL A   1      42.577  30.634  31.514  1.00  0.00     0.167 HD
ATOM     61  C   UNL A   1      41.476  33.169  32.174  1.00  0.00     0.074 A 
ATOM     62  C   UNL A   1      40.552  34.280  32.272  1.00  0.00     0.031 C 
ATOM     63  C   UNL A   1      42.713  33.156  32.730  1.00  0.00     0.037 A 
BRANCH  50  64
ATOM     64  C   UNL A   1      45.862  27.916  31.779  1.00  0.00     0.058 A 
ATOM     65  C   UNL A   1      45.925  26.943  32.790  1.00  0.00     0.135 A 
ATOM     66  C   UNL A   1      47.003  28.112  30.985  1.00  0.00     0.135 A 
ATOM     67  F   UNL A   1      44.867  26.727  33.589  1.00  0.00    -0.206 F 
ATOM     68  C   UNL A   1      47.086  26.214  33.026  1.00  0.00     0.059 A 
ATOM     69  C   UNL A   1      48.167  27.374  31.187  1.00  0.00     0.059 A 
ATOM     70  F   UNL A   1      46.996  29.028  30.006  1.00  0.00    -0.206 F 
ATOM     71  C   UNL A   1      48.203  26.439  32.220  1.00  0.00     0.060 A 
BRANCH  71  72
ATOM     72  S   UNL A   1      49.702  25.484  32.537  1.00  0.00     0.124 S 
ATOM     73  O   UNL A   1      50.644  26.534  32.911  1.00  0.00    -0.237 OA
ATOM     74  O   UNL A   1      49.286  24.593  33.615  1.00  0.00    -0.237 OA
ATOM     75  O   UNL A   1      49.965  24.832  31.257  1.00  0.00    -0.744 OA
ENDBRANCH  71  72
ENDBRANCH  50  64
BRANCH  51  76
ATOM     76  C   UNL A   1      37.269  32.742  30.101  1.00  0.00     0.058 A 
ATOM     77  C   UNL A   1      37.130  33.698  29.085  1.00  0.00     0.135 A 
ATOM     78  C   UNL A   1      36.148  32.465  30.897  1.00  0.00     0.135 A 
ATOM     79  F   UNL A   1      38.176  34.001  28.302  1.00  0.00    -0.206 F 
ATOM     80  C   UNL A   1      35.928  34.366  28.873  1.00  0.00     0.059 A 
ATOM     81  C   UNL A   1      34.929  33.105  30.691  1.00  0.00     0.059 A 
ATOM     82  F   UNL A   1      36.225  31.546  31.873  1.00  0.00    -0.206 F 
ATOM     83  C   UNL A   1      34.832  34.062  29.682  1.00  0.00     0.060 A 
BRANCH  83  84
ATOM     84  S   UNL A   1      33.262  34.898  29.367  1.00  0.00     0.124 S 
ATOM     85  O   UNL A   1      32.729  35.038  30.717  1.00  0.00    -0.237 OA
ATOM     86  O   UNL A   1      33.694  36.133  28.720  1.00  0.00    -0.237 OA
ATOM     87  O   UNL A   1      32.553  33.961  28.501  1.00  0.00    -0.744 OA
ENDBRANCH  83  84
ENDBRANCH  51  76
BRANCH  63  88
ATOM     88  C   UNL A   1      43.152  34.388  33.469  1.00  0.00     0.058 A 
ATOM     89  C   UNL A   1      42.980  34.513  34.855  1.00  0.00     0.135 A 
ATOM     90  C   UNL A   1      43.801  35.430  32.788  1.00  0.00     0.135 A 
ATOM     91  F   UNL A   1      42.359  33.547  35.550  1.00  0.00    -0.206 F 
ATOM     92  C   UNL A   1      43.420  35.641  35.541  1.00  0.00     0.059 A 
ATOM     93  C   UNL A   1      44.270  36.556  33.458  1.00  0.00     0.059 A 
ATOM     94  F   UNL A   1      43.998  35.354  31.463  1.00  0.00    -0.206 F 
ATOM     95  C   UNL A   1      44.065  36.657  34.833  1.00  0.00     0.060 A 
BRANCH  95  96
ATOM     96  S   UNL A   1      44.667  38.098  35.738  1.00  0.00     0.124 S 
ATOM     97  O   UNL A   1      44.030  39.190  35.011  1.00  0.00    -0.237 OA
ATOM     98  O   UNL A   1      44.164  37.856  37.087  1.00  0.00    -0.237 OA
ATOM     99  O   UNL A   1      46.117  38.008  35.594  1.00  0.00    -0.744 OA
ENDBRANCH  95  96
ENDBRANCH  63  88
ENDBRANCH  37  38
ENDBRANCH  29  32
ENDBRANCH  27  28
ENDBRANCH  26  27
ENDBRANCH   1  26
TORSDOF 20
ENDMDL
