MODEL 1
REMARK VINA RESULT:     -11.7      0.000      0.000
REMARK SMILES CC(=O)N[C@@H](C(=O)NCCCCNC(=O)c1ccc(-c2c3nc(c(-c4c(F)cc(S(=O)(=O)[O-])cc4F)c4ccc([nH]4)c(-c4c(F)cc(S(=O)(=O)[O-])cc4F)c4nc(c(-c5c(F)cc(S(=O)(=O)[O-])cc5F)c5ccc2[nH]5)C=C4)C=C3)cc1)C(c1ccccc1)c1ccccc1
REMARK SMILES IDX 11 1 10 2 9 3 8 4 6 5 7 6 5 8 4 9 1 10 2 11 3 12 82 14 83 15
REMARK SMILES IDX 84 16 88 17 85 18 87 19 86 20 89 21 90 22 94 23 91 24 93 25
REMARK SMILES IDX 92 26 12 27 13 28 14 29 15 31 16 32 17 33 81 34 18 35 80 36
REMARK SMILES IDX 19 37 20 38 21 39 74 40 22 41 79 42 73 43 75 44 23 45 78 46
REMARK SMILES IDX 72 47 71 48 24 50 58 51 37 52 57 53 38 54 41 55 56 56 76 57
REMARK SMILES IDX 39 58 40 59 55 61 77 62 42 63 25 64 26 65 35 66 27 67 28 68
REMARK SMILES IDX 34 69 36 70 29 71 30 72 31 73 32 74 33 75 59 76 60 77 69 78
REMARK SMILES IDX 61 79 62 80 68 81 70 82 63 83 64 84 65 85 66 86 67 87 43 88
REMARK SMILES IDX 44 89 53 90 45 91 46 92 52 93 54 94 47 95 48 96 49 97 50 98
REMARK SMILES IDX 51 99
REMARK H PARENT 8 7 4 13 13 30 75 49 41 60
REMARK Flexibility Score: inf
ROOT
ATOM      1  C   UNL A   1      32.218  27.645  27.464  1.00  0.00     0.023 C 
ENDROOT
BRANCH   1   2
ATOM      2  C   UNL A   1      31.296  27.615  26.241  1.00  0.00     0.023 C 
BRANCH   2   3
ATOM      3  C   UNL A   1      30.663  26.249  25.964  1.00  0.00     0.116 C 
BRANCH   3   4
ATOM      4  N   UNL A   1      31.157  25.250  26.888  1.00  0.00    -0.354 N 
ATOM      5  C   UNL A   1      31.806  24.077  26.617  1.00  0.00     0.243 C 
ATOM      6  O   UNL A   1      31.803  23.224  27.508  1.00  0.00    -0.273 OA
ATOM      7  H   UNL A   1      31.005  25.440  27.842  1.00  0.00     0.163 HD
BRANCH   5   8
ATOM      8  C   UNL A   1      32.408  23.823  25.208  1.00  0.00     0.183 C 
BRANCH   8   9
ATOM      9  N   UNL A   1      32.715  22.375  25.186  1.00  0.00    -0.344 N 
ATOM     10  C   UNL A   1      32.039  21.853  22.856  1.00  0.00     0.114 C 
ATOM     11  C   UNL A   1      32.570  21.449  24.203  1.00  0.00     0.217 C 
ATOM     12  O   UNL A   1      32.880  20.280  24.437  1.00  0.00    -0.275 OA
ATOM     13  H   UNL A   1      33.088  22.024  26.027  1.00  0.00     0.164 HD
ENDBRANCH   8   9
BRANCH   8  14
ATOM     14  C   UNL A   1      33.704  24.682  25.009  1.00  0.00     0.081 C 
BRANCH  14  15
ATOM     15  C   UNL A   1      34.980  23.835  24.868  1.00  0.00    -0.038 A 
ATOM     16  C   UNL A   1      35.441  23.498  23.583  1.00  0.00     0.004 A 
ATOM     17  C   UNL A   1      35.733  23.400  25.969  1.00  0.00     0.004 A 
ATOM     18  C   UNL A   1      36.609  22.750  23.410  1.00  0.00     0.000 A 
ATOM     19  C   UNL A   1      36.890  22.636  25.797  1.00  0.00     0.000 A 
ATOM     20  C   UNL A   1      37.329  22.314  24.517  1.00  0.00     0.000 A 
ENDBRANCH  14  15
BRANCH  14  21
ATOM     21  C   UNL A   1      33.589  25.774  23.932  1.00  0.00    -0.038 A 
ATOM     22  C   UNL A   1      33.023  25.564  22.666  1.00  0.00     0.004 A 
ATOM     23  C   UNL A   1      34.076  27.065  24.218  1.00  0.00     0.004 A 
ATOM     24  C   UNL A   1      32.992  26.583  21.708  1.00  0.00     0.000 A 
ATOM     25  C   UNL A   1      34.018  28.092  23.272  1.00  0.00     0.000 A 
ATOM     26  C   UNL A   1      33.489  27.847  22.011  1.00  0.00     0.000 A 
ENDBRANCH  14  21
ENDBRANCH   8  14
ENDBRANCH   5   8
ENDBRANCH   3   4
ENDBRANCH   2   3
ENDBRANCH   1   2
BRANCH   1  27
ATOM     27  C   UNL A   1      33.524  28.410  27.272  1.00  0.00     0.116 C 
BRANCH  27  28
ATOM     28  N   UNL A   1      33.417  29.820  27.614  1.00  0.00    -0.352 N 
ATOM     29  C   UNL A   1      34.378  30.641  28.155  1.00  0.00     0.251 C 
ATOM     30  H   UNL A   1      32.545  30.240  27.434  1.00  0.00     0.163 HD
ATOM     31  O   UNL A   1      34.094  31.788  28.488  1.00  0.00    -0.269 OA
BRANCH  29  32
ATOM     32  C   UNL A   1      35.741  30.115  28.368  1.00  0.00     0.039 A 
ATOM     33  C   UNL A   1      36.648  30.145  27.307  1.00  0.00     0.014 A 
ATOM     34  C   UNL A   1      36.132  29.637  29.621  1.00  0.00     0.014 A 
ATOM     35  C   UNL A   1      37.972  29.755  27.522  1.00  0.00     0.010 A 
ATOM     36  C   UNL A   1      37.466  29.313  29.850  1.00  0.00     0.010 A 
ATOM     37  C   UNL A   1      38.400  29.371  28.803  1.00  0.00    -0.014 A 
BRANCH  37  38
ATOM     38  C   UNL A   1      39.820  29.034  29.073  1.00  0.00     0.031 A 
ATOM     39  C   UNL A   1      40.747  30.074  29.638  1.00  0.00     0.074 A 
ATOM     40  C   UNL A   1      40.291  27.815  28.740  1.00  0.00     0.049 A 
ATOM     41  N   UNL A   1      42.032  29.997  29.870  1.00  0.00    -0.248 NA
ATOM     42  C   UNL A   1      40.158  31.384  29.960  1.00  0.00     0.031 C 
ATOM     43  C   UNL A   1      39.501  26.739  28.134  1.00  0.00     0.029 A 
ATOM     44  N   UNL A   1      41.549  27.278  28.852  1.00  0.00    -0.354 N 
ATOM     45  C   UNL A   1      42.408  31.247  30.346  1.00  0.00     0.074 A 
ATOM     46  C   UNL A   1      41.225  32.080  30.324  1.00  0.00     0.031 C 
ATOM     47  C   UNL A   1      40.289  25.668  27.946  1.00  0.00     0.029 A 
ATOM     48  C   UNL A   1      41.644  25.990  28.383  1.00  0.00     0.049 A 
ATOM     49  H   UNL A   1      42.312  27.771  29.231  1.00  0.00     0.167 HD
ATOM     50  C   UNL A   1      43.622  31.656  30.784  1.00  0.00     0.037 A 
ATOM     51  C   UNL A   1      42.705  25.162  28.308  1.00  0.00     0.037 A 
ATOM     52  C   UNL A   1      44.788  30.813  30.833  1.00  0.00     0.049 A 
ATOM     53  C   UNL A   1      44.041  25.635  28.813  1.00  0.00     0.074 A 
ATOM     54  C   UNL A   1      46.047  31.113  31.320  1.00  0.00     0.029 A 
ATOM     55  N   UNL A   1      44.836  29.502  30.379  1.00  0.00    -0.354 N 
ATOM     56  N   UNL A   1      44.362  26.800  29.322  1.00  0.00    -0.248 NA
ATOM     57  C   UNL A   1      45.155  24.680  28.742  1.00  0.00     0.031 C 
ATOM     58  C   UNL A   1      46.869  29.998  31.125  1.00  0.00     0.029 A 
ATOM     59  C   UNL A   1      46.110  28.986  30.559  1.00  0.00     0.049 A 
ATOM     60  H   UNL A   1      44.079  29.012  29.987  1.00  0.00     0.167 HD
ATOM     61  C   UNL A   1      45.710  26.711  29.655  1.00  0.00     0.074 A 
ATOM     62  C   UNL A   1      46.139  25.373  29.300  1.00  0.00     0.031 C 
ATOM     63  C   UNL A   1      46.518  27.650  30.206  1.00  0.00     0.037 A 
BRANCH  50  64
ATOM     64  C   UNL A   1      43.749  33.079  31.254  1.00  0.00     0.058 A 
ATOM     65  C   UNL A   1      43.462  33.445  32.579  1.00  0.00     0.135 A 
ATOM     66  C   UNL A   1      44.191  34.084  30.379  1.00  0.00     0.135 A 
ATOM     67  F   UNL A   1      43.021  32.528  33.454  1.00  0.00    -0.206 F 
ATOM     68  C   UNL A   1      43.579  34.762  33.012  1.00  0.00     0.059 A 
ATOM     69  C   UNL A   1      44.341  35.403  30.797  1.00  0.00     0.059 A 
ATOM     70  F   UNL A   1      44.478  33.790  29.101  1.00  0.00    -0.206 F 
ATOM     71  C   UNL A   1      44.017  35.735  32.113  1.00  0.00     0.060 A 
BRANCH  71  72
ATOM     72  S   UNL A   1      44.164  37.439  32.689  1.00  0.00     0.124 S 
ATOM     73  O   UNL A   1      43.144  37.481  33.733  1.00  0.00    -0.237 OA
ATOM     74  O   UNL A   1      45.547  37.494  33.154  1.00  0.00    -0.237 OA
ATOM     75  O   UNL A   1      43.875  38.228  31.497  1.00  0.00    -0.744 OA
ENDBRANCH  71  72
ENDBRANCH  50  64
BRANCH  51  76
ATOM     76  C   UNL A   1      42.540  23.792  27.754  1.00  0.00     0.058 A 
ATOM     77  C   UNL A   1      42.383  22.686  28.602  1.00  0.00     0.135 A 
ATOM     78  C   UNL A   1      42.521  23.562  26.370  1.00  0.00     0.135 A 
ATOM     79  F   UNL A   1      42.401  22.855  29.933  1.00  0.00    -0.206 F 
ATOM     80  C   UNL A   1      42.229  21.398  28.100  1.00  0.00     0.059 A 
ATOM     81  C   UNL A   1      42.343  22.286  25.843  1.00  0.00     0.059 A 
ATOM     82  F   UNL A   1      42.649  24.588  25.515  1.00  0.00    -0.206 F 
ATOM     83  C   UNL A   1      42.209  21.208  26.718  1.00  0.00     0.060 A 
BRANCH  83  84
ATOM     84  S   UNL A   1      41.960  19.539  26.076  1.00  0.00     0.124 S 
ATOM     85  O   UNL A   1      42.477  18.723  27.168  1.00  0.00    -0.237 OA
ATOM     86  O   UNL A   1      40.514  19.499  25.878  1.00  0.00    -0.237 OA
ATOM     87  O   UNL A   1      42.752  19.530  24.849  1.00  0.00    -0.744 OA
ENDBRANCH  83  84
ENDBRANCH  51  76
BRANCH  63  88
ATOM     88  C   UNL A   1      47.940  27.257  30.491  1.00  0.00     0.058 A 
ATOM     89  C   UNL A   1      48.952  27.401  29.529  1.00  0.00     0.135 A 
ATOM     90  C   UNL A   1      48.306  26.783  31.761  1.00  0.00     0.135 A 
ATOM     91  F   UNL A   1      48.655  27.844  28.297  1.00  0.00    -0.206 F 
ATOM     92  C   UNL A   1      50.273  27.068  29.810  1.00  0.00     0.059 A 
ATOM     93  C   UNL A   1      49.624  26.469  32.072  1.00  0.00     0.059 A 
ATOM     94  F   UNL A   1      47.378  26.637  32.721  1.00  0.00    -0.206 F 
ATOM     95  C   UNL A   1      50.599  26.605  31.086  1.00  0.00     0.060 A 
BRANCH  95  96
ATOM     96  S   UNL A   1      52.324  26.213  31.450  1.00  0.00     0.124 S 
ATOM     97  O   UNL A   1      52.214  24.850  31.959  1.00  0.00    -0.237 OA
ATOM     98  O   UNL A   1      52.960  26.351  30.143  1.00  0.00    -0.237 OA
ATOM     99  O   UNL A   1      52.701  27.223  32.434  1.00  0.00    -0.744 OA
ENDBRANCH  95  96
ENDBRANCH  63  88
ENDBRANCH  37  38
ENDBRANCH  29  32
ENDBRANCH  27  28
ENDBRANCH   1  27
TORSDOF 18
ENDMDL
MODEL 2
REMARK VINA RESULT:     -11.1      2.594      3.378
REMARK SMILES CC(=O)N[C@@H](C(=O)NCCCCNC(=O)c1ccc(-c2c3nc(c(-c4c(F)cc(S(=O)(=O)[O-])cc4F)c4ccc([nH]4)c(-c4c(F)cc(S(=O)(=O)[O-])cc4F)c4nc(c(-c5c(F)cc(S(=O)(=O)[O-])cc5F)c5ccc2[nH]5)C=C4)C=C3)cc1)C(c1ccccc1)c1ccccc1
REMARK SMILES IDX 11 1 10 2 9 3 8 4 6 5 7 6 5 8 4 9 1 10 2 11 3 12 82 14 83 15
REMARK SMILES IDX 84 16 88 17 85 18 87 19 86 20 89 21 90 22 94 23 91 24 93 25
REMARK SMILES IDX 92 26 12 27 13 28 14 29 15 31 16 32 17 33 81 34 18 35 80 36
REMARK SMILES IDX 19 37 20 38 21 39 74 40 22 41 79 42 73 43 75 44 23 45 78 46
REMARK SMILES IDX 72 47 71 48 24 50 58 51 37 52 57 53 38 54 41 55 56 56 76 57
REMARK SMILES IDX 39 58 40 59 55 61 77 62 42 63 25 64 26 65 35 66 27 67 28 68
REMARK SMILES IDX 34 69 36 70 29 71 30 72 31 73 32 74 33 75 59 76 60 77 69 78
REMARK SMILES IDX 61 79 62 80 68 81 70 82 63 83 64 84 65 85 66 86 67 87 43 88
REMARK SMILES IDX 44 89 53 90 45 91 46 92 52 93 54 94 47 95 48 96 49 97 50 98
REMARK SMILES IDX 51 99
REMARK H PARENT 8 7 4 13 13 30 75 49 41 60
REMARK Flexibility Score: inf
ROOT
ATOM      1  C   UNL A   1      32.678  27.585  26.822  1.00  0.00     0.023 C 
ENDROOT
BRANCH   1   2
ATOM      2  C   UNL A   1      31.419  27.534  25.951  1.00  0.00     0.023 C 
BRANCH   2   3
ATOM      3  C   UNL A   1      30.758  26.155  25.879  1.00  0.00     0.116 C 
BRANCH   3   4
ATOM      4  N   UNL A   1      31.307  25.264  26.879  1.00  0.00    -0.354 N 
ATOM      5  C   UNL A   1      31.920  24.053  26.705  1.00  0.00     0.243 C 
ATOM      6  O   UNL A   1      31.972  23.313  27.690  1.00  0.00    -0.273 OA
ATOM      7  H   UNL A   1      31.228  25.569  27.811  1.00  0.00     0.163 HD
BRANCH   5   8
ATOM      8  C   UNL A   1      32.413  23.620  25.297  1.00  0.00     0.183 C 
BRANCH   8   9
ATOM      9  N   UNL A   1      32.865  22.222  25.471  1.00  0.00    -0.344 N 
ATOM     10  C   UNL A   1      32.223  21.310  23.254  1.00  0.00     0.114 C 
ATOM     11  C   UNL A   1      32.805  21.156  24.631  1.00  0.00     0.217 C 
ATOM     12  O   UNL A   1      33.234  20.069  25.020  1.00  0.00    -0.275 OA
ATOM     13  H   UNL A   1      33.280  22.032  26.344  1.00  0.00     0.164 HD
ENDBRANCH   8   9
BRANCH   8  14
ATOM     14  C   UNL A   1      33.589  24.543  24.827  1.00  0.00     0.081 C 
BRANCH  14  15
ATOM     15  C   UNL A   1      34.936  23.809  24.723  1.00  0.00    -0.038 A 
ATOM     16  C   UNL A   1      35.710  23.629  25.883  1.00  0.00     0.004 A 
ATOM     17  C   UNL A   1      35.426  23.279  23.519  1.00  0.00     0.004 A 
ATOM     18  C   UNL A   1      36.929  22.947  25.835  1.00  0.00     0.000 A 
ATOM     19  C   UNL A   1      36.653  22.614  23.468  1.00  0.00     0.000 A 
ATOM     20  C   UNL A   1      37.404  22.446  24.627  1.00  0.00     0.000 A 
ENDBRANCH  14  15
BRANCH  14  21
ATOM     21  C   UNL A   1      33.276  25.398  23.587  1.00  0.00    -0.038 A 
ATOM     22  C   UNL A   1      33.892  26.627  23.313  1.00  0.00     0.004 A 
ATOM     23  C   UNL A   1      32.318  24.933  22.665  1.00  0.00     0.004 A 
ATOM     24  C   UNL A   1      33.530  27.385  22.194  1.00  0.00     0.000 A 
ATOM     25  C   UNL A   1      31.976  25.676  21.531  1.00  0.00     0.000 A 
ATOM     26  C   UNL A   1      32.573  26.910  21.303  1.00  0.00     0.000 A 
ENDBRANCH  14  21
ENDBRANCH   8  14
ENDBRANCH   5   8
ENDBRANCH   3   4
ENDBRANCH   2   3
ENDBRANCH   1   2
BRANCH   1  27
ATOM     27  C   UNL A   1      33.803  28.464  26.285  1.00  0.00     0.116 C 
BRANCH  27  28
ATOM     28  N   UNL A   1      33.613  29.877  26.574  1.00  0.00    -0.352 N 
ATOM     29  C   UNL A   1      34.373  30.693  27.379  1.00  0.00     0.251 C 
ATOM     30  H   UNL A   1      32.841  30.305  26.137  1.00  0.00     0.163 HD
ATOM     31  O   UNL A   1      34.014  31.844  27.606  1.00  0.00    -0.269 OA
BRANCH  29  32
ATOM     32  C   UNL A   1      35.602  30.155  27.996  1.00  0.00     0.039 A 
ATOM     33  C   UNL A   1      36.794  30.194  27.271  1.00  0.00     0.014 A 
ATOM     34  C   UNL A   1      35.583  29.655  29.301  1.00  0.00     0.014 A 
ATOM     35  C   UNL A   1      37.984  29.792  27.881  1.00  0.00     0.010 A 
ATOM     36  C   UNL A   1      36.779  29.319  29.928  1.00  0.00     0.010 A 
ATOM     37  C   UNL A   1      37.992  29.386  29.225  1.00  0.00    -0.014 A 
BRANCH  37  38
ATOM     38  C   UNL A   1      39.257  29.036  29.917  1.00  0.00     0.031 A 
ATOM     39  C   UNL A   1      39.693  29.812  31.130  1.00  0.00     0.074 A 
ATOM     40  C   UNL A   1      40.049  28.069  29.411  1.00  0.00     0.049 A 
ATOM     41  N   UNL A   1      40.797  29.708  31.824  1.00  0.00    -0.248 NA
ATOM     42  C   UNL A   1      38.779  30.861  31.610  1.00  0.00     0.031 C 
ATOM     43  C   UNL A   1      39.761  27.283  28.208  1.00  0.00     0.029 A 
ATOM     44  N   UNL A   1      41.263  27.590  29.836  1.00  0.00    -0.354 N 
ATOM     45  C   UNL A   1      40.719  30.687  32.808  1.00  0.00     0.074 A 
ATOM     46  C   UNL A   1      39.483  31.406  32.591  1.00  0.00     0.031 C 
ATOM     47  C   UNL A   1      40.760  26.409  28.004  1.00  0.00     0.029 A 
ATOM     48  C   UNL A   1      41.774  26.595  29.037  1.00  0.00     0.049 A 
ATOM     49  H   UNL A   1      41.724  27.928  30.636  1.00  0.00     0.167 HD
ATOM     50  C   UNL A   1      41.588  30.946  33.814  1.00  0.00     0.037 A 
ATOM     51  C   UNL A   1      42.934  25.913  29.123  1.00  0.00     0.037 A 
ATOM     52  C   UNL A   1      42.801  30.206  34.043  1.00  0.00     0.049 A 
ATOM     53  C   UNL A   1      43.876  26.210  30.258  1.00  0.00     0.074 A 
ATOM     54  C   UNL A   1      43.714  30.348  35.071  1.00  0.00     0.029 A 
ATOM     55  N   UNL A   1      43.269  29.182  33.230  1.00  0.00    -0.354 N 
ATOM     56  N   UNL A   1      43.754  27.095  31.219  1.00  0.00    -0.248 NA
ATOM     57  C   UNL A   1      45.108  25.412  30.326  1.00  0.00     0.031 C 
ATOM     58  C   UNL A   1      44.755  29.438  34.861  1.00  0.00     0.029 A 
ATOM     59  C   UNL A   1      44.468  28.697  33.725  1.00  0.00     0.049 A 
ATOM     60  H   UNL A   1      42.817  28.851  32.422  1.00  0.00     0.167 HD
ATOM     61  C   UNL A   1      44.881  26.943  32.019  1.00  0.00     0.074 A 
ATOM     62  C   UNL A   1      45.666  25.874  31.437  1.00  0.00     0.031 C 
ATOM     63  C   UNL A   1      45.233  27.626  33.137  1.00  0.00     0.037 A 
BRANCH  50  64
ATOM     64  C   UNL A   1      41.251  32.074  34.750  1.00  0.00     0.058 A 
ATOM     65  C   UNL A   1      41.730  33.376  34.536  1.00  0.00     0.135 A 
ATOM     66  C   UNL A   1      40.416  31.858  35.858  1.00  0.00     0.135 A 
ATOM     67  F   UNL A   1      42.544  33.636  33.501  1.00  0.00    -0.206 F 
ATOM     68  C   UNL A   1      41.418  34.418  35.403  1.00  0.00     0.059 A 
ATOM     69  C   UNL A   1      40.069  32.892  36.724  1.00  0.00     0.059 A 
ATOM     70  F   UNL A   1      39.931  30.633  36.112  1.00  0.00    -0.206 F 
ATOM     71  C   UNL A   1      40.589  34.166  36.496  1.00  0.00     0.060 A 
BRANCH  71  72
ATOM     72  S   UNL A   1      40.193  35.528  37.612  1.00  0.00     0.124 S 
ATOM     73  O   UNL A   1      41.439  35.660  38.362  1.00  0.00    -0.237 OA
ATOM     74  O   UNL A   1      39.894  36.616  36.685  1.00  0.00    -0.237 OA
ATOM     75  O   UNL A   1      39.054  35.026  38.373  1.00  0.00    -0.744 OA
ENDBRANCH  71  72
ENDBRANCH  50  64
BRANCH  51  76
ATOM     76  C   UNL A   1      43.255  24.865  28.119  1.00  0.00     0.058 A 
ATOM     77  C   UNL A   1      43.943  25.185  26.939  1.00  0.00     0.135 A 
ATOM     78  C   UNL A   1      42.897  23.523  28.323  1.00  0.00     0.135 A 
ATOM     79  F   UNL A   1      44.301  26.455  26.696  1.00  0.00    -0.206 F 
ATOM     80  C   UNL A   1      44.251  24.217  25.989  1.00  0.00     0.059 A 
ATOM     81  C   UNL A   1      43.215  22.533  27.398  1.00  0.00     0.059 A 
ATOM     82  F   UNL A   1      42.255  23.162  29.444  1.00  0.00    -0.206 F 
ATOM     83  C   UNL A   1      43.883  22.892  26.229  1.00  0.00     0.060 A 
BRANCH  83  84
ATOM     84  S   UNL A   1      44.330  21.635  25.011  1.00  0.00     0.124 S 
ATOM     85  O   UNL A   1      45.700  21.322  25.400  1.00  0.00    -0.237 OA
ATOM     86  O   UNL A   1      43.339  20.594  25.268  1.00  0.00    -0.237 OA
ATOM     87  O   UNL A   1      44.178  22.333  23.738  1.00  0.00    -0.744 OA
ENDBRANCH  83  84
ENDBRANCH  51  76
BRANCH  63  88
ATOM     88  C   UNL A   1      46.506  27.219  33.824  1.00  0.00     0.058 A 
ATOM     89  C   UNL A   1      47.733  27.836  33.530  1.00  0.00     0.135 A 
ATOM     90  C   UNL A   1      46.489  26.238  34.828  1.00  0.00     0.135 A 
ATOM     91  F   UNL A   1      47.805  28.775  32.574  1.00  0.00    -0.206 F 
ATOM     92  C   UNL A   1      48.902  27.478  34.195  1.00  0.00     0.059 A 
ATOM     93  C   UNL A   1      47.640  25.884  35.523  1.00  0.00     0.059 A 
ATOM     94  F   UNL A   1      45.339  25.624  35.154  1.00  0.00    -0.206 F 
ATOM     95  C   UNL A   1      48.844  26.502  35.192  1.00  0.00     0.060 A 
BRANCH  95  96
ATOM     96  S   UNL A   1      50.360  26.074  36.073  1.00  0.00     0.124 S 
ATOM     97  O   UNL A   1      51.375  26.342  35.059  1.00  0.00    -0.237 OA
ATOM     98  O   UNL A   1      50.337  26.996  37.205  1.00  0.00    -0.237 OA
ATOM     99  O   UNL A   1      50.169  24.668  36.414  1.00  0.00    -0.744 OA
ENDBRANCH  95  96
ENDBRANCH  63  88
ENDBRANCH  37  38
ENDBRANCH  29  32
ENDBRANCH  27  28
ENDBRANCH   1  27
TORSDOF 18
ENDMDL
MODEL 3
REMARK VINA RESULT:     -11.0      1.116      2.639
REMARK SMILES CC(=O)N[C@@H](C(=O)NCCCCNC(=O)c1ccc(-c2c3nc(c(-c4c(F)cc(S(=O)(=O)[O-])cc4F)c4ccc([nH]4)c(-c4c(F)cc(S(=O)(=O)[O-])cc4F)c4nc(c(-c5c(F)cc(S(=O)(=O)[O-])cc5F)c5ccc2[nH]5)C=C4)C=C3)cc1)C(c1ccccc1)c1ccccc1
REMARK SMILES IDX 11 1 10 2 9 3 8 4 6 5 7 6 5 8 4 9 1 10 2 11 3 12 82 14 83 15
REMARK SMILES IDX 84 16 88 17 85 18 87 19 86 20 89 21 90 22 94 23 91 24 93 25
REMARK SMILES IDX 92 26 12 27 13 28 14 29 15 31 16 32 17 33 81 34 18 35 80 36
REMARK SMILES IDX 19 37 20 38 21 39 74 40 22 41 79 42 73 43 75 44 23 45 78 46
REMARK SMILES IDX 72 47 71 48 24 50 58 51 37 52 57 53 38 54 41 55 56 56 76 57
REMARK SMILES IDX 39 58 40 59 55 61 77 62 42 63 25 64 26 65 35 66 27 67 28 68
REMARK SMILES IDX 34 69 36 70 29 71 30 72 31 73 32 74 33 75 59 76 60 77 69 78
REMARK SMILES IDX 61 79 62 80 68 81 70 82 63 83 64 84 65 85 66 86 67 87 43 88
REMARK SMILES IDX 44 89 53 90 45 91 46 92 52 93 54 94 47 95 48 96 49 97 50 98
REMARK SMILES IDX 51 99
REMARK H PARENT 8 7 4 13 13 30 75 49 41 60
REMARK Flexibility Score: inf
ROOT
ATOM      1  C   UNL A   1      32.419  27.629  26.962  1.00  0.00     0.023 C 
ENDROOT
BRANCH   1   2
ATOM      2  C   UNL A   1      32.311  26.554  25.876  1.00  0.00     0.023 C 
BRANCH   2   3
ATOM      3  C   UNL A   1      32.623  25.136  26.359  1.00  0.00     0.116 C 
BRANCH   3   4
ATOM      4  N   UNL A   1      31.915  24.150  25.570  1.00  0.00    -0.354 N 
ATOM      5  C   UNL A   1      32.220  23.666  24.328  1.00  0.00     0.243 C 
ATOM      6  O   UNL A   1      31.304  23.127  23.704  1.00  0.00    -0.273 OA
ATOM      7  H   UNL A   1      31.103  23.778  25.983  1.00  0.00     0.163 HD
BRANCH   5   8
ATOM      8  C   UNL A   1      33.630  23.902  23.720  1.00  0.00     0.183 C 
BRANCH   8   9
ATOM      9  N   UNL A   1      33.374  24.277  22.311  1.00  0.00    -0.344 N 
ATOM     10  C   UNL A   1      33.419  26.748  22.535  1.00  0.00     0.114 C 
ATOM     11  C   UNL A   1      33.256  25.495  21.721  1.00  0.00     0.217 C 
ATOM     12  O   UNL A   1      33.015  25.550  20.515  1.00  0.00    -0.275 OA
ATOM     13  H   UNL A   1      33.272  23.514  21.697  1.00  0.00     0.164 HD
ENDBRANCH   8   9
BRANCH   8  14
ATOM     14  C   UNL A   1      34.487  22.593  23.813  1.00  0.00     0.081 C 
BRANCH  14  15
ATOM     15  C   UNL A   1      35.819  22.789  24.557  1.00  0.00    -0.038 A 
ATOM     16  C   UNL A   1      36.004  23.942  25.340  1.00  0.00     0.004 A 
ATOM     17  C   UNL A   1      36.861  21.851  24.515  1.00  0.00     0.004 A 
ATOM     18  C   UNL A   1      37.190  24.147  26.049  1.00  0.00     0.000 A 
ATOM     19  C   UNL A   1      38.054  22.065  25.209  1.00  0.00     0.000 A 
ATOM     20  C   UNL A   1      38.218  23.212  25.979  1.00  0.00     0.000 A 
ENDBRANCH  14  15
BRANCH  14  21
ATOM     21  C   UNL A   1      33.712  21.354  24.290  1.00  0.00    -0.038 A 
ATOM     22  C   UNL A   1      33.618  20.964  25.634  1.00  0.00     0.004 A 
ATOM     23  C   UNL A   1      33.055  20.553  23.336  1.00  0.00     0.004 A 
ATOM     24  C   UNL A   1      32.940  19.796  26.004  1.00  0.00     0.000 A 
ATOM     25  C   UNL A   1      32.353  19.403  23.707  1.00  0.00     0.000 A 
ATOM     26  C   UNL A   1      32.308  19.016  25.041  1.00  0.00     0.000 A 
ENDBRANCH  14  21
ENDBRANCH   8  14
ENDBRANCH   5   8
ENDBRANCH   3   4
ENDBRANCH   2   3
ENDBRANCH   1   2
BRANCH   1  27
ATOM     27  C   UNL A   1      33.723  28.420  26.965  1.00  0.00     0.116 C 
BRANCH  27  28
ATOM     28  N   UNL A   1      33.573  29.770  27.484  1.00  0.00    -0.352 N 
ATOM     29  C   UNL A   1      34.495  30.529  28.165  1.00  0.00     0.251 C 
ATOM     30  H   UNL A   1      32.699  30.195  27.327  1.00  0.00     0.163 HD
ATOM     31  O   UNL A   1      34.173  31.617  28.634  1.00  0.00    -0.269 OA
BRANCH  29  32
ATOM     32  C   UNL A   1      35.861  30.004  28.360  1.00  0.00     0.039 A 
ATOM     33  C   UNL A   1      36.780  30.111  27.314  1.00  0.00     0.014 A 
ATOM     34  C   UNL A   1      36.242  29.447  29.584  1.00  0.00     0.014 A 
ATOM     35  C   UNL A   1      38.105  29.720  27.520  1.00  0.00     0.010 A 
ATOM     36  C   UNL A   1      37.576  29.122  29.807  1.00  0.00     0.010 A 
ATOM     37  C   UNL A   1      38.522  29.257  28.778  1.00  0.00    -0.014 A 
BRANCH  37  38
ATOM     38  C   UNL A   1      39.942  28.916  29.042  1.00  0.00     0.031 A 
ATOM     39  C   UNL A   1      40.874  29.954  29.604  1.00  0.00     0.074 A 
ATOM     40  C   UNL A   1      40.409  27.697  28.708  1.00  0.00     0.049 A 
ATOM     41  N   UNL A   1      42.159  29.874  29.831  1.00  0.00    -0.248 NA
ATOM     42  C   UNL A   1      40.289  31.266  29.928  1.00  0.00     0.031 C 
ATOM     43  C   UNL A   1      39.614  26.622  28.105  1.00  0.00     0.029 A 
ATOM     44  N   UNL A   1      41.665  27.157  28.815  1.00  0.00    -0.354 N 
ATOM     45  C   UNL A   1      42.540  31.123  30.306  1.00  0.00     0.074 A 
ATOM     46  C   UNL A   1      41.360  31.959  30.288  1.00  0.00     0.031 C 
ATOM     47  C   UNL A   1      40.398  25.549  27.914  1.00  0.00     0.029 A 
ATOM     48  C   UNL A   1      41.756  25.868  28.346  1.00  0.00     0.049 A 
ATOM     49  H   UNL A   1      42.431  27.647  29.192  1.00  0.00     0.167 HD
ATOM     50  C   UNL A   1      43.757  31.529  30.740  1.00  0.00     0.037 A 
ATOM     51  C   UNL A   1      42.814  25.037  28.267  1.00  0.00     0.037 A 
ATOM     52  C   UNL A   1      44.921  30.683  30.785  1.00  0.00     0.049 A 
ATOM     53  C   UNL A   1      44.153  25.507  28.768  1.00  0.00     0.074 A 
ATOM     54  C   UNL A   1      46.182  30.980  31.267  1.00  0.00     0.029 A 
ATOM     55  N   UNL A   1      44.964  29.372  30.330  1.00  0.00    -0.354 N 
ATOM     56  N   UNL A   1      44.479  26.671  29.276  1.00  0.00    -0.248 NA
ATOM     57  C   UNL A   1      45.265  24.549  28.692  1.00  0.00     0.031 C 
ATOM     58  C   UNL A   1      47.000  29.863  31.069  1.00  0.00     0.029 A 
ATOM     59  C   UNL A   1      46.237  28.853  30.505  1.00  0.00     0.049 A 
ATOM     60  H   UNL A   1      44.204  28.884  29.941  1.00  0.00     0.167 HD
ATOM     61  C   UNL A   1      45.828  26.578  29.603  1.00  0.00     0.074 A 
ATOM     62  C   UNL A   1      46.252  25.240  29.247  1.00  0.00     0.031 C 
ATOM     63  C   UNL A   1      46.641  27.515  30.151  1.00  0.00     0.037 A 
BRANCH  50  64
ATOM     64  C   UNL A   1      43.889  32.952  31.209  1.00  0.00     0.058 A 
ATOM     65  C   UNL A   1      44.155  34.000  30.314  1.00  0.00     0.135 A 
ATOM     66  C   UNL A   1      43.718  33.276  32.565  1.00  0.00     0.135 A 
ATOM     67  F   UNL A   1      44.343  33.745  29.010  1.00  0.00    -0.206 F 
ATOM     68  C   UNL A   1      44.278  35.316  30.750  1.00  0.00     0.059 A 
ATOM     69  C   UNL A   1      43.810  34.589  33.019  1.00  0.00     0.059 A 
ATOM     70  F   UNL A   1      43.463  32.313  33.464  1.00  0.00    -0.206 F 
ATOM     71  C   UNL A   1      44.106  35.600  32.106  1.00  0.00     0.060 A 
BRANCH  71  72
ATOM     72  S   UNL A   1      44.268  37.311  32.656  1.00  0.00     0.124 S 
ATOM     73  O   UNL A   1      45.570  37.282  33.315  1.00  0.00    -0.237 OA
ATOM     74  O   UNL A   1      44.212  38.051  31.399  1.00  0.00    -0.237 OA
ATOM     75  O   UNL A   1      43.122  37.495  33.540  1.00  0.00    -0.744 OA
ENDBRANCH  71  72
ENDBRANCH  50  64
BRANCH  51  76
ATOM     76  C   UNL A   1      42.644  23.667  27.714  1.00  0.00     0.058 A 
ATOM     77  C   UNL A   1      42.711  23.435  26.332  1.00  0.00     0.135 A 
ATOM     78  C   UNL A   1      42.428  22.563  28.552  1.00  0.00     0.135 A 
ATOM     79  F   UNL A   1      42.910  24.461  25.490  1.00  0.00    -0.206 F 
ATOM     80  C   UNL A   1      42.553  22.161  25.798  1.00  0.00     0.059 A 
ATOM     81  C   UNL A   1      42.291  21.275  28.044  1.00  0.00     0.059 A 
ATOM     82  F   UNL A   1      42.374  22.728  29.883  1.00  0.00    -0.206 F 
ATOM     83  C   UNL A   1      42.345  21.086  26.663  1.00  0.00     0.060 A 
BRANCH  83  84
ATOM     84  S   UNL A   1      42.189  19.428  25.963  1.00  0.00     0.124 S 
ATOM     85  O   UNL A   1      42.749  18.605  27.028  1.00  0.00    -0.237 OA
ATOM     86  O   UNL A   1      40.747  19.315  25.760  1.00  0.00    -0.237 OA
ATOM     87  O   UNL A   1      42.981  19.506  24.740  1.00  0.00    -0.744 OA
ENDBRANCH  83  84
ENDBRANCH  51  76
BRANCH  63  88
ATOM     88  C   UNL A   1      48.063  27.119  30.431  1.00  0.00     0.058 A 
ATOM     89  C   UNL A   1      49.097  27.395  29.523  1.00  0.00     0.135 A 
ATOM     90  C   UNL A   1      48.404  26.505  31.647  1.00  0.00     0.135 A 
ATOM     91  F   UNL A   1      48.824  27.974  28.344  1.00  0.00    -0.206 F 
ATOM     92  C   UNL A   1      50.417  27.057  29.803  1.00  0.00     0.059 A 
ATOM     93  C   UNL A   1      49.719  26.183  31.959  1.00  0.00     0.059 A 
ATOM     94  F   UNL A   1      47.453  26.229  32.554  1.00  0.00    -0.206 F 
ATOM     95  C   UNL A   1      50.718  26.452  31.025  1.00  0.00     0.060 A 
BRANCH  95  96
ATOM     96  S   UNL A   1      52.440  26.053  31.393  1.00  0.00     0.124 S 
ATOM     97  O   UNL A   1      52.317  24.717  31.967  1.00  0.00    -0.237 OA
ATOM     98  O   UNL A   1      53.067  26.119  30.075  1.00  0.00    -0.237 OA
ATOM     99  O   UNL A   1      52.841  27.103  32.323  1.00  0.00    -0.744 OA
ENDBRANCH  95  96
ENDBRANCH  63  88
ENDBRANCH  37  38
ENDBRANCH  29  32
ENDBRANCH  27  28
ENDBRANCH   1  27
TORSDOF 18
ENDMDL
