MODEL 1
REMARK VINA RESULT:     -14.7      0.000      0.000
REMARK SMILES Cc1ccccc1C(=O)Nc1ccc(N2CCCCC2)cc1C(=O)NCCCCNC(=O)c1ccc(-c2c3nc(c(-c4c(F)cc(S(=O)(=O)[O-])cc4F)c4ccc([nH]4)c(-c4c(F)cc(S(=O)(=O)[O-])cc4F)c4nc(c(-c5c(F)cc(S(=O)(=O)[O-])cc5F)c5ccc2[nH]5)C=C4)C=C3)cc1
REMARK SMILES IDX 28 1 27 2 26 3 25 4 23 5 24 6 22 8 11 9 12 10 13 11 21 12
REMARK SMILES IDX 14 13 10 14 8 15 9 16 7 18 1 19 2 20 3 21 4 22 6 23 5 24
REMARK SMILES IDX 15 25 16 26 20 27 17 28 19 29 18 30 29 31 30 32 31 33 32 35
REMARK SMILES IDX 33 36 34 37 98 38 35 39 97 40 36 41 37 42 38 43 91 44 39 45
REMARK SMILES IDX 96 46 90 47 92 48 40 49 95 50 89 51 88 52 41 54 75 55 54 56
REMARK SMILES IDX 74 57 55 58 58 59 73 60 93 61 56 62 57 63 72 65 94 66 59 67
REMARK SMILES IDX 42 68 43 69 52 70 44 71 45 72 51 73 53 74 46 75 47 76 48 77
REMARK SMILES IDX 49 78 50 79 76 80 77 81 86 82 78 83 79 84 85 85 87 86 80 87
REMARK SMILES IDX 81 88 82 89 83 90 84 91 60 92 61 93 70 94 62 95 63 96 69 97
REMARK SMILES IDX 71 98 64 99 65 100 66 101 67 102 68 103
REMARK H PARENT 25 7 10 17 30 34 92 53 58 64
REMARK Flexibility Score: inf
ROOT
ATOM      1  C   UNL A   1      32.847  30.241  27.180  1.00  0.00     0.023 C 
ENDROOT
BRANCH   1   2
ATOM      2  C   UNL A   1      32.045  28.950  27.233  1.00  0.00     0.023 C 
BRANCH   2   3
ATOM      3  C   UNL A   1      32.785  27.681  26.815  1.00  0.00     0.116 C 
BRANCH   3   4
ATOM      4  N   UNL A   1      32.167  26.424  27.241  1.00  0.00    -0.352 N 
ATOM      5  C   UNL A   1      31.518  25.416  26.558  1.00  0.00     0.253 C 
ATOM      6  O   UNL A   1      31.148  24.425  27.186  1.00  0.00    -0.269 OA
ATOM      7  H   UNL A   1      32.224  26.267  28.211  1.00  0.00     0.163 HD
BRANCH   5   8
ATOM      8  C   UNL A   1      31.255  25.492  25.098  1.00  0.00     0.065 A 
ATOM      9  C   UNL A   1      31.350  24.379  24.242  1.00  0.00     0.054 A 
ATOM     10  C   UNL A   1      31.171  24.568  22.862  1.00  0.00     0.029 A 
ATOM     11  C   UNL A   1      30.719  25.788  22.369  1.00  0.00     0.028 A 
ATOM     12  C   UNL A   1      30.989  26.754  24.535  1.00  0.00     0.042 A 
ATOM     13  C   UNL A   1      30.571  26.888  23.211  1.00  0.00     0.038 A 
BRANCH   9  14
ATOM     14  N   UNL A   1      31.566  23.033  24.579  1.00  0.00    -0.321 N 
ATOM     15  C   UNL A   1      32.683  22.257  24.742  1.00  0.00     0.255 C 
ATOM     16  O   UNL A   1      32.509  21.053  24.967  1.00  0.00    -0.269 OA
ATOM     17  H   UNL A   1      30.729  22.538  24.732  1.00  0.00     0.170 HD
BRANCH  15  18
ATOM     18  C   UNL A   1      34.074  22.772  24.817  1.00  0.00     0.043 A 
ATOM     19  C   UNL A   1      34.275  22.838  27.390  1.00  0.00     0.045 C 
ATOM     20  C   UNL A   1      34.811  22.992  25.997  1.00  0.00    -0.038 A 
ATOM     21  C   UNL A   1      36.161  23.382  25.880  1.00  0.00     0.004 A 
ATOM     22  C   UNL A   1      36.785  23.493  24.638  1.00  0.00     0.000 A 
ATOM     23  C   UNL A   1      34.725  22.864  23.571  1.00  0.00     0.014 A 
ATOM     24  C   UNL A   1      36.070  23.220  23.481  1.00  0.00     0.001 A 
ENDBRANCH  15  18
ENDBRANCH   9  14
BRANCH  13  25
ATOM     25  N   UNL A   1      29.912  28.019  22.738  1.00  0.00    -0.372 N 
ATOM     26  C   UNL A   1      28.576  28.204  23.333  1.00  0.00     0.116 C 
ATOM     27  C   UNL A   1      30.658  29.264  22.528  1.00  0.00     0.116 C 
ATOM     28  C   UNL A   1      27.728  29.083  22.420  1.00  0.00     0.021 C 
ATOM     29  C   UNL A   1      29.854  30.155  21.581  1.00  0.00     0.021 C 
ATOM     30  C   UNL A   1      28.436  30.398  22.098  1.00  0.00     0.004 C 
ENDBRANCH  13  25
ENDBRANCH   5   8
ENDBRANCH   3   4
ENDBRANCH   2   3
ENDBRANCH   1   2
BRANCH   1  31
ATOM     31  C   UNL A   1      34.353  30.028  27.265  1.00  0.00     0.116 C 
BRANCH  31  32
ATOM     32  N   UNL A   1      35.063  31.178  27.811  1.00  0.00    -0.352 N 
ATOM     33  C   UNL A   1      36.295  31.191  28.448  1.00  0.00     0.251 C 
ATOM     34  H   UNL A   1      34.616  32.050  27.714  1.00  0.00     0.163 HD
ATOM     35  O   UNL A   1      36.737  32.181  29.002  1.00  0.00    -0.269 OA
BRANCH  33  36
ATOM     36  C   UNL A   1      37.097  29.955  28.350  1.00  0.00     0.039 A 
ATOM     37  C   UNL A   1      37.169  29.147  29.489  1.00  0.00     0.014 A 
ATOM     38  C   UNL A   1      38.001  29.814  27.302  1.00  0.00     0.014 A 
ATOM     39  C   UNL A   1      38.283  28.336  29.676  1.00  0.00     0.010 A 
ATOM     40  C   UNL A   1      39.149  29.081  27.532  1.00  0.00     0.010 A 
ATOM     41  C   UNL A   1      39.317  28.391  28.744  1.00  0.00    -0.014 A 
BRANCH  41  42
ATOM     42  C   UNL A   1      40.650  27.840  28.977  1.00  0.00     0.031 A 
ATOM     43  C   UNL A   1      40.941  26.439  28.605  1.00  0.00     0.074 A 
ATOM     44  C   UNL A   1      41.647  28.647  29.406  1.00  0.00     0.049 A 
ATOM     45  N   UNL A   1      42.022  25.802  28.904  1.00  0.00    -0.248 NA
ATOM     46  C   UNL A   1      39.975  25.618  27.889  1.00  0.00     0.031 C 
ATOM     47  C   UNL A   1      43.082  28.392  29.342  1.00  0.00     0.029 A 
ATOM     48  N   UNL A   1      41.533  29.789  30.207  1.00  0.00    -0.354 N 
ATOM     49  C   UNL A   1      42.016  24.603  28.225  1.00  0.00     0.074 A 
ATOM     50  C   UNL A   1      40.695  24.520  27.650  1.00  0.00     0.031 C 
ATOM     51  C   UNL A   1      43.698  29.146  30.262  1.00  0.00     0.029 A 
ATOM     52  C   UNL A   1      42.667  29.791  31.053  1.00  0.00     0.049 A 
ATOM     53  H   UNL A   1      40.810  30.457  30.187  1.00  0.00     0.167 HD
ATOM     54  C   UNL A   1      43.173  23.879  28.154  1.00  0.00     0.037 A 
ATOM     55  C   UNL A   1      42.517  29.643  32.404  1.00  0.00     0.037 A 
ATOM     56  C   UNL A   1      44.184  24.417  29.070  1.00  0.00     0.049 A 
ATOM     57  C   UNL A   1      43.104  28.363  32.972  1.00  0.00     0.074 A 
ATOM     58  C   UNL A   1      45.296  25.234  28.945  1.00  0.00     0.029 A 
ATOM     59  N   UNL A   1      43.930  24.336  30.428  1.00  0.00    -0.354 N 
ATOM     60  N   UNL A   1      43.727  27.455  32.270  1.00  0.00    -0.248 NA
ATOM     61  C   UNL A   1      42.975  27.976  34.379  1.00  0.00     0.031 C 
ATOM     62  C   UNL A   1      45.670  25.681  30.250  1.00  0.00     0.029 A 
ATOM     63  C   UNL A   1      44.793  25.125  31.163  1.00  0.00     0.049 A 
ATOM     64  H   UNL A   1      43.221  23.780  30.823  1.00  0.00     0.167 HD
ATOM     65  C   UNL A   1      44.018  26.380  33.066  1.00  0.00     0.074 A 
ATOM     66  C   UNL A   1      43.548  26.761  34.385  1.00  0.00     0.031 C 
ATOM     67  C   UNL A   1      44.580  25.228  32.597  1.00  0.00     0.037 A 
BRANCH  54  68
ATOM     68  C   UNL A   1      43.457  22.811  27.111  1.00  0.00     0.058 A 
ATOM     69  C   UNL A   1      42.739  21.594  27.117  1.00  0.00     0.135 A 
ATOM     70  C   UNL A   1      44.466  22.877  26.129  1.00  0.00     0.135 A 
ATOM     71  F   UNL A   1      41.686  21.408  27.925  1.00  0.00    -0.206 F 
ATOM     72  C   UNL A   1      43.070  20.504  26.304  1.00  0.00     0.059 A 
ATOM     73  C   UNL A   1      44.856  21.785  25.347  1.00  0.00     0.059 A 
ATOM     74  F   UNL A   1      45.083  24.022  25.825  1.00  0.00    -0.206 F 
ATOM     75  C   UNL A   1      44.158  20.594  25.449  1.00  0.00     0.060 A 
BRANCH  75  76
ATOM     76  S   UNL A   1      44.637  19.159  24.472  1.00  0.00     0.124 S 
ATOM     77  O   UNL A   1      44.431  19.633  23.106  1.00  0.00    -0.237 OA
ATOM     78  O   UNL A   1      46.025  18.964  24.877  1.00  0.00    -0.237 OA
ATOM     79  O   UNL A   1      43.707  18.122  24.912  1.00  0.00    -0.744 OA
ENDBRANCH  75  76
ENDBRANCH  54  68
BRANCH  55  80
ATOM     80  C   UNL A   1      41.326  30.373  32.920  1.00  0.00     0.058 A 
ATOM     81  C   UNL A   1      40.164  29.614  33.175  1.00  0.00     0.135 A 
ATOM     82  C   UNL A   1      41.445  31.612  33.560  1.00  0.00     0.135 A 
ATOM     83  F   UNL A   1      39.991  28.422  32.578  1.00  0.00    -0.206 F 
ATOM     84  C   UNL A   1      39.255  29.981  34.157  1.00  0.00     0.059 A 
ATOM     85  C   UNL A   1      40.535  32.007  34.544  1.00  0.00     0.059 A 
ATOM     86  F   UNL A   1      42.525  32.380  33.353  1.00  0.00    -0.206 F 
ATOM     87  C   UNL A   1      39.490  31.146  34.884  1.00  0.00     0.060 A 
BRANCH  87  88
ATOM     88  S   UNL A   1      38.537  31.384  36.402  1.00  0.00     0.124 S 
ATOM     89  O   UNL A   1      37.425  32.205  35.932  1.00  0.00    -0.237 OA
ATOM     90  O   UNL A   1      38.198  30.006  36.754  1.00  0.00    -0.237 OA
ATOM     91  O   UNL A   1      39.483  32.049  37.290  1.00  0.00    -0.744 OA
ENDBRANCH  87  88
ENDBRANCH  55  80
BRANCH  67  92
ATOM     92  C   UNL A   1      44.950  24.082  33.495  1.00  0.00     0.058 A 
ATOM     93  C   UNL A   1      46.271  23.878  33.926  1.00  0.00     0.135 A 
ATOM     94  C   UNL A   1      44.015  23.085  33.841  1.00  0.00     0.135 A 
ATOM     95  F   UNL A   1      47.237  24.754  33.607  1.00  0.00    -0.206 F 
ATOM     96  C   UNL A   1      46.637  22.769  34.688  1.00  0.00     0.059 A 
ATOM     97  C   UNL A   1      44.367  21.947  34.562  1.00  0.00     0.059 A 
ATOM     98  F   UNL A   1      42.720  23.203  33.516  1.00  0.00    -0.206 F 
ATOM     99  C   UNL A   1      45.678  21.808  35.001  1.00  0.00     0.060 A 
BRANCH  99 100
ATOM    100  S   UNL A   1      46.147  20.359  35.967  1.00  0.00     0.124 S 
ATOM    101  O   UNL A   1      45.358  19.293  35.354  1.00  0.00    -0.237 OA
ATOM    102  O   UNL A   1      47.583  20.300  35.718  1.00  0.00    -0.237 OA
ATOM    103  O   UNL A   1      45.754  20.718  37.324  1.00  0.00    -0.744 OA
ENDBRANCH  99 100
ENDBRANCH  67  92
ENDBRANCH  41  42
ENDBRANCH  33  36
ENDBRANCH  31  32
ENDBRANCH   1  31
TORSDOF 17
ENDMDL
MODEL 2
REMARK VINA RESULT:     -14.6      4.989     11.446
REMARK SMILES Cc1ccccc1C(=O)Nc1ccc(N2CCCCC2)cc1C(=O)NCCCCNC(=O)c1ccc(-c2c3nc(c(-c4c(F)cc(S(=O)(=O)[O-])cc4F)c4ccc([nH]4)c(-c4c(F)cc(S(=O)(=O)[O-])cc4F)c4nc(c(-c5c(F)cc(S(=O)(=O)[O-])cc5F)c5ccc2[nH]5)C=C4)C=C3)cc1
REMARK SMILES IDX 28 1 27 2 26 3 25 4 23 5 24 6 22 8 11 9 12 10 13 11 21 12
REMARK SMILES IDX 14 13 10 14 8 15 9 16 7 18 1 19 2 20 3 21 4 22 6 23 5 24
REMARK SMILES IDX 15 25 16 26 20 27 17 28 19 29 18 30 29 31 30 32 31 33 32 35
REMARK SMILES IDX 33 36 34 37 98 38 35 39 97 40 36 41 37 42 38 43 91 44 39 45
REMARK SMILES IDX 96 46 90 47 92 48 40 49 95 50 89 51 88 52 41 54 75 55 54 56
REMARK SMILES IDX 74 57 55 58 58 59 73 60 93 61 56 62 57 63 72 65 94 66 59 67
REMARK SMILES IDX 42 68 43 69 52 70 44 71 45 72 51 73 53 74 46 75 47 76 48 77
REMARK SMILES IDX 49 78 50 79 76 80 77 81 86 82 78 83 79 84 85 85 87 86 80 87
REMARK SMILES IDX 81 88 82 89 83 90 84 91 60 92 61 93 70 94 62 95 63 96 69 97
REMARK SMILES IDX 71 98 64 99 65 100 66 101 67 102 68 103
REMARK H PARENT 25 7 10 17 30 34 92 53 58 64
REMARK Flexibility Score: inf
ROOT
ATOM      1  C   UNL A   1      37.577  21.935  25.532  1.00  0.00     0.023 C 
ENDROOT
BRANCH   1   2
ATOM      2  C   UNL A   1      37.321  22.033  24.036  1.00  0.00     0.023 C 
BRANCH   2   3
ATOM      3  C   UNL A   1      36.354  23.129  23.591  1.00  0.00     0.116 C 
BRANCH   3   4
ATOM      4  N   UNL A   1      35.382  23.556  24.601  1.00  0.00    -0.352 N 
ATOM      5  C   UNL A   1      34.105  23.139  24.913  1.00  0.00     0.253 C 
ATOM      6  O   UNL A   1      33.538  23.653  25.876  1.00  0.00    -0.269 OA
ATOM      7  H   UNL A   1      35.706  24.290  25.171  1.00  0.00     0.163 HD
BRANCH   5   8
ATOM      8  C   UNL A   1      33.399  22.096  24.125  1.00  0.00     0.065 A 
ATOM      9  C   UNL A   1      32.823  22.343  22.865  1.00  0.00     0.054 A 
ATOM     10  C   UNL A   1      32.099  21.316  22.238  1.00  0.00     0.029 A 
ATOM     11  C   UNL A   1      32.111  20.024  22.755  1.00  0.00     0.028 A 
ATOM     12  C   UNL A   1      33.221  20.828  24.710  1.00  0.00     0.042 A 
ATOM     13  C   UNL A   1      32.721  19.751  23.978  1.00  0.00     0.038 A 
BRANCH   9  14
ATOM     14  N   UNL A   1      32.902  23.504  22.081  1.00  0.00    -0.321 N 
ATOM     15  C   UNL A   1      32.427  24.783  22.217  1.00  0.00     0.255 C 
ATOM     16  O   UNL A   1      32.614  25.560  21.274  1.00  0.00    -0.269 OA
ATOM     17  H   UNL A   1      33.412  23.372  21.249  1.00  0.00     0.170 HD
BRANCH  15  18
ATOM     18  C   UNL A   1      31.841  25.345  23.461  1.00  0.00     0.043 A 
ATOM     19  C   UNL A   1      33.795  26.914  24.080  1.00  0.00     0.045 C 
ATOM     20  C   UNL A   1      32.426  26.333  24.276  1.00  0.00    -0.038 A 
ATOM     21  C   UNL A   1      31.679  26.832  25.363  1.00  0.00     0.004 A 
ATOM     22  C   UNL A   1      30.371  26.414  25.605  1.00  0.00     0.000 A 
ATOM     23  C   UNL A   1      30.510  24.951  23.702  1.00  0.00     0.014 A 
ATOM     24  C   UNL A   1      29.779  25.482  24.764  1.00  0.00     0.001 A 
ENDBRANCH  15  18
ENDBRANCH   9  14
BRANCH  13  25
ATOM     25  N   UNL A   1      32.909  18.426  24.359  1.00  0.00    -0.372 N 
ATOM     26  C   UNL A   1      34.144  17.835  23.813  1.00  0.00     0.116 C 
ATOM     27  C   UNL A   1      32.594  18.008  25.729  1.00  0.00     0.116 C 
ATOM     28  C   UNL A   1      34.020  16.316  23.798  1.00  0.00     0.021 C 
ATOM     29  C   UNL A   1      32.420  16.489  25.743  1.00  0.00     0.021 C 
ATOM     30  C   UNL A   1      33.647  15.774  25.176  1.00  0.00     0.004 C 
ENDBRANCH  13  25
ENDBRANCH   5   8
ENDBRANCH   3   4
ENDBRANCH   2   3
ENDBRANCH   1   2
BRANCH   1  31
ATOM     31  C   UNL A   1      38.195  23.191  26.130  1.00  0.00     0.116 C 
BRANCH  31  32
ATOM     32  N   UNL A   1      39.452  22.936  26.823  1.00  0.00    -0.352 N 
ATOM     33  C   UNL A   1      40.290  23.860  27.429  1.00  0.00     0.251 C 
ATOM     34  H   UNL A   1      39.741  21.995  26.865  1.00  0.00     0.163 HD
ATOM     35  O   UNL A   1      41.393  23.567  27.853  1.00  0.00    -0.269 OA
BRANCH  33  36
ATOM     36  C   UNL A   1      39.741  25.217  27.620  1.00  0.00     0.039 A 
ATOM     37  C   UNL A   1      40.259  26.236  26.814  1.00  0.00     0.014 A 
ATOM     38  C   UNL A   1      39.020  25.502  28.775  1.00  0.00     0.014 A 
ATOM     39  C   UNL A   1      40.240  27.547  27.280  1.00  0.00     0.010 A 
ATOM     40  C   UNL A   1      39.084  26.787  29.278  1.00  0.00     0.010 A 
ATOM     41  C   UNL A   1      39.747  27.796  28.559  1.00  0.00    -0.014 A 
BRANCH  41  42
ATOM     42  C   UNL A   1      39.953  29.051  29.278  1.00  0.00     0.031 A 
ATOM     43  C   UNL A   1      38.933  30.118  29.200  1.00  0.00     0.074 A 
ATOM     44  C   UNL A   1      41.007  29.183  30.115  1.00  0.00     0.049 A 
ATOM     45  N   UNL A   1      39.075  31.315  29.658  1.00  0.00    -0.248 NA
ATOM     46  C   UNL A   1      37.656  29.912  28.531  1.00  0.00     0.031 C 
ATOM     47  C   UNL A   1      41.179  30.173  31.172  1.00  0.00     0.029 A 
ATOM     48  N   UNL A   1      42.257  28.561  30.015  1.00  0.00    -0.354 N 
ATOM     49  C   UNL A   1      37.857  31.953  29.582  1.00  0.00     0.074 A 
ATOM     50  C   UNL A   1      37.023  31.050  28.826  1.00  0.00     0.031 C 
ATOM     51  C   UNL A   1      42.486  30.300  31.439  1.00  0.00     0.029 A 
ATOM     52  C   UNL A   1      43.206  29.513  30.456  1.00  0.00     0.049 A 
ATOM     53  H   UNL A   1      42.440  27.646  29.701  1.00  0.00     0.167 HD
ATOM     54  C   UNL A   1      37.682  33.126  30.260  1.00  0.00     0.037 A 
ATOM     55  C   UNL A   1      44.131  30.017  29.584  1.00  0.00     0.037 A 
ATOM     56  C   UNL A   1      38.963  33.638  30.760  1.00  0.00     0.049 A 
ATOM     57  C   UNL A   1      43.986  31.499  29.290  1.00  0.00     0.074 A 
ATOM     58  C   UNL A   1      39.622  33.631  31.978  1.00  0.00     0.029 A 
ATOM     59  N   UNL A   1      39.905  34.035  29.827  1.00  0.00    -0.354 N 
ATOM     60  N   UNL A   1      43.078  32.276  29.817  1.00  0.00    -0.248 NA
ATOM     61  C   UNL A   1      44.822  32.211  28.320  1.00  0.00     0.031 C 
ATOM     62  C   UNL A   1      40.988  33.981  31.748  1.00  0.00     0.029 A 
ATOM     63  C   UNL A   1      41.152  34.211  30.395  1.00  0.00     0.049 A 
ATOM     64  H   UNL A   1      39.709  34.178  28.874  1.00  0.00     0.167 HD
ATOM     65  C   UNL A   1      43.152  33.519  29.248  1.00  0.00     0.074 A 
ATOM     66  C   UNL A   1      44.274  33.438  28.331  1.00  0.00     0.031 C 
ATOM     67  C   UNL A   1      42.269  34.524  29.520  1.00  0.00     0.037 A 
BRANCH  54  68
ATOM     68  C   UNL A   1      36.330  33.706  30.645  1.00  0.00     0.058 A 
ATOM     69  C   UNL A   1      35.459  34.211  29.654  1.00  0.00     0.135 A 
ATOM     70  C   UNL A   1      35.857  33.868  31.963  1.00  0.00     0.135 A 
ATOM     71  F   UNL A   1      35.717  34.050  28.348  1.00  0.00    -0.206 F 
ATOM     72  C   UNL A   1      34.287  34.916  29.951  1.00  0.00     0.059 A 
ATOM     73  C   UNL A   1      34.723  34.618  32.289  1.00  0.00     0.059 A 
ATOM     74  F   UNL A   1      36.429  33.252  33.001  1.00  0.00    -0.206 F 
ATOM     75  C   UNL A   1      33.947  35.151  31.275  1.00  0.00     0.060 A 
BRANCH  75  76
ATOM     76  S   UNL A   1      32.487  36.136  31.652  1.00  0.00     0.124 S 
ATOM     77  O   UNL A   1      33.048  37.233  32.433  1.00  0.00    -0.237 OA
ATOM     78  O   UNL A   1      32.002  36.483  30.320  1.00  0.00    -0.237 OA
ATOM     79  O   UNL A   1      31.639  35.214  32.403  1.00  0.00    -0.744 OA
ENDBRANCH  75  76
ENDBRANCH  54  68
BRANCH  55  80
ATOM     80  C   UNL A   1      44.645  28.977  28.649  1.00  0.00     0.058 A 
ATOM     81  C   UNL A   1      44.113  28.964  27.343  1.00  0.00     0.135 A 
ATOM     82  C   UNL A   1      45.884  28.356  28.852  1.00  0.00     0.135 A 
ATOM     83  F   UNL A   1      42.922  29.535  27.093  1.00  0.00    -0.206 F 
ATOM     84  C   UNL A   1      44.856  28.520  26.257  1.00  0.00     0.059 A 
ATOM     85  C   UNL A   1      46.643  27.892  27.775  1.00  0.00     0.059 A 
ATOM     86  F   UNL A   1      46.437  28.334  30.073  1.00  0.00    -0.206 F 
ATOM     87  C   UNL A   1      46.148  28.051  26.480  1.00  0.00     0.060 A 
BRANCH  87  88
ATOM     88  S   UNL A   1      47.224  27.867  25.038  1.00  0.00     0.124 S 
ATOM     89  O   UNL A   1      48.504  28.339  25.556  1.00  0.00    -0.237 OA
ATOM     90  O   UNL A   1      47.138  26.428  24.791  1.00  0.00    -0.237 OA
ATOM     91  O   UNL A   1      46.592  28.718  24.037  1.00  0.00    -0.744 OA
ENDBRANCH  87  88
ENDBRANCH  55  80
BRANCH  67  92
ATOM     92  C   UNL A   1      42.401  35.900  28.933  1.00  0.00     0.058 A 
ATOM     93  C   UNL A   1      41.778  36.251  27.724  1.00  0.00     0.135 A 
ATOM     94  C   UNL A   1      43.258  36.865  29.500  1.00  0.00     0.135 A 
ATOM     95  F   UNL A   1      40.978  35.379  27.090  1.00  0.00    -0.206 F 
ATOM     96  C   UNL A   1      41.965  37.498  27.130  1.00  0.00     0.059 A 
ATOM     97  C   UNL A   1      43.497  38.099  28.902  1.00  0.00     0.059 A 
ATOM     98  F   UNL A   1      43.869  36.649  30.675  1.00  0.00    -0.206 F 
ATOM     99  C   UNL A   1      42.827  38.417  27.726  1.00  0.00     0.060 A 
BRANCH  99 100
ATOM    100  S   UNL A   1      43.093  40.024  26.954  1.00  0.00     0.124 S 
ATOM    101  O   UNL A   1      41.911  40.177  26.111  1.00  0.00    -0.237 OA
ATOM    102  O   UNL A   1      43.152  40.898  28.120  1.00  0.00    -0.237 OA
ATOM    103  O   UNL A   1      44.348  39.847  26.232  1.00  0.00    -0.744 OA
ENDBRANCH  99 100
ENDBRANCH  67  92
ENDBRANCH  41  42
ENDBRANCH  33  36
ENDBRANCH  31  32
ENDBRANCH   1  31
TORSDOF 17
ENDMDL
MODEL 3
REMARK VINA RESULT:     -14.5      1.076      3.552
REMARK SMILES Cc1ccccc1C(=O)Nc1ccc(N2CCCCC2)cc1C(=O)NCCCCNC(=O)c1ccc(-c2c3nc(c(-c4c(F)cc(S(=O)(=O)[O-])cc4F)c4ccc([nH]4)c(-c4c(F)cc(S(=O)(=O)[O-])cc4F)c4nc(c(-c5c(F)cc(S(=O)(=O)[O-])cc5F)c5ccc2[nH]5)C=C4)C=C3)cc1
REMARK SMILES IDX 28 1 27 2 26 3 25 4 23 5 24 6 22 8 11 9 12 10 13 11 21 12
REMARK SMILES IDX 14 13 10 14 8 15 9 16 7 18 1 19 2 20 3 21 4 22 6 23 5 24
REMARK SMILES IDX 15 25 16 26 20 27 17 28 19 29 18 30 29 31 30 32 31 33 32 35
REMARK SMILES IDX 33 36 34 37 98 38 35 39 97 40 36 41 37 42 38 43 91 44 39 45
REMARK SMILES IDX 96 46 90 47 92 48 40 49 95 50 89 51 88 52 41 54 75 55 54 56
REMARK SMILES IDX 74 57 55 58 58 59 73 60 93 61 56 62 57 63 72 65 94 66 59 67
REMARK SMILES IDX 42 68 43 69 52 70 44 71 45 72 51 73 53 74 46 75 47 76 48 77
REMARK SMILES IDX 49 78 50 79 76 80 77 81 86 82 78 83 79 84 85 85 87 86 80 87
REMARK SMILES IDX 81 88 82 89 83 90 84 91 60 92 61 93 70 94 62 95 63 96 69 97
REMARK SMILES IDX 71 98 64 99 65 100 66 101 67 102 68 103
REMARK H PARENT 25 7 10 17 30 34 92 53 58 64
REMARK Flexibility Score: inf
ROOT
ATOM      1  C   UNL A   1      33.831  28.997  27.580  1.00  0.00     0.023 C 
ENDROOT
BRANCH   1   2
ATOM      2  C   UNL A   1      32.709  28.310  26.818  1.00  0.00     0.023 C 
BRANCH   2   3
ATOM      3  C   UNL A   1      32.915  26.828  26.511  1.00  0.00     0.116 C 
BRANCH   3   4
ATOM      4  N   UNL A   1      31.847  25.938  26.970  1.00  0.00    -0.352 N 
ATOM      5  C   UNL A   1      31.501  24.641  26.650  1.00  0.00     0.253 C 
ATOM      6  O   UNL A   1      30.568  24.115  27.256  1.00  0.00    -0.269 OA
ATOM      7  H   UNL A   1      31.255  26.348  27.641  1.00  0.00     0.163 HD
BRANCH   5   8
ATOM      8  C   UNL A   1      32.216  23.867  25.603  1.00  0.00     0.065 A 
ATOM      9  C   UNL A   1      31.665  23.597  24.336  1.00  0.00     0.054 A 
ATOM     10  C   UNL A   1      32.382  22.781  23.446  1.00  0.00     0.029 A 
ATOM     11  C   UNL A   1      33.691  22.404  23.729  1.00  0.00     0.028 A 
ATOM     12  C   UNL A   1      33.462  23.301  25.929  1.00  0.00     0.042 A 
ATOM     13  C   UNL A   1      34.269  22.706  24.960  1.00  0.00     0.038 A 
BRANCH   9  14
ATOM     14  N   UNL A   1      30.469  24.079  23.783  1.00  0.00    -0.321 N 
ATOM     15  C   UNL A   1      30.010  25.323  23.434  1.00  0.00     0.255 C 
ATOM     16  O   UNL A   1      28.842  25.406  23.037  1.00  0.00    -0.269 OA
ATOM     17  H   UNL A   1      29.814  23.366  23.606  1.00  0.00     0.170 HD
BRANCH  15  18
ATOM     18  C   UNL A   1      30.848  26.547  23.355  1.00  0.00     0.043 A 
ATOM     19  C   UNL A   1      32.536  25.692  21.599  1.00  0.00     0.045 C 
ATOM     20  C   UNL A   1      31.953  26.738  22.503  1.00  0.00    -0.038 A 
ATOM     21  C   UNL A   1      32.569  28.006  22.479  1.00  0.00     0.004 A 
ATOM     22  C   UNL A   1      32.074  29.074  23.227  1.00  0.00     0.000 A 
ATOM     23  C   UNL A   1      30.344  27.641  24.085  1.00  0.00     0.014 A 
ATOM     24  C   UNL A   1      30.950  28.896  24.021  1.00  0.00     0.001 A 
ENDBRANCH  15  18
ENDBRANCH   9  14
BRANCH  13  25
ATOM     25  N   UNL A   1      35.638  22.515  25.129  1.00  0.00    -0.372 N 
ATOM     26  C   UNL A   1      36.253  23.496  26.040  1.00  0.00     0.116 C 
ATOM     27  C   UNL A   1      36.175  21.156  25.253  1.00  0.00     0.116 C 
ATOM     28  C   UNL A   1      37.750  23.582  25.764  1.00  0.00     0.021 C 
ATOM     29  C   UNL A   1      37.671  21.197  24.939  1.00  0.00     0.021 C 
ATOM     30  C   UNL A   1      38.407  22.205  25.824  1.00  0.00     0.004 C 
ENDBRANCH  13  25
ENDBRANCH   5   8
ENDBRANCH   3   4
ENDBRANCH   2   3
ENDBRANCH   1   2
BRANCH   1  31
ATOM     31  C   UNL A   1      34.627  29.985  26.738  1.00  0.00     0.116 C 
BRANCH  31  32
ATOM     32  N   UNL A   1      35.203  31.071  27.522  1.00  0.00    -0.352 N 
ATOM     33  C   UNL A   1      36.315  31.022  28.349  1.00  0.00     0.251 C 
ATOM     34  H   UNL A   1      34.749  31.942  27.456  1.00  0.00     0.163 HD
ATOM     35  O   UNL A   1      36.631  31.945  29.079  1.00  0.00    -0.269 OA
BRANCH  33  36
ATOM     36  C   UNL A   1      37.162  29.818  28.240  1.00  0.00     0.039 A 
ATOM     37  C   UNL A   1      37.231  28.981  29.359  1.00  0.00     0.014 A 
ATOM     38  C   UNL A   1      38.098  29.736  27.215  1.00  0.00     0.014 A 
ATOM     39  C   UNL A   1      38.367  28.203  29.555  1.00  0.00     0.010 A 
ATOM     40  C   UNL A   1      39.264  29.036  27.457  1.00  0.00     0.010 A 
ATOM     41  C   UNL A   1      39.423  28.319  28.654  1.00  0.00    -0.014 A 
BRANCH  41  42
ATOM     42  C   UNL A   1      40.768  27.807  28.909  1.00  0.00     0.031 A 
ATOM     43  C   UNL A   1      41.110  26.419  28.530  1.00  0.00     0.074 A 
ATOM     44  C   UNL A   1      41.730  28.640  29.367  1.00  0.00     0.049 A 
ATOM     45  N   UNL A   1      42.203  25.813  28.844  1.00  0.00    -0.248 NA
ATOM     46  C   UNL A   1      40.184  25.577  27.786  1.00  0.00     0.031 C 
ATOM     47  C   UNL A   1      43.173  28.430  29.329  1.00  0.00     0.029 A 
ATOM     48  N   UNL A   1      41.564  29.769  30.177  1.00  0.00    -0.354 N 
ATOM     49  C   UNL A   1      42.248  24.622  28.154  1.00  0.00     0.074 A 
ATOM     50  C   UNL A   1      40.943  24.504  27.551  1.00  0.00     0.031 C 
ATOM     51  C   UNL A   1      43.747  29.192  30.270  1.00  0.00     0.029 A 
ATOM     52  C   UNL A   1      42.680  29.797  31.046  1.00  0.00     0.049 A 
ATOM     53  H   UNL A   1      40.821  30.415  30.147  1.00  0.00     0.167 HD
ATOM     54  C   UNL A   1      43.428  23.935  28.100  1.00  0.00     0.037 A 
ATOM     55  C   UNL A   1      42.508  29.631  32.391  1.00  0.00     0.037 A 
ATOM     56  C   UNL A   1      44.403  24.494  29.041  1.00  0.00     0.049 A 
ATOM     57  C   UNL A   1      43.122  28.364  32.959  1.00  0.00     0.074 A 
ATOM     58  C   UNL A   1      45.492  25.346  28.948  1.00  0.00     0.029 A 
ATOM     59  N   UNL A   1      44.125  24.391  30.393  1.00  0.00    -0.354 N 
ATOM     60  N   UNL A   1      43.787  27.483  32.261  1.00  0.00    -0.248 NA
ATOM     61  C   UNL A   1      42.977  27.958  34.359  1.00  0.00     0.031 C 
ATOM     62  C   UNL A   1      45.825  25.791  30.265  1.00  0.00     0.029 A 
ATOM     63  C   UNL A   1      44.947  25.199  31.154  1.00  0.00     0.049 A 
ATOM     64  H   UNL A   1      43.426  23.809  30.768  1.00  0.00     0.167 HD
ATOM     65  C   UNL A   1      44.095  26.409  33.052  1.00  0.00     0.074 A 
ATOM     66  C   UNL A   1      43.587  26.761  34.365  1.00  0.00     0.031 C 
ATOM     67  C   UNL A   1      44.702  25.280  32.584  1.00  0.00     0.037 A 
BRANCH  54  68
ATOM     68  C   UNL A   1      43.767  22.886  27.052  1.00  0.00     0.058 A 
ATOM     69  C   UNL A   1      42.988  21.713  26.934  1.00  0.00     0.135 A 
ATOM     70  C   UNL A   1      44.879  22.926  26.187  1.00  0.00     0.135 A 
ATOM     71  F   UNL A   1      41.844  21.562  27.617  1.00  0.00    -0.206 F 
ATOM     72  C   UNL A   1      43.347  20.633  26.119  1.00  0.00     0.059 A 
ATOM     73  C   UNL A   1      45.292  21.840  25.409  1.00  0.00     0.059 A 
ATOM     74  F   UNL A   1      45.586  24.044  25.996  1.00  0.00    -0.206 F 
ATOM     75  C   UNL A   1      44.525  20.689  25.390  1.00  0.00     0.060 A 
BRANCH  75  76
ATOM     76  S   UNL A   1      45.030  19.261  24.414  1.00  0.00     0.124 S 
ATOM     77  O   UNL A   1      44.465  19.568  23.104  1.00  0.00    -0.237 OA
ATOM     78  O   UNL A   1      46.484  19.324  24.512  1.00  0.00    -0.237 OA
ATOM     79  O   UNL A   1      44.406  18.137  25.108  1.00  0.00    -0.744 OA
ENDBRANCH  75  76
ENDBRANCH  54  68
BRANCH  55  80
ATOM     80  C   UNL A   1      41.284  30.318  32.890  1.00  0.00     0.058 A 
ATOM     81  C   UNL A   1      40.172  29.509  33.206  1.00  0.00     0.135 A 
ATOM     82  C   UNL A   1      41.341  31.595  33.461  1.00  0.00     0.135 A 
ATOM     83  F   UNL A   1      40.059  28.279  32.676  1.00  0.00    -0.206 F 
ATOM     84  C   UNL A   1      39.258  29.876  34.184  1.00  0.00     0.059 A 
ATOM     85  C   UNL A   1      40.424  31.990  34.439  1.00  0.00     0.059 A 
ATOM     86  F   UNL A   1      42.371  32.411  33.194  1.00  0.00    -0.206 F 
ATOM     87  C   UNL A   1      39.436  31.089  34.843  1.00  0.00     0.060 A 
BRANCH  87  88
ATOM     88  S   UNL A   1      38.494  31.355  36.364  1.00  0.00     0.124 S 
ATOM     89  O   UNL A   1      38.129  29.991  36.732  1.00  0.00    -0.237 OA
ATOM     90  O   UNL A   1      39.495  31.991  37.220  1.00  0.00    -0.237 OA
ATOM     91  O   UNL A   1      37.396  32.210  35.932  1.00  0.00    -0.744 OA
ENDBRANCH  87  88
ENDBRANCH  55  80
BRANCH  67  92
ATOM     92  C   UNL A   1      45.089  24.137  33.477  1.00  0.00     0.058 A 
ATOM     93  C   UNL A   1      46.355  24.066  34.081  1.00  0.00     0.135 A 
ATOM     94  C   UNL A   1      44.249  23.018  33.650  1.00  0.00     0.135 A 
ATOM     95  F   UNL A   1      47.238  25.067  33.936  1.00  0.00    -0.206 F 
ATOM     96  C   UNL A   1      46.752  22.967  34.842  1.00  0.00     0.059 A 
ATOM     97  C   UNL A   1      44.641  21.890  34.365  1.00  0.00     0.059 A 
ATOM     98  F   UNL A   1      43.004  22.999  33.151  1.00  0.00    -0.206 F 
ATOM     99  C   UNL A   1      45.888  21.882  34.978  1.00  0.00     0.060 A 
BRANCH  99 100
ATOM    100  S   UNL A   1      46.401  20.447  35.941  1.00  0.00     0.124 S 
ATOM    101  O   UNL A   1      46.233  20.904  37.318  1.00  0.00    -0.237 OA
ATOM    102  O   UNL A   1      45.444  19.441  35.491  1.00  0.00    -0.237 OA
ATOM    103  O   UNL A   1      47.782  20.238  35.523  1.00  0.00    -0.744 OA
ENDBRANCH  99 100
ENDBRANCH  67  92
ENDBRANCH  41  42
ENDBRANCH  33  36
ENDBRANCH  31  32
ENDBRANCH   1  31
TORSDOF 17
ENDMDL
