MODEL 1
REMARK VINA RESULT:     -12.4      0.000      0.000
REMARK SMILES CCc1nn(-c2ccncn2)c(Cl)c1C(=O)NCCCCNC(=O)c1ccc(-c2c3nc(c(-c4c(F)cc(S(=O)(=O)[O-])cc4F)c4ccc([nH]4)c(-c4c(F)cc(S(=O)(=O)[O-])cc4F)c4nc(c(-c5c(F)cc(S(=O)(=O)[O-])cc5F)c5ccc2[nH]5)C=C4)C=C3)cc1
REMARK SMILES IDX 20 1 19 2 18 3 17 4 15 5 16 6 14 8 3 9 4 10 5 11 12 12 13 13
REMARK SMILES IDX 2 14 1 15 6 16 7 17 11 18 8 19 10 20 9 21 21 22 22 23 23 24
REMARK SMILES IDX 24 26 25 27 26 28 90 29 27 30 89 31 28 32 29 33 30 34 83 35
REMARK SMILES IDX 31 36 88 37 82 38 84 39 32 40 87 41 81 42 80 43 33 45 67 46
REMARK SMILES IDX 46 47 66 48 47 49 50 50 65 51 85 52 48 53 49 54 64 56 86 57
REMARK SMILES IDX 51 58 34 59 35 60 44 61 36 62 37 63 43 64 45 65 38 66 39 67
REMARK SMILES IDX 40 68 41 69 42 70 68 71 69 72 78 73 70 74 71 75 77 76 79 77
REMARK SMILES IDX 72 78 73 79 74 80 75 81 76 82 52 83 53 84 62 85 54 86 55 87
REMARK SMILES IDX 61 88 63 89 56 90 57 91 58 92 59 93 60 94
REMARK H PARENT 17 7 22 25 84 44 50 55
REMARK Flexibility Score: inf
ROOT
ATOM      1  C   UNL A   1      32.270  28.605  27.039  1.00  0.00     0.023 C 
ENDROOT
BRANCH   1   2
ATOM      2  C   UNL A   1      32.168  27.180  26.500  1.00  0.00     0.023 C 
BRANCH   2   3
ATOM      3  C   UNL A   1      30.797  26.516  26.509  1.00  0.00     0.116 C 
BRANCH   3   4
ATOM      4  N   UNL A   1      30.468  25.702  25.374  1.00  0.00    -0.352 N 
ATOM      5  C   UNL A   1      30.391  26.000  24.034  1.00  0.00     0.256 C 
ATOM      6  O   UNL A   1      30.092  25.036  23.324  1.00  0.00    -0.269 OA
ATOM      7  H   UNL A   1      30.261  24.765  25.594  1.00  0.00     0.163 HD
BRANCH   5   8
ATOM      8  C   UNL A   1      30.579  27.339  23.453  1.00  0.00     0.100 A 
ATOM      9  C   UNL A   1      31.675  28.083  22.885  1.00  0.00     0.077 A 
ATOM     10  N   UNL A   1      31.286  29.263  22.379  1.00  0.00    -0.169 NA
ATOM     11  N   UNL A   1      29.953  29.337  22.599  1.00  0.00    -0.203 N 
ATOM     12  C   UNL A   1      29.509  28.201  23.238  1.00  0.00     0.147 A 
ATOM     13  Cl  UNL A   1      27.827  27.947  23.493  1.00  0.00    -0.061 Cl
BRANCH   9  14
ATOM     14  C   UNL A   1      33.130  27.770  22.696  1.00  0.00     0.056 C 
ATOM     15  C   UNL A   1      34.046  28.731  23.464  1.00  0.00     0.011 C 
ENDBRANCH   9  14
BRANCH  11  16
ATOM     16  C   UNL A   1      29.240  30.506  22.182  1.00  0.00     0.158 A 
ATOM     17  C   UNL A   1      29.101  31.578  23.043  1.00  0.00     0.069 A 
ATOM     18  N   UNL A   1      28.731  30.522  20.924  1.00  0.00    -0.217 NA
ATOM     19  C   UNL A   1      28.363  32.641  22.572  1.00  0.00     0.117 A 
ATOM     20  C   UNL A   1      28.002  31.593  20.590  1.00  0.00     0.224 A 
ATOM     21  N   UNL A   1      27.789  32.671  21.358  1.00  0.00    -0.245 NA
ENDBRANCH  11  16
ENDBRANCH   5   8
ENDBRANCH   3   4
ENDBRANCH   2   3
ENDBRANCH   1   2
BRANCH   1  22
ATOM     22  C   UNL A   1      33.688  29.100  27.275  1.00  0.00     0.116 C 
BRANCH  22  23
ATOM     23  N   UNL A   1      33.876  30.526  27.001  1.00  0.00    -0.352 N 
ATOM     24  C   UNL A   1      34.864  31.355  27.519  1.00  0.00     0.251 C 
ATOM     25  H   UNL A   1      33.233  30.942  26.381  1.00  0.00     0.163 HD
ATOM     26  O   UNL A   1      34.746  32.565  27.514  1.00  0.00    -0.269 OA
BRANCH  24  27
ATOM     27  C   UNL A   1      36.076  30.712  28.068  1.00  0.00     0.039 A 
ATOM     28  C   UNL A   1      36.411  29.385  27.784  1.00  0.00     0.014 A 
ATOM     29  C   UNL A   1      36.918  31.515  28.829  1.00  0.00     0.014 A 
ATOM     30  C   UNL A   1      37.653  28.904  28.200  1.00  0.00     0.010 A 
ATOM     31  C   UNL A   1      38.197  31.102  29.075  1.00  0.00     0.010 A 
ATOM     32  C   UNL A   1      38.551  29.779  28.829  1.00  0.00    -0.014 A 
BRANCH  32  33
ATOM     33  C   UNL A   1      39.926  29.389  29.132  1.00  0.00     0.031 A 
ATOM     34  C   UNL A   1      40.223  29.300  30.591  1.00  0.00     0.074 A 
ATOM     35  C   UNL A   1      40.731  28.865  28.178  1.00  0.00     0.049 A 
ATOM     36  N   UNL A   1      41.028  30.031  31.291  1.00  0.00    -0.248 NA
ATOM     37  C   UNL A   1      39.393  28.398  31.411  1.00  0.00     0.031 C 
ATOM     38  C   UNL A   1      40.386  28.598  26.772  1.00  0.00     0.029 A 
ATOM     39  N   UNL A   1      41.974  28.320  28.276  1.00  0.00    -0.354 N 
ATOM     40  C   UNL A   1      41.006  29.489  32.577  1.00  0.00     0.074 A 
ATOM     41  C   UNL A   1      39.820  28.681  32.643  1.00  0.00     0.031 C 
ATOM     42  C   UNL A   1      41.268  27.728  26.239  1.00  0.00     0.029 A 
ATOM     43  C   UNL A   1      42.339  27.522  27.193  1.00  0.00     0.049 A 
ATOM     44  H   UNL A   1      42.566  28.478  29.047  1.00  0.00     0.167 HD
ATOM     45  C   UNL A   1      42.124  29.491  33.358  1.00  0.00     0.037 A 
ATOM     46  C   UNL A   1      43.435  26.728  27.088  1.00  0.00     0.037 A 
ATOM     47  C   UNL A   1      43.112  30.389  32.810  1.00  0.00     0.049 A 
ATOM     48  C   UNL A   1      44.406  27.206  28.101  1.00  0.00     0.074 A 
ATOM     49  C   UNL A   1      43.203  31.745  32.578  1.00  0.00     0.029 A 
ATOM     50  N   UNL A   1      44.081  29.789  32.045  1.00  0.00    -0.354 N 
ATOM     51  N   UNL A   1      44.961  28.387  28.070  1.00  0.00    -0.248 NA
ATOM     52  C   UNL A   1      44.447  26.535  29.390  1.00  0.00     0.031 C 
ATOM     53  C   UNL A   1      43.993  31.875  31.398  1.00  0.00     0.029 A 
ATOM     54  C   UNL A   1      44.409  30.603  30.995  1.00  0.00     0.049 A 
ATOM     55  H   UNL A   1      44.481  28.908  32.223  1.00  0.00     0.167 HD
ATOM     56  C   UNL A   1      45.024  28.782  29.397  1.00  0.00     0.074 A 
ATOM     57  C   UNL A   1      44.835  27.554  30.163  1.00  0.00     0.031 C 
ATOM     58  C   UNL A   1      44.917  30.103  29.733  1.00  0.00     0.037 A 
BRANCH  45  59
ATOM     59  C   UNL A   1      42.534  28.370  34.307  1.00  0.00     0.058 A 
ATOM     60  C   UNL A   1      42.675  28.667  35.683  1.00  0.00     0.135 A 
ATOM     61  C   UNL A   1      43.087  27.133  33.905  1.00  0.00     0.135 A 
ATOM     62  F   UNL A   1      42.178  29.805  36.192  1.00  0.00    -0.206 F 
ATOM     63  C   UNL A   1      43.402  27.856  36.559  1.00  0.00     0.059 A 
ATOM     64  C   UNL A   1      43.770  26.287  34.772  1.00  0.00     0.059 A 
ATOM     65  F   UNL A   1      43.080  26.714  32.637  1.00  0.00    -0.206 F 
ATOM     66  C   UNL A   1      43.965  26.677  36.086  1.00  0.00     0.060 A 
BRANCH  66  67
ATOM     67  S   UNL A   1      44.996  25.682  37.176  1.00  0.00     0.124 S 
ATOM     68  O   UNL A   1      46.332  26.034  36.712  1.00  0.00    -0.237 OA
ATOM     69  O   UNL A   1      44.618  26.187  38.491  1.00  0.00    -0.237 OA
ATOM     70  O   UNL A   1      44.567  24.316  36.888  1.00  0.00    -0.744 OA
ENDBRANCH  66  67
ENDBRANCH  45  59
BRANCH  46  71
ATOM     71  C   UNL A   1      43.568  25.422  26.386  1.00  0.00     0.058 A 
ATOM     72  C   UNL A   1      44.511  25.224  25.363  1.00  0.00     0.135 A 
ATOM     73  C   UNL A   1      42.952  24.260  26.894  1.00  0.00     0.135 A 
ATOM     74  F   UNL A   1      45.166  26.270  24.838  1.00  0.00    -0.206 F 
ATOM     75  C   UNL A   1      44.850  23.946  24.895  1.00  0.00     0.059 A 
ATOM     76  C   UNL A   1      43.268  22.979  26.440  1.00  0.00     0.059 A 
ATOM     77  F   UNL A   1      42.082  24.333  27.913  1.00  0.00    -0.206 F 
ATOM     78  C   UNL A   1      44.234  22.827  25.454  1.00  0.00     0.060 A 
BRANCH  78  79
ATOM     79  S   UNL A   1      44.774  21.171  24.959  1.00  0.00     0.124 S 
ATOM     80  O   UNL A   1      43.805  20.320  25.643  1.00  0.00    -0.237 OA
ATOM     81  O   UNL A   1      44.657  21.228  23.507  1.00  0.00    -0.237 OA
ATOM     82  O   UNL A   1      46.141  21.093  25.470  1.00  0.00    -0.744 OA
ENDBRANCH  78  79
ENDBRANCH  46  71
BRANCH  58  83
ATOM     83  C   UNL A   1      45.185  31.126  28.659  1.00  0.00     0.058 A 
ATOM     84  C   UNL A   1      44.216  31.680  27.805  1.00  0.00     0.135 A 
ATOM     85  C   UNL A   1      46.480  31.661  28.588  1.00  0.00     0.135 A 
ATOM     86  F   UNL A   1      42.935  31.294  27.871  1.00  0.00    -0.206 F 
ATOM     87  C   UNL A   1      44.531  32.694  26.897  1.00  0.00     0.059 A 
ATOM     88  C   UNL A   1      46.809  32.693  27.716  1.00  0.00     0.059 A 
ATOM     89  F   UNL A   1      47.439  31.213  29.417  1.00  0.00    -0.206 F 
ATOM     90  C   UNL A   1      45.831  33.197  26.863  1.00  0.00     0.060 A 
BRANCH  90  91
ATOM     91  S   UNL A   1      46.225  34.556  25.741  1.00  0.00     0.124 S 
ATOM     92  O   UNL A   1      45.347  34.284  24.609  1.00  0.00    -0.237 OA
ATOM     93  O   UNL A   1      45.889  35.733  26.537  1.00  0.00    -0.237 OA
ATOM     94  O   UNL A   1      47.652  34.380  25.479  1.00  0.00    -0.744 OA
ENDBRANCH  90  91
ENDBRANCH  58  83
ENDBRANCH  32  33
ENDBRANCH  24  27
ENDBRANCH  22  23
ENDBRANCH   1  22
TORSDOF 16
ENDMDL
MODEL 2
REMARK VINA RESULT:     -12.3      4.311     10.193
REMARK SMILES CCc1nn(-c2ccncn2)c(Cl)c1C(=O)NCCCCNC(=O)c1ccc(-c2c3nc(c(-c4c(F)cc(S(=O)(=O)[O-])cc4F)c4ccc([nH]4)c(-c4c(F)cc(S(=O)(=O)[O-])cc4F)c4nc(c(-c5c(F)cc(S(=O)(=O)[O-])cc5F)c5ccc2[nH]5)C=C4)C=C3)cc1
REMARK SMILES IDX 20 1 19 2 18 3 17 4 15 5 16 6 14 8 3 9 4 10 5 11 12 12 13 13
REMARK SMILES IDX 2 14 1 15 6 16 7 17 11 18 8 19 10 20 9 21 21 22 22 23 23 24
REMARK SMILES IDX 24 26 25 27 26 28 90 29 27 30 89 31 28 32 29 33 30 34 83 35
REMARK SMILES IDX 31 36 88 37 82 38 84 39 32 40 87 41 81 42 80 43 33 45 67 46
REMARK SMILES IDX 46 47 66 48 47 49 50 50 65 51 85 52 48 53 49 54 64 56 86 57
REMARK SMILES IDX 51 58 34 59 35 60 44 61 36 62 37 63 43 64 45 65 38 66 39 67
REMARK SMILES IDX 40 68 41 69 42 70 68 71 69 72 78 73 70 74 71 75 77 76 79 77
REMARK SMILES IDX 72 78 73 79 74 80 75 81 76 82 52 83 53 84 62 85 54 86 55 87
REMARK SMILES IDX 61 88 63 89 56 90 57 91 58 92 59 93 60 94
REMARK H PARENT 17 7 22 25 84 44 50 55
REMARK Flexibility Score: inf
ROOT
ATOM      1  C   UNL A   1      36.547  22.501  24.351  1.00  0.00     0.023 C 
ENDROOT
BRANCH   1   2
ATOM      2  C   UNL A   1      35.861  23.530  23.455  1.00  0.00     0.023 C 
BRANCH   2   3
ATOM      3  C   UNL A   1      34.747  24.371  24.067  1.00  0.00     0.116 C 
BRANCH   3   4
ATOM      4  N   UNL A   1      33.413  24.103  23.611  1.00  0.00    -0.352 N 
ATOM      5  C   UNL A   1      32.575  23.035  23.831  1.00  0.00     0.256 C 
ATOM      6  O   UNL A   1      31.472  23.146  23.289  1.00  0.00    -0.269 OA
ATOM      7  H   UNL A   1      33.032  24.807  23.039  1.00  0.00     0.163 HD
BRANCH   5   8
ATOM      8  C   UNL A   1      32.930  21.823  24.586  1.00  0.00     0.100 A 
ATOM      9  C   UNL A   1      33.300  21.512  25.943  1.00  0.00     0.077 A 
ATOM     10  N   UNL A   1      33.417  20.192  26.154  1.00  0.00    -0.169 NA
ATOM     11  N   UNL A   1      33.141  19.604  24.966  1.00  0.00    -0.203 N 
ATOM     12  C   UNL A   1      32.847  20.556  24.016  1.00  0.00     0.147 A 
ATOM     13  Cl  UNL A   1      32.295  20.088  22.456  1.00  0.00    -0.061 Cl
BRANCH   9  14
ATOM     14  C   UNL A   1      33.513  22.361  27.161  1.00  0.00     0.056 C 
ATOM     15  C   UNL A   1      32.574  23.573  27.210  1.00  0.00     0.011 C 
ENDBRANCH   9  14
BRANCH  11  16
ATOM     16  C   UNL A   1      33.202  18.177  24.863  1.00  0.00     0.158 A 
ATOM     17  C   UNL A   1      32.461  17.387  25.722  1.00  0.00     0.069 A 
ATOM     18  N   UNL A   1      33.989  17.646  23.893  1.00  0.00    -0.217 NA
ATOM     19  C   UNL A   1      32.615  16.027  25.577  1.00  0.00     0.117 A 
ATOM     20  C   UNL A   1      34.089  16.312  23.873  1.00  0.00     0.224 A 
ATOM     21  N   UNL A   1      33.432  15.460  24.673  1.00  0.00    -0.245 NA
ENDBRANCH  11  16
ENDBRANCH   5   8
ENDBRANCH   3   4
ENDBRANCH   2   3
ENDBRANCH   1   2
BRANCH   1  22
ATOM     22  C   UNL A   1      37.480  23.087  25.399  1.00  0.00     0.116 C 
BRANCH  22  23
ATOM     23  N   UNL A   1      38.232  22.084  26.155  1.00  0.00    -0.352 N 
ATOM     24  C   UNL A   1      39.431  22.274  26.835  1.00  0.00     0.251 C 
ATOM     25  H   UNL A   1      37.847  21.179  26.187  1.00  0.00     0.163 HD
ATOM     26  O   UNL A   1      40.145  21.338  27.136  1.00  0.00    -0.269 OA
BRANCH  24  27
ATOM     27  C   UNL A   1      39.802  23.659  27.190  1.00  0.00     0.039 A 
ATOM     28  C   UNL A   1      38.874  24.704  27.191  1.00  0.00     0.014 A 
ATOM     29  C   UNL A   1      41.113  23.867  27.602  1.00  0.00     0.014 A 
ATOM     30  C   UNL A   1      39.261  25.944  27.701  1.00  0.00     0.010 A 
ATOM     31  C   UNL A   1      41.435  25.020  28.262  1.00  0.00     0.010 A 
ATOM     32  C   UNL A   1      40.541  26.087  28.255  1.00  0.00    -0.014 A 
BRANCH  32  33
ATOM     33  C   UNL A   1      40.948  27.301  28.959  1.00  0.00     0.031 A 
ATOM     34  C   UNL A   1      42.088  28.019  28.319  1.00  0.00     0.074 A 
ATOM     35  C   UNL A   1      40.158  27.859  29.905  1.00  0.00     0.049 A 
ATOM     36  N   UNL A   1      43.282  28.203  28.782  1.00  0.00    -0.248 NA
ATOM     37  C   UNL A   1      41.937  28.439  26.912  1.00  0.00     0.031 C 
ATOM     38  C   UNL A   1      38.836  27.387  30.350  1.00  0.00     0.029 A 
ATOM     39  N   UNL A   1      40.280  29.040  30.572  1.00  0.00    -0.354 N 
ATOM     40  C   UNL A   1      43.932  29.001  27.840  1.00  0.00     0.074 A 
ATOM     41  C   UNL A   1      43.161  28.891  26.632  1.00  0.00     0.031 C 
ATOM     42  C   UNL A   1      38.184  28.381  30.989  1.00  0.00     0.029 A 
ATOM     43  C   UNL A   1      39.101  29.489  31.166  1.00  0.00     0.049 A 
ATOM     44  H   UNL A   1      41.129  29.534  30.629  1.00  0.00     0.167 HD
ATOM     45  C   UNL A   1      44.853  29.930  28.224  1.00  0.00     0.037 A 
ATOM     46  C   UNL A   1      38.881  30.694  31.748  1.00  0.00     0.037 A 
ATOM     47  C   UNL A   1      45.253  29.699  29.592  1.00  0.00     0.049 A 
ATOM     48  C   UNL A   1      40.212  31.264  32.065  1.00  0.00     0.074 A 
ATOM     49  C   UNL A   1      45.896  28.692  30.282  1.00  0.00     0.029 A 
ATOM     50  N   UNL A   1      44.609  30.472  30.525  1.00  0.00    -0.354 N 
ATOM     51  N   UNL A   1      41.042  30.732  32.922  1.00  0.00    -0.248 NA
ATOM     52  C   UNL A   1      40.809  32.195  31.121  1.00  0.00     0.031 C 
ATOM     53  C   UNL A   1      45.311  28.692  31.583  1.00  0.00     0.029 A 
ATOM     54  C   UNL A   1      44.387  29.738  31.657  1.00  0.00     0.049 A 
ATOM     55  H   UNL A   1      44.348  31.412  30.399  1.00  0.00     0.167 HD
ATOM     56  C   UNL A   1      42.295  30.914  32.359  1.00  0.00     0.074 A 
ATOM     57  C   UNL A   1      42.102  31.941  31.339  1.00  0.00     0.031 C 
ATOM     58  C   UNL A   1      43.289  29.999  32.568  1.00  0.00     0.037 A 
BRANCH  45  59
ATOM     59  C   UNL A   1      45.038  31.301  27.583  1.00  0.00     0.058 A 
ATOM     60  C   UNL A   1      46.273  31.594  26.958  1.00  0.00     0.135 A 
ATOM     61  C   UNL A   1      44.210  32.422  27.819  1.00  0.00     0.135 A 
ATOM     62  F   UNL A   1      47.141  30.613  26.665  1.00  0.00    -0.206 F 
ATOM     63  C   UNL A   1      46.693  32.900  26.693  1.00  0.00     0.059 A 
ATOM     64  C   UNL A   1      44.588  33.726  27.517  1.00  0.00     0.059 A 
ATOM     65  F   UNL A   1      43.029  32.333  28.438  1.00  0.00    -0.206 F 
ATOM     66  C   UNL A   1      45.849  33.962  26.998  1.00  0.00     0.060 A 
BRANCH  66  67
ATOM     67  S   UNL A   1      46.424  35.652  26.766  1.00  0.00     0.124 S 
ATOM     68  O   UNL A   1      47.069  35.562  25.462  1.00  0.00    -0.237 OA
ATOM     69  O   UNL A   1      45.176  36.405  26.815  1.00  0.00    -0.237 OA
ATOM     70  O   UNL A   1      47.320  35.860  27.901  1.00  0.00    -0.744 OA
ENDBRANCH  66  67
ENDBRANCH  45  59
BRANCH  46  71
ATOM     71  C   UNL A   1      37.627  31.496  31.771  1.00  0.00     0.058 A 
ATOM     72  C   UNL A   1      36.922  31.734  32.964  1.00  0.00     0.135 A 
ATOM     73  C   UNL A   1      37.243  32.273  30.659  1.00  0.00     0.135 A 
ATOM     74  F   UNL A   1      37.238  31.060  34.079  1.00  0.00    -0.206 F 
ATOM     75  C   UNL A   1      35.918  32.709  33.058  1.00  0.00     0.059 A 
ATOM     76  C   UNL A   1      36.243  33.244  30.727  1.00  0.00     0.059 A 
ATOM     77  F   UNL A   1      37.892  32.167  29.489  1.00  0.00    -0.206 F 
ATOM     78  C   UNL A   1      35.598  33.472  31.935  1.00  0.00     0.060 A 
BRANCH  78  79
ATOM     79  S   UNL A   1      34.410  34.830  32.089  1.00  0.00     0.124 S 
ATOM     80  O   UNL A   1      33.336  34.207  32.856  1.00  0.00    -0.237 OA
ATOM     81  O   UNL A   1      35.188  35.844  32.791  1.00  0.00    -0.237 OA
ATOM     82  O   UNL A   1      34.080  35.150  30.703  1.00  0.00    -0.744 OA
ENDBRANCH  78  79
ENDBRANCH  46  71
BRANCH  58  83
ATOM     83  C   UNL A   1      43.151  29.069  33.746  1.00  0.00     0.058 A 
ATOM     84  C   UNL A   1      43.388  29.416  35.087  1.00  0.00     0.135 A 
ATOM     85  C   UNL A   1      42.623  27.793  33.500  1.00  0.00     0.135 A 
ATOM     86  F   UNL A   1      43.804  30.645  35.420  1.00  0.00    -0.206 F 
ATOM     87  C   UNL A   1      43.145  28.520  36.131  1.00  0.00     0.059 A 
ATOM     88  C   UNL A   1      42.342  26.896  34.526  1.00  0.00     0.059 A 
ATOM     89  F   UNL A   1      42.321  27.421  32.244  1.00  0.00    -0.206 F 
ATOM     90  C   UNL A   1      42.619  27.263  35.840  1.00  0.00     0.060 A 
BRANCH  90  91
ATOM     91  S   UNL A   1      42.237  26.128  37.192  1.00  0.00     0.124 S 
ATOM     92  O   UNL A   1      40.844  26.451  37.480  1.00  0.00    -0.237 OA
ATOM     93  O   UNL A   1      42.474  24.821  36.587  1.00  0.00    -0.237 OA
ATOM     94  O   UNL A   1      43.191  26.503  38.233  1.00  0.00    -0.744 OA
ENDBRANCH  90  91
ENDBRANCH  58  83
ENDBRANCH  32  33
ENDBRANCH  24  27
ENDBRANCH  22  23
ENDBRANCH   1  22
TORSDOF 16
ENDMDL
MODEL 3
REMARK VINA RESULT:     -12.0      2.490      4.121
REMARK SMILES CCc1nn(-c2ccncn2)c(Cl)c1C(=O)NCCCCNC(=O)c1ccc(-c2c3nc(c(-c4c(F)cc(S(=O)(=O)[O-])cc4F)c4ccc([nH]4)c(-c4c(F)cc(S(=O)(=O)[O-])cc4F)c4nc(c(-c5c(F)cc(S(=O)(=O)[O-])cc5F)c5ccc2[nH]5)C=C4)C=C3)cc1
REMARK SMILES IDX 20 1 19 2 18 3 17 4 15 5 16 6 14 8 3 9 4 10 5 11 12 12 13 13
REMARK SMILES IDX 2 14 1 15 6 16 7 17 11 18 8 19 10 20 9 21 21 22 22 23 23 24
REMARK SMILES IDX 24 26 25 27 26 28 90 29 27 30 89 31 28 32 29 33 30 34 83 35
REMARK SMILES IDX 31 36 88 37 82 38 84 39 32 40 87 41 81 42 80 43 33 45 67 46
REMARK SMILES IDX 46 47 66 48 47 49 50 50 65 51 85 52 48 53 49 54 64 56 86 57
REMARK SMILES IDX 51 58 34 59 35 60 44 61 36 62 37 63 43 64 45 65 38 66 39 67
REMARK SMILES IDX 40 68 41 69 42 70 68 71 69 72 78 73 70 74 71 75 77 76 79 77
REMARK SMILES IDX 72 78 73 79 74 80 75 81 76 82 52 83 53 84 62 85 54 86 55 87
REMARK SMILES IDX 61 88 63 89 56 90 57 91 58 92 59 93 60 94
REMARK H PARENT 17 7 22 25 84 44 50 55
REMARK Flexibility Score: inf
ROOT
ATOM      1  C   UNL A   1      32.802  28.391  26.943  1.00  0.00     0.023 C 
ENDROOT
BRANCH   1   2
ATOM      2  C   UNL A   1      32.662  27.017  26.291  1.00  0.00     0.023 C 
BRANCH   2   3
ATOM      3  C   UNL A   1      31.257  26.534  25.954  1.00  0.00     0.116 C 
BRANCH   3   4
ATOM      4  N   UNL A   1      30.784  25.381  26.667  1.00  0.00    -0.352 N 
ATOM      5  C   UNL A   1      31.173  24.063  26.624  1.00  0.00     0.256 C 
ATOM      6  O   UNL A   1      30.551  23.333  27.399  1.00  0.00    -0.269 OA
ATOM      7  H   UNL A   1      30.052  25.568  27.298  1.00  0.00     0.163 HD
BRANCH   5   8
ATOM      8  C   UNL A   1      32.190  23.511  25.714  1.00  0.00     0.100 A 
ATOM      9  C   UNL A   1      32.415  23.494  24.291  1.00  0.00     0.077 A 
ATOM     10  N   UNL A   1      33.589  22.934  23.964  1.00  0.00    -0.169 NA
ATOM     11  N   UNL A   1      34.159  22.563  25.134  1.00  0.00    -0.203 N 
ATOM     12  C   UNL A   1      33.344  22.897  26.191  1.00  0.00     0.147 A 
ATOM     13  Cl  UNL A   1      33.890  22.696  27.810  1.00  0.00    -0.061 Cl
BRANCH   9  14
ATOM     14  C   UNL A   1      31.633  24.033  23.129  1.00  0.00     0.056 C 
ATOM     15  C   UNL A   1      32.403  25.100  22.341  1.00  0.00     0.011 C 
ENDBRANCH   9  14
BRANCH  11  16
ATOM     16  C   UNL A   1      35.433  21.910  25.114  1.00  0.00     0.158 A 
ATOM     17  C   UNL A   1      36.594  22.650  25.229  1.00  0.00     0.069 A 
ATOM     18  N   UNL A   1      35.448  20.558  24.998  1.00  0.00    -0.217 NA
ATOM     19  C   UNL A   1      37.772  21.942  25.157  1.00  0.00     0.117 A 
ATOM     20  C   UNL A   1      36.653  19.983  24.901  1.00  0.00     0.224 A 
ATOM     21  N   UNL A   1      37.834  20.611  24.979  1.00  0.00    -0.245 NA
ENDBRANCH  11  16
ENDBRANCH   5   8
ENDBRANCH   3   4
ENDBRANCH   2   3
ENDBRANCH   1   2
BRANCH   1  22
ATOM     22  C   UNL A   1      34.151  29.062  26.738  1.00  0.00     0.116 C 
BRANCH  22  23
ATOM     23  N   UNL A   1      34.113  30.522  26.833  1.00  0.00    -0.352 N 
ATOM     24  C   UNL A   1      34.869  31.326  27.678  1.00  0.00     0.251 C 
ATOM     25  H   UNL A   1      33.484  30.984  26.233  1.00  0.00     0.163 HD
ATOM     26  O   UNL A   1      34.538  32.467  27.934  1.00  0.00    -0.269 OA
BRANCH  24  27
ATOM     27  C   UNL A   1      36.103  30.746  28.249  1.00  0.00     0.039 A 
ATOM     28  C   UNL A   1      36.370  29.375  28.212  1.00  0.00     0.014 A 
ATOM     29  C   UNL A   1      37.032  31.642  28.764  1.00  0.00     0.014 A 
ATOM     30  C   UNL A   1      37.627  28.925  28.617  1.00  0.00     0.010 A 
ATOM     31  C   UNL A   1      38.315  31.224  28.988  1.00  0.00     0.010 A 
ATOM     32  C   UNL A   1      38.603  29.863  28.985  1.00  0.00    -0.014 A 
BRANCH  32  33
ATOM     33  C   UNL A   1      39.987  29.474  29.252  1.00  0.00     0.031 A 
ATOM     34  C   UNL A   1      40.325  29.395  30.702  1.00  0.00     0.074 A 
ATOM     35  C   UNL A   1      40.764  28.944  28.279  1.00  0.00     0.049 A 
ATOM     36  N   UNL A   1      41.149  30.130  31.375  1.00  0.00    -0.248 NA
ATOM     37  C   UNL A   1      39.518  28.498  31.551  1.00  0.00     0.031 C 
ATOM     38  C   UNL A   1      40.379  28.668  26.885  1.00  0.00     0.029 A 
ATOM     39  N   UNL A   1      42.009  28.399  28.345  1.00  0.00    -0.354 N 
ATOM     40  C   UNL A   1      41.163  29.596  32.664  1.00  0.00     0.074 A 
ATOM     41  C   UNL A   1      39.980  28.789  32.769  1.00  0.00     0.031 C 
ATOM     42  C   UNL A   1      41.245  27.794  26.333  1.00  0.00     0.029 A 
ATOM     43  C   UNL A   1      42.343  27.594  27.257  1.00  0.00     0.049 A 
ATOM     44  H   UNL A   1      42.623  28.561  29.098  1.00  0.00     0.167 HD
ATOM     45  C   UNL A   1      42.303  29.602  33.413  1.00  0.00     0.037 A 
ATOM     46  C   UNL A   1      43.435  26.799  27.126  1.00  0.00     0.037 A 
ATOM     47  C   UNL A   1      43.276  30.496  32.831  1.00  0.00     0.049 A 
ATOM     48  C   UNL A   1      44.434  27.283  28.108  1.00  0.00     0.074 A 
ATOM     49  C   UNL A   1      43.360  31.851  32.589  1.00  0.00     0.029 A 
ATOM     50  N   UNL A   1      44.223  29.892  32.043  1.00  0.00    -0.354 N 
ATOM     51  N   UNL A   1      44.989  28.464  28.054  1.00  0.00    -0.248 NA
ATOM     52  C   UNL A   1      44.512  26.621  29.400  1.00  0.00     0.031 C 
ATOM     53  C   UNL A   1      44.116  31.974  31.385  1.00  0.00     0.029 A 
ATOM     54  C   UNL A   1      44.520  30.699  30.979  1.00  0.00     0.049 A 
ATOM     55  H   UNL A   1      44.627  29.011  32.216  1.00  0.00     0.167 HD
ATOM     56  C   UNL A   1      45.089  28.868  29.375  1.00  0.00     0.074 A 
ATOM     57  C   UNL A   1      44.922  27.644  30.154  1.00  0.00     0.031 C 
ATOM     58  C   UNL A   1      44.993  30.191  29.706  1.00  0.00     0.037 A 
BRANCH  45  59
ATOM     59  C   UNL A   1      42.740  28.488  34.357  1.00  0.00     0.058 A 
ATOM     60  C   UNL A   1      43.006  28.812  35.708  1.00  0.00     0.135 A 
ATOM     61  C   UNL A   1      43.204  27.217  33.947  1.00  0.00     0.135 A 
ATOM     62  F   UNL A   1      42.602  29.984  36.223  1.00  0.00    -0.206 F 
ATOM     63  C   UNL A   1      43.765  27.990  36.546  1.00  0.00     0.059 A 
ATOM     64  C   UNL A   1      43.918  26.362  34.780  1.00  0.00     0.059 A 
ATOM     65  F   UNL A   1      43.075  26.767  32.695  1.00  0.00    -0.206 F 
ATOM     66  C   UNL A   1      44.236  26.775  36.062  1.00  0.00     0.060 A 
BRANCH  66  67
ATOM     67  S   UNL A   1      45.308  25.760  37.093  1.00  0.00     0.124 S 
ATOM     68  O   UNL A   1      44.589  24.493  37.101  1.00  0.00    -0.237 OA
ATOM     69  O   UNL A   1      46.559  25.785  36.343  1.00  0.00    -0.237 OA
ATOM     70  O   UNL A   1      45.331  26.482  38.362  1.00  0.00    -0.744 OA
ENDBRANCH  66  67
ENDBRANCH  45  59
BRANCH  46  71
ATOM     71  C   UNL A   1      43.548  25.489  26.429  1.00  0.00     0.058 A 
ATOM     72  C   UNL A   1      44.455  25.286  25.374  1.00  0.00     0.135 A 
ATOM     73  C   UNL A   1      42.955  24.328  26.967  1.00  0.00     0.135 A 
ATOM     74  F   UNL A   1      45.086  26.331  24.819  1.00  0.00    -0.206 F 
ATOM     75  C   UNL A   1      44.782  24.007  24.903  1.00  0.00     0.059 A 
ATOM     76  C   UNL A   1      43.260  23.045  26.511  1.00  0.00     0.059 A 
ATOM     77  F   UNL A   1      42.122  24.405  28.016  1.00  0.00    -0.206 F 
ATOM     78  C   UNL A   1      44.190  22.889  25.492  1.00  0.00     0.060 A 
BRANCH  78  79
ATOM     79  S   UNL A   1      44.719  21.232  24.990  1.00  0.00     0.124 S 
ATOM     80  O   UNL A   1      46.079  21.175  25.516  1.00  0.00    -0.237 OA
ATOM     81  O   UNL A   1      43.742  20.380  25.658  1.00  0.00    -0.237 OA
ATOM     82  O   UNL A   1      44.617  21.270  23.533  1.00  0.00    -0.744 OA
ENDBRANCH  78  79
ENDBRANCH  46  71
BRANCH  58  83
ATOM     83  C   UNL A   1      45.230  31.206  28.618  1.00  0.00     0.058 A 
ATOM     84  C   UNL A   1      44.249  31.706  27.745  1.00  0.00     0.135 A 
ATOM     85  C   UNL A   1      46.503  31.793  28.553  1.00  0.00     0.135 A 
ATOM     86  F   UNL A   1      42.984  31.268  27.803  1.00  0.00    -0.206 F 
ATOM     87  C   UNL A   1      44.532  32.718  26.824  1.00  0.00     0.059 A 
ATOM     88  C   UNL A   1      46.798  32.825  27.667  1.00  0.00     0.059 A 
ATOM     89  F   UNL A   1      47.470  31.399  29.399  1.00  0.00    -0.206 F 
ATOM     90  C   UNL A   1      45.810  33.273  26.795  1.00  0.00     0.060 A 
BRANCH  90  91
ATOM     91  S   UNL A   1      46.161  34.629  25.656  1.00  0.00     0.124 S 
ATOM     92  O   UNL A   1      45.257  34.341  24.548  1.00  0.00    -0.237 OA
ATOM     93  O   UNL A   1      45.832  35.808  26.453  1.00  0.00    -0.237 OA
ATOM     94  O   UNL A   1      47.582  34.467  25.359  1.00  0.00    -0.744 OA
ENDBRANCH  90  91
ENDBRANCH  58  83
ENDBRANCH  32  33
ENDBRANCH  24  27
ENDBRANCH  22  23
ENDBRANCH   1  22
TORSDOF 16
ENDMDL
