MODEL 1
REMARK VINA RESULT:     -12.4      0.000      0.000
REMARK SMILES O=C(NCCCCNC(=O)[C@H]1C[C@](O)(c2ccc(Cl)cc2)[C@@H](c2ccc(Cl)cc2)O1)c1ccc(-c2c3nc(c(-c4c(F)cc(S(=O)(=O)[O-])cc4F)c4ccc([nH]4)c(-c4c(F)cc(S(=O)(=O)[O-])cc4F)c4nc(c(-c5c(F)cc(S(=O)(=O)[O-])cc5F)c5ccc2[nH]5)C=C4)C=C3)cc1
REMARK SMILES IDX 4 1 3 2 1 3 2 4 31 6 32 7 96 8 33 9 95 10 34 11 35 12 36 13
REMARK SMILES IDX 89 14 37 15 94 16 88 17 90 18 38 19 93 20 87 21 86 22 39 24
REMARK SMILES IDX 73 25 52 26 72 27 53 28 56 29 71 30 91 31 54 32 55 33 70 35
REMARK SMILES IDX 92 36 57 37 40 38 41 39 50 40 42 41 43 42 49 43 51 44 44 45
REMARK SMILES IDX 45 46 46 47 47 48 48 49 74 50 75 51 84 52 76 53 77 54 83 55
REMARK SMILES IDX 85 56 78 57 79 58 80 59 81 60 82 61 58 62 59 63 68 64 60 65
REMARK SMILES IDX 61 66 67 67 69 68 62 69 63 70 64 71 65 72 66 73 5 74 6 75
REMARK SMILES IDX 7 76 8 77 9 78 10 80 11 81 12 82 30 83 13 84 22 85 15 86
REMARK SMILES IDX 16 87 21 88 17 89 20 90 18 91 19 92 14 93 23 95 24 96 29 97
REMARK SMILES IDX 25 98 28 99 26 100 27 101
REMARK H PARENT 3 5 90 23 56 34 8 79 14 94
REMARK Flexibility Score: inf
ROOT
ATOM      1  C   UNL A   1      42.967  23.551  27.144  1.00  0.00     0.116 C 
ENDROOT
BRANCH   1   2
ATOM      2  N   UNL A   1      42.366  24.230  26.006  1.00  0.00    -0.352 N 
ATOM      3  O   UNL A   1      41.169  25.877  25.010  1.00  0.00    -0.269 OA
ATOM      4  C   UNL A   1      41.700  25.442  26.012  1.00  0.00     0.251 C 
ATOM      5  H   UNL A   1      42.440  23.775  25.136  1.00  0.00     0.163 HD
BRANCH   4   6
ATOM      6  C   UNL A   1      41.624  26.171  27.298  1.00  0.00     0.039 A 
ATOM      7  C   UNL A   1      40.553  25.935  28.160  1.00  0.00     0.014 A 
ATOM      8  C   UNL A   1      42.560  27.170  27.576  1.00  0.00     0.014 A 
ATOM      9  C   UNL A   1      40.332  26.801  29.223  1.00  0.00     0.010 A 
ATOM     10  C   UNL A   1      42.383  27.984  28.699  1.00  0.00     0.010 A 
ATOM     11  C   UNL A   1      41.247  27.830  29.510  1.00  0.00    -0.014 A 
BRANCH  11  12
ATOM     12  C   UNL A   1      41.015  28.680  30.705  1.00  0.00     0.031 A 
ATOM     13  C   UNL A   1      41.898  28.593  31.921  1.00  0.00     0.074 A 
ATOM     14  C   UNL A   1      40.017  29.583  30.651  1.00  0.00     0.049 A 
ATOM     15  N   UNL A   1      41.841  29.292  33.026  1.00  0.00    -0.248 NA
ATOM     16  C   UNL A   1      42.978  27.594  31.902  1.00  0.00     0.031 C 
ATOM     17  C   UNL A   1      39.086  29.741  29.528  1.00  0.00     0.029 A 
ATOM     18  N   UNL A   1      39.631  30.554  31.537  1.00  0.00    -0.354 N 
ATOM     19  C   UNL A   1      42.859  28.810  33.841  1.00  0.00     0.074 A 
ATOM     20  C   UNL A   1      43.511  27.745  33.109  1.00  0.00     0.031 C 
ATOM     21  C   UNL A   1      38.280  30.783  29.766  1.00  0.00     0.029 A 
ATOM     22  C   UNL A   1      38.589  31.326  31.083  1.00  0.00     0.049 A 
ATOM     23  H   UNL A   1      40.058  30.686  32.414  1.00  0.00     0.167 HD
ATOM     24  C   UNL A   1      43.216  29.224  35.081  1.00  0.00     0.037 A 
ATOM     25  C   UNL A   1      37.940  32.350  31.665  1.00  0.00     0.037 A 
ATOM     26  C   UNL A   1      42.569  30.301  35.793  1.00  0.00     0.049 A 
ATOM     27  C   UNL A   1      38.366  32.794  33.032  1.00  0.00     0.074 A 
ATOM     28  C   UNL A   1      42.865  30.802  37.050  1.00  0.00     0.029 A 
ATOM     29  N   UNL A   1      41.504  31.046  35.309  1.00  0.00    -0.354 N 
ATOM     30  N   UNL A   1      39.331  32.321  33.785  1.00  0.00    -0.248 NA
ATOM     31  C   UNL A   1      37.613  33.901  33.633  1.00  0.00     0.031 C 
ATOM     32  C   UNL A   1      41.961  31.832  37.336  1.00  0.00     0.029 A 
ATOM     33  C   UNL A   1      41.125  31.996  36.243  1.00  0.00     0.049 A 
ATOM     34  H   UNL A   1      41.081  30.919  34.429  1.00  0.00     0.167 HD
ATOM     35  C   UNL A   1      39.297  33.070  34.954  1.00  0.00     0.074 A 
ATOM     36  C   UNL A   1      38.241  34.050  34.791  1.00  0.00     0.031 C 
ATOM     37  C   UNL A   1      40.061  32.951  36.066  1.00  0.00     0.037 A 
BRANCH  24  38
ATOM     38  C   UNL A   1      44.353  28.515  35.766  1.00  0.00     0.058 A 
ATOM     39  C   UNL A   1      45.669  28.994  35.690  1.00  0.00     0.135 A 
ATOM     40  C   UNL A   1      44.111  27.391  36.572  1.00  0.00     0.135 A 
ATOM     41  F   UNL A   1      45.959  30.057  34.922  1.00  0.00    -0.206 F 
ATOM     42  C   UNL A   1      46.708  28.380  36.384  1.00  0.00     0.059 A 
ATOM     43  C   UNL A   1      45.131  26.772  37.290  1.00  0.00     0.059 A 
ATOM     44  F   UNL A   1      42.870  26.891  36.679  1.00  0.00    -0.206 F 
ATOM     45  C   UNL A   1      46.429  27.270  37.184  1.00  0.00     0.060 A 
BRANCH  45  46
ATOM     46  S   UNL A   1      47.781  26.502  38.104  1.00  0.00     0.124 S 
ATOM     47  O   UNL A   1      47.069  25.486  38.873  1.00  0.00    -0.237 OA
ATOM     48  O   UNL A   1      48.641  26.000  37.036  1.00  0.00    -0.237 OA
ATOM     49  O   UNL A   1      48.334  27.606  38.882  1.00  0.00    -0.744 OA
ENDBRANCH  45  46
ENDBRANCH  24  38
BRANCH  25  50
ATOM     50  C   UNL A   1      36.808  33.002  30.960  1.00  0.00     0.058 A 
ATOM     51  C   UNL A   1      35.479  32.715  31.299  1.00  0.00     0.135 A 
ATOM     52  C   UNL A   1      37.038  33.948  29.949  1.00  0.00     0.135 A 
ATOM     53  F   UNL A   1      35.211  31.817  32.260  1.00  0.00    -0.206 F 
ATOM     54  C   UNL A   1      34.415  33.330  30.649  1.00  0.00     0.059 A 
ATOM     55  C   UNL A   1      35.992  34.597  29.304  1.00  0.00     0.059 A 
ATOM     56  F   UNL A   1      38.295  34.273  29.604  1.00  0.00    -0.206 F 
ATOM     57  C   UNL A   1      34.682  34.270  29.652  1.00  0.00     0.060 A 
BRANCH  57  58
ATOM     58  S   UNL A   1      33.303  35.103  28.839  1.00  0.00     0.124 S 
ATOM     59  O   UNL A   1      32.525  35.563  29.984  1.00  0.00    -0.237 OA
ATOM     60  O   UNL A   1      33.977  36.142  28.066  1.00  0.00    -0.237 OA
ATOM     61  O   UNL A   1      32.694  34.040  28.046  1.00  0.00    -0.744 OA
ENDBRANCH  57  58
ENDBRANCH  25  50
BRANCH  37  62
ATOM     62  C   UNL A   1      39.770  33.907  37.185  1.00  0.00     0.058 A 
ATOM     63  C   UNL A   1      40.381  35.170  37.242  1.00  0.00     0.135 A 
ATOM     64  C   UNL A   1      38.877  33.559  38.210  1.00  0.00     0.135 A 
ATOM     65  F   UNL A   1      41.249  35.544  36.290  1.00  0.00    -0.206 F 
ATOM     66  C   UNL A   1      40.144  36.042  38.300  1.00  0.00     0.059 A 
ATOM     67  C   UNL A   1      38.609  34.424  39.265  1.00  0.00     0.059 A 
ATOM     68  F   UNL A   1      38.262  32.366  38.195  1.00  0.00    -0.206 F 
ATOM     69  C   UNL A   1      39.262  35.657  39.311  1.00  0.00     0.060 A 
BRANCH  69  70
ATOM     70  S   UNL A   1      38.964  36.791  40.682  1.00  0.00     0.124 S 
ATOM     71  O   UNL A   1      38.127  35.978  41.558  1.00  0.00    -0.237 OA
ATOM     72  O   UNL A   1      40.314  37.062  41.168  1.00  0.00    -0.237 OA
ATOM     73  O   UNL A   1      38.296  37.922  40.045  1.00  0.00    -0.744 OA
ENDBRANCH  69  70
ENDBRANCH  37  62
ENDBRANCH  11  12
ENDBRANCH   4   6
ENDBRANCH   1   2
BRANCH   1  74
ATOM     74  C   UNL A   1      41.987  22.700  27.945  1.00  0.00     0.023 C 
BRANCH  74  75
ATOM     75  C   UNL A   1      41.108  21.783  27.096  1.00  0.00     0.023 C 
BRANCH  75  76
ATOM     76  C   UNL A   1      39.731  22.381  26.809  1.00  0.00     0.116 C 
BRANCH  76  77
ATOM     77  N   UNL A   1      39.058  21.715  25.718  1.00  0.00    -0.354 N 
ATOM     78  C   UNL A   1      37.768  21.756  25.295  1.00  0.00     0.249 C 
ATOM     79  H   UNL A   1      39.638  21.123  25.187  1.00  0.00     0.163 HD
ATOM     80  O   UNL A   1      37.525  21.149  24.243  1.00  0.00    -0.272 OA
BRANCH  78  81
ATOM     81  C   UNL A   1      36.627  22.536  26.002  1.00  0.00     0.211 C 
ATOM     82  C   UNL A   1      36.115  23.811  25.371  1.00  0.00     0.085 C 
ATOM     83  O   UNL A   1      35.518  21.738  26.391  1.00  0.00    -0.357 OA
ATOM     84  C   UNL A   1      34.606  23.615  25.131  1.00  0.00     0.123 C 
ATOM     85  C   UNL A   1      34.301  22.230  25.801  1.00  0.00     0.186 C 
BRANCH  84  86
ATOM     86  C   UNL A   1      33.900  24.893  25.601  1.00  0.00    -0.013 A 
ATOM     87  C   UNL A   1      32.577  24.765  26.095  1.00  0.00     0.008 A 
ATOM     88  C   UNL A   1      34.437  26.182  25.517  1.00  0.00     0.008 A 
ATOM     89  C   UNL A   1      31.813  25.873  26.459  1.00  0.00     0.021 A 
ATOM     90  C   UNL A   1      33.673  27.299  25.891  1.00  0.00     0.021 A 
ATOM     91  C   UNL A   1      32.365  27.141  26.349  1.00  0.00     0.041 A 
ATOM     92  Cl  UNL A   1      31.426  28.520  26.767  1.00  0.00    -0.084 Cl
ENDBRANCH  84  86
BRANCH  84  93
ATOM     93  O   UNL A   1      34.362  23.586  23.715  1.00  0.00    -0.382 OA
ATOM     94  H   UNL A   1      34.345  24.493  23.370  1.00  0.00     0.212 HD
ENDBRANCH  84  93
BRANCH  85  95
ATOM     95  C   UNL A   1      33.731  21.123  24.915  1.00  0.00    -0.016 A 
ATOM     96  C   UNL A   1      32.673  21.367  24.016  1.00  0.00     0.008 A 
ATOM     97  C   UNL A   1      34.275  19.830  24.949  1.00  0.00     0.008 A 
ATOM     98  C   UNL A   1      32.144  20.354  23.215  1.00  0.00     0.021 A 
ATOM     99  C   UNL A   1      33.755  18.814  24.135  1.00  0.00     0.021 A 
ATOM    100  C   UNL A   1      32.687  19.078  23.279  1.00  0.00     0.041 A 
ATOM    101  Cl  UNL A   1      32.047  17.829  22.287  1.00  0.00    -0.084 Cl
ENDBRANCH  85  95
ENDBRANCH  78  81
ENDBRANCH  76  77
ENDBRANCH  75  76
ENDBRANCH  74  75
ENDBRANCH   1  74
TORSDOF 17
ENDMDL
MODEL 2
REMARK VINA RESULT:     -12.4      6.462     12.151
REMARK SMILES O=C(NCCCCNC(=O)[C@H]1C[C@](O)(c2ccc(Cl)cc2)[C@@H](c2ccc(Cl)cc2)O1)c1ccc(-c2c3nc(c(-c4c(F)cc(S(=O)(=O)[O-])cc4F)c4ccc([nH]4)c(-c4c(F)cc(S(=O)(=O)[O-])cc4F)c4nc(c(-c5c(F)cc(S(=O)(=O)[O-])cc5F)c5ccc2[nH]5)C=C4)C=C3)cc1
REMARK SMILES IDX 4 1 3 2 1 3 2 4 31 6 32 7 96 8 33 9 95 10 34 11 35 12 36 13
REMARK SMILES IDX 89 14 37 15 94 16 88 17 90 18 38 19 93 20 87 21 86 22 39 24
REMARK SMILES IDX 73 25 52 26 72 27 53 28 56 29 71 30 91 31 54 32 55 33 70 35
REMARK SMILES IDX 92 36 57 37 40 38 41 39 50 40 42 41 43 42 49 43 51 44 44 45
REMARK SMILES IDX 45 46 46 47 47 48 48 49 74 50 75 51 84 52 76 53 77 54 83 55
REMARK SMILES IDX 85 56 78 57 79 58 80 59 81 60 82 61 58 62 59 63 68 64 60 65
REMARK SMILES IDX 61 66 67 67 69 68 62 69 63 70 64 71 65 72 66 73 5 74 6 75
REMARK SMILES IDX 7 76 8 77 9 78 10 80 11 81 12 82 30 83 13 84 22 85 15 86
REMARK SMILES IDX 16 87 21 88 17 89 20 90 18 91 19 92 14 93 23 95 24 96 29 97
REMARK SMILES IDX 25 98 28 99 26 100 27 101
REMARK H PARENT 3 5 90 23 56 34 8 79 14 94
REMARK Flexibility Score: inf
ROOT
ATOM      1  C   UNL A   1      36.688  32.906  30.432  1.00  0.00     0.116 C 
ENDROOT
BRANCH   1   2
ATOM      2  N   UNL A   1      36.173  31.726  31.109  1.00  0.00    -0.352 N 
ATOM      3  O   UNL A   1      36.236  29.556  31.766  1.00  0.00    -0.269 OA
ATOM      4  C   UNL A   1      36.797  30.499  31.243  1.00  0.00     0.251 C 
ATOM      5  H   UNL A   1      35.280  31.809  31.517  1.00  0.00     0.163 HD
BRANCH   4   6
ATOM      6  C   UNL A   1      38.162  30.365  30.687  1.00  0.00     0.039 A 
ATOM      7  C   UNL A   1      38.339  30.297  29.304  1.00  0.00     0.014 A 
ATOM      8  C   UNL A   1      39.242  30.190  31.556  1.00  0.00     0.014 A 
ATOM      9  C   UNL A   1      39.568  29.902  28.795  1.00  0.00     0.010 A 
ATOM     10  C   UNL A   1      40.501  29.878  31.033  1.00  0.00     0.010 A 
ATOM     11  C   UNL A   1      40.665  29.695  29.651  1.00  0.00    -0.014 A 
BRANCH  11  12
ATOM     12  C   UNL A   1      41.982  29.355  29.055  1.00  0.00     0.031 A 
ATOM     13  C   UNL A   1      43.104  30.355  28.990  1.00  0.00     0.074 A 
ATOM     14  C   UNL A   1      42.169  28.092  28.621  1.00  0.00     0.049 A 
ATOM     15  N   UNL A   1      44.319  30.195  28.530  1.00  0.00    -0.248 NA
ATOM     16  C   UNL A   1      42.832  31.710  29.498  1.00  0.00     0.031 C 
ATOM     17  C   UNL A   1      41.143  27.044  28.619  1.00  0.00     0.029 A 
ATOM     18  N   UNL A   1      43.281  27.465  28.126  1.00  0.00    -0.354 N 
ATOM     19  C   UNL A   1      44.951  31.425  28.674  1.00  0.00     0.074 A 
ATOM     20  C   UNL A   1      43.979  32.330  29.250  1.00  0.00     0.031 C 
ATOM     21  C   UNL A   1      41.688  25.893  28.205  1.00  0.00     0.029 A 
ATOM     22  C   UNL A   1      43.081  26.134  27.849  1.00  0.00     0.049 A 
ATOM     23  H   UNL A   1      44.141  27.923  27.983  1.00  0.00     0.167 HD
ATOM     24  C   UNL A   1      46.226  31.761  28.358  1.00  0.00     0.037 A 
ATOM     25  C   UNL A   1      43.919  25.209  27.349  1.00  0.00     0.037 A 
ATOM     26  C   UNL A   1      47.191  30.844  27.801  1.00  0.00     0.049 A 
ATOM     27  C   UNL A   1      45.326  25.608  27.021  1.00  0.00     0.074 A 
ATOM     28  C   UNL A   1      48.511  31.086  27.457  1.00  0.00     0.029 A 
ATOM     29  N   UNL A   1      46.945  29.509  27.515  1.00  0.00    -0.354 N 
ATOM     30  N   UNL A   1      45.902  26.778  27.163  1.00  0.00    -0.248 NA
ATOM     31  C   UNL A   1      46.195  24.567  26.457  1.00  0.00     0.031 C 
ATOM     32  C   UNL A   1      49.054  29.905  26.937  1.00  0.00     0.029 A 
ATOM     33  C   UNL A   1      48.083  28.918  26.990  1.00  0.00     0.049 A 
ATOM     34  H   UNL A   1      46.088  29.049  27.663  1.00  0.00     0.167 HD
ATOM     35  C   UNL A   1      47.201  26.617  26.699  1.00  0.00     0.074 A 
ATOM     36  C   UNL A   1      47.335  25.227  26.308  1.00  0.00     0.031 C 
ATOM     37  C   UNL A   1      48.190  27.537  26.595  1.00  0.00     0.037 A 
BRANCH  24  38
ATOM     38  C   UNL A   1      46.664  33.181  28.594  1.00  0.00     0.058 A 
ATOM     39  C   UNL A   1      46.509  34.171  27.612  1.00  0.00     0.135 A 
ATOM     40  C   UNL A   1      47.170  33.573  29.844  1.00  0.00     0.135 A 
ATOM     41  F   UNL A   1      46.044  33.848  26.394  1.00  0.00    -0.206 F 
ATOM     42  C   UNL A   1      46.847  35.499  27.858  1.00  0.00     0.059 A 
ATOM     43  C   UNL A   1      47.497  34.899  30.119  1.00  0.00     0.059 A 
ATOM     44  F   UNL A   1      47.339  32.667  30.819  1.00  0.00    -0.206 F 
ATOM     45  C   UNL A   1      47.338  35.854  29.116  1.00  0.00     0.060 A 
BRANCH  45  46
ATOM     46  S   UNL A   1      47.741  37.587  29.431  1.00  0.00     0.124 S 
ATOM     47  O   UNL A   1      46.446  38.229  29.225  1.00  0.00    -0.237 OA
ATOM     48  O   UNL A   1      48.218  37.552  30.810  1.00  0.00    -0.237 OA
ATOM     49  O   UNL A   1      48.757  37.887  28.427  1.00  0.00    -0.744 OA
ENDBRANCH  45  46
ENDBRANCH  24  38
BRANCH  25  50
ATOM     50  C   UNL A   1      43.433  23.827  27.110  1.00  0.00     0.058 A 
ATOM     51  C   UNL A   1      43.292  22.914  28.164  1.00  0.00     0.135 A 
ATOM     52  C   UNL A   1      43.072  23.403  25.821  1.00  0.00     0.135 A 
ATOM     53  F   UNL A   1      43.625  23.275  29.413  1.00  0.00    -0.206 F 
ATOM     54  C   UNL A   1      42.827  21.621  27.948  1.00  0.00     0.059 A 
ATOM     55  C   UNL A   1      42.579  22.126  25.584  1.00  0.00     0.059 A 
ATOM     56  F   UNL A   1      43.169  24.249  24.783  1.00  0.00    -0.206 F 
ATOM     57  C   UNL A   1      42.473  21.237  26.653  1.00  0.00     0.060 A 
BRANCH  57  58
ATOM     58  S   UNL A   1      41.825  19.574  26.378  1.00  0.00     0.124 S 
ATOM     59  O   UNL A   1      40.392  19.830  26.297  1.00  0.00    -0.237 OA
ATOM     60  O   UNL A   1      42.476  19.188  25.129  1.00  0.00    -0.237 OA
ATOM     61  O   UNL A   1      42.273  18.844  27.560  1.00  0.00    -0.744 OA
ENDBRANCH  57  58
ENDBRANCH  25  50
BRANCH  37  62
ATOM     62  C   UNL A   1      49.496  27.056  26.032  1.00  0.00     0.058 A 
ATOM     63  C   UNL A   1      50.490  26.514  26.861  1.00  0.00     0.135 A 
ATOM     64  C   UNL A   1      49.757  27.141  24.657  1.00  0.00     0.135 A 
ATOM     65  F   UNL A   1      50.291  26.421  28.185  1.00  0.00    -0.206 F 
ATOM     66  C   UNL A   1      51.717  26.106  26.348  1.00  0.00     0.059 A 
ATOM     67  C   UNL A   1      50.967  26.719  24.119  1.00  0.00     0.059 A 
ATOM     68  F   UNL A   1      48.832  27.644  23.823  1.00  0.00    -0.206 F 
ATOM     69  C   UNL A   1      51.949  26.219  24.977  1.00  0.00     0.060 A 
BRANCH  69  70
ATOM     70  S   UNL A   1      53.545  25.692  24.319  1.00  0.00     0.124 S 
ATOM     71  O   UNL A   1      53.582  24.292  24.728  1.00  0.00    -0.237 OA
ATOM     72  O   UNL A   1      53.390  25.929  22.886  1.00  0.00    -0.237 OA
ATOM     73  O   UNL A   1      54.495  26.572  24.993  1.00  0.00    -0.744 OA
ENDBRANCH  69  70
ENDBRANCH  37  62
ENDBRANCH  11  12
ENDBRANCH   4   6
ENDBRANCH   1   2
BRANCH   1  74
ATOM     74  C   UNL A   1      35.741  33.479  29.382  1.00  0.00     0.023 C 
BRANCH  74  75
ATOM     75  C   UNL A   1      35.907  32.876  27.988  1.00  0.00     0.023 C 
BRANCH  75  76
ATOM     76  C   UNL A   1      35.317  31.472  27.874  1.00  0.00     0.116 C 
BRANCH  76  77
ATOM     77  N   UNL A   1      33.904  31.491  27.573  1.00  0.00    -0.354 N 
ATOM     78  C   UNL A   1      33.101  30.587  26.955  1.00  0.00     0.249 C 
ATOM     79  H   UNL A   1      33.439  32.308  27.867  1.00  0.00     0.163 HD
ATOM     80  O   UNL A   1      31.891  30.852  26.951  1.00  0.00    -0.272 OA
BRANCH  78  81
ATOM     81  C   UNL A   1      33.589  29.258  26.317  1.00  0.00     0.211 C 
ATOM     82  C   UNL A   1      33.310  27.958  27.037  1.00  0.00     0.085 C 
ATOM     83  O   UNL A   1      33.256  29.104  24.945  1.00  0.00    -0.357 OA
ATOM     84  C   UNL A   1      32.504  27.074  26.066  1.00  0.00     0.123 C 
ATOM     85  C   UNL A   1      32.491  27.903  24.735  1.00  0.00     0.186 C 
BRANCH  84  86
ATOM     86  C   UNL A   1      33.112  25.669  26.117  1.00  0.00    -0.013 A 
ATOM     87  C   UNL A   1      34.395  25.490  25.537  1.00  0.00     0.008 A 
ATOM     88  C   UNL A   1      32.472  24.535  26.630  1.00  0.00     0.008 A 
ATOM     89  C   UNL A   1      34.998  24.236  25.447  1.00  0.00     0.021 A 
ATOM     90  C   UNL A   1      33.081  23.273  26.547  1.00  0.00     0.021 A 
ATOM     91  C   UNL A   1      34.332  23.128  25.949  1.00  0.00     0.041 A 
ATOM     92  Cl  UNL A   1      35.049  21.570  25.818  1.00  0.00    -0.084 Cl
ENDBRANCH  84  86
BRANCH  84  93
ATOM     93  O   UNL A   1      31.178  26.896  26.595  1.00  0.00    -0.382 OA
ATOM     94  H   UNL A   1      30.631  26.426  25.946  1.00  0.00     0.212 HD
ENDBRANCH  84  93
BRANCH  85  95
ATOM     95  C   UNL A   1      31.132  28.310  24.165  1.00  0.00    -0.016 A 
ATOM     96  C   UNL A   1      30.764  29.663  24.028  1.00  0.00     0.008 A 
ATOM     97  C   UNL A   1      30.220  27.337  23.728  1.00  0.00     0.008 A 
ATOM     98  C   UNL A   1      29.518  30.036  23.519  1.00  0.00     0.021 A 
ATOM     99  C   UNL A   1      28.975  27.708  23.204  1.00  0.00     0.021 A 
ATOM    100  C   UNL A   1      28.626  29.054  23.109  1.00  0.00     0.041 A 
ATOM    101  Cl  UNL A   1      27.095  29.506  22.473  1.00  0.00    -0.084 Cl
ENDBRANCH  85  95
ENDBRANCH  78  81
ENDBRANCH  76  77
ENDBRANCH  75  76
ENDBRANCH  74  75
ENDBRANCH   1  74
TORSDOF 17
ENDMDL
MODEL 3
REMARK VINA RESULT:     -12.2      6.555     12.079
REMARK SMILES O=C(NCCCCNC(=O)[C@H]1C[C@](O)(c2ccc(Cl)cc2)[C@@H](c2ccc(Cl)cc2)O1)c1ccc(-c2c3nc(c(-c4c(F)cc(S(=O)(=O)[O-])cc4F)c4ccc([nH]4)c(-c4c(F)cc(S(=O)(=O)[O-])cc4F)c4nc(c(-c5c(F)cc(S(=O)(=O)[O-])cc5F)c5ccc2[nH]5)C=C4)C=C3)cc1
REMARK SMILES IDX 4 1 3 2 1 3 2 4 31 6 32 7 96 8 33 9 95 10 34 11 35 12 36 13
REMARK SMILES IDX 89 14 37 15 94 16 88 17 90 18 38 19 93 20 87 21 86 22 39 24
REMARK SMILES IDX 73 25 52 26 72 27 53 28 56 29 71 30 91 31 54 32 55 33 70 35
REMARK SMILES IDX 92 36 57 37 40 38 41 39 50 40 42 41 43 42 49 43 51 44 44 45
REMARK SMILES IDX 45 46 46 47 47 48 48 49 74 50 75 51 84 52 76 53 77 54 83 55
REMARK SMILES IDX 85 56 78 57 79 58 80 59 81 60 82 61 58 62 59 63 68 64 60 65
REMARK SMILES IDX 61 66 67 67 69 68 62 69 63 70 64 71 65 72 66 73 5 74 6 75
REMARK SMILES IDX 7 76 8 77 9 78 10 80 11 81 12 82 30 83 13 84 22 85 15 86
REMARK SMILES IDX 16 87 21 88 17 89 20 90 18 91 19 92 14 93 23 95 24 96 29 97
REMARK SMILES IDX 25 98 28 99 26 100 27 101
REMARK H PARENT 3 5 90 23 56 34 8 79 14 94
REMARK Flexibility Score: inf
ROOT
ATOM      1  C   UNL A   1      36.670  33.003  30.306  1.00  0.00     0.116 C 
ENDROOT
BRANCH   1   2
ATOM      2  N   UNL A   1      36.100  31.808  30.907  1.00  0.00    -0.352 N 
ATOM      3  O   UNL A   1      36.074  29.606  31.447  1.00  0.00    -0.269 OA
ATOM      4  C   UNL A   1      36.678  30.554  30.987  1.00  0.00     0.251 C 
ATOM      5  H   UNL A   1      35.201  31.901  31.300  1.00  0.00     0.163 HD
BRANCH   4   6
ATOM      6  C   UNL A   1      38.051  30.403  30.454  1.00  0.00     0.039 A 
ATOM      7  C   UNL A   1      38.244  30.266  29.079  1.00  0.00     0.014 A 
ATOM      8  C   UNL A   1      39.122  30.280  31.343  1.00  0.00     0.014 A 
ATOM      9  C   UNL A   1      39.482  29.854  28.604  1.00  0.00     0.010 A 
ATOM     10  C   UNL A   1      40.389  29.951  30.851  1.00  0.00     0.010 A 
ATOM     11  C   UNL A   1      40.570  29.699  29.482  1.00  0.00    -0.014 A 
BRANCH  11  12
ATOM     12  C   UNL A   1      41.896  29.339  28.918  1.00  0.00     0.031 A 
ATOM     13  C   UNL A   1      43.031  30.325  28.872  1.00  0.00     0.074 A 
ATOM     14  C   UNL A   1      42.078  28.071  28.498  1.00  0.00     0.049 A 
ATOM     15  N   UNL A   1      44.255  30.147  28.441  1.00  0.00    -0.248 NA
ATOM     16  C   UNL A   1      42.764  31.687  29.363  1.00  0.00     0.031 C 
ATOM     17  C   UNL A   1      41.039  27.035  28.481  1.00  0.00     0.029 A 
ATOM     18  N   UNL A   1      43.193  27.426  28.034  1.00  0.00    -0.354 N 
ATOM     19  C   UNL A   1      44.898  31.371  28.590  1.00  0.00     0.074 A 
ATOM     20  C   UNL A   1      43.924  32.292  29.137  1.00  0.00     0.031 C 
ATOM     21  C   UNL A   1      41.580  25.874  28.088  1.00  0.00     0.029 A 
ATOM     22  C   UNL A   1      42.984  26.096  27.762  1.00  0.00     0.049 A 
ATOM     23  H   UNL A   1      44.062  27.873  27.907  1.00  0.00     0.167 HD
ATOM     24  C   UNL A   1      46.183  31.689  28.300  1.00  0.00     0.037 A 
ATOM     25  C   UNL A   1      43.822  25.157  27.288  1.00  0.00     0.037 A 
ATOM     26  C   UNL A   1      47.150  30.757  27.773  1.00  0.00     0.049 A 
ATOM     27  C   UNL A   1      45.240  25.537  26.989  1.00  0.00     0.074 A 
ATOM     28  C   UNL A   1      48.480  30.980  27.456  1.00  0.00     0.029 A 
ATOM     29  N   UNL A   1      46.895  29.423  27.491  1.00  0.00    -0.354 N 
ATOM     30  N   UNL A   1      45.827  26.701  27.135  1.00  0.00    -0.248 NA
ATOM     31  C   UNL A   1      46.109  24.482  26.454  1.00  0.00     0.031 C 
ATOM     32  C   UNL A   1      49.020  29.789  26.958  1.00  0.00     0.029 A 
ATOM     33  C   UNL A   1      48.037  28.814  26.997  1.00  0.00     0.049 A 
ATOM     34  H   UNL A   1      46.029  28.974  27.623  1.00  0.00     0.167 HD
ATOM     35  C   UNL A   1      47.134  26.521  26.703  1.00  0.00     0.074 A 
ATOM     36  C   UNL A   1      47.260  25.127  26.326  1.00  0.00     0.031 C 
ATOM     37  C   UNL A   1      48.136  27.428  26.614  1.00  0.00     0.037 A 
BRANCH  24  38
ATOM     38  C   UNL A   1      46.633  33.106  28.535  1.00  0.00     0.058 A 
ATOM     39  C   UNL A   1      47.262  33.488  29.730  1.00  0.00     0.135 A 
ATOM     40  C   UNL A   1      46.505  34.073  27.525  1.00  0.00     0.135 A 
ATOM     41  F   UNL A   1      47.397  32.608  30.735  1.00  0.00    -0.206 F 
ATOM     42  C   UNL A   1      47.744  34.781  29.916  1.00  0.00     0.059 A 
ATOM     43  C   UNL A   1      46.996  35.366  27.682  1.00  0.00     0.059 A 
ATOM     44  F   UNL A   1      45.910  33.761  26.362  1.00  0.00    -0.206 F 
ATOM     45  C   UNL A   1      47.608  35.713  28.885  1.00  0.00     0.060 A 
BRANCH  45  46
ATOM     46  S   UNL A   1      48.266  37.378  29.131  1.00  0.00     0.124 S 
ATOM     47  O   UNL A   1      49.519  37.307  28.385  1.00  0.00    -0.237 OA
ATOM     48  O   UNL A   1      47.226  38.216  28.542  1.00  0.00    -0.237 OA
ATOM     49  O   UNL A   1      48.404  37.479  30.580  1.00  0.00    -0.744 OA
ENDBRANCH  45  46
ENDBRANCH  24  38
BRANCH  25  50
ATOM     50  C   UNL A   1      43.325  23.779  27.049  1.00  0.00     0.058 A 
ATOM     51  C   UNL A   1      43.026  23.329  25.756  1.00  0.00     0.135 A 
ATOM     52  C   UNL A   1      43.166  22.876  28.112  1.00  0.00     0.135 A 
ATOM     53  F   UNL A   1      43.162  24.157  24.709  1.00  0.00    -0.206 F 
ATOM     54  C   UNL A   1      42.570  22.035  25.525  1.00  0.00     0.059 A 
ATOM     55  C   UNL A   1      42.738  21.570  27.904  1.00  0.00     0.059 A 
ATOM     56  F   UNL A   1      43.461  23.254  29.366  1.00  0.00    -0.206 F 
ATOM     57  C   UNL A   1      42.429  21.163  26.606  1.00  0.00     0.060 A 
BRANCH  57  58
ATOM     58  S   UNL A   1      41.881  19.470  26.303  1.00  0.00     0.124 S 
ATOM     59  O   UNL A   1      42.602  19.147  25.077  1.00  0.00    -0.237 OA
ATOM     60  O   UNL A   1      42.327  18.777  27.508  1.00  0.00    -0.237 OA
ATOM     61  O   UNL A   1      40.434  19.609  26.169  1.00  0.00    -0.744 OA
ENDBRANCH  57  58
ENDBRANCH  25  50
BRANCH  37  62
ATOM     62  C   UNL A   1      49.448  26.929  26.085  1.00  0.00     0.058 A 
ATOM     63  C   UNL A   1      50.421  26.388  26.942  1.00  0.00     0.135 A 
ATOM     64  C   UNL A   1      49.739  26.992  24.714  1.00  0.00     0.135 A 
ATOM     65  F   UNL A   1      50.193  26.314  28.262  1.00  0.00    -0.206 F 
ATOM     66  C   UNL A   1      51.654  25.962  26.460  1.00  0.00     0.059 A 
ATOM     67  C   UNL A   1      50.956  26.552  24.208  1.00  0.00     0.059 A 
ATOM     68  F   UNL A   1      48.837  27.493  23.855  1.00  0.00    -0.206 F 
ATOM     69  C   UNL A   1      51.915  26.054  25.092  1.00  0.00     0.060 A 
BRANCH  69  70
ATOM     70  S   UNL A   1      53.519  25.503  24.474  1.00  0.00     0.124 S 
ATOM     71  O   UNL A   1      53.437  25.884  23.068  1.00  0.00    -0.237 OA
ATOM     72  O   UNL A   1      54.453  26.277  25.287  1.00  0.00    -0.237 OA
ATOM     73  O   UNL A   1      53.508  24.069  24.740  1.00  0.00    -0.744 OA
ENDBRANCH  69  70
ENDBRANCH  37  62
ENDBRANCH  11  12
ENDBRANCH   4   6
ENDBRANCH   1   2
BRANCH   1  74
ATOM     74  C   UNL A   1      35.783  33.644  29.243  1.00  0.00     0.023 C 
BRANCH  74  75
ATOM     75  C   UNL A   1      35.584  32.790  27.992  1.00  0.00     0.023 C 
BRANCH  75  76
ATOM     76  C   UNL A   1      34.291  31.976  28.029  1.00  0.00     0.116 C 
BRANCH  76  77
ATOM     77  N   UNL A   1      34.535  30.553  27.959  1.00  0.00    -0.354 N 
ATOM     78  C   UNL A   1      33.805  29.538  27.428  1.00  0.00     0.249 C 
ATOM     79  H   UNL A   1      35.382  30.268  28.371  1.00  0.00     0.163 HD
ATOM     80  O   UNL A   1      34.348  28.425  27.427  1.00  0.00    -0.272 OA
BRANCH  78  81
ATOM     81  C   UNL A   1      32.395  29.695  26.798  1.00  0.00     0.211 C 
ATOM     82  C   UNL A   1      32.284  30.178  25.369  1.00  0.00     0.085 C 
ATOM     83  O   UNL A   1      31.541  28.573  26.972  1.00  0.00    -0.357 OA
ATOM     84  C   UNL A   1      31.519  29.092  24.590  1.00  0.00     0.123 C 
ATOM     85  C   UNL A   1      31.092  28.070  25.700  1.00  0.00     0.186 C 
BRANCH  84  86
ATOM     86  C   UNL A   1      30.472  29.803  23.725  1.00  0.00    -0.013 A 
ATOM     87  C   UNL A   1      30.358  29.398  22.371  1.00  0.00     0.008 A 
ATOM     88  C   UNL A   1      29.667  30.866  24.151  1.00  0.00     0.008 A 
ATOM     89  C   UNL A   1      29.504  30.042  21.475  1.00  0.00     0.021 A 
ATOM     90  C   UNL A   1      28.801  31.510  23.254  1.00  0.00     0.021 A 
ATOM     91  C   UNL A   1      28.731  31.103  21.922  1.00  0.00     0.041 A 
ATOM     92  Cl  UNL A   1      27.695  31.926  20.823  1.00  0.00    -0.084 Cl
ENDBRANCH  84  86
BRANCH  84  93
ATOM     93  O   UNL A   1      32.410  28.495  23.632  1.00  0.00    -0.382 OA
ATOM     94  H   UNL A   1      33.160  28.091  24.095  1.00  0.00     0.212 HD
ENDBRANCH  84  93
BRANCH  85  95
ATOM     95  C   UNL A   1      31.586  26.630  25.568  1.00  0.00    -0.016 A 
ATOM     96  C   UNL A   1      30.870  25.668  24.828  1.00  0.00     0.008 A 
ATOM     97  C   UNL A   1      32.796  26.233  26.158  1.00  0.00     0.008 A 
ATOM     98  C   UNL A   1      31.315  24.349  24.716  1.00  0.00     0.021 A 
ATOM     99  C   UNL A   1      33.252  24.914  26.036  1.00  0.00     0.021 A 
ATOM    100  C   UNL A   1      32.506  23.976  25.324  1.00  0.00     0.041 A 
ATOM    101  Cl  UNL A   1      33.064  22.357  25.182  1.00  0.00    -0.084 Cl
ENDBRANCH  85  95
ENDBRANCH  78  81
ENDBRANCH  76  77
ENDBRANCH  75  76
ENDBRANCH  74  75
ENDBRANCH   1  74
TORSDOF 17
ENDMDL
