MODEL 1
REMARK VINA RESULT:     -11.6      0.000      0.000
REMARK SMILES Cc1ccc(C(N)=O)c(NCc2ccc(C(=O)NCCCCNC(=O)c3ccc(-c4c5nc(c(-c6c(F)cc(S(=O)(=O)[O-])cc6F)c6ccc([nH]6)c(-c6c(F)cc(S(=O)(=O)[O-])cc6F)c6nc(c(-c7c(F)cc(S(=O)(=O)[O-])cc7F)c7ccc4[nH]7)C=C6)C=C5)cc3)o2)n1
REMARK SMILES IDX 20 1 19 2 18 3 16 4 17 5 15 7 12 8 13 9 92 10 14 11 11 12
REMARK SMILES IDX 10 13 9 15 1 16 2 17 3 18 93 19 4 20 5 21 6 22 7 23 8 24
REMARK SMILES IDX 21 27 22 28 23 29 24 30 25 32 26 33 27 34 91 35 28 36 90 37
REMARK SMILES IDX 29 38 30 39 31 40 84 41 32 42 89 43 83 44 85 45 33 46 88 47
REMARK SMILES IDX 82 48 81 49 34 51 68 52 47 53 67 54 48 55 51 56 66 57 86 58
REMARK SMILES IDX 49 59 50 60 65 62 87 63 52 64 35 65 36 66 45 67 37 68 38 69
REMARK SMILES IDX 44 70 46 71 39 72 40 73 41 74 42 75 43 76 69 77 70 78 79 79
REMARK SMILES IDX 71 80 72 81 78 82 80 83 73 84 74 85 75 86 76 87 77 88 53 89
REMARK SMILES IDX 54 90 63 91 55 92 56 93 62 94 64 95 57 96 58 97 59 98 60 99
REMARK SMILES IDX 61 100
REMARK H PARENT 18 6 10 14 7 25 7 26 23 31 85 50 51 61
REMARK Flexibility Score: inf
ROOT
ATOM      1  C   UNL A   1      33.685  28.807  24.467  1.00  0.00     0.023 C 
ENDROOT
BRANCH   1   2
ATOM      2  C   UNL A   1      32.809  28.841  23.214  1.00  0.00     0.116 C 
BRANCH   2   3
ATOM      3  N   UNL A   1      33.221  27.839  22.254  1.00  0.00    -0.349 N 
ATOM      4  C   UNL A   1      32.887  26.509  22.140  1.00  0.00     0.286 C 
ATOM      5  O   UNL A   1      33.335  25.926  21.150  1.00  0.00    -0.266 OA
ATOM      6  H   UNL A   1      33.846  28.165  21.567  1.00  0.00     0.163 HD
BRANCH   4   7
ATOM      7  C   UNL A   1      32.046  25.849  23.124  1.00  0.00     0.191 A 
ATOM      8  C   UNL A   1      31.761  24.593  24.931  1.00  0.00     0.124 A 
ATOM      9  C   UNL A   1      30.501  24.916  24.482  1.00  0.00     0.048 A 
ATOM     10  O   UNL A   1      32.697  25.148  24.114  1.00  0.00    -0.454 OA
ATOM     11  C   UNL A   1      30.684  25.754  23.357  1.00  0.00     0.056 A 
BRANCH   8  12
ATOM     12  C   UNL A   1      32.270  23.814  26.098  1.00  0.00     0.190 C 
BRANCH  12  13
ATOM     13  N   UNL A   1      32.487  22.407  25.797  1.00  0.00    -0.362 N 
ATOM     14  H   UNL A   1      31.725  21.785  25.799  1.00  0.00     0.162 HD
BRANCH  13  15
ATOM     15  C   UNL A   1      33.757  21.931  25.508  1.00  0.00     0.139 A 
ATOM     16  C   UNL A   1      37.057  23.500  25.025  1.00  0.00     0.067 C 
ATOM     17  C   UNL A   1      36.015  22.430  25.139  1.00  0.00     0.040 A 
ATOM     18  C   UNL A   1      36.345  21.091  25.000  1.00  0.00     0.024 A 
ATOM     19  N   UNL A   1      34.746  22.845  25.373  1.00  0.00    -0.236 NA
ATOM     20  C   UNL A   1      35.331  20.149  25.110  1.00  0.00     0.019 A 
ATOM     21  C   UNL A   1      34.015  20.563  25.356  1.00  0.00     0.081 A 
BRANCH  21  22
ATOM     22  C   UNL A   1      32.974  19.501  25.399  1.00  0.00     0.252 C 
ATOM     23  N   UNL A   1      32.961  18.660  26.477  1.00  0.00    -0.365 N 
ATOM     24  O   UNL A   1      32.122  19.404  24.523  1.00  0.00    -0.269 OA
ATOM     25  H   UNL A   1      33.649  18.746  27.176  1.00  0.00     0.159 HD
ATOM     26  H   UNL A   1      32.265  17.969  26.553  1.00  0.00     0.159 HD
ENDBRANCH  21  22
ENDBRANCH  13  15
ENDBRANCH  12  13
ENDBRANCH   8  12
ENDBRANCH   4   7
ENDBRANCH   2   3
ENDBRANCH   1   2
BRANCH   1  27
ATOM     27  C   UNL A   1      32.959  28.318  25.725  1.00  0.00     0.023 C 
BRANCH  27  28
ATOM     28  C   UNL A   1      33.709  28.545  27.036  1.00  0.00     0.116 C 
BRANCH  28  29
ATOM     29  N   UNL A   1      33.576  29.898  27.553  1.00  0.00    -0.352 N 
ATOM     30  C   UNL A   1      34.512  30.646  28.230  1.00  0.00     0.251 C 
ATOM     31  H   UNL A   1      32.706  30.333  27.400  1.00  0.00     0.163 HD
ATOM     32  O   UNL A   1      34.215  31.739  28.693  1.00  0.00    -0.269 OA
BRANCH  30  33
ATOM     33  C   UNL A   1      35.867  30.089  28.425  1.00  0.00     0.039 A 
ATOM     34  C   UNL A   1      36.773  30.125  27.363  1.00  0.00     0.014 A 
ATOM     35  C   UNL A   1      36.251  29.579  29.668  1.00  0.00     0.014 A 
ATOM     36  C   UNL A   1      38.092  29.718  27.568  1.00  0.00     0.010 A 
ATOM     37  C   UNL A   1      37.580  29.231  29.886  1.00  0.00     0.010 A 
ATOM     38  C   UNL A   1      38.515  29.303  28.842  1.00  0.00    -0.014 A 
BRANCH  38  39
ATOM     39  C   UNL A   1      39.929  28.944  29.116  1.00  0.00     0.031 A 
ATOM     40  C   UNL A   1      40.871  29.982  29.658  1.00  0.00     0.074 A 
ATOM     41  C   UNL A   1      40.383  27.718  28.788  1.00  0.00     0.049 A 
ATOM     42  N   UNL A   1      42.165  29.914  29.830  1.00  0.00    -0.248 NA
ATOM     43  C   UNL A   1      40.282  31.279  30.028  1.00  0.00     0.031 C 
ATOM     44  C   UNL A   1      39.574  26.638  28.219  1.00  0.00     0.029 A 
ATOM     45  N   UNL A   1      41.643  27.179  28.869  1.00  0.00    -0.354 N 
ATOM     46  C   UNL A   1      42.550  31.162  30.304  1.00  0.00     0.074 A 
ATOM     47  C   UNL A   1      41.358  31.982  30.353  1.00  0.00     0.031 C 
ATOM     48  C   UNL A   1      40.356  25.565  28.010  1.00  0.00     0.029 A 
ATOM     49  C   UNL A   1      41.726  25.892  28.392  1.00  0.00     0.049 A 
ATOM     50  H   UNL A   1      42.416  27.669  29.233  1.00  0.00     0.167 HD
ATOM     51  C   UNL A   1      43.780  31.582  30.683  1.00  0.00     0.037 A 
ATOM     52  C   UNL A   1      42.789  25.073  28.264  1.00  0.00     0.037 A 
ATOM     53  C   UNL A   1      44.955  30.751  30.663  1.00  0.00     0.049 A 
ATOM     54  C   UNL A   1      44.145  25.557  28.701  1.00  0.00     0.074 A 
ATOM     55  C   UNL A   1      46.239  31.066  31.070  1.00  0.00     0.029 A 
ATOM     56  N   UNL A   1      44.988  29.437  30.217  1.00  0.00    -0.354 N 
ATOM     57  N   UNL A   1      44.483  26.728  29.187  1.00  0.00    -0.248 NA
ATOM     58  C   UNL A   1      45.262  24.611  28.579  1.00  0.00     0.031 C 
ATOM     59  C   UNL A   1      47.055  29.953  30.843  1.00  0.00     0.029 A 
ATOM     60  C   UNL A   1      46.271  28.931  30.333  1.00  0.00     0.049 A 
ATOM     61  H   UNL A   1      44.213  28.939  29.870  1.00  0.00     0.167 HD
ATOM     62  C   UNL A   1      45.844  26.647  29.461  1.00  0.00     0.074 A 
ATOM     63  C   UNL A   1      46.267  25.312  29.087  1.00  0.00     0.031 C 
ATOM     64  C   UNL A   1      46.667  27.590  29.979  1.00  0.00     0.037 A 
BRANCH  51  65
ATOM     65  C   UNL A   1      43.917  33.003  31.154  1.00  0.00     0.058 A 
ATOM     66  C   UNL A   1      44.243  34.042  30.268  1.00  0.00     0.135 A 
ATOM     67  C   UNL A   1      43.691  33.335  32.499  1.00  0.00     0.135 A 
ATOM     68  F   UNL A   1      44.484  33.777  28.974  1.00  0.00    -0.206 F 
ATOM     69  C   UNL A   1      44.371  35.356  30.704  1.00  0.00     0.059 A 
ATOM     70  C   UNL A   1      43.788  34.648  32.953  1.00  0.00     0.059 A 
ATOM     71  F   UNL A   1      43.377  32.380  33.389  1.00  0.00    -0.206 F 
ATOM     72  C   UNL A   1      44.144  35.648  32.050  1.00  0.00     0.060 A 
BRANCH  72  73
ATOM     73  S   UNL A   1      44.316  37.359  32.602  1.00  0.00     0.124 S 
ATOM     74  O   UNL A   1      43.420  37.383  33.753  1.00  0.00    -0.237 OA
ATOM     75  O   UNL A   1      45.740  37.449  32.905  1.00  0.00    -0.237 OA
ATOM     76  O   UNL A   1      43.874  38.134  31.446  1.00  0.00    -0.744 OA
ENDBRANCH  72  73
ENDBRANCH  51  65
BRANCH  52  77
ATOM     77  C   UNL A   1      42.609  23.701  27.719  1.00  0.00     0.058 A 
ATOM     78  C   UNL A   1      42.652  23.466  26.338  1.00  0.00     0.135 A 
ATOM     79  C   UNL A   1      42.403  22.600  28.564  1.00  0.00     0.135 A 
ATOM     80  F   UNL A   1      42.842  24.487  25.489  1.00  0.00    -0.206 F 
ATOM     81  C   UNL A   1      42.482  22.190  25.810  1.00  0.00     0.059 A 
ATOM     82  C   UNL A   1      42.253  21.311  28.063  1.00  0.00     0.059 A 
ATOM     83  F   UNL A   1      42.371  22.771  29.896  1.00  0.00    -0.206 F 
ATOM     84  C   UNL A   1      42.284  21.118  26.682  1.00  0.00     0.060 A 
BRANCH  84  85
ATOM     85  S   UNL A   1      42.111  19.458  25.990  1.00  0.00     0.124 S 
ATOM     86  O   UNL A   1      40.678  19.400  25.722  1.00  0.00    -0.237 OA
ATOM     87  O   UNL A   1      42.978  19.522  24.818  1.00  0.00    -0.237 OA
ATOM     88  O   UNL A   1      42.589  18.596  27.066  1.00  0.00    -0.744 OA
ENDBRANCH  84  85
ENDBRANCH  52  77
BRANCH  64  89
ATOM     89  C   UNL A   1      48.099  27.205  30.227  1.00  0.00     0.058 A 
ATOM     90  C   UNL A   1      49.095  27.396  29.259  1.00  0.00     0.135 A 
ATOM     91  C   UNL A   1      48.486  26.708  31.483  1.00  0.00     0.135 A 
ATOM     92  F   UNL A   1      48.774  27.861  28.042  1.00  0.00    -0.206 F 
ATOM     93  C   UNL A   1      50.427  27.095  29.522  1.00  0.00     0.059 A 
ATOM     94  C   UNL A   1      49.815  26.424  31.775  1.00  0.00     0.059 A 
ATOM     95  F   UNL A   1      47.570  26.516  32.446  1.00  0.00    -0.206 F 
ATOM     96  C   UNL A   1      50.779  26.615  30.786  1.00  0.00     0.060 A 
BRANCH  96  97
ATOM     97  S   UNL A   1      52.518  26.281  31.134  1.00  0.00     0.124 S 
ATOM     98  O   UNL A   1      52.438  25.004  31.836  1.00  0.00    -0.237 OA
ATOM     99  O   UNL A   1      53.102  26.234  29.797  1.00  0.00    -0.237 OA
ATOM    100  O   UNL A   1      52.927  27.422  31.949  1.00  0.00    -0.744 OA
ENDBRANCH  96  97
ENDBRANCH  64  89
ENDBRANCH  38  39
ENDBRANCH  30  33
ENDBRANCH  28  29
ENDBRANCH  27  28
ENDBRANCH   1  27
TORSDOF 18
ENDMDL
MODEL 2
REMARK VINA RESULT:     -11.4      5.104     11.187
REMARK SMILES Cc1ccc(C(N)=O)c(NCc2ccc(C(=O)NCCCCNC(=O)c3ccc(-c4c5nc(c(-c6c(F)cc(S(=O)(=O)[O-])cc6F)c6ccc([nH]6)c(-c6c(F)cc(S(=O)(=O)[O-])cc6F)c6nc(c(-c7c(F)cc(S(=O)(=O)[O-])cc7F)c7ccc4[nH]7)C=C6)C=C5)cc3)o2)n1
REMARK SMILES IDX 20 1 19 2 18 3 16 4 17 5 15 7 12 8 13 9 92 10 14 11 11 12
REMARK SMILES IDX 10 13 9 15 1 16 2 17 3 18 93 19 4 20 5 21 6 22 7 23 8 24
REMARK SMILES IDX 21 27 22 28 23 29 24 30 25 32 26 33 27 34 91 35 28 36 90 37
REMARK SMILES IDX 29 38 30 39 31 40 84 41 32 42 89 43 83 44 85 45 33 46 88 47
REMARK SMILES IDX 82 48 81 49 34 51 68 52 47 53 67 54 48 55 51 56 66 57 86 58
REMARK SMILES IDX 49 59 50 60 65 62 87 63 52 64 35 65 36 66 45 67 37 68 38 69
REMARK SMILES IDX 44 70 46 71 39 72 40 73 41 74 42 75 43 76 69 77 70 78 79 79
REMARK SMILES IDX 71 80 72 81 78 82 80 83 73 84 74 85 75 86 76 87 77 88 53 89
REMARK SMILES IDX 54 90 63 91 55 92 56 93 62 94 64 95 57 96 58 97 59 98 60 99
REMARK SMILES IDX 61 100
REMARK H PARENT 18 6 10 14 7 25 7 26 23 31 85 50 51 61
REMARK Flexibility Score: inf
ROOT
ATOM      1  C   UNL A   1      40.073  33.130  32.224  1.00  0.00     0.023 C 
ENDROOT
BRANCH   1   2
ATOM      2  C   UNL A   1      40.274  33.006  33.734  1.00  0.00     0.116 C 
BRANCH   2   3
ATOM      3  N   UNL A   1      39.735  31.760  34.238  1.00  0.00    -0.349 N 
ATOM      4  C   UNL A   1      38.468  31.434  34.665  1.00  0.00     0.286 C 
ATOM      5  O   UNL A   1      38.288  30.249  34.957  1.00  0.00    -0.266 OA
ATOM      6  H   UNL A   1      40.384  31.022  34.281  1.00  0.00     0.163 HD
BRANCH   4   7
ATOM      7  C   UNL A   1      37.413  32.430  34.749  1.00  0.00     0.191 A 
ATOM      8  C   UNL A   1      35.545  33.371  34.010  1.00  0.00     0.124 A 
ATOM      9  C   UNL A   1      35.934  34.098  35.111  1.00  0.00     0.048 A 
ATOM     10  O   UNL A   1      36.434  32.366  33.783  1.00  0.00    -0.454 OA
ATOM     11  C   UNL A   1      37.100  33.470  35.608  1.00  0.00     0.056 A 
BRANCH   8  12
ATOM     12  C   UNL A   1      34.378  33.453  33.083  1.00  0.00     0.190 C 
BRANCH  12  13
ATOM     13  N   UNL A   1      34.468  34.562  32.145  1.00  0.00    -0.362 N 
ATOM     14  H   UNL A   1      34.783  35.440  32.458  1.00  0.00     0.162 HD
BRANCH  13  15
ATOM     15  C   UNL A   1      34.114  34.397  30.815  1.00  0.00     0.139 A 
ATOM     16  C   UNL A   1      34.426  31.648  28.379  1.00  0.00     0.067 C 
ATOM     17  C   UNL A   1      34.062  32.985  28.946  1.00  0.00     0.040 A 
ATOM     18  C   UNL A   1      33.394  33.930  28.183  1.00  0.00     0.024 A 
ATOM     19  N   UNL A   1      34.429  33.217  30.230  1.00  0.00    -0.236 NA
ATOM     20  C   UNL A   1      33.092  35.154  28.767  1.00  0.00     0.019 A 
ATOM     21  C   UNL A   1      33.461  35.405  30.095  1.00  0.00     0.081 A 
BRANCH  21  22
ATOM     22  C   UNL A   1      33.159  36.760  30.631  1.00  0.00     0.252 C 
ATOM     23  N   UNL A   1      33.414  37.837  29.829  1.00  0.00    -0.365 N 
ATOM     24  O   UNL A   1      32.655  36.912  31.737  1.00  0.00    -0.269 OA
ATOM     25  H   UNL A   1      33.819  37.704  28.941  1.00  0.00     0.159 HD
ATOM     26  H   UNL A   1      33.194  38.744  30.139  1.00  0.00     0.159 HD
ENDBRANCH  21  22
ENDBRANCH  13  15
ENDBRANCH  12  13
ENDBRANCH   8  12
ENDBRANCH   4   7
ENDBRANCH   2   3
ENDBRANCH   1   2
BRANCH   1  27
ATOM     27  C   UNL A   1      38.787  33.862  31.822  1.00  0.00     0.023 C 
BRANCH  27  28
ATOM     28  C   UNL A   1      38.044  33.261  30.630  1.00  0.00     0.116 C 
BRANCH  28  29
ATOM     29  N   UNL A   1      37.090  32.229  31.005  1.00  0.00    -0.352 N 
ATOM     30  C   UNL A   1      37.192  30.869  30.821  1.00  0.00     0.251 C 
ATOM     31  H   UNL A   1      36.267  32.543  31.444  1.00  0.00     0.163 HD
ATOM     32  O   UNL A   1      36.255  30.133  31.099  1.00  0.00    -0.269 OA
BRANCH  30  33
ATOM     33  C   UNL A   1      38.436  30.317  30.242  1.00  0.00     0.039 A 
ATOM     34  C   UNL A   1      38.603  30.337  28.855  1.00  0.00     0.014 A 
ATOM     35  C   UNL A   1      39.447  29.828  31.071  1.00  0.00     0.014 A 
ATOM     36  C   UNL A   1      39.820  29.935  28.302  1.00  0.00     0.010 A 
ATOM     37  C   UNL A   1      40.679  29.486  30.523  1.00  0.00     0.010 A 
ATOM     38  C   UNL A   1      40.880  29.543  29.135  1.00  0.00    -0.014 A 
BRANCH  38  39
ATOM     39  C   UNL A   1      42.214  29.190  28.586  1.00  0.00     0.031 A 
ATOM     40  C   UNL A   1      42.489  27.780  28.143  1.00  0.00     0.074 A 
ATOM     41  C   UNL A   1      43.198  30.110  28.576  1.00  0.00     0.049 A 
ATOM     42  N   UNL A   1      43.618  27.236  27.772  1.00  0.00    -0.248 NA
ATOM     43  C   UNL A   1      41.346  26.852  28.147  1.00  0.00     0.031 C 
ATOM     44  C   UNL A   1      43.064  31.500  29.017  1.00  0.00     0.029 A 
ATOM     45  N   UNL A   1      44.514  30.009  28.199  1.00  0.00    -0.354 N 
ATOM     46  C   UNL A   1      43.330  25.900  27.521  1.00  0.00     0.074 A 
ATOM     47  C   UNL A   1      41.928  25.706  27.823  1.00  0.00     0.031 C 
ATOM     48  C   UNL A   1      44.246  32.123  28.877  1.00  0.00     0.029 A 
ATOM     49  C   UNL A   1      45.231  31.169  28.375  1.00  0.00     0.049 A 
ATOM     50  H   UNL A   1      44.908  29.183  27.838  1.00  0.00     0.167 HD
ATOM     51  C   UNL A   1      44.154  24.928  27.063  1.00  0.00     0.037 A 
ATOM     52  C   UNL A   1      46.537  31.432  28.169  1.00  0.00     0.037 A 
ATOM     53  C   UNL A   1      45.539  25.136  26.734  1.00  0.00     0.049 A 
ATOM     54  C   UNL A   1      47.431  30.339  27.650  1.00  0.00     0.074 A 
ATOM     55  C   UNL A   1      46.447  24.229  26.218  1.00  0.00     0.029 A 
ATOM     56  N   UNL A   1      46.216  26.338  26.882  1.00  0.00    -0.354 N 
ATOM     57  N   UNL A   1      47.132  29.091  27.379  1.00  0.00    -0.248 NA
ATOM     58  C   UNL A   1      48.837  30.687  27.403  1.00  0.00     0.031 C 
ATOM     59  C   UNL A   1      47.681  24.874  26.083  1.00  0.00     0.029 A 
ATOM     60  C   UNL A   1      47.531  26.194  26.474  1.00  0.00     0.049 A 
ATOM     61  H   UNL A   1      45.819  27.172  27.226  1.00  0.00     0.167 HD
ATOM     62  C   UNL A   1      48.303  28.515  26.896  1.00  0.00     0.074 A 
ATOM     63  C   UNL A   1      49.315  29.552  26.913  1.00  0.00     0.031 C 
ATOM     64  C   UNL A   1      48.518  27.245  26.474  1.00  0.00     0.037 A 
BRANCH  51  65
ATOM     65  C   UNL A   1      43.576  23.551  26.889  1.00  0.00     0.058 A 
ATOM     66  C   UNL A   1      43.171  23.079  25.630  1.00  0.00     0.135 A 
ATOM     67  C   UNL A   1      43.452  22.684  27.985  1.00  0.00     0.135 A 
ATOM     68  F   UNL A   1      43.255  23.873  24.551  1.00  0.00    -0.206 F 
ATOM     69  C   UNL A   1      42.635  21.806  25.469  1.00  0.00     0.059 A 
ATOM     70  C   UNL A   1      42.942  21.395  27.843  1.00  0.00     0.059 A 
ATOM     71  F   UNL A   1      43.823  23.084  29.211  1.00  0.00    -0.206 F 
ATOM     72  C   UNL A   1      42.521  20.973  26.582  1.00  0.00     0.060 A 
BRANCH  72  73
ATOM     73  S   UNL A   1      41.821  19.324  26.358  1.00  0.00     0.124 S 
ATOM     74  O   UNL A   1      42.757  18.740  25.402  1.00  0.00    -0.237 OA
ATOM     75  O   UNL A   1      41.871  18.776  27.709  1.00  0.00    -0.237 OA
ATOM     76  O   UNL A   1      40.482  19.591  25.843  1.00  0.00    -0.744 OA
ENDBRANCH  72  73
ENDBRANCH  51  65
BRANCH  52  77
ATOM     77  C   UNL A   1      47.072  32.794  28.432  1.00  0.00     0.058 A 
ATOM     78  C   UNL A   1      47.106  33.760  27.417  1.00  0.00     0.135 A 
ATOM     79  C   UNL A   1      47.548  33.160  29.700  1.00  0.00     0.135 A 
ATOM     80  F   UNL A   1      46.666  33.456  26.187  1.00  0.00    -0.206 F 
ATOM     81  C   UNL A   1      47.607  35.038  27.644  1.00  0.00     0.059 A 
ATOM     82  C   UNL A   1      48.033  34.438  29.959  1.00  0.00     0.059 A 
ATOM     83  F   UNL A   1      47.521  32.275  30.711  1.00  0.00    -0.206 F 
ATOM     84  C   UNL A   1      48.068  35.368  28.919  1.00  0.00     0.060 A 
BRANCH  84  85
ATOM     85  S   UNL A   1      48.672  37.044  29.216  1.00  0.00     0.124 S 
ATOM     86  O   UNL A   1      47.964  37.398  30.441  1.00  0.00    -0.237 OA
ATOM     87  O   UNL A   1      50.110  36.833  29.348  1.00  0.00    -0.237 OA
ATOM     88  O   UNL A   1      48.261  37.765  28.015  1.00  0.00    -0.744 OA
ENDBRANCH  84  85
ENDBRANCH  52  77
BRANCH  64  89
ATOM     89  C   UNL A   1      49.883  26.911  25.942  1.00  0.00     0.058 A 
ATOM     90  C   UNL A   1      50.223  27.112  24.597  1.00  0.00     0.135 A 
ATOM     91  C   UNL A   1      50.885  26.451  26.814  1.00  0.00     0.135 A 
ATOM     92  F   UNL A   1      49.299  27.543  23.724  1.00  0.00    -0.206 F 
ATOM     93  C   UNL A   1      51.508  26.859  24.128  1.00  0.00     0.059 A 
ATOM     94  C   UNL A   1      52.182  26.215  26.372  1.00  0.00     0.059 A 
ATOM     95  F   UNL A   1      50.611  26.251  28.113  1.00  0.00    -0.206 F 
ATOM     96  C   UNL A   1      52.483  26.416  25.026  1.00  0.00     0.060 A 
BRANCH  96  97
ATOM     97  S   UNL A   1      54.161  26.144  24.419  1.00  0.00     0.124 S 
ATOM     98  O   UNL A   1      54.378  24.745  24.771  1.00  0.00    -0.237 OA
ATOM     99  O   UNL A   1      54.028  26.425  22.992  1.00  0.00    -0.237 OA
ATOM    100  O   UNL A   1      54.955  27.112  25.169  1.00  0.00    -0.744 OA
ENDBRANCH  96  97
ENDBRANCH  64  89
ENDBRANCH  38  39
ENDBRANCH  30  33
ENDBRANCH  28  29
ENDBRANCH  27  28
ENDBRANCH   1  27
TORSDOF 18
ENDMDL
MODEL 3
REMARK VINA RESULT:     -11.3      5.132      8.070
REMARK SMILES Cc1ccc(C(N)=O)c(NCc2ccc(C(=O)NCCCCNC(=O)c3ccc(-c4c5nc(c(-c6c(F)cc(S(=O)(=O)[O-])cc6F)c6ccc([nH]6)c(-c6c(F)cc(S(=O)(=O)[O-])cc6F)c6nc(c(-c7c(F)cc(S(=O)(=O)[O-])cc7F)c7ccc4[nH]7)C=C6)C=C5)cc3)o2)n1
REMARK SMILES IDX 20 1 19 2 18 3 16 4 17 5 15 7 12 8 13 9 92 10 14 11 11 12
REMARK SMILES IDX 10 13 9 15 1 16 2 17 3 18 93 19 4 20 5 21 6 22 7 23 8 24
REMARK SMILES IDX 21 27 22 28 23 29 24 30 25 32 26 33 27 34 91 35 28 36 90 37
REMARK SMILES IDX 29 38 30 39 31 40 84 41 32 42 89 43 83 44 85 45 33 46 88 47
REMARK SMILES IDX 82 48 81 49 34 51 68 52 47 53 67 54 48 55 51 56 66 57 86 58
REMARK SMILES IDX 49 59 50 60 65 62 87 63 52 64 35 65 36 66 45 67 37 68 38 69
REMARK SMILES IDX 44 70 46 71 39 72 40 73 41 74 42 75 43 76 69 77 70 78 79 79
REMARK SMILES IDX 71 80 72 81 78 82 80 83 73 84 74 85 75 86 76 87 77 88 53 89
REMARK SMILES IDX 54 90 63 91 55 92 56 93 62 94 64 95 57 96 58 97 59 98 60 99
REMARK SMILES IDX 61 100
REMARK H PARENT 18 6 10 14 7 25 7 26 23 31 85 50 51 61
REMARK Flexibility Score: inf
ROOT
ATOM      1  C   UNL A   1      40.022  33.264  32.139  1.00  0.00     0.023 C 
ENDROOT
BRANCH   1   2
ATOM      2  C   UNL A   1      40.310  33.078  33.629  1.00  0.00     0.116 C 
BRANCH   2   3
ATOM      3  N   UNL A   1      39.858  31.784  34.096  1.00  0.00    -0.349 N 
ATOM      4  C   UNL A   1      38.665  31.398  34.663  1.00  0.00     0.286 C 
ATOM      5  O   UNL A   1      38.540  30.189  34.878  1.00  0.00    -0.266 OA
ATOM      6  H   UNL A   1      40.514  31.059  33.989  1.00  0.00     0.163 HD
BRANCH   4   7
ATOM      7  C   UNL A   1      37.622  32.360  34.972  1.00  0.00     0.191 A 
ATOM      8  C   UNL A   1      35.805  33.518  34.441  1.00  0.00     0.124 A 
ATOM      9  C   UNL A   1      36.150  33.904  35.716  1.00  0.00     0.048 A 
ATOM     10  O   UNL A   1      36.689  32.590  33.985  1.00  0.00    -0.454 OA
ATOM     11  C   UNL A   1      37.282  33.133  36.070  1.00  0.00     0.056 A 
BRANCH   8  12
ATOM     12  C   UNL A   1      34.685  33.882  33.524  1.00  0.00     0.190 C 
BRANCH  12  13
ATOM     13  N   UNL A   1      35.064  34.866  32.521  1.00  0.00    -0.362 N 
ATOM     14  H   UNL A   1      35.846  35.443  32.675  1.00  0.00     0.162 HD
BRANCH  13  15
ATOM     15  C   UNL A   1      34.335  35.002  31.349  1.00  0.00     0.139 A 
ATOM     16  C   UNL A   1      34.084  33.068  28.222  1.00  0.00     0.067 C 
ATOM     17  C   UNL A   1      33.817  34.138  29.235  1.00  0.00     0.040 A 
ATOM     18  C   UNL A   1      32.884  35.135  28.995  1.00  0.00     0.024 A 
ATOM     19  N   UNL A   1      34.540  34.080  30.380  1.00  0.00    -0.236 NA
ATOM     20  C   UNL A   1      32.689  36.102  29.974  1.00  0.00     0.019 A 
ATOM     21  C   UNL A   1      33.425  36.051  31.165  1.00  0.00     0.081 A 
BRANCH  21  22
ATOM     22  C   UNL A   1      33.206  37.155  32.138  1.00  0.00     0.252 C 
ATOM     23  N   UNL A   1      34.056  38.224  32.095  1.00  0.00    -0.365 N 
ATOM     24  O   UNL A   1      32.267  37.136  32.926  1.00  0.00    -0.269 OA
ATOM     25  H   UNL A   1      34.807  38.230  31.459  1.00  0.00     0.159 HD
ATOM     26  H   UNL A   1      33.919  38.986  32.701  1.00  0.00     0.159 HD
ENDBRANCH  21  22
ENDBRANCH  13  15
ENDBRANCH  12  13
ENDBRANCH   8  12
ENDBRANCH   4   7
ENDBRANCH   2   3
ENDBRANCH   1   2
BRANCH   1  27
ATOM     27  C   UNL A   1      38.689  33.962  31.842  1.00  0.00     0.023 C 
BRANCH  27  28
ATOM     28  C   UNL A   1      37.943  33.438  30.616  1.00  0.00     0.116 C 
BRANCH  28  29
ATOM     29  N   UNL A   1      36.896  32.483  30.941  1.00  0.00    -0.352 N 
ATOM     30  C   UNL A   1      36.930  31.111  30.825  1.00  0.00     0.251 C 
ATOM     31  H   UNL A   1      36.057  32.864  31.286  1.00  0.00     0.163 HD
ATOM     32  O   UNL A   1      35.926  30.446  31.044  1.00  0.00    -0.269 OA
BRANCH  30  33
ATOM     33  C   UNL A   1      38.185  30.461  30.390  1.00  0.00     0.039 A 
ATOM     34  C   UNL A   1      38.513  30.465  29.033  1.00  0.00     0.014 A 
ATOM     35  C   UNL A   1      39.051  29.896  31.328  1.00  0.00     0.014 A 
ATOM     36  C   UNL A   1      39.750  29.966  28.621  1.00  0.00     0.010 A 
ATOM     37  C   UNL A   1      40.307  29.456  30.924  1.00  0.00     0.010 A 
ATOM     38  C   UNL A   1      40.672  29.493  29.569  1.00  0.00    -0.014 A 
BRANCH  38  39
ATOM     39  C   UNL A   1      42.028  29.034  29.176  1.00  0.00     0.031 A 
ATOM     40  C   UNL A   1      43.165  30.016  29.135  1.00  0.00     0.074 A 
ATOM     41  C   UNL A   1      42.212  27.763  28.768  1.00  0.00     0.049 A 
ATOM     42  N   UNL A   1      44.382  29.853  28.686  1.00  0.00    -0.248 NA
ATOM     43  C   UNL A   1      42.886  31.371  29.638  1.00  0.00     0.031 C 
ATOM     44  C   UNL A   1      41.178  26.727  28.726  1.00  0.00     0.029 A 
ATOM     45  N   UNL A   1      43.333  27.129  28.291  1.00  0.00    -0.354 N 
ATOM     46  C   UNL A   1      45.007  31.086  28.830  1.00  0.00     0.074 A 
ATOM     47  C   UNL A   1      44.021  31.999  29.368  1.00  0.00     0.031 C 
ATOM     48  C   UNL A   1      41.714  25.587  28.258  1.00  0.00     0.029 A 
ATOM     49  C   UNL A   1      43.117  25.820  27.929  1.00  0.00     0.049 A 
ATOM     50  H   UNL A   1      44.209  27.571  28.212  1.00  0.00     0.167 HD
ATOM     51  C   UNL A   1      46.290  31.422  28.556  1.00  0.00     0.037 A 
ATOM     52  C   UNL A   1      43.950  24.914  27.381  1.00  0.00     0.037 A 
ATOM     53  C   UNL A   1      47.273  30.500  28.052  1.00  0.00     0.049 A 
ATOM     54  C   UNL A   1      45.374  25.307  27.095  1.00  0.00     0.074 A 
ATOM     55  C   UNL A   1      48.611  30.729  27.786  1.00  0.00     0.029 A 
ATOM     56  N   UNL A   1      47.026  29.170  27.743  1.00  0.00    -0.354 N 
ATOM     57  N   UNL A   1      45.960  26.467  27.276  1.00  0.00    -0.248 NA
ATOM     58  C   UNL A   1      46.253  24.271  26.537  1.00  0.00     0.031 C 
ATOM     59  C   UNL A   1      49.166  29.545  27.288  1.00  0.00     0.029 A 
ATOM     60  C   UNL A   1      48.185  28.568  27.283  1.00  0.00     0.049 A 
ATOM     61  H   UNL A   1      46.154  28.720  27.837  1.00  0.00     0.167 HD
ATOM     62  C   UNL A   1      47.283  26.290  26.887  1.00  0.00     0.074 A 
ATOM     63  C   UNL A   1      47.412  24.911  26.461  1.00  0.00     0.031 C 
ATOM     64  C   UNL A   1      48.300  27.186  26.887  1.00  0.00     0.037 A 
BRANCH  51  65
ATOM     65  C   UNL A   1      46.703  32.846  28.800  1.00  0.00     0.058 A 
ATOM     66  C   UNL A   1      46.642  33.813  27.783  1.00  0.00     0.135 A 
ATOM     67  C   UNL A   1      47.138  33.257  30.069  1.00  0.00     0.135 A 
ATOM     68  F   UNL A   1      46.248  33.470  26.546  1.00  0.00    -0.206 F 
ATOM     69  C   UNL A   1      47.026  35.130  28.008  1.00  0.00     0.059 A 
ATOM     70  C   UNL A   1      47.502  34.577  30.324  1.00  0.00     0.059 A 
ATOM     71  F   UNL A   1      47.215  32.374  31.077  1.00  0.00    -0.206 F 
ATOM     72  C   UNL A   1      47.458  35.502  29.282  1.00  0.00     0.060 A 
BRANCH  72  73
ATOM     73  S   UNL A   1      47.955  37.215  29.559  1.00  0.00     0.124 S 
ATOM     74  O   UNL A   1      46.810  37.732  30.302  1.00  0.00    -0.237 OA
ATOM     75  O   UNL A   1      49.190  37.065  30.320  1.00  0.00    -0.237 OA
ATOM     76  O   UNL A   1      48.117  37.744  28.207  1.00  0.00    -0.744 OA
ENDBRANCH  72  73
ENDBRANCH  51  65
BRANCH  52  77
ATOM     77  C   UNL A   1      43.466  23.539  27.089  1.00  0.00     0.058 A 
ATOM     78  C   UNL A   1      43.173  23.145  25.776  1.00  0.00     0.135 A 
ATOM     79  C   UNL A   1      43.299  22.591  28.110  1.00  0.00     0.135 A 
ATOM     80  F   UNL A   1      43.312  24.018  24.767  1.00  0.00    -0.206 F 
ATOM     81  C   UNL A   1      42.715  21.864  25.485  1.00  0.00     0.059 A 
ATOM     82  C   UNL A   1      42.865  21.296  27.842  1.00  0.00     0.059 A 
ATOM     83  F   UNL A   1      43.585  22.914  29.382  1.00  0.00    -0.206 F 
ATOM     84  C   UNL A   1      42.566  20.945  26.525  1.00  0.00     0.060 A 
BRANCH  84  85
ATOM     85  S   UNL A   1      42.016  19.270  26.131  1.00  0.00     0.124 S 
ATOM     86  O   UNL A   1      42.398  18.545  27.338  1.00  0.00    -0.237 OA
ATOM     87  O   UNL A   1      40.584  19.457  25.924  1.00  0.00    -0.237 OA
ATOM     88  O   UNL A   1      42.778  18.943  24.929  1.00  0.00    -0.744 OA
ENDBRANCH  84  85
ENDBRANCH  52  77
BRANCH  64  89
ATOM     89  C   UNL A   1      49.657  26.700  26.466  1.00  0.00     0.058 A 
ATOM     90  C   UNL A   1      50.507  26.019  27.350  1.00  0.00     0.135 A 
ATOM     91  C   UNL A   1      50.078  26.854  25.134  1.00  0.00     0.135 A 
ATOM     92  F   UNL A   1      50.153  25.853  28.634  1.00  0.00    -0.206 F 
ATOM     93  C   UNL A   1      51.735  25.517  26.932  1.00  0.00     0.059 A 
ATOM     94  C   UNL A   1      51.291  26.338  24.689  1.00  0.00     0.059 A 
ATOM     95  F   UNL A   1      49.296  27.490  24.247  1.00  0.00    -0.206 F 
ATOM     96  C   UNL A   1      52.116  25.677  25.597  1.00  0.00     0.060 A 
BRANCH  96  97
ATOM     97  S   UNL A   1      53.686  24.972  25.053  1.00  0.00     0.124 S 
ATOM     98  O   UNL A   1      53.837  25.576  23.733  1.00  0.00    -0.237 OA
ATOM     99  O   UNL A   1      54.614  25.445  26.076  1.00  0.00    -0.237 OA
ATOM    100  O   UNL A   1      53.435  23.534  25.062  1.00  0.00    -0.744 OA
ENDBRANCH  96  97
ENDBRANCH  64  89
ENDBRANCH  38  39
ENDBRANCH  30  33
ENDBRANCH  28  29
ENDBRANCH  27  28
ENDBRANCH   1  27
TORSDOF 18
ENDMDL
