MODEL 1
REMARK VINA RESULT:     -11.1      0.000      0.000
REMARK SMILES CC[C@@H](C)N(C)S(=O)(=O)c1cc(C(=O)NCCCCNC(=O)c2ccc(-c3c4nc(c(-c5c(F)cc(S(=O)(=O)[O-])cc5F)c5ccc([nH]5)c(-c5c(F)cc(S(=O)(=O)[O-])cc5F)c5nc(c(-c6c(F)cc(S(=O)(=O)[O-])cc6F)c6ccc3[nH]6)C=C5)C=C4)cc2)ccc1Br
REMARK SMILES IDX 17 1 16 2 15 3 13 4 14 5 12 7 10 8 11 9 91 10 90 11 92 12
REMARK SMILES IDX 89 13 7 14 8 15 9 16 5 17 6 18 3 19 4 20 2 21 1 22 18 23
REMARK SMILES IDX 19 24 20 25 21 26 22 28 23 29 24 30 88 31 25 32 87 33 26 34
REMARK SMILES IDX 27 35 28 36 81 37 29 38 86 39 80 40 82 41 30 42 85 43 79 44
REMARK SMILES IDX 78 45 31 47 65 48 44 49 64 50 45 51 48 52 63 53 83 54 46 55
REMARK SMILES IDX 47 56 62 58 84 59 49 60 32 61 33 62 42 63 34 64 35 65 41 66
REMARK SMILES IDX 43 67 36 68 37 69 38 70 39 71 40 72 66 73 67 74 76 75 68 76
REMARK SMILES IDX 69 77 75 78 77 79 70 80 71 81 72 82 73 83 74 84 50 85 51 86
REMARK SMILES IDX 60 87 52 88 53 89 59 90 61 91 54 92 55 93 56 94 57 95 58 96
REMARK H PARENT 15 6 20 27 82 46 48 57
REMARK Flexibility Score: inf
ROOT
ATOM      1  C   UNL A   1      33.011  29.616  25.062  1.00  0.00     0.023 C 
ENDROOT
BRANCH   1   2
ATOM      2  C   UNL A   1      31.493  29.616  24.875  1.00  0.00     0.116 C 
BRANCH   2   3
ATOM      3  N   UNL A   1      31.158  29.085  23.573  1.00  0.00    -0.352 N 
ATOM      4  C   UNL A   1      30.948  27.811  23.128  1.00  0.00     0.251 C 
ATOM      5  O   UNL A   1      30.740  27.656  21.924  1.00  0.00    -0.269 OA
ATOM      6  H   UNL A   1      31.066  29.773  22.874  1.00  0.00     0.163 HD
BRANCH   4   7
ATOM      7  C   UNL A   1      30.915  26.613  24.015  1.00  0.00     0.041 A 
ATOM      8  C   UNL A   1      32.172  24.667  24.801  1.00  0.00     0.097 A 
ATOM      9  C   UNL A   1      32.052  25.795  23.974  1.00  0.00     0.036 A 
ATOM     10  C   UNL A   1      31.124  24.307  25.648  1.00  0.00     0.038 A 
ATOM     11  C   UNL A   1      29.986  25.118  25.692  1.00  0.00     0.018 A 
ATOM     12  Br  UNL A   1      31.133  22.816  26.820  1.00  0.00    -0.049 Br
ATOM     13  C   UNL A   1      29.899  26.278  24.911  1.00  0.00     0.015 A 
BRANCH   8  14
ATOM     14  S   UNL A   1      33.719  23.799  24.761  1.00  0.00     0.244 S 
ATOM     15  O   UNL A   1      34.020  23.368  26.114  1.00  0.00    -0.207 OA
ATOM     16  O   UNL A   1      34.662  24.622  24.045  1.00  0.00    -0.207 OA
BRANCH  14  17
ATOM     17  N   UNL A   1      33.331  22.380  23.862  1.00  0.00    -0.198 NA
ATOM     18  C   UNL A   1      32.060  22.487  23.087  1.00  0.00     0.124 C 
BRANCH  17  19
ATOM     19  C   UNL A   1      33.426  21.058  24.585  1.00  0.00     0.069 C 
ATOM     20  C   UNL A   1      34.872  20.610  24.788  1.00  0.00     0.026 C 
BRANCH  19  21
ATOM     21  C   UNL A   1      32.537  19.999  23.911  1.00  0.00     0.016 C 
ATOM     22  C   UNL A   1      32.617  18.627  24.564  1.00  0.00     0.005 C 
ENDBRANCH  19  21
ENDBRANCH  17  19
ENDBRANCH  14  17
ENDBRANCH   8  14
ENDBRANCH   4   7
ENDBRANCH   2   3
ENDBRANCH   1   2
BRANCH   1  23
ATOM     23  C   UNL A   1      33.536  28.380  25.798  1.00  0.00     0.023 C 
BRANCH  23  24
ATOM     24  C   UNL A   1      33.682  28.562  27.302  1.00  0.00     0.116 C 
BRANCH  24  25
ATOM     25  N   UNL A   1      33.616  29.957  27.720  1.00  0.00    -0.352 N 
ATOM     26  C   UNL A   1      34.619  30.703  28.294  1.00  0.00     0.251 C 
ATOM     27  H   UNL A   1      32.757  30.416  27.577  1.00  0.00     0.163 HD
ATOM     28  O   UNL A   1      34.406  31.836  28.710  1.00  0.00    -0.269 OA
BRANCH  26  29
ATOM     29  C   UNL A   1      35.948  30.078  28.423  1.00  0.00     0.039 A 
ATOM     30  C   UNL A   1      36.829  30.118  27.341  1.00  0.00     0.014 A 
ATOM     31  C   UNL A   1      36.351  29.576  29.661  1.00  0.00     0.014 A 
ATOM     32  C   UNL A   1      38.152  29.713  27.525  1.00  0.00     0.010 A 
ATOM     33  C   UNL A   1      37.685  29.253  29.860  1.00  0.00     0.010 A 
ATOM     34  C   UNL A   1      38.599  29.318  28.796  1.00  0.00    -0.014 A 
BRANCH  34  35
ATOM     35  C   UNL A   1      40.012  28.942  29.052  1.00  0.00     0.031 A 
ATOM     36  C   UNL A   1      40.967  29.988  29.555  1.00  0.00     0.074 A 
ATOM     37  C   UNL A   1      40.454  27.708  28.739  1.00  0.00     0.049 A 
ATOM     38  N   UNL A   1      42.266  29.931  29.681  1.00  0.00    -0.248 NA
ATOM     39  C   UNL A   1      40.384  31.288  29.929  1.00  0.00     0.031 C 
ATOM     40  C   UNL A   1      39.629  26.617  28.216  1.00  0.00     0.029 A 
ATOM     41  N   UNL A   1      41.717  27.170  28.792  1.00  0.00    -0.354 N 
ATOM     42  C   UNL A   1      42.657  31.189  30.124  1.00  0.00     0.074 A 
ATOM     43  C   UNL A   1      41.466  32.005  30.189  1.00  0.00     0.031 C 
ATOM     44  C   UNL A   1      40.405  25.540  28.007  1.00  0.00     0.029 A 
ATOM     45  C   UNL A   1      41.787  25.876  28.330  1.00  0.00     0.049 A 
ATOM     46  H   UNL A   1      42.498  27.666  29.129  1.00  0.00     0.167 HD
ATOM     47  C   UNL A   1      43.894  31.617  30.465  1.00  0.00     0.037 A 
ATOM     48  C   UNL A   1      42.850  25.063  28.166  1.00  0.00     0.037 A 
ATOM     49  C   UNL A   1      45.069  30.787  30.421  1.00  0.00     0.049 A 
ATOM     50  C   UNL A   1      44.222  25.567  28.534  1.00  0.00     0.074 A 
ATOM     51  C   UNL A   1      46.362  31.108  30.791  1.00  0.00     0.029 A 
ATOM     52  N   UNL A   1      45.093  29.472  29.979  1.00  0.00    -0.354 N 
ATOM     53  N   UNL A   1      44.571  26.746  28.994  1.00  0.00    -0.248 NA
ATOM     54  C   UNL A   1      45.345  24.633  28.368  1.00  0.00     0.031 C 
ATOM     55  C   UNL A   1      47.177  30.006  30.522  1.00  0.00     0.029 A 
ATOM     56  C   UNL A   1      46.382  28.974  30.052  1.00  0.00     0.049 A 
ATOM     57  H   UNL A   1      44.309  28.967  29.662  1.00  0.00     0.167 HD
ATOM     58  C   UNL A   1      45.942  26.679  29.215  1.00  0.00     0.074 A 
ATOM     59  C   UNL A   1      46.362  25.347  28.834  1.00  0.00     0.031 C 
ATOM     60  C   UNL A   1      46.777  27.633  29.697  1.00  0.00     0.037 A 
BRANCH  47  61
ATOM     61  C   UNL A   1      44.041  33.046  30.913  1.00  0.00     0.058 A 
ATOM     62  C   UNL A   1      44.400  34.069  30.019  1.00  0.00     0.135 A 
ATOM     63  C   UNL A   1      43.790  33.403  32.248  1.00  0.00     0.135 A 
ATOM     64  F   UNL A   1      44.669  33.783  28.736  1.00  0.00    -0.206 F 
ATOM     65  C   UNL A   1      44.536  35.387  30.440  1.00  0.00     0.059 A 
ATOM     66  C   UNL A   1      43.886  34.721  32.683  1.00  0.00     0.059 A 
ATOM     67  F   UNL A   1      43.447  32.466  33.146  1.00  0.00    -0.206 F 
ATOM     68  C   UNL A   1      44.274  35.704  31.774  1.00  0.00     0.060 A 
BRANCH  68  69
ATOM     69  S   UNL A   1      44.449  37.421  32.299  1.00  0.00     0.124 S 
ATOM     70  O   UNL A   1      45.901  37.560  32.363  1.00  0.00    -0.237 OA
ATOM     71  O   UNL A   1      43.790  38.145  31.216  1.00  0.00    -0.237 OA
ATOM     72  O   UNL A   1      43.759  37.457  33.585  1.00  0.00    -0.744 OA
ENDBRANCH  68  69
ENDBRANCH  47  61
BRANCH  48  73
ATOM     73  C   UNL A   1      42.661  23.683  27.641  1.00  0.00     0.058 A 
ATOM     74  C   UNL A   1      42.493  22.595  28.512  1.00  0.00     0.135 A 
ATOM     75  C   UNL A   1      42.636  23.420  26.262  1.00  0.00     0.135 A 
ATOM     76  F   UNL A   1      42.516  22.791  29.840  1.00  0.00    -0.206 F 
ATOM     77  C   UNL A   1      42.330  21.298  28.039  1.00  0.00     0.059 A 
ATOM     78  C   UNL A   1      42.445  22.136  25.763  1.00  0.00     0.059 A 
ATOM     79  F   UNL A   1      42.774  24.427  25.383  1.00  0.00    -0.206 F 
ATOM     80  C   UNL A   1      42.303  21.079  26.661  1.00  0.00     0.060 A 
BRANCH  80  81
ATOM     81  S   UNL A   1      42.046  19.395  26.058  1.00  0.00     0.124 S 
ATOM     82  O   UNL A   1      42.889  19.375  24.869  1.00  0.00    -0.237 OA
ATOM     83  O   UNL A   1      42.511  18.594  27.186  1.00  0.00    -0.237 OA
ATOM     84  O   UNL A   1      40.607  19.342  25.813  1.00  0.00    -0.744 OA
ENDBRANCH  80  81
ENDBRANCH  48  73
BRANCH  60  85
ATOM     85  C   UNL A   1      48.218  27.262  29.919  1.00  0.00     0.058 A 
ATOM     86  C   UNL A   1      49.206  27.490  28.950  1.00  0.00     0.135 A 
ATOM     87  C   UNL A   1      48.625  26.759  31.167  1.00  0.00     0.135 A 
ATOM     88  F   UNL A   1      48.870  27.961  27.740  1.00  0.00    -0.206 F 
ATOM     89  C   UNL A   1      50.548  27.224  29.208  1.00  0.00     0.059 A 
ATOM     90  C   UNL A   1      49.963  26.516  31.456  1.00  0.00     0.059 A 
ATOM     91  F   UNL A   1      47.720  26.532  32.132  1.00  0.00    -0.206 F 
ATOM     92  C   UNL A   1      50.918  26.748  30.467  1.00  0.00     0.060 A 
BRANCH  92  93
ATOM     93  S   UNL A   1      52.668  26.474  30.810  1.00  0.00     0.124 S 
ATOM     94  O   UNL A   1      53.042  27.726  31.458  1.00  0.00    -0.237 OA
ATOM     95  O   UNL A   1      52.635  25.297  31.674  1.00  0.00    -0.237 OA
ATOM     96  O   UNL A   1      53.245  26.255  29.486  1.00  0.00    -0.744 OA
ENDBRANCH  92  93
ENDBRANCH  60  85
ENDBRANCH  34  35
ENDBRANCH  26  29
ENDBRANCH  24  25
ENDBRANCH  23  24
ENDBRANCH   1  23
TORSDOF 18
ENDMDL
MODEL 2
REMARK VINA RESULT:     -11.0      5.035     10.758
REMARK SMILES CC[C@@H](C)N(C)S(=O)(=O)c1cc(C(=O)NCCCCNC(=O)c2ccc(-c3c4nc(c(-c5c(F)cc(S(=O)(=O)[O-])cc5F)c5ccc([nH]5)c(-c5c(F)cc(S(=O)(=O)[O-])cc5F)c5nc(c(-c6c(F)cc(S(=O)(=O)[O-])cc6F)c6ccc3[nH]6)C=C5)C=C4)cc2)ccc1Br
REMARK SMILES IDX 17 1 16 2 15 3 13 4 14 5 12 7 10 8 11 9 91 10 90 11 92 12
REMARK SMILES IDX 89 13 7 14 8 15 9 16 5 17 6 18 3 19 4 20 2 21 1 22 18 23
REMARK SMILES IDX 19 24 20 25 21 26 22 28 23 29 24 30 88 31 25 32 87 33 26 34
REMARK SMILES IDX 27 35 28 36 81 37 29 38 86 39 80 40 82 41 30 42 85 43 79 44
REMARK SMILES IDX 78 45 31 47 65 48 44 49 64 50 45 51 48 52 63 53 83 54 46 55
REMARK SMILES IDX 47 56 62 58 84 59 49 60 32 61 33 62 42 63 34 64 35 65 41 66
REMARK SMILES IDX 43 67 36 68 37 69 38 70 39 71 40 72 66 73 67 74 76 75 68 76
REMARK SMILES IDX 69 77 75 78 77 79 70 80 71 81 72 82 73 83 74 84 50 85 51 86
REMARK SMILES IDX 60 87 52 88 53 89 59 90 61 91 54 92 55 93 56 94 57 95 58 96
REMARK H PARENT 15 6 20 27 82 46 48 57
REMARK Flexibility Score: inf
ROOT
ATOM      1  C   UNL A   1      37.781  22.026  25.458  1.00  0.00     0.023 C 
ENDROOT
BRANCH   1   2
ATOM      2  C   UNL A   1      36.715  21.143  24.808  1.00  0.00     0.116 C 
BRANCH   2   3
ATOM      3  N   UNL A   1      35.631  20.916  25.737  1.00  0.00    -0.352 N 
ATOM      4  C   UNL A   1      34.387  21.471  25.849  1.00  0.00     0.251 C 
ATOM      5  O   UNL A   1      33.693  21.118  26.803  1.00  0.00    -0.269 OA
ATOM      6  H   UNL A   1      35.827  20.233  26.419  1.00  0.00     0.163 HD
BRANCH   4   7
ATOM      7  C   UNL A   1      33.814  22.438  24.871  1.00  0.00     0.041 A 
ATOM      8  C   UNL A   1      32.407  24.421  24.604  1.00  0.00     0.097 A 
ATOM      9  C   UNL A   1      32.969  23.417  25.409  1.00  0.00     0.036 A 
ATOM     10  C   UNL A   1      32.642  24.428  23.229  1.00  0.00     0.038 A 
ATOM     11  C   UNL A   1      33.484  23.452  22.686  1.00  0.00     0.018 A 
ATOM     12  Br  UNL A   1      31.957  25.712  22.012  1.00  0.00    -0.049 Br
ATOM     13  C   UNL A   1      34.092  22.490  23.504  1.00  0.00     0.015 A 
BRANCH   8  14
ATOM     14  S   UNL A   1      31.475  25.687  25.427  1.00  0.00     0.244 S 
ATOM     15  O   UNL A   1      31.591  25.464  26.857  1.00  0.00    -0.207 OA
ATOM     16  O   UNL A   1      30.171  25.736  24.813  1.00  0.00    -0.207 OA
BRANCH  14  17
ATOM     17  N   UNL A   1      32.378  27.111  25.071  1.00  0.00    -0.198 NA
ATOM     18  C   UNL A   1      33.756  27.110  25.645  1.00  0.00     0.124 C 
BRANCH  17  19
ATOM     19  C   UNL A   1      31.691  28.437  25.293  1.00  0.00     0.069 C 
ATOM     20  C   UNL A   1      30.936  28.914  24.053  1.00  0.00     0.026 C 
BRANCH  19  21
ATOM     21  C   UNL A   1      32.673  29.476  25.860  1.00  0.00     0.016 C 
ATOM     22  C   UNL A   1      32.017  30.508  26.767  1.00  0.00     0.005 C 
ENDBRANCH  19  21
ENDBRANCH  17  19
ENDBRANCH  14  17
ENDBRANCH   8  14
ENDBRANCH   4   7
ENDBRANCH   2   3
ENDBRANCH   1   2
BRANCH   1  23
ATOM     23  C   UNL A   1      37.224  23.330  26.039  1.00  0.00     0.023 C 
BRANCH  23  24
ATOM     24  C   UNL A   1      38.258  24.434  26.201  1.00  0.00     0.116 C 
BRANCH  24  25
ATOM     25  N   UNL A   1      39.630  23.941  26.193  1.00  0.00    -0.352 N 
ATOM     26  C   UNL A   1      40.717  24.492  26.831  1.00  0.00     0.251 C 
ATOM     27  H   UNL A   1      39.797  23.123  25.672  1.00  0.00     0.163 HD
ATOM     28  O   UNL A   1      41.846  24.050  26.653  1.00  0.00    -0.269 OA
BRANCH  26  29
ATOM     29  C   UNL A   1      40.480  25.655  27.706  1.00  0.00     0.039 A 
ATOM     30  C   UNL A   1      39.493  25.579  28.689  1.00  0.00     0.014 A 
ATOM     31  C   UNL A   1      41.332  26.758  27.624  1.00  0.00     0.014 A 
ATOM     32  C   UNL A   1      39.405  26.592  29.646  1.00  0.00     0.010 A 
ATOM     33  C   UNL A   1      41.295  27.718  28.624  1.00  0.00     0.010 A 
ATOM     34  C   UNL A   1      40.332  27.646  29.645  1.00  0.00    -0.014 A 
BRANCH  34  35
ATOM     35  C   UNL A   1      40.317  28.710  30.680  1.00  0.00     0.031 A 
ATOM     36  C   UNL A   1      41.224  28.582  31.872  1.00  0.00     0.074 A 
ATOM     37  C   UNL A   1      39.429  29.720  30.604  1.00  0.00     0.049 A 
ATOM     38  N   UNL A   1      41.254  29.290  32.969  1.00  0.00    -0.248 NA
ATOM     39  C   UNL A   1      42.203  27.481  31.840  1.00  0.00     0.031 C 
ATOM     40  C   UNL A   1      38.477  29.934  29.512  1.00  0.00     0.029 A 
ATOM     41  N   UNL A   1      39.165  30.746  31.477  1.00  0.00    -0.354 N 
ATOM     42  C   UNL A   1      42.235  28.709  33.765  1.00  0.00     0.074 A 
ATOM     43  C   UNL A   1      42.734  27.556  33.051  1.00  0.00     0.031 C 
ATOM     44  C   UNL A   1      37.743  31.028  29.776  1.00  0.00     0.029 A 
ATOM     45  C   UNL A   1      38.132  31.563  31.076  1.00  0.00     0.049 A 
ATOM     46  H   UNL A   1      39.667  30.884  32.313  1.00  0.00     0.167 HD
ATOM     47  C   UNL A   1      42.690  29.113  34.973  1.00  0.00     0.037 A 
ATOM     48  C   UNL A   1      37.553  32.609  31.699  1.00  0.00     0.037 A 
ATOM     49  C   UNL A   1      42.202  30.279  35.663  1.00  0.00     0.049 A 
ATOM     50  C   UNL A   1      38.063  33.031  33.052  1.00  0.00     0.074 A 
ATOM     51  C   UNL A   1      42.629  30.803  36.869  1.00  0.00     0.029 A 
ATOM     52  N   UNL A   1      41.180  31.098  35.208  1.00  0.00    -0.354 N 
ATOM     53  N   UNL A   1      39.021  32.498  33.774  1.00  0.00    -0.248 NA
ATOM     54  C   UNL A   1      37.421  34.197  33.676  1.00  0.00     0.031 C 
ATOM     55  C   UNL A   1      41.829  31.909  37.170  1.00  0.00     0.029 A 
ATOM     56  C   UNL A   1      40.950  32.115  36.118  1.00  0.00     0.049 A 
ATOM     57  H   UNL A   1      40.689  30.976  34.363  1.00  0.00     0.167 HD
ATOM     58  C   UNL A   1      39.126  33.290  34.913  1.00  0.00     0.074 A 
ATOM     59  C   UNL A   1      38.132  34.335  34.788  1.00  0.00     0.031 C 
ATOM     60  C   UNL A   1      39.976  33.167  35.963  1.00  0.00     0.037 A 
BRANCH  47  61
ATOM     61  C   UNL A   1      43.766  28.290  35.627  1.00  0.00     0.058 A 
ATOM     62  C   UNL A   1      43.463  27.259  36.531  1.00  0.00     0.135 A 
ATOM     63  C   UNL A   1      45.118  28.514  35.320  1.00  0.00     0.135 A 
ATOM     64  F   UNL A   1      42.190  27.012  36.875  1.00  0.00    -0.206 F 
ATOM     65  C   UNL A   1      44.463  26.503  37.133  1.00  0.00     0.059 A 
ATOM     66  C   UNL A   1      46.133  27.747  35.883  1.00  0.00     0.059 A 
ATOM     67  F   UNL A   1      45.466  29.488  34.464  1.00  0.00    -0.206 F 
ATOM     68  C   UNL A   1      45.795  26.753  36.801  1.00  0.00     0.060 A 
BRANCH  68  69
ATOM     69  S   UNL A   1      47.078  25.756  37.586  1.00  0.00     0.124 S 
ATOM     70  O   UNL A   1      48.150  25.829  36.598  1.00  0.00    -0.237 OA
ATOM     71  O   UNL A   1      47.315  26.481  38.832  1.00  0.00    -0.237 OA
ATOM     72  O   UNL A   1      46.450  24.447  37.735  1.00  0.00    -0.744 OA
ENDBRANCH  68  69
ENDBRANCH  47  61
BRANCH  48  73
ATOM     73  C   UNL A   1      36.434  33.341  31.044  1.00  0.00     0.058 A 
ATOM     74  C   UNL A   1      36.662  34.157  29.924  1.00  0.00     0.135 A 
ATOM     75  C   UNL A   1      35.115  33.238  31.515  1.00  0.00     0.135 A 
ATOM     76  F   UNL A   1      37.905  34.296  29.439  1.00  0.00    -0.206 F 
ATOM     77  C   UNL A   1      35.630  34.859  29.310  1.00  0.00     0.059 A 
ATOM     78  C   UNL A   1      34.062  33.907  30.899  1.00  0.00     0.059 A 
ATOM     79  F   UNL A   1      34.838  32.458  32.572  1.00  0.00    -0.206 F 
ATOM     80  C   UNL A   1      34.332  34.724  29.803  1.00  0.00     0.060 A 
BRANCH  80  81
ATOM     81  S   UNL A   1      32.995  35.606  28.969  1.00  0.00     0.124 S 
ATOM     82  O   UNL A   1      33.732  36.607  28.206  1.00  0.00    -0.237 OA
ATOM     83  O   UNL A   1      32.367  34.543  28.191  1.00  0.00    -0.237 OA
ATOM     84  O   UNL A   1      32.191  36.122  30.074  1.00  0.00    -0.744 OA
ENDBRANCH  80  81
ENDBRANCH  48  73
BRANCH  60  85
ATOM     85  C   UNL A   1      39.933  34.224  37.032  1.00  0.00     0.058 A 
ATOM     86  C   UNL A   1      40.494  35.496  36.849  1.00  0.00     0.135 A 
ATOM     87  C   UNL A   1      39.228  33.983  38.225  1.00  0.00     0.135 A 
ATOM     88  F   UNL A   1      41.183  35.776  35.732  1.00  0.00    -0.206 F 
ATOM     89  C   UNL A   1      40.366  36.491  37.814  1.00  0.00     0.059 A 
ATOM     90  C   UNL A   1      39.062  34.971  39.188  1.00  0.00     0.059 A 
ATOM     91  F   UNL A   1      38.665  32.784  38.446  1.00  0.00    -0.206 F 
ATOM     92  C   UNL A   1      39.638  36.222  38.975  1.00  0.00     0.060 A 
BRANCH  92  93
ATOM     93  S   UNL A   1      39.421  37.542  40.186  1.00  0.00     0.124 S 
ATOM     94  O   UNL A   1      40.796  37.985  40.390  1.00  0.00    -0.237 OA
ATOM     95  O   UNL A   1      38.553  38.476  39.475  1.00  0.00    -0.237 OA
ATOM     96  O   UNL A   1      38.804  36.865  41.324  1.00  0.00    -0.744 OA
ENDBRANCH  92  93
ENDBRANCH  60  85
ENDBRANCH  34  35
ENDBRANCH  26  29
ENDBRANCH  24  25
ENDBRANCH  23  24
ENDBRANCH   1  23
TORSDOF 18
ENDMDL
MODEL 3
REMARK VINA RESULT:     -10.9      2.828      3.616
REMARK SMILES CC[C@@H](C)N(C)S(=O)(=O)c1cc(C(=O)NCCCCNC(=O)c2ccc(-c3c4nc(c(-c5c(F)cc(S(=O)(=O)[O-])cc5F)c5ccc([nH]5)c(-c5c(F)cc(S(=O)(=O)[O-])cc5F)c5nc(c(-c6c(F)cc(S(=O)(=O)[O-])cc6F)c6ccc3[nH]6)C=C5)C=C4)cc2)ccc1Br
REMARK SMILES IDX 17 1 16 2 15 3 13 4 14 5 12 7 10 8 11 9 91 10 90 11 92 12
REMARK SMILES IDX 89 13 7 14 8 15 9 16 5 17 6 18 3 19 4 20 2 21 1 22 18 23
REMARK SMILES IDX 19 24 20 25 21 26 22 28 23 29 24 30 88 31 25 32 87 33 26 34
REMARK SMILES IDX 27 35 28 36 81 37 29 38 86 39 80 40 82 41 30 42 85 43 79 44
REMARK SMILES IDX 78 45 31 47 65 48 44 49 64 50 45 51 48 52 63 53 83 54 46 55
REMARK SMILES IDX 47 56 62 58 84 59 49 60 32 61 33 62 42 63 34 64 35 65 41 66
REMARK SMILES IDX 43 67 36 68 37 69 38 70 39 71 40 72 66 73 67 74 76 75 68 76
REMARK SMILES IDX 69 77 75 78 77 79 70 80 71 81 72 82 73 83 74 84 50 85 51 86
REMARK SMILES IDX 60 87 52 88 53 89 59 90 61 91 54 92 55 93 56 94 57 95 58 96
REMARK H PARENT 15 6 20 27 82 46 48 57
REMARK Flexibility Score: inf
ROOT
ATOM      1  C   UNL A   1      33.382  29.296  24.306  1.00  0.00     0.023 C 
ENDROOT
BRANCH   1   2
ATOM      2  C   UNL A   1      33.297  28.892  22.833  1.00  0.00     0.116 C 
BRANCH   2   3
ATOM      3  N   UNL A   1      31.939  29.035  22.361  1.00  0.00    -0.352 N 
ATOM      4  C   UNL A   1      30.837  28.236  22.480  1.00  0.00     0.251 C 
ATOM      5  O   UNL A   1      29.810  28.595  21.903  1.00  0.00    -0.269 OA
ATOM      6  H   UNL A   1      31.777  29.866  21.858  1.00  0.00     0.163 HD
BRANCH   4   7
ATOM      7  C   UNL A   1      30.796  26.987  23.293  1.00  0.00     0.041 A 
ATOM      8  C   UNL A   1      31.687  24.721  23.529  1.00  0.00     0.097 A 
ATOM      9  C   UNL A   1      31.591  25.932  22.826  1.00  0.00     0.036 A 
ATOM     10  C   UNL A   1      30.939  24.526  24.690  1.00  0.00     0.038 A 
ATOM     11  C   UNL A   1      30.141  25.575  25.160  1.00  0.00     0.018 A 
ATOM     12  Br  UNL A   1      30.957  22.952  25.748  1.00  0.00    -0.049 Br
ATOM     13  C   UNL A   1      30.100  26.804  24.488  1.00  0.00     0.015 A 
BRANCH   8  14
ATOM     14  S   UNL A   1      32.839  23.520  22.915  1.00  0.00     0.244 S 
ATOM     15  O   UNL A   1      33.569  24.127  21.817  1.00  0.00    -0.207 OA
ATOM     16  O   UNL A   1      32.115  22.291  22.701  1.00  0.00    -0.207 OA
BRANCH  14  17
ATOM     17  N   UNL A   1      33.951  23.361  24.223  1.00  0.00    -0.198 NA
ATOM     18  C   UNL A   1      34.726  24.604  24.508  1.00  0.00     0.124 C 
BRANCH  17  19
ATOM     19  C   UNL A   1      34.843  22.143  24.226  1.00  0.00     0.069 C 
ATOM     20  C   UNL A   1      34.621  21.265  25.456  1.00  0.00     0.026 C 
BRANCH  19  21
ATOM     21  C   UNL A   1      36.312  22.538  24.001  1.00  0.00     0.016 C 
ATOM     22  C   UNL A   1      37.308  21.502  24.502  1.00  0.00     0.005 C 
ENDBRANCH  19  21
ENDBRANCH  17  19
ENDBRANCH  14  17
ENDBRANCH   8  14
ENDBRANCH   4   7
ENDBRANCH   2   3
ENDBRANCH   1   2
BRANCH   1  23
ATOM     23  C   UNL A   1      33.629  28.116  25.250  1.00  0.00     0.023 C 
BRANCH  23  24
ATOM     24  C   UNL A   1      33.871  28.514  26.699  1.00  0.00     0.116 C 
BRANCH  24  25
ATOM     25  N   UNL A   1      33.759  29.949  26.926  1.00  0.00    -0.352 N 
ATOM     26  C   UNL A   1      34.625  30.751  27.633  1.00  0.00     0.251 C 
ATOM     27  H   UNL A   1      32.976  30.395  26.529  1.00  0.00     0.163 HD
ATOM     28  O   UNL A   1      34.361  31.928  27.853  1.00  0.00    -0.269 OA
BRANCH  26  29
ATOM     29  C   UNL A   1      35.861  30.136  28.148  1.00  0.00     0.039 A 
ATOM     30  C   UNL A   1      37.039  30.251  27.409  1.00  0.00     0.014 A 
ATOM     31  C   UNL A   1      35.863  29.566  29.423  1.00  0.00     0.014 A 
ATOM     32  C   UNL A   1      38.246  29.851  27.985  1.00  0.00     0.010 A 
ATOM     33  C   UNL A   1      37.073  29.248  30.021  1.00  0.00     0.010 A 
ATOM     34  C   UNL A   1      38.277  29.387  29.310  1.00  0.00    -0.014 A 
BRANCH  34  35
ATOM     35  C   UNL A   1      39.544  29.013  29.985  1.00  0.00     0.031 A 
ATOM     36  C   UNL A   1      40.010  29.821  31.164  1.00  0.00     0.074 A 
ATOM     37  C   UNL A   1      40.318  28.030  29.483  1.00  0.00     0.049 A 
ATOM     38  N   UNL A   1      41.155  29.785  31.791  1.00  0.00    -0.248 NA
ATOM     39  C   UNL A   1      39.073  30.833  31.681  1.00  0.00     0.031 C 
ATOM     40  C   UNL A   1      39.987  27.196  28.326  1.00  0.00     0.029 A 
ATOM     41  N   UNL A   1      41.556  27.581  29.870  1.00  0.00    -0.354 N 
ATOM     42  C   UNL A   1      41.086  30.782  32.758  1.00  0.00     0.074 A 
ATOM     43  C   UNL A   1      39.811  31.442  32.597  1.00  0.00     0.031 C 
ATOM     44  C   UNL A   1      40.992  26.332  28.104  1.00  0.00     0.029 A 
ATOM     45  C   UNL A   1      42.059  26.583  29.067  1.00  0.00     0.049 A 
ATOM     46  H   UNL A   1      42.040  27.941  30.648  1.00  0.00     0.167 HD
ATOM     47  C   UNL A   1      41.996  31.102  33.707  1.00  0.00     0.037 A 
ATOM     48  C   UNL A   1      43.253  25.958  29.093  1.00  0.00     0.037 A 
ATOM     49  C   UNL A   1      43.252  30.419  33.874  1.00  0.00     0.049 A 
ATOM     50  C   UNL A   1      44.259  26.344  30.146  1.00  0.00     0.074 A 
ATOM     51  C   UNL A   1      44.224  30.633  34.834  1.00  0.00     0.029 A 
ATOM     52  N   UNL A   1      43.709  29.391  33.063  1.00  0.00    -0.354 N 
ATOM     53  N   UNL A   1      44.162  27.259  31.082  1.00  0.00    -0.248 NA
ATOM     54  C   UNL A   1      45.534  25.612  30.154  1.00  0.00     0.031 C 
ATOM     55  C   UNL A   1      45.292  29.772  34.571  1.00  0.00     0.029 A 
ATOM     56  C   UNL A   1      44.957  28.973  33.489  1.00  0.00     0.049 A 
ATOM     57  H   UNL A   1      43.218  29.014  32.296  1.00  0.00     0.167 HD
ATOM     58  C   UNL A   1      45.341  27.181  31.816  1.00  0.00     0.074 A 
ATOM     59  C   UNL A   1      46.139  26.133  31.213  1.00  0.00     0.031 C 
ATOM     60  C   UNL A   1      45.724  27.906  32.896  1.00  0.00     0.037 A 
BRANCH  47  61
ATOM     61  C   UNL A   1      41.668  32.240  34.635  1.00  0.00     0.058 A 
ATOM     62  C   UNL A   1      40.978  32.037  35.841  1.00  0.00     0.135 A 
ATOM     63  C   UNL A   1      42.077  33.548  34.328  1.00  0.00     0.135 A 
ATOM     64  F   UNL A   1      40.547  30.811  36.176  1.00  0.00    -0.206 F 
ATOM     65  C   UNL A   1      40.676  33.093  36.693  1.00  0.00     0.059 A 
ATOM     66  C   UNL A   1      41.817  34.615  35.183  1.00  0.00     0.059 A 
ATOM     67  F   UNL A   1      42.738  33.801  33.187  1.00  0.00    -0.206 F 
ATOM     68  C   UNL A   1      41.102  34.379  36.356  1.00  0.00     0.060 A 
BRANCH  68  69
ATOM     69  S   UNL A   1      40.708  35.737  37.478  1.00  0.00     0.124 S 
ATOM     70  O   UNL A   1      39.886  35.059  38.477  1.00  0.00    -0.237 OA
ATOM     71  O   UNL A   1      42.030  36.161  37.928  1.00  0.00    -0.237 OA
ATOM     72  O   UNL A   1      40.002  36.689  36.626  1.00  0.00    -0.744 OA
ENDBRANCH  68  69
ENDBRANCH  47  61
BRANCH  48  73
ATOM     73  C   UNL A   1      43.561  24.893  28.099  1.00  0.00     0.058 A 
ATOM     74  C   UNL A   1      44.247  25.191  26.910  1.00  0.00     0.135 A 
ATOM     75  C   UNL A   1      43.184  23.558  28.315  1.00  0.00     0.135 A 
ATOM     76  F   UNL A   1      44.622  26.453  26.652  1.00  0.00    -0.206 F 
ATOM     77  C   UNL A   1      44.529  24.211  25.965  1.00  0.00     0.059 A 
ATOM     78  C   UNL A   1      43.481  22.555  27.397  1.00  0.00     0.059 A 
ATOM     79  F   UNL A   1      42.541  23.215  29.442  1.00  0.00    -0.206 F 
ATOM     80  C   UNL A   1      44.145  22.893  26.220  1.00  0.00     0.060 A 
BRANCH  80  81
ATOM     81  S   UNL A   1      44.557  21.623  25.004  1.00  0.00     0.124 S 
ATOM     82  O   UNL A   1      45.930  21.297  25.370  1.00  0.00    -0.237 OA
ATOM     83  O   UNL A   1      43.559  20.597  25.286  1.00  0.00    -0.237 OA
ATOM     84  O   UNL A   1      44.392  22.312  23.727  1.00  0.00    -0.744 OA
ENDBRANCH  80  81
ENDBRANCH  48  73
BRANCH  60  85
ATOM     85  C   UNL A   1      47.029  27.552  33.556  1.00  0.00     0.058 A 
ATOM     86  C   UNL A   1      48.232  28.190  33.222  1.00  0.00     0.135 A 
ATOM     87  C   UNL A   1      47.049  26.623  34.611  1.00  0.00     0.135 A 
ATOM     88  F   UNL A   1      48.270  29.080  32.218  1.00  0.00    -0.206 F 
ATOM     89  C   UNL A   1      49.413  27.914  33.907  1.00  0.00     0.059 A 
ATOM     90  C   UNL A   1      48.209  26.355  35.328  1.00  0.00     0.059 A 
ATOM     91  F   UNL A   1      45.922  25.990  34.976  1.00  0.00    -0.206 F 
ATOM     92  C   UNL A   1      49.389  27.003  34.965  1.00  0.00     0.060 A 
BRANCH  92  93
ATOM     93  S   UNL A   1      50.912  26.707  35.887  1.00  0.00     0.124 S 
ATOM     94  O   UNL A   1      50.406  26.059  37.092  1.00  0.00    -0.237 OA
ATOM     95  O   UNL A   1      51.665  25.852  34.975  1.00  0.00    -0.237 OA
ATOM     96  O   UNL A   1      51.461  28.047  36.079  1.00  0.00    -0.744 OA
ENDBRANCH  92  93
ENDBRANCH  60  85
ENDBRANCH  34  35
ENDBRANCH  26  29
ENDBRANCH  24  25
ENDBRANCH  23  24
ENDBRANCH   1  23
TORSDOF 18
ENDMDL
