MODEL 1
REMARK VINA RESULT:     -12.5      0.000      0.000
REMARK SMILES Cc1ccc(C)c(OCc2ccc(C(=O)NCCCCNC(=O)c3ccc(-c4c5nc(c(-c6c(F)cc(S(=O)(=O)[O-])cc6F)c6ccc([nH]6)c(-c6c(F)cc(S(=O)(=O)[O-])cc6F)c6nc(c(-c7c(F)cc(S(=O)(=O)[O-])cc7F)c7ccc4[nH]7)C=C6)C=C5)cc3)cc2)c1C
REMARK SMILES IDX 18 1 17 2 16 3 14 4 15 5 13 7 10 8 11 9 91 10 12 11 90 12
REMARK SMILES IDX 9 13 8 14 7 15 1 16 2 17 3 18 92 19 4 20 93 21 5 22 6 23
REMARK SMILES IDX 19 24 20 25 21 26 22 27 23 29 24 30 25 31 89 32 26 33 88 34
REMARK SMILES IDX 27 35 28 36 29 37 82 38 30 39 87 40 81 41 83 42 31 43 86 44
REMARK SMILES IDX 80 45 79 46 32 48 66 49 45 50 65 51 46 52 49 53 64 54 84 55
REMARK SMILES IDX 47 56 48 57 63 59 85 60 50 61 33 62 34 63 43 64 35 65 36 66
REMARK SMILES IDX 42 67 44 68 37 69 38 70 39 71 40 72 41 73 67 74 68 75 77 76
REMARK SMILES IDX 69 77 70 78 76 79 78 80 71 81 72 82 73 83 74 84 75 85 51 86
REMARK SMILES IDX 52 87 61 88 53 89 54 90 60 91 62 92 55 93 56 94 57 95 58 96
REMARK SMILES IDX 59 97
REMARK H PARENT 16 6 21 28 83 47 49 58
REMARK Flexibility Score: inf
ROOT
ATOM      1  C   UNL A   1      38.711  23.073  26.381  1.00  0.00     0.023 C 
ENDROOT
BRANCH   1   2
ATOM      2  C   UNL A   1      37.668  22.140  25.764  1.00  0.00     0.116 C 
BRANCH   2   3
ATOM      3  N   UNL A   1      37.510  22.438  24.363  1.00  0.00    -0.352 N 
ATOM      4  C   UNL A   1      36.429  22.854  23.635  1.00  0.00     0.251 C 
ATOM      5  O   UNL A   1      36.581  22.907  22.412  1.00  0.00    -0.269 OA
ATOM      6  H   UNL A   1      38.330  22.318  23.831  1.00  0.00     0.163 HD
BRANCH   4   7
ATOM      7  C   UNL A   1      35.127  23.303  24.227  1.00  0.00     0.039 A 
ATOM      8  C   UNL A   1      32.906  24.274  25.739  1.00  0.00    -0.011 A 
ATOM      9  C   UNL A   1      34.061  25.038  25.562  1.00  0.00     0.008 A 
ATOM     10  C   UNL A   1      32.840  23.061  25.044  1.00  0.00     0.008 A 
ATOM     11  C   UNL A   1      35.152  24.561  24.832  1.00  0.00     0.014 A 
ATOM     12  C   UNL A   1      33.925  22.595  24.284  1.00  0.00     0.014 A 
BRANCH   8  13
ATOM     13  C   UNL A   1      31.838  24.583  26.781  1.00  0.00     0.265 C 
BRANCH  13  14
ATOM     14  O   UNL A   1      30.774  25.497  26.514  1.00  0.00    -0.488 OA
BRANCH  14  15
ATOM     15  C   UNL A   1      30.897  26.454  25.546  1.00  0.00     0.125 A 
ATOM     16  C   UNL A   1      31.867  30.168  25.635  1.00  0.00     0.045 C 
ATOM     17  C   UNL A   1      31.413  28.813  25.168  1.00  0.00    -0.044 A 
ATOM     18  C   UNL A   1      31.022  28.653  23.834  1.00  0.00     0.004 A 
ATOM     19  C   UNL A   1      31.370  27.700  26.030  1.00  0.00    -0.006 A 
ATOM     20  C   UNL A   1      30.643  27.403  23.345  1.00  0.00     0.007 A 
ATOM     21  C   UNL A   1      31.766  27.808  27.485  1.00  0.00     0.049 C 
ATOM     22  C   UNL A   1      30.613  26.275  24.180  1.00  0.00    -0.009 A 
ATOM     23  C   UNL A   1      30.214  24.964  23.565  1.00  0.00     0.048 C 
ENDBRANCH  14  15
ENDBRANCH  13  14
ENDBRANCH   8  13
ENDBRANCH   4   7
ENDBRANCH   2   3
ENDBRANCH   1   2
BRANCH   1  24
ATOM     24  C   UNL A   1      39.921  22.342  26.968  1.00  0.00     0.023 C 
BRANCH  24  25
ATOM     25  C   UNL A   1      41.121  23.238  27.250  1.00  0.00     0.116 C 
BRANCH  25  26
ATOM     26  N   UNL A   1      41.499  24.051  26.104  1.00  0.00    -0.352 N 
ATOM     27  C   UNL A   1      41.628  25.413  26.036  1.00  0.00     0.251 C 
ATOM     28  H   UNL A   1      41.686  23.560  25.271  1.00  0.00     0.163 HD
ATOM     29  O   UNL A   1      41.840  25.962  24.958  1.00  0.00    -0.269 OA
BRANCH  27  30
ATOM     30  C   UNL A   1      41.460  26.207  27.266  1.00  0.00     0.039 A 
ATOM     31  C   UNL A   1      42.384  27.215  27.540  1.00  0.00     0.014 A 
ATOM     32  C   UNL A   1      40.373  25.981  28.115  1.00  0.00     0.014 A 
ATOM     33  C   UNL A   1      42.190  28.031  28.652  1.00  0.00     0.010 A 
ATOM     34  C   UNL A   1      40.142  26.845  29.180  1.00  0.00     0.010 A 
ATOM     35  C   UNL A   1      41.054  27.871  29.463  1.00  0.00    -0.014 A 
BRANCH  35  36
ATOM     36  C   UNL A   1      40.819  28.771  30.616  1.00  0.00     0.031 A 
ATOM     37  C   UNL A   1      41.652  28.637  31.859  1.00  0.00     0.074 A 
ATOM     38  C   UNL A   1      39.832  29.686  30.547  1.00  0.00     0.049 A 
ATOM     39  N   UNL A   1      41.606  29.340  32.961  1.00  0.00    -0.248 NA
ATOM     40  C   UNL A   1      42.650  27.555  31.880  1.00  0.00     0.031 C 
ATOM     41  C   UNL A   1      38.917  29.858  29.415  1.00  0.00     0.029 A 
ATOM     42  N   UNL A   1      39.433  30.642  31.445  1.00  0.00    -0.354 N 
ATOM     43  C   UNL A   1      42.560  28.784  33.805  1.00  0.00     0.074 A 
ATOM     44  C   UNL A   1      43.126  27.648  33.114  1.00  0.00     0.031 C 
ATOM     45  C   UNL A   1      38.088  30.883  29.673  1.00  0.00     0.029 A 
ATOM     46  C   UNL A   1      38.392  31.420  30.995  1.00  0.00     0.049 A 
ATOM     47  H   UNL A   1      39.852  30.761  32.327  1.00  0.00     0.167 HD
ATOM     48  C   UNL A   1      42.949  29.202  35.032  1.00  0.00     0.037 A 
ATOM     49  C   UNL A   1      37.762  32.455  31.582  1.00  0.00     0.037 A 
ATOM     50  C   UNL A   1      42.394  30.350  35.700  1.00  0.00     0.049 A 
ATOM     51  C   UNL A   1      38.228  32.916  32.936  1.00  0.00     0.074 A 
ATOM     52  C   UNL A   1      42.756  30.897  36.919  1.00  0.00     0.029 A 
ATOM     53  N   UNL A   1      41.356  31.128  35.206  1.00  0.00    -0.354 N 
ATOM     54  N   UNL A   1      39.187  32.427  33.688  1.00  0.00    -0.248 NA
ATOM     55  C   UNL A   1      37.539  34.076  33.515  1.00  0.00     0.031 C 
ATOM     56  C   UNL A   1      41.910  31.980  37.180  1.00  0.00     0.029 A 
ATOM     57  C   UNL A   1      41.053  32.139  36.102  1.00  0.00     0.049 A 
ATOM     58  H   UNL A   1      40.903  30.983  34.345  1.00  0.00     0.167 HD
ATOM     59  C   UNL A   1      39.231  33.235  34.819  1.00  0.00     0.074 A 
ATOM     60  C   UNL A   1      38.214  34.253  34.641  1.00  0.00     0.031 C 
ATOM     61  C   UNL A   1      40.037  33.143  35.906  1.00  0.00     0.037 A 
BRANCH  48  62
ATOM     62  C   UNL A   1      44.033  28.420  35.723  1.00  0.00     0.058 A 
ATOM     63  C   UNL A   1      43.735  27.365  36.600  1.00  0.00     0.135 A 
ATOM     64  C   UNL A   1      45.386  28.711  35.488  1.00  0.00     0.135 A 
ATOM     65  F   UNL A   1      42.457  27.055  36.875  1.00  0.00    -0.206 F 
ATOM     66  C   UNL A   1      44.737  26.645  37.242  1.00  0.00     0.059 A 
ATOM     67  C   UNL A   1      46.407  27.985  36.097  1.00  0.00     0.059 A 
ATOM     68  F   UNL A   1      45.730  29.711  34.661  1.00  0.00    -0.206 F 
ATOM     69  C   UNL A   1      46.071  26.963  36.984  1.00  0.00     0.060 A 
BRANCH  69  70
ATOM     70  S   UNL A   1      47.360  26.016  37.821  1.00  0.00     0.124 S 
ATOM     71  O   UNL A   1      47.066  26.300  39.221  1.00  0.00    -0.237 OA
ATOM     72  O   UNL A   1      47.081  24.653  37.379  1.00  0.00    -0.237 OA
ATOM     73  O   UNL A   1      48.597  26.597  37.308  1.00  0.00    -0.744 OA
ENDBRANCH  69  70
ENDBRANCH  48  62
BRANCH  49  74
ATOM     74  C   UNL A   1      36.654  33.148  30.874  1.00  0.00     0.058 A 
ATOM     75  C   UNL A   1      35.323  32.995  31.288  1.00  0.00     0.135 A 
ATOM     76  C   UNL A   1      36.904  33.991  29.780  1.00  0.00     0.135 A 
ATOM     77  F   UNL A   1      35.033  32.197  32.328  1.00  0.00    -0.206 F 
ATOM     78  C   UNL A   1      34.276  33.636  30.634  1.00  0.00     0.059 A 
ATOM     79  C   UNL A   1      35.877  34.663  29.124  1.00  0.00     0.059 A 
ATOM     80  F   UNL A   1      38.162  34.187  29.356  1.00  0.00    -0.206 F 
ATOM     81  C   UNL A   1      34.564  34.471  29.553  1.00  0.00     0.060 A 
BRANCH  81  82
ATOM     82  S   UNL A   1      33.203  35.336  28.740  1.00  0.00     0.124 S 
ATOM     83  O   UNL A   1      33.919  36.316  27.933  1.00  0.00    -0.237 OA
ATOM     84  O   UNL A   1      32.549  34.257  28.006  1.00  0.00    -0.237 OA
ATOM     85  O   UNL A   1      32.436  35.878  29.858  1.00  0.00    -0.744 OA
ENDBRANCH  81  82
ENDBRANCH  49  74
BRANCH  61  86
ATOM     86  C   UNL A   1      39.870  34.189  36.974  1.00  0.00     0.058 A 
ATOM     87  C   UNL A   1      40.574  35.401  36.935  1.00  0.00     0.135 A 
ATOM     88  C   UNL A   1      38.969  33.985  38.031  1.00  0.00     0.135 A 
ATOM     89  F   UNL A   1      41.451  35.643  35.947  1.00  0.00    -0.206 F 
ATOM     90  C   UNL A   1      40.418  36.363  37.927  1.00  0.00     0.059 A 
ATOM     91  C   UNL A   1      38.775  34.945  39.019  1.00  0.00     0.059 A 
ATOM     92  F   UNL A   1      38.261  32.848  38.109  1.00  0.00    -0.206 F 
ATOM     93  C   UNL A   1      39.517  36.124  38.967  1.00  0.00     0.060 A 
BRANCH  93  94
ATOM     94  S   UNL A   1      39.313  37.385  40.243  1.00  0.00     0.124 S 
ATOM     95  O   UNL A   1      38.425  38.333  39.578  1.00  0.00    -0.237 OA
ATOM     96  O   UNL A   1      38.724  36.627  41.342  1.00  0.00    -0.237 OA
ATOM     97  O   UNL A   1      40.676  37.856  40.475  1.00  0.00    -0.744 OA
ENDBRANCH  93  94
ENDBRANCH  61  86
ENDBRANCH  35  36
ENDBRANCH  27  30
ENDBRANCH  25  26
ENDBRANCH  24  25
ENDBRANCH   1  24
TORSDOF 17
ENDMDL
MODEL 2
REMARK VINA RESULT:     -12.5      4.808     10.461
REMARK SMILES Cc1ccc(C)c(OCc2ccc(C(=O)NCCCCNC(=O)c3ccc(-c4c5nc(c(-c6c(F)cc(S(=O)(=O)[O-])cc6F)c6ccc([nH]6)c(-c6c(F)cc(S(=O)(=O)[O-])cc6F)c6nc(c(-c7c(F)cc(S(=O)(=O)[O-])cc7F)c7ccc4[nH]7)C=C6)C=C5)cc3)cc2)c1C
REMARK SMILES IDX 18 1 17 2 16 3 14 4 15 5 13 7 10 8 11 9 91 10 12 11 90 12
REMARK SMILES IDX 9 13 8 14 7 15 1 16 2 17 3 18 92 19 4 20 93 21 5 22 6 23
REMARK SMILES IDX 19 24 20 25 21 26 22 27 23 29 24 30 25 31 89 32 26 33 88 34
REMARK SMILES IDX 27 35 28 36 29 37 82 38 30 39 87 40 81 41 83 42 31 43 86 44
REMARK SMILES IDX 80 45 79 46 32 48 66 49 45 50 65 51 46 52 49 53 64 54 84 55
REMARK SMILES IDX 47 56 48 57 63 59 85 60 50 61 33 62 34 63 43 64 35 65 36 66
REMARK SMILES IDX 42 67 44 68 37 69 38 70 39 71 40 72 41 73 67 74 68 75 77 76
REMARK SMILES IDX 69 77 70 78 76 79 78 80 71 81 72 82 73 83 74 84 75 85 51 86
REMARK SMILES IDX 52 87 61 88 53 89 54 90 60 91 62 92 55 93 56 94 57 95 58 96
REMARK SMILES IDX 59 97
REMARK H PARENT 16 6 21 28 83 47 49 58
REMARK Flexibility Score: inf
ROOT
ATOM      1  C   UNL A   1      32.716  29.338  24.857  1.00  0.00     0.023 C 
ENDROOT
BRANCH   1   2
ATOM      2  C   UNL A   1      31.213  29.571  25.015  1.00  0.00     0.116 C 
BRANCH   2   3
ATOM      3  N   UNL A   1      30.607  29.766  23.721  1.00  0.00    -0.352 N 
ATOM      4  C   UNL A   1      30.443  28.924  22.655  1.00  0.00     0.251 C 
ATOM      5  O   UNL A   1      29.985  29.429  21.627  1.00  0.00    -0.269 OA
ATOM      6  H   UNL A   1      30.247  30.671  23.577  1.00  0.00     0.163 HD
BRANCH   4   7
ATOM      7  C   UNL A   1      30.713  27.451  22.685  1.00  0.00     0.039 A 
ATOM      8  C   UNL A   1      31.217  24.689  23.218  1.00  0.00    -0.011 A 
ATOM      9  C   UNL A   1      30.139  25.362  23.797  1.00  0.00     0.008 A 
ATOM     10  C   UNL A   1      31.970  25.398  22.275  1.00  0.00     0.008 A 
ATOM     11  C   UNL A   1      29.897  26.713  23.546  1.00  0.00     0.014 A 
ATOM     12  C   UNL A   1      31.707  26.750  21.998  1.00  0.00     0.014 A 
BRANCH   8  13
ATOM     13  C   UNL A   1      31.729  23.337  23.700  1.00  0.00     0.265 C 
BRANCH  13  14
ATOM     14  O   UNL A   1      32.398  23.193  24.951  1.00  0.00    -0.488 OA
BRANCH  14  15
ATOM     15  C   UNL A   1      33.577  22.508  25.042  1.00  0.00     0.125 A 
ATOM     16  C   UNL A   1      37.243  23.618  25.323  1.00  0.00     0.045 C 
ATOM     17  C   UNL A   1      36.003  22.779  25.185  1.00  0.00    -0.044 A 
ATOM     18  C   UNL A   1      36.135  21.395  25.026  1.00  0.00     0.004 A 
ATOM     19  C   UNL A   1      34.712  23.342  25.214  1.00  0.00    -0.006 A 
ATOM     20  C   UNL A   1      35.011  20.573  24.947  1.00  0.00     0.007 A 
ATOM     21  C   UNL A   1      34.499  24.830  25.370  1.00  0.00     0.049 C 
ATOM     22  C   UNL A   1      33.715  21.109  24.995  1.00  0.00    -0.009 A 
ATOM     23  C   UNL A   1      32.562  20.149  24.926  1.00  0.00     0.048 C 
ENDBRANCH  14  15
ENDBRANCH  13  14
ENDBRANCH   8  13
ENDBRANCH   4   7
ENDBRANCH   2   3
ENDBRANCH   1   2
BRANCH   1  24
ATOM     24  C   UNL A   1      33.218  28.068  25.550  1.00  0.00     0.023 C 
BRANCH  24  25
ATOM     25  C   UNL A   1      33.854  28.306  26.914  1.00  0.00     0.116 C 
BRANCH  25  26
ATOM     26  N   UNL A   1      33.642  29.659  27.407  1.00  0.00    -0.352 N 
ATOM     27  C   UNL A   1      34.521  30.462  28.084  1.00  0.00     0.251 C 
ATOM     28  H   UNL A   1      32.754  30.046  27.232  1.00  0.00     0.163 HD
ATOM     29  O   UNL A   1      34.150  31.540  28.540  1.00  0.00    -0.269 OA
BRANCH  27  30
ATOM     30  C   UNL A   1      35.900  29.988  28.296  1.00  0.00     0.039 A 
ATOM     31  C   UNL A   1      36.809  30.088  27.243  1.00  0.00     0.014 A 
ATOM     32  C   UNL A   1      36.298  29.491  29.540  1.00  0.00     0.014 A 
ATOM     33  C   UNL A   1      38.137  29.728  27.453  1.00  0.00     0.010 A 
ATOM     34  C   UNL A   1      37.639  29.203  29.768  1.00  0.00     0.010 A 
ATOM     35  C   UNL A   1      38.568  29.309  28.724  1.00  0.00    -0.014 A 
BRANCH  35  36
ATOM     36  C   UNL A   1      39.991  28.974  28.964  1.00  0.00     0.031 A 
ATOM     37  C   UNL A   1      40.915  29.994  29.566  1.00  0.00     0.074 A 
ATOM     38  C   UNL A   1      40.450  27.758  28.608  1.00  0.00     0.049 A 
ATOM     39  N   UNL A   1      42.184  29.882  29.865  1.00  0.00    -0.248 NA
ATOM     40  C   UNL A   1      40.350  31.324  29.846  1.00  0.00     0.031 C 
ATOM     41  C   UNL A   1      39.657  26.713  27.954  1.00  0.00     0.029 A 
ATOM     42  N   UNL A   1      41.692  27.194  28.746  1.00  0.00    -0.354 N 
ATOM     43  C   UNL A   1      42.568  31.122  30.359  1.00  0.00     0.074 A 
ATOM     44  C   UNL A   1      41.416  31.991  30.263  1.00  0.00     0.031 C 
ATOM     45  C   UNL A   1      40.424  25.624  27.780  1.00  0.00     0.029 A 
ATOM     46  C   UNL A   1      41.765  25.901  28.283  1.00  0.00     0.049 A 
ATOM     47  H   UNL A   1      42.459  27.669  29.139  1.00  0.00     0.167 HD
ATOM     48  C   UNL A   1      43.763  31.494  30.874  1.00  0.00     0.037 A 
ATOM     49  C   UNL A   1      42.796  25.036  28.274  1.00  0.00     0.037 A 
ATOM     50  C   UNL A   1      44.896  30.611  30.986  1.00  0.00     0.049 A 
ATOM     51  C   UNL A   1      44.108  25.464  28.873  1.00  0.00     0.074 A 
ATOM     52  C   UNL A   1      46.135  30.867  31.546  1.00  0.00     0.029 A 
ATOM     53  N   UNL A   1      44.927  29.302  30.527  1.00  0.00    -0.354 N 
ATOM     54  N   UNL A   1      44.432  26.618  29.410  1.00  0.00    -0.248 NA
ATOM     55  C   UNL A   1      45.190  24.471  28.881  1.00  0.00     0.031 C 
ATOM     56  C   UNL A   1      46.929  29.726  31.389  1.00  0.00     0.029 A 
ATOM     57  C   UNL A   1      46.169  28.742  30.775  1.00  0.00     0.049 A 
ATOM     58  H   UNL A   1      44.177  28.839  30.090  1.00  0.00     0.167 HD
ATOM     59  C   UNL A   1      45.748  26.480  29.839  1.00  0.00     0.074 A 
ATOM     60  C   UNL A   1      46.150  25.127  29.515  1.00  0.00     0.031 C 
ATOM     61  C   UNL A   1      46.550  27.391  30.445  1.00  0.00     0.037 A 
BRANCH  48  62
ATOM     62  C   UNL A   1      43.901  32.909  31.365  1.00  0.00     0.058 A 
ATOM     63  C   UNL A   1      43.675  33.249  32.708  1.00  0.00     0.135 A 
ATOM     64  C   UNL A   1      44.289  33.935  30.488  1.00  0.00     0.135 A 
ATOM     65  F   UNL A   1      43.285  32.310  33.586  1.00  0.00    -0.206 F 
ATOM     66  C   UNL A   1      43.799  34.559  33.159  1.00  0.00     0.059 A 
ATOM     67  C   UNL A   1      44.447  35.248  30.924  1.00  0.00     0.059 A 
ATOM     68  F   UNL A   1      44.516  33.668  29.192  1.00  0.00    -0.206 F 
ATOM     69  C   UNL A   1      44.185  35.552  32.259  1.00  0.00     0.060 A 
BRANCH  69  70
ATOM     70  S   UNL A   1      44.346  37.246  32.862  1.00  0.00     0.124 S 
ATOM     71  O   UNL A   1      43.119  37.397  33.636  1.00  0.00    -0.237 OA
ATOM     72  O   UNL A   1      45.581  37.183  33.639  1.00  0.00    -0.237 OA
ATOM     73  O   UNL A   1      44.418  38.038  31.638  1.00  0.00    -0.744 OA
ENDBRANCH  69  70
ENDBRANCH  48  62
BRANCH  49  74
ATOM     74  C   UNL A   1      42.615  23.670  27.717  1.00  0.00     0.058 A 
ATOM     75  C   UNL A   1      42.694  23.436  26.336  1.00  0.00     0.135 A 
ATOM     76  C   UNL A   1      42.378  22.568  28.553  1.00  0.00     0.135 A 
ATOM     77  F   UNL A   1      42.916  24.458  25.495  1.00  0.00    -0.206 F 
ATOM     78  C   UNL A   1      42.525  22.163  25.801  1.00  0.00     0.059 A 
ATOM     79  C   UNL A   1      42.231  21.282  28.044  1.00  0.00     0.059 A 
ATOM     80  F   UNL A   1      42.315  22.735  29.883  1.00  0.00    -0.206 F 
ATOM     81  C   UNL A   1      42.296  21.091  26.665  1.00  0.00     0.060 A 
BRANCH  81  82
ATOM     82  S   UNL A   1      42.125  19.435  25.964  1.00  0.00     0.124 S 
ATOM     83  O   UNL A   1      42.597  18.602  27.062  1.00  0.00    -0.237 OA
ATOM     84  O   UNL A   1      40.695  19.369  25.678  1.00  0.00    -0.237 OA
ATOM     85  O   UNL A   1      42.990  19.479  24.788  1.00  0.00    -0.744 OA
ENDBRANCH  81  82
ENDBRANCH  49  74
BRANCH  61  86
ATOM     86  C   UNL A   1      47.934  26.942  30.821  1.00  0.00     0.058 A 
ATOM     87  C   UNL A   1      49.034  27.152  29.976  1.00  0.00     0.135 A 
ATOM     88  C   UNL A   1      48.166  26.321  32.059  1.00  0.00     0.135 A 
ATOM     89  F   UNL A   1      48.864  27.738  28.780  1.00  0.00    -0.206 F 
ATOM     90  C   UNL A   1      50.311  26.732  30.328  1.00  0.00     0.059 A 
ATOM     91  C   UNL A   1      49.441  25.918  32.445  1.00  0.00     0.059 A 
ATOM     92  F   UNL A   1      47.152  26.107  32.911  1.00  0.00    -0.206 F 
ATOM     93  C   UNL A   1      50.504  26.113  31.565  1.00  0.00     0.060 A 
BRANCH  93  94
ATOM     94  S   UNL A   1      52.169  25.583  32.018  1.00  0.00     0.124 S 
ATOM     95  O   UNL A   1      52.436  26.416  33.185  1.00  0.00    -0.237 OA
ATOM     96  O   UNL A   1      51.984  24.159  32.284  1.00  0.00    -0.237 OA
ATOM     97  O   UNL A   1      52.958  25.893  30.829  1.00  0.00    -0.744 OA
ENDBRANCH  93  94
ENDBRANCH  61  86
ENDBRANCH  35  36
ENDBRANCH  27  30
ENDBRANCH  25  26
ENDBRANCH  24  25
ENDBRANCH   1  24
TORSDOF 17
ENDMDL
MODEL 3
REMARK VINA RESULT:     -12.2      1.138      2.088
REMARK SMILES Cc1ccc(C)c(OCc2ccc(C(=O)NCCCCNC(=O)c3ccc(-c4c5nc(c(-c6c(F)cc(S(=O)(=O)[O-])cc6F)c6ccc([nH]6)c(-c6c(F)cc(S(=O)(=O)[O-])cc6F)c6nc(c(-c7c(F)cc(S(=O)(=O)[O-])cc7F)c7ccc4[nH]7)C=C6)C=C5)cc3)cc2)c1C
REMARK SMILES IDX 18 1 17 2 16 3 14 4 15 5 13 7 10 8 11 9 91 10 12 11 90 12
REMARK SMILES IDX 9 13 8 14 7 15 1 16 2 17 3 18 92 19 4 20 93 21 5 22 6 23
REMARK SMILES IDX 19 24 20 25 21 26 22 27 23 29 24 30 25 31 89 32 26 33 88 34
REMARK SMILES IDX 27 35 28 36 29 37 82 38 30 39 87 40 81 41 83 42 31 43 86 44
REMARK SMILES IDX 80 45 79 46 32 48 66 49 45 50 65 51 46 52 49 53 64 54 84 55
REMARK SMILES IDX 47 56 48 57 63 59 85 60 50 61 33 62 34 63 43 64 35 65 36 66
REMARK SMILES IDX 42 67 44 68 37 69 38 70 39 71 40 72 41 73 67 74 68 75 77 76
REMARK SMILES IDX 69 77 70 78 76 79 78 80 71 81 72 82 73 83 74 84 75 85 51 86
REMARK SMILES IDX 52 87 61 88 53 89 54 90 60 91 62 92 55 93 56 94 57 95 58 96
REMARK SMILES IDX 59 97
REMARK H PARENT 16 6 21 28 83 47 49 58
REMARK Flexibility Score: inf
ROOT
ATOM      1  C   UNL A   1      40.800  21.339  26.527  1.00  0.00     0.023 C 
ENDROOT
BRANCH   1   2
ATOM      2  C   UNL A   1      39.345  21.579  26.123  1.00  0.00     0.116 C 
BRANCH   2   3
ATOM      3  N   UNL A   1      38.934  22.901  26.524  1.00  0.00    -0.352 N 
ATOM      4  C   UNL A   1      37.832  23.649  26.212  1.00  0.00     0.251 C 
ATOM      5  O   UNL A   1      37.825  24.811  26.625  1.00  0.00    -0.269 OA
ATOM      6  H   UNL A   1      39.564  23.349  27.135  1.00  0.00     0.163 HD
BRANCH   4   7
ATOM      7  C   UNL A   1      36.634  23.131  25.475  1.00  0.00     0.039 A 
ATOM      8  C   UNL A   1      34.323  22.581  23.888  1.00  0.00    -0.011 A 
ATOM      9  C   UNL A   1      35.472  23.152  23.336  1.00  0.00     0.008 A 
ATOM     10  C   UNL A   1      34.399  22.182  25.228  1.00  0.00     0.008 A 
ATOM     11  C   UNL A   1      36.598  23.431  24.112  1.00  0.00     0.014 A 
ATOM     12  C   UNL A   1      35.544  22.434  26.000  1.00  0.00     0.014 A 
BRANCH   8  13
ATOM     13  C   UNL A   1      32.968  22.562  23.191  1.00  0.00     0.265 C 
BRANCH  13  14
ATOM     14  O   UNL A   1      32.194  23.749  23.028  1.00  0.00    -0.488 OA
BRANCH  14  15
ATOM     15  C   UNL A   1      32.189  24.722  23.988  1.00  0.00     0.125 A 
ATOM     16  C   UNL A   1      33.733  28.233  24.176  1.00  0.00     0.045 C 
ATOM     17  C   UNL A   1      33.022  26.956  24.528  1.00  0.00    -0.044 A 
ATOM     18  C   UNL A   1      32.531  26.791  25.828  1.00  0.00     0.004 A 
ATOM     19  C   UNL A   1      32.834  25.921  23.591  1.00  0.00    -0.006 A 
ATOM     20  C   UNL A   1      31.820  25.645  26.184  1.00  0.00     0.007 A 
ATOM     21  C   UNL A   1      33.351  26.030  22.176  1.00  0.00     0.049 C 
ATOM     22  C   UNL A   1      31.601  24.610  25.261  1.00  0.00    -0.009 A 
ATOM     23  C   UNL A   1      30.806  23.422  25.723  1.00  0.00     0.048 C 
ENDBRANCH  14  15
ENDBRANCH  13  14
ENDBRANCH   8  13
ENDBRANCH   4   7
ENDBRANCH   2   3
ENDBRANCH   1   2
BRANCH   1  24
ATOM     24  C   UNL A   1      41.209  22.063  27.813  1.00  0.00     0.023 C 
BRANCH  24  25
ATOM     25  C   UNL A   1      42.327  23.082  27.631  1.00  0.00     0.116 C 
BRANCH  25  26
ATOM     26  N   UNL A   1      42.192  23.855  26.406  1.00  0.00    -0.352 N 
ATOM     27  C   UNL A   1      41.844  25.173  26.269  1.00  0.00     0.251 C 
ATOM     28  H   UNL A   1      42.374  23.369  25.569  1.00  0.00     0.163 HD
ATOM     29  O   UNL A   1      41.657  25.651  25.153  1.00  0.00    -0.269 OA
BRANCH  27  30
ATOM     30  C   UNL A   1      41.654  25.989  27.481  1.00  0.00     0.039 A 
ATOM     31  C   UNL A   1      42.594  26.977  27.773  1.00  0.00     0.014 A 
ATOM     32  C   UNL A   1      40.532  25.805  28.293  1.00  0.00     0.014 A 
ATOM     33  C   UNL A   1      42.383  27.815  28.865  1.00  0.00     0.010 A 
ATOM     34  C   UNL A   1      40.287  26.691  29.336  1.00  0.00     0.010 A 
ATOM     35  C   UNL A   1      41.214  27.696  29.637  1.00  0.00    -0.014 A 
BRANCH  35  36
ATOM     36  C   UNL A   1      40.962  28.620  30.769  1.00  0.00     0.031 A 
ATOM     37  C   UNL A   1      41.786  28.520  32.021  1.00  0.00     0.074 A 
ATOM     38  C   UNL A   1      39.969  29.525  30.671  1.00  0.00     0.049 A 
ATOM     39  N   UNL A   1      41.725  29.246  33.107  1.00  0.00    -0.248 NA
ATOM     40  C   UNL A   1      42.792  27.446  32.074  1.00  0.00     0.031 C 
ATOM     41  C   UNL A   1      39.063  29.666  29.528  1.00  0.00     0.029 A 
ATOM     42  N   UNL A   1      39.555  30.498  31.543  1.00  0.00    -0.354 N 
ATOM     43  C   UNL A   1      42.675  28.717  33.971  1.00  0.00     0.074 A 
ATOM     44  C   UNL A   1      43.256  27.570  33.310  1.00  0.00     0.031 C 
ATOM     45  C   UNL A   1      38.224  30.690  29.756  1.00  0.00     0.029 A 
ATOM     46  C   UNL A   1      38.513  31.258  31.068  1.00  0.00     0.049 A 
ATOM     47  H   UNL A   1      39.966  30.640  32.427  1.00  0.00     0.167 HD
ATOM     48  C   UNL A   1      43.051  29.165  35.192  1.00  0.00     0.037 A 
ATOM     49  C   UNL A   1      37.870  32.301  31.627  1.00  0.00     0.037 A 
ATOM     50  C   UNL A   1      42.481  30.323  35.830  1.00  0.00     0.049 A 
ATOM     51  C   UNL A   1      38.320  32.795  32.974  1.00  0.00     0.074 A 
ATOM     52  C   UNL A   1      42.828  30.899  37.039  1.00  0.00     0.029 A 
ATOM     53  N   UNL A   1      41.442  31.082  35.310  1.00  0.00    -0.354 N 
ATOM     54  N   UNL A   1      39.276  32.331  33.745  1.00  0.00    -0.248 NA
ATOM     55  C   UNL A   1      37.617  33.962  33.522  1.00  0.00     0.031 C 
ATOM     56  C   UNL A   1      41.972  31.981  37.269  1.00  0.00     0.029 A 
ATOM     57  C   UNL A   1      41.123  32.110  36.181  1.00  0.00     0.049 A 
ATOM     58  H   UNL A   1      40.997  30.914  34.448  1.00  0.00     0.167 HD
ATOM     59  C   UNL A   1      39.304  33.163  34.858  1.00  0.00     0.074 A 
ATOM     60  C   UNL A   1      38.282  34.169  34.649  1.00  0.00     0.031 C 
ATOM     61  C   UNL A   1      40.102  33.102  35.953  1.00  0.00     0.037 A 
BRANCH  48  62
ATOM     62  C   UNL A   1      44.134  28.407  35.910  1.00  0.00     0.058 A 
ATOM     63  C   UNL A   1      45.492  28.721  35.737  1.00  0.00     0.135 A 
ATOM     64  C   UNL A   1      43.813  27.371  36.801  1.00  0.00     0.135 A 
ATOM     65  F   UNL A   1      45.858  29.691  34.882  1.00  0.00    -0.206 F 
ATOM     66  C   UNL A   1      46.493  28.017  36.397  1.00  0.00     0.059 A 
ATOM     67  C   UNL A   1      44.797  26.671  37.495  1.00  0.00     0.059 A 
ATOM     68  F   UNL A   1      42.531  27.026  37.003  1.00  0.00    -0.206 F 
ATOM     69  C   UNL A   1      46.135  26.992  37.274  1.00  0.00     0.060 A 
BRANCH  69  70
ATOM     70  S   UNL A   1      47.447  26.092  38.128  1.00  0.00     0.124 S 
ATOM     71  O   UNL A   1      47.123  26.364  39.525  1.00  0.00    -0.237 OA
ATOM     72  O   UNL A   1      47.223  24.720  37.682  1.00  0.00    -0.237 OA
ATOM     73  O   UNL A   1      48.668  26.718  37.633  1.00  0.00    -0.744 OA
ENDBRANCH  69  70
ENDBRANCH  48  62
BRANCH  49  74
ATOM     74  C   UNL A   1      36.763  32.969  30.894  1.00  0.00     0.058 A 
ATOM     75  C   UNL A   1      35.427  32.786  31.278  1.00  0.00     0.135 A 
ATOM     76  C   UNL A   1      37.018  33.818  29.806  1.00  0.00     0.135 A 
ATOM     77  F   UNL A   1      35.131  31.982  32.311  1.00  0.00    -0.206 F 
ATOM     78  C   UNL A   1      34.381  33.405  30.601  1.00  0.00     0.059 A 
ATOM     79  C   UNL A   1      35.992  34.468  29.128  1.00  0.00     0.059 A 
ATOM     80  F   UNL A   1      38.281  34.043  29.410  1.00  0.00    -0.206 F 
ATOM     81  C   UNL A   1      34.674  34.246  29.526  1.00  0.00     0.060 A 
BRANCH  81  82
ATOM     82  S   UNL A   1      33.313  35.081  28.683  1.00  0.00     0.124 S 
ATOM     83  O   UNL A   1      32.506  35.536  29.809  1.00  0.00    -0.237 OA
ATOM     84  O   UNL A   1      34.009  36.122  27.933  1.00  0.00    -0.237 OA
ATOM     85  O   UNL A   1      32.723  34.021  27.870  1.00  0.00    -0.744 OA
ENDBRANCH  81  82
ENDBRANCH  49  74
BRANCH  61  86
ATOM     86  C   UNL A   1      39.917  34.169  36.996  1.00  0.00     0.058 A 
ATOM     87  C   UNL A   1      39.089  33.975  38.112  1.00  0.00     0.135 A 
ATOM     88  C   UNL A   1      40.605  35.389  36.892  1.00  0.00     0.135 A 
ATOM     89  F   UNL A   1      38.406  32.828  38.256  1.00  0.00    -0.206 F 
ATOM     90  C   UNL A   1      38.920  34.967  39.071  1.00  0.00     0.059 A 
ATOM     91  C   UNL A   1      40.473  36.384  37.855  1.00  0.00     0.059 A 
ATOM     92  F   UNL A   1      41.419  35.621  35.851  1.00  0.00    -0.206 F 
ATOM     93  C   UNL A   1      39.616  36.171  38.933  1.00  0.00     0.060 A 
BRANCH  93  94
ATOM     94  S   UNL A   1      39.399  37.446  40.191  1.00  0.00     0.124 S 
ATOM     95  O   UNL A   1      40.762  37.943  40.343  1.00  0.00    -0.237 OA
ATOM     96  O   UNL A   1      38.458  38.361  39.552  1.00  0.00    -0.237 OA
ATOM     97  O   UNL A   1      38.866  36.709  41.333  1.00  0.00    -0.744 OA
ENDBRANCH  93  94
ENDBRANCH  61  86
ENDBRANCH  35  36
ENDBRANCH  27  30
ENDBRANCH  25  26
ENDBRANCH  24  25
ENDBRANCH   1  24
TORSDOF 17
ENDMDL
