MODEL 1
REMARK VINA RESULT:     -11.2      0.000      0.000
REMARK SMILES CC(C)C[C@H](NC(=O)CNC(=O)[C@@H](NC(=O)OCc1ccccc1)C(C)C)C(=O)NCCCCNC(=O)c1ccc(-c2c3nc(c(-c4c(F)cc(S(=O)(=O)[O-])cc4F)c4ccc([nH]4)c(-c4c(F)cc(S(=O)(=O)[O-])cc4F)c4nc(c(-c5c(F)cc(S(=O)(=O)[O-])cc5F)c5ccc2[nH]5)C=C4)C=C3)cc1
REMARK SMILES IDX 28 1 29 2 30 3 5 5 4 6 2 7 1 8 3 9 6 10 7 11 8 13 9 14 10 15
REMARK SMILES IDX 11 16 12 18 13 19 14 20 15 21 16 23 17 24 18 25 19 26 20 27
REMARK SMILES IDX 24 28 21 29 23 30 22 31 25 32 26 33 27 34 31 35 32 36 33 37
REMARK SMILES IDX 34 38 35 39 36 40 37 42 38 43 39 44 103 45 40 46 102 47
REMARK SMILES IDX 41 48 42 49 43 50 96 51 44 52 101 53 95 54 97 55 45 56
REMARK SMILES IDX 100 57 94 58 93 59 46 61 80 62 59 63 79 64 60 65 63 66 78 67
REMARK SMILES IDX 98 68 61 69 62 70 77 72 99 73 64 74 47 75 48 76 57 77 49 78
REMARK SMILES IDX 50 79 56 80 58 81 51 82 52 83 53 84 54 85 55 86 81 87 82 88
REMARK SMILES IDX 91 89 83 90 84 91 90 92 92 93 85 94 86 95 87 96 88 97 89 98
REMARK SMILES IDX 65 99 66 100 75 101 67 102 68 103 74 104 76 105 69 106
REMARK SMILES IDX 70 107 71 108 72 109 73 110
REMARK H PARENT 30 4 6 12 10 17 14 22 35 41 97 60 63 71
REMARK Flexibility Score: inf
ROOT
ATOM      1  C   UNL A   1      31.773  28.721  23.169  1.00  0.00     0.242 C 
ATOM      2  O   UNL A   1      32.532  28.225  22.336  1.00  0.00    -0.273 OA
ATOM      3  N   UNL A   1      32.304  29.402  24.230  1.00  0.00    -0.354 N 
ATOM      4  H   UNL A   1      33.287  29.414  24.289  1.00  0.00     0.163 HD
ENDROOT
BRANCH   1   5
ATOM      5  C   UNL A   1      30.241  28.602  23.043  1.00  0.00     0.171 C 
BRANCH   5   6
ATOM      6  C   UNL A   1      29.576  29.970  23.180  1.00  0.00     0.038 C 
BRANCH   6   7
ATOM      7  C   UNL A   1      28.104  30.149  22.758  1.00  0.00    -0.015 C 
ATOM      8  C   UNL A   1      27.221  28.955  23.112  1.00  0.00     0.007 C 
ATOM      9  C   UNL A   1      27.562  31.407  23.451  1.00  0.00     0.007 C 
ENDBRANCH   6   7
ENDBRANCH   5   6
BRANCH   5  10
ATOM     10  N   UNL A   1      29.868  27.527  23.997  1.00  0.00    -0.343 N 
ATOM     11  C   UNL A   1      29.820  26.190  24.134  1.00  0.00     0.240 C 
ATOM     12  H   UNL A   1      29.538  27.941  24.827  1.00  0.00     0.164 HD
ATOM     13  O   UNL A   1      29.454  25.804  25.257  1.00  0.00    -0.273 OA
BRANCH  11  14
ATOM     14  C   UNL A   1      30.233  25.105  23.130  1.00  0.00     0.216 C 
BRANCH  14  15
ATOM     15  N   UNL A   1      31.408  25.189  22.303  1.00  0.00    -0.345 N 
ATOM     16  C   UNL A   1      32.679  24.755  22.480  1.00  0.00     0.243 C 
ATOM     17  H   UNL A   1      31.260  25.649  21.446  1.00  0.00     0.164 HD
ATOM     18  O   UNL A   1      33.397  24.799  21.473  1.00  0.00    -0.273 OA
BRANCH  16  19
ATOM     19  C   UNL A   1      33.247  24.189  23.815  1.00  0.00     0.177 C 
BRANCH  19  20
ATOM     20  N   UNL A   1      34.427  23.336  23.650  1.00  0.00    -0.309 N 
ATOM     21  C   UNL A   1      34.862  22.205  24.253  1.00  0.00     0.408 C 
ATOM     22  H   UNL A   1      35.038  23.657  22.948  1.00  0.00     0.167 HD
ATOM     23  O   UNL A   1      36.035  21.886  24.139  1.00  0.00    -0.225 OA
BRANCH  21  24
ATOM     24  O   UNL A   1      33.917  21.526  24.941  1.00  0.00    -0.445 OA
BRANCH  24  25
ATOM     25  C   UNL A   1      34.351  20.260  25.464  1.00  0.00     0.270 C 
BRANCH  25  26
ATOM     26  C   UNL A   1      33.889  19.133  24.569  1.00  0.00    -0.011 A 
ATOM     27  C   UNL A   1      34.699  18.002  24.381  1.00  0.00     0.007 A 
ATOM     28  C   UNL A   1      32.697  19.235  23.841  1.00  0.00     0.007 A 
ATOM     29  C   UNL A   1      34.354  17.019  23.457  1.00  0.00     0.000 A 
ATOM     30  C   UNL A   1      32.337  18.233  22.936  1.00  0.00     0.000 A 
ATOM     31  C   UNL A   1      33.171  17.134  22.734  1.00  0.00     0.000 A 
ENDBRANCH  25  26
ENDBRANCH  24  25
ENDBRANCH  21  24
ENDBRANCH  19  20
BRANCH  19  32
ATOM     32  C   UNL A   1      33.276  25.221  24.961  1.00  0.00     0.015 C 
ATOM     33  C   UNL A   1      32.625  24.668  26.239  1.00  0.00     0.010 C 
ATOM     34  C   UNL A   1      34.721  25.610  25.307  1.00  0.00     0.010 C 
ENDBRANCH  19  32
ENDBRANCH  16  19
ENDBRANCH  14  15
ENDBRANCH  11  14
ENDBRANCH   5  10
ENDBRANCH   1   5
BRANCH   3  35
ATOM     35  C   UNL A   1      31.593  30.108  25.278  1.00  0.00     0.116 C 
BRANCH  35  36
ATOM     36  C   UNL A   1      31.615  29.365  26.601  1.00  0.00     0.023 C 
BRANCH  36  37
ATOM     37  C   UNL A   1      32.689  28.287  26.679  1.00  0.00     0.023 C 
BRANCH  37  38
ATOM     38  C   UNL A   1      33.948  28.704  27.429  1.00  0.00     0.116 C 
BRANCH  38  39
ATOM     39  N   UNL A   1      33.877  30.077  27.917  1.00  0.00    -0.352 N 
ATOM     40  C   UNL A   1      34.851  30.790  28.575  1.00  0.00     0.251 C 
ATOM     41  H   UNL A   1      33.029  30.550  27.756  1.00  0.00     0.163 HD
ATOM     42  O   UNL A   1      34.601  31.877  29.083  1.00  0.00    -0.269 OA
BRANCH  40  43
ATOM     43  C   UNL A   1      36.195  30.194  28.677  1.00  0.00     0.039 A 
ATOM     44  C   UNL A   1      37.049  30.244  27.575  1.00  0.00     0.014 A 
ATOM     45  C   UNL A   1      36.631  29.687  29.905  1.00  0.00     0.014 A 
ATOM     46  C   UNL A   1      38.375  29.843  27.726  1.00  0.00     0.010 A 
ATOM     47  C   UNL A   1      37.972  29.366  30.071  1.00  0.00     0.010 A 
ATOM     48  C   UNL A   1      38.856  29.438  28.984  1.00  0.00    -0.014 A 
BRANCH  48  49
ATOM     49  C   UNL A   1      40.281  29.078  29.184  1.00  0.00     0.031 A 
ATOM     50  C   UNL A   1      41.236  30.099  29.740  1.00  0.00     0.074 A 
ATOM     51  C   UNL A   1      40.727  27.865  28.803  1.00  0.00     0.049 A 
ATOM     52  N   UNL A   1      42.526  30.006  29.928  1.00  0.00    -0.248 NA
ATOM     53  C   UNL A   1      40.669  31.408  30.105  1.00  0.00     0.031 C 
ATOM     54  C   UNL A   1      39.907  26.811  28.199  1.00  0.00     0.029 A 
ATOM     55  N   UNL A   1      41.982  27.313  28.859  1.00  0.00    -0.354 N 
ATOM     56  C   UNL A   1      42.927  31.244  30.413  1.00  0.00     0.074 A 
ATOM     57  C   UNL A   1      41.754  32.091  30.439  1.00  0.00     0.031 C 
ATOM     58  C   UNL A   1      40.675  25.733  27.965  1.00  0.00     0.029 A 
ATOM     59  C   UNL A   1      42.045  26.030  28.369  1.00  0.00     0.049 A 
ATOM     60  H   UNL A   1      42.764  27.792  29.217  1.00  0.00     0.167 HD
ATOM     61  C   UNL A   1      44.155  31.634  30.826  1.00  0.00     0.037 A 
ATOM     62  C   UNL A   1      43.093  25.189  28.256  1.00  0.00     0.037 A 
ATOM     63  C   UNL A   1      45.309  30.775  30.832  1.00  0.00     0.049 A 
ATOM     64  C   UNL A   1      44.447  25.641  28.732  1.00  0.00     0.074 A 
ATOM     65  C   UNL A   1      46.582  31.049  31.297  1.00  0.00     0.029 A 
ATOM     66  N   UNL A   1      45.329  29.473  30.352  1.00  0.00    -0.354 N 
ATOM     67  N   UNL A   1      44.794  26.793  29.257  1.00  0.00    -0.248 NA
ATOM     68  C   UNL A   1      45.551  24.681  28.607  1.00  0.00     0.031 C 
ATOM     69  C   UNL A   1      47.384  29.928  31.058  1.00  0.00     0.029 A 
ATOM     70  C   UNL A   1      46.598  28.938  30.490  1.00  0.00     0.049 A 
ATOM     71  H   UNL A   1      44.555  29.000  29.969  1.00  0.00     0.167 HD
ATOM     72  C   UNL A   1      46.148  26.684  29.551  1.00  0.00     0.074 A 
ATOM     73  C   UNL A   1      46.555  25.351  29.156  1.00  0.00     0.031 C 
ATOM     74  C   UNL A   1      46.980  27.603  30.101  1.00  0.00     0.037 A 
BRANCH  61  75
ATOM     75  C   UNL A   1      44.313  33.049  31.312  1.00  0.00     0.058 A 
ATOM     76  C   UNL A   1      44.160  33.383  32.667  1.00  0.00     0.135 A 
ATOM     77  C   UNL A   1      44.655  34.075  30.418  1.00  0.00     0.135 A 
ATOM     78  F   UNL A   1      43.816  32.443  33.562  1.00  0.00    -0.206 F 
ATOM     79  C   UNL A   1      44.312  34.692  33.114  1.00  0.00     0.059 A 
ATOM     80  C   UNL A   1      44.840  35.386  30.848  1.00  0.00     0.059 A 
ATOM     81  F   UNL A   1      44.810  33.811  29.111  1.00  0.00    -0.206 F 
ATOM     82  C   UNL A   1      44.653  35.686  32.196  1.00  0.00     0.060 A 
BRANCH  82  83
ATOM     83  S   UNL A   1      44.859  37.376  32.796  1.00  0.00     0.124 S 
ATOM     84  O   UNL A   1      46.307  37.542  32.706  1.00  0.00    -0.237 OA
ATOM     85  O   UNL A   1      44.072  38.147  31.839  1.00  0.00    -0.237 OA
ATOM     86  O   UNL A   1      44.317  37.323  34.151  1.00  0.00    -0.744 OA
ENDBRANCH  82  83
ENDBRANCH  61  75
BRANCH  62  87
ATOM     87  C   UNL A   1      42.898  23.824  27.696  1.00  0.00     0.058 A 
ATOM     88  C   UNL A   1      42.650  22.730  28.539  1.00  0.00     0.135 A 
ATOM     89  C   UNL A   1      42.952  23.586  26.315  1.00  0.00     0.135 A 
ATOM     90  F   UNL A   1      42.595  22.906  29.868  1.00  0.00    -0.206 F 
ATOM     91  C   UNL A   1      42.482  21.445  28.035  1.00  0.00     0.059 A 
ATOM     92  C   UNL A   1      42.763  22.313  25.785  1.00  0.00     0.059 A 
ATOM     93  F   UNL A   1      43.169  24.601  25.464  1.00  0.00    -0.206 F 
ATOM     94  C   UNL A   1      42.540  21.246  26.655  1.00  0.00     0.060 A 
BRANCH  94  95
ATOM     95  S   UNL A   1      42.280  19.580  26.008  1.00  0.00     0.124 S 
ATOM     96  O   UNL A   1      40.853  19.600  25.710  1.00  0.00    -0.237 OA
ATOM     97  O   UNL A   1      43.174  19.556  24.855  1.00  0.00    -0.237 OA
ATOM     98  O   UNL A   1      42.681  18.723  27.121  1.00  0.00    -0.744 OA
ENDBRANCH  94  95
ENDBRANCH  62  87
BRANCH  74  99
ATOM     99  C   UNL A   1      48.406  27.190  30.343  1.00  0.00     0.058 A 
ATOM    100  C   UNL A   1      49.446  27.599  29.495  1.00  0.00     0.135 A 
ATOM    101  C   UNL A   1      48.739  26.423  31.472  1.00  0.00     0.135 A 
ATOM    102  F   UNL A   1      49.180  28.327  28.400  1.00  0.00    -0.206 F 
ATOM    103  C   UNL A   1      50.768  27.241  29.746  1.00  0.00     0.059 A 
ATOM    104  C   UNL A   1      50.055  26.078  31.756  1.00  0.00     0.059 A 
ATOM    105  F   UNL A   1      47.781  26.018  32.321  1.00  0.00    -0.206 F 
ATOM    106  C   UNL A   1      51.062  26.483  30.880  1.00  0.00     0.060 A 
BRANCH 106 107
ATOM    107  S   UNL A   1      52.784  26.057  31.214  1.00  0.00     0.124 S 
ATOM    108  O   UNL A   1      53.266  27.269  31.867  1.00  0.00    -0.237 OA
ATOM    109  O   UNL A   1      52.655  24.882  32.071  1.00  0.00    -0.237 OA
ATOM    110  O   UNL A   1      53.334  25.797  29.886  1.00  0.00    -0.744 OA
ENDBRANCH 106 107
ENDBRANCH  74  99
ENDBRANCH  48  49
ENDBRANCH  40  43
ENDBRANCH  38  39
ENDBRANCH  37  38
ENDBRANCH  36  37
ENDBRANCH  35  36
ENDBRANCH   3  35
TORSDOF 25
ENDMDL
MODEL 2
REMARK VINA RESULT:     -10.8      2.496      3.625
REMARK SMILES CC(C)C[C@H](NC(=O)CNC(=O)[C@@H](NC(=O)OCc1ccccc1)C(C)C)C(=O)NCCCCNC(=O)c1ccc(-c2c3nc(c(-c4c(F)cc(S(=O)(=O)[O-])cc4F)c4ccc([nH]4)c(-c4c(F)cc(S(=O)(=O)[O-])cc4F)c4nc(c(-c5c(F)cc(S(=O)(=O)[O-])cc5F)c5ccc2[nH]5)C=C4)C=C3)cc1
REMARK SMILES IDX 28 1 29 2 30 3 5 5 4 6 2 7 1 8 3 9 6 10 7 11 8 13 9 14 10 15
REMARK SMILES IDX 11 16 12 18 13 19 14 20 15 21 16 23 17 24 18 25 19 26 20 27
REMARK SMILES IDX 24 28 21 29 23 30 22 31 25 32 26 33 27 34 31 35 32 36 33 37
REMARK SMILES IDX 34 38 35 39 36 40 37 42 38 43 39 44 103 45 40 46 102 47
REMARK SMILES IDX 41 48 42 49 43 50 96 51 44 52 101 53 95 54 97 55 45 56
REMARK SMILES IDX 100 57 94 58 93 59 46 61 80 62 59 63 79 64 60 65 63 66 78 67
REMARK SMILES IDX 98 68 61 69 62 70 77 72 99 73 64 74 47 75 48 76 57 77 49 78
REMARK SMILES IDX 50 79 56 80 58 81 51 82 52 83 53 84 54 85 55 86 81 87 82 88
REMARK SMILES IDX 91 89 83 90 84 91 90 92 92 93 85 94 86 95 87 96 88 97 89 98
REMARK SMILES IDX 65 99 66 100 75 101 67 102 68 103 74 104 76 105 69 106
REMARK SMILES IDX 70 107 71 108 72 109 73 110
REMARK H PARENT 30 4 6 12 10 17 14 22 35 41 97 60 63 71
REMARK Flexibility Score: inf
ROOT
ATOM      1  C   UNL A   1      32.079  28.909  23.483  1.00  0.00     0.242 C 
ATOM      2  O   UNL A   1      32.768  28.850  22.465  1.00  0.00    -0.273 OA
ATOM      3  N   UNL A   1      32.696  28.996  24.700  1.00  0.00    -0.354 N 
ATOM      4  H   UNL A   1      33.680  28.958  24.691  1.00  0.00     0.163 HD
ENDROOT
BRANCH   1   5
ATOM      5  C   UNL A   1      30.538  28.898  23.421  1.00  0.00     0.171 C 
BRANCH   5   6
ATOM      6  C   UNL A   1      29.966  30.253  23.827  1.00  0.00     0.038 C 
BRANCH   6   7
ATOM      7  C   UNL A   1      29.042  31.015  22.857  1.00  0.00    -0.015 C 
ATOM      8  C   UNL A   1      28.838  30.298  21.524  1.00  0.00     0.007 C 
ATOM      9  C   UNL A   1      27.684  31.207  23.547  1.00  0.00     0.007 C 
ENDBRANCH   6   7
ENDBRANCH   5   6
BRANCH   5  10
ATOM     10  N   UNL A   1      30.140  27.693  24.193  1.00  0.00    -0.343 N 
ATOM     11  C   UNL A   1      30.024  26.357  24.102  1.00  0.00     0.240 C 
ATOM     12  H   UNL A   1      29.862  27.974  25.094  1.00  0.00     0.164 HD
ATOM     13  O   UNL A   1      29.677  25.801  25.158  1.00  0.00    -0.273 OA
BRANCH  11  14
ATOM     14  C   UNL A   1      30.343  25.442  22.912  1.00  0.00     0.216 C 
BRANCH  14  15
ATOM     15  N   UNL A   1      31.679  25.169  22.450  1.00  0.00    -0.345 N 
ATOM     16  C   UNL A   1      32.566  24.191  22.753  1.00  0.00     0.243 C 
ATOM     17  H   UNL A   1      32.012  25.818  21.789  1.00  0.00     0.164 HD
ATOM     18  O   UNL A   1      33.554  24.124  22.011  1.00  0.00    -0.273 OA
BRANCH  16  19
ATOM     19  C   UNL A   1      32.394  23.163  23.911  1.00  0.00     0.177 C 
BRANCH  19  20
ATOM     20  N   UNL A   1      31.836  23.735  25.140  1.00  0.00    -0.309 N 
ATOM     21  C   UNL A   1      32.332  23.967  26.379  1.00  0.00     0.408 C 
ATOM     22  H   UNL A   1      30.896  24.009  25.045  1.00  0.00     0.167 HD
ATOM     23  O   UNL A   1      31.556  24.158  27.301  1.00  0.00    -0.225 OA
BRANCH  21  24
ATOM     24  O   UNL A   1      33.681  23.963  26.462  1.00  0.00    -0.445 OA
BRANCH  24  25
ATOM     25  C   UNL A   1      34.249  22.722  26.913  1.00  0.00     0.270 C 
BRANCH  25  26
ATOM     26  C   UNL A   1      35.582  22.480  26.243  1.00  0.00    -0.011 A 
ATOM     27  C   UNL A   1      35.880  21.221  25.697  1.00  0.00     0.007 A 
ATOM     28  C   UNL A   1      36.574  23.468  26.235  1.00  0.00     0.007 A 
ATOM     29  C   UNL A   1      37.150  20.938  25.199  1.00  0.00     0.000 A 
ATOM     30  C   UNL A   1      37.839  23.192  25.707  1.00  0.00     0.000 A 
ATOM     31  C   UNL A   1      38.130  21.925  25.202  1.00  0.00     0.000 A 
ENDBRANCH  25  26
ENDBRANCH  24  25
ENDBRANCH  21  24
ENDBRANCH  19  20
BRANCH  19  32
ATOM     32  C   UNL A   1      31.835  21.801  23.451  1.00  0.00     0.015 C 
ATOM     33  C   UNL A   1      31.939  21.632  21.926  1.00  0.00     0.010 C 
ATOM     34  C   UNL A   1      32.611  20.646  24.099  1.00  0.00     0.010 C 
ENDBRANCH  19  32
ENDBRANCH  16  19
ENDBRANCH  14  15
ENDBRANCH  11  14
ENDBRANCH   5  10
ENDBRANCH   1   5
BRANCH   3  35
ATOM     35  C   UNL A   1      32.075  29.137  26.003  1.00  0.00     0.116 C 
BRANCH  35  36
ATOM     36  C   UNL A   1      33.070  29.003  27.141  1.00  0.00     0.023 C 
BRANCH  36  37
ATOM     37  C   UNL A   1      33.969  30.221  27.314  1.00  0.00     0.023 C 
BRANCH  37  38
ATOM     38  C   UNL A   1      35.270  29.943  28.056  1.00  0.00     0.116 C 
BRANCH  38  39
ATOM     39  N   UNL A   1      35.399  30.738  29.272  1.00  0.00    -0.352 N 
ATOM     40  C   UNL A   1      36.479  30.817  30.118  1.00  0.00     0.251 C 
ATOM     41  H   UNL A   1      34.618  31.285  29.516  1.00  0.00     0.163 HD
ATOM     42  O   UNL A   1      36.394  31.391  31.197  1.00  0.00    -0.269 OA
BRANCH  40  43
ATOM     43  C   UNL A   1      37.734  30.166  29.700  1.00  0.00     0.039 A 
ATOM     44  C   UNL A   1      38.086  30.166  28.351  1.00  0.00     0.014 A 
ATOM     45  C   UNL A   1      38.601  29.657  30.672  1.00  0.00     0.014 A 
ATOM     46  C   UNL A   1      39.351  29.711  27.980  1.00  0.00     0.010 A 
ATOM     47  C   UNL A   1      39.887  29.282  30.307  1.00  0.00     0.010 A 
ATOM     48  C   UNL A   1      40.274  29.302  28.958  1.00  0.00    -0.014 A 
BRANCH  48  49
ATOM     49  C   UNL A   1      41.650  28.885  28.593  1.00  0.00     0.031 A 
ATOM     50  C   UNL A   1      42.751  29.909  28.549  1.00  0.00     0.074 A 
ATOM     51  C   UNL A   1      41.892  27.608  28.236  1.00  0.00     0.049 A 
ATOM     52  N   UNL A   1      44.000  29.763  28.192  1.00  0.00    -0.248 NA
ATOM     53  C   UNL A   1      42.393  31.286  28.929  1.00  0.00     0.031 C 
ATOM     54  C   UNL A   1      40.891  26.538  28.185  1.00  0.00     0.029 A 
ATOM     55  N   UNL A   1      43.051  26.993  27.839  1.00  0.00    -0.354 N 
ATOM     56  C   UNL A   1      44.570  31.026  28.284  1.00  0.00     0.074 A 
ATOM     57  C   UNL A   1      43.519  31.938  28.678  1.00  0.00     0.031 C 
ATOM     58  C   UNL A   1      41.487  25.395  27.806  1.00  0.00     0.029 A 
ATOM     59  C   UNL A   1      42.901  25.657  27.553  1.00  0.00     0.049 A 
ATOM     60  H   UNL A   1      43.912  27.466  27.766  1.00  0.00     0.167 HD
ATOM     61  C   UNL A   1      45.858  31.390  28.086  1.00  0.00     0.037 A 
ATOM     62  C   UNL A   1      43.801  24.746  27.133  1.00  0.00     0.037 A 
ATOM     63  C   UNL A   1      46.905  30.470  27.731  1.00  0.00     0.049 A 
ATOM     64  C   UNL A   1      45.231  25.173  26.929  1.00  0.00     0.074 A 
ATOM     65  C   UNL A   1      48.256  30.723  27.576  1.00  0.00     0.029 A 
ATOM     66  N   UNL A   1      46.719  29.119  27.474  1.00  0.00    -0.354 N 
ATOM     67  N   UNL A   1      45.768  26.359  27.093  1.00  0.00    -0.248 NA
ATOM     68  C   UNL A   1      46.177  24.139  26.491  1.00  0.00     0.031 C 
ATOM     69  C   UNL A   1      48.880  29.534  27.185  1.00  0.00     0.029 A 
ATOM     70  C   UNL A   1      47.927  28.529  27.143  1.00  0.00     0.049 A 
ATOM     71  H   UNL A   1      45.854  28.649  27.521  1.00  0.00     0.167 HD
ATOM     72  C   UNL A   1      47.119  26.206  26.806  1.00  0.00     0.074 A 
ATOM     73  C   UNL A   1      47.320  24.812  26.470  1.00  0.00     0.031 C 
ATOM     74  C   UNL A   1      48.107  27.135  26.822  1.00  0.00     0.037 A 
BRANCH  61  75
ATOM     75  C   UNL A   1      46.208  32.842  28.257  1.00  0.00     0.058 A 
ATOM     76  C   UNL A   1      46.144  33.746  27.184  1.00  0.00     0.135 A 
ATOM     77  C   UNL A   1      46.576  33.343  29.515  1.00  0.00     0.135 A 
ATOM     78  F   UNL A   1      45.815  33.317  25.955  1.00  0.00    -0.206 F 
ATOM     79  C   UNL A   1      46.463  35.090  27.347  1.00  0.00     0.059 A 
ATOM     80  C   UNL A   1      46.871  34.691  29.707  1.00  0.00     0.059 A 
ATOM     81  F   UNL A   1      46.656  32.523  30.574  1.00  0.00    -0.206 F 
ATOM     82  C   UNL A   1      46.824  35.553  28.613  1.00  0.00     0.060 A 
BRANCH  82  83
ATOM     83  S   UNL A   1      47.222  37.303  28.808  1.00  0.00     0.124 S 
ATOM     84  O   UNL A   1      47.640  37.658  27.455  1.00  0.00    -0.237 OA
ATOM     85  O   UNL A   1      45.949  37.867  29.245  1.00  0.00    -0.237 OA
ATOM     86  O   UNL A   1      48.281  37.300  29.812  1.00  0.00    -0.744 OA
ENDBRANCH  82  83
ENDBRANCH  61  75
BRANCH  62  87
ATOM     87  C   UNL A   1      43.387  23.336  26.904  1.00  0.00     0.058 A 
ATOM     88  C   UNL A   1      43.211  22.841  25.602  1.00  0.00     0.135 A 
ATOM     89  C   UNL A   1      43.161  22.456  27.973  1.00  0.00     0.135 A 
ATOM     90  F   UNL A   1      43.409  23.645  24.547  1.00  0.00    -0.206 F 
ATOM     91  C   UNL A   1      42.808  21.530  25.369  1.00  0.00     0.059 A 
ATOM     92  C   UNL A   1      42.781  21.134  27.764  1.00  0.00     0.059 A 
ATOM     93  F   UNL A   1      43.332  22.875  29.236  1.00  0.00    -0.206 F 
ATOM     94  C   UNL A   1      42.596  20.683  26.457  1.00  0.00     0.060 A 
BRANCH  94  95
ATOM     95  S   UNL A   1      42.112  18.972  26.141  1.00  0.00     0.124 S 
ATOM     96  O   UNL A   1      43.037  18.597  25.079  1.00  0.00    -0.237 OA
ATOM     97  O   UNL A   1      42.340  18.345  27.439  1.00  0.00    -0.237 OA
ATOM     98  O   UNL A   1      40.711  19.088  25.747  1.00  0.00    -0.744 OA
ENDBRANCH  94  95
ENDBRANCH  62  87
BRANCH  74  99
ATOM     99  C   UNL A   1      49.501  26.671  26.502  1.00  0.00     0.058 A 
ATOM    100  C   UNL A   1      50.328  26.093  27.477  1.00  0.00     0.135 A 
ATOM    101  C   UNL A   1      49.992  26.757  25.188  1.00  0.00     0.135 A 
ATOM    102  F   UNL A   1      49.909  25.993  28.748  1.00  0.00    -0.206 F 
ATOM    103  C   UNL A   1      51.604  25.634  27.164  1.00  0.00     0.059 A 
ATOM    104  C   UNL A   1      51.253  26.281  24.849  1.00  0.00     0.059 A 
ATOM    105  F   UNL A   1      49.235  27.292  24.217  1.00  0.00    -0.206 F 
ATOM    106  C   UNL A   1      52.056  25.730  25.847  1.00  0.00     0.060 A 
BRANCH 106 107
ATOM    107  S   UNL A   1      53.700  25.099  25.448  1.00  0.00     0.124 S 
ATOM    108  O   UNL A   1      53.451  23.664  25.363  1.00  0.00    -0.237 OA
ATOM    109  O   UNL A   1      53.993  25.768  24.184  1.00  0.00    -0.237 OA
ATOM    110  O   UNL A   1      54.514  25.529  26.581  1.00  0.00    -0.744 OA
ENDBRANCH 106 107
ENDBRANCH  74  99
ENDBRANCH  48  49
ENDBRANCH  40  43
ENDBRANCH  38  39
ENDBRANCH  37  38
ENDBRANCH  36  37
ENDBRANCH  35  36
ENDBRANCH   3  35
TORSDOF 25
ENDMDL
MODEL 3
REMARK VINA RESULT:     -10.8      2.615      3.802
REMARK SMILES CC(C)C[C@H](NC(=O)CNC(=O)[C@@H](NC(=O)OCc1ccccc1)C(C)C)C(=O)NCCCCNC(=O)c1ccc(-c2c3nc(c(-c4c(F)cc(S(=O)(=O)[O-])cc4F)c4ccc([nH]4)c(-c4c(F)cc(S(=O)(=O)[O-])cc4F)c4nc(c(-c5c(F)cc(S(=O)(=O)[O-])cc5F)c5ccc2[nH]5)C=C4)C=C3)cc1
REMARK SMILES IDX 28 1 29 2 30 3 5 5 4 6 2 7 1 8 3 9 6 10 7 11 8 13 9 14 10 15
REMARK SMILES IDX 11 16 12 18 13 19 14 20 15 21 16 23 17 24 18 25 19 26 20 27
REMARK SMILES IDX 24 28 21 29 23 30 22 31 25 32 26 33 27 34 31 35 32 36 33 37
REMARK SMILES IDX 34 38 35 39 36 40 37 42 38 43 39 44 103 45 40 46 102 47
REMARK SMILES IDX 41 48 42 49 43 50 96 51 44 52 101 53 95 54 97 55 45 56
REMARK SMILES IDX 100 57 94 58 93 59 46 61 80 62 59 63 79 64 60 65 63 66 78 67
REMARK SMILES IDX 98 68 61 69 62 70 77 72 99 73 64 74 47 75 48 76 57 77 49 78
REMARK SMILES IDX 50 79 56 80 58 81 51 82 52 83 53 84 54 85 55 86 81 87 82 88
REMARK SMILES IDX 91 89 83 90 84 91 90 92 92 93 85 94 86 95 87 96 88 97 89 98
REMARK SMILES IDX 65 99 66 100 75 101 67 102 68 103 74 104 76 105 69 106
REMARK SMILES IDX 70 107 71 108 72 109 73 110
REMARK H PARENT 30 4 6 12 10 17 14 22 35 41 97 60 63 71
REMARK Flexibility Score: inf
ROOT
ATOM      1  C   UNL A   1      31.930  28.460  23.528  1.00  0.00     0.242 C 
ATOM      2  O   UNL A   1      32.711  27.983  22.705  1.00  0.00    -0.273 OA
ATOM      3  N   UNL A   1      32.406  29.324  24.474  1.00  0.00    -0.354 N 
ATOM      4  H   UNL A   1      33.378  29.481  24.468  1.00  0.00     0.163 HD
ENDROOT
BRANCH   1   5
ATOM      5  C   UNL A   1      30.427  28.115  23.514  1.00  0.00     0.171 C 
BRANCH   5   6
ATOM      6  C   UNL A   1      29.586  29.354  23.217  1.00  0.00     0.038 C 
BRANCH   6   7
ATOM      7  C   UNL A   1      28.290  29.219  22.394  1.00  0.00    -0.015 C 
ATOM      8  C   UNL A   1      27.073  28.838  23.234  1.00  0.00     0.007 C 
ATOM      9  C   UNL A   1      28.029  30.561  21.697  1.00  0.00     0.007 C 
ENDBRANCH   6   7
ENDBRANCH   5   6
BRANCH   5  10
ATOM     10  N   UNL A   1      30.198  27.382  24.785  1.00  0.00    -0.343 N 
ATOM     11  C   UNL A   1      30.344  26.178  25.365  1.00  0.00     0.240 C 
ATOM     12  H   UNL A   1      29.796  28.000  25.437  1.00  0.00     0.164 HD
ATOM     13  O   UNL A   1      30.018  26.145  26.564  1.00  0.00    -0.273 OA
BRANCH  11  14
ATOM     14  C   UNL A   1      30.930  24.889  24.772  1.00  0.00     0.216 C 
BRANCH  14  15
ATOM     15  N   UNL A   1      30.674  23.577  25.306  1.00  0.00    -0.345 N 
ATOM     16  C   UNL A   1      31.351  22.407  25.212  1.00  0.00     0.243 C 
ATOM     17  H   UNL A   1      29.849  23.518  25.840  1.00  0.00     0.164 HD
ATOM     18  O   UNL A   1      30.968  21.512  25.976  1.00  0.00    -0.273 OA
BRANCH  16  19
ATOM     19  C   UNL A   1      32.562  22.155  24.266  1.00  0.00     0.177 C 
BRANCH  19  20
ATOM     20  N   UNL A   1      33.398  21.015  24.653  1.00  0.00    -0.309 N 
ATOM     21  C   UNL A   1      34.733  20.827  24.776  1.00  0.00     0.408 C 
ATOM     22  H   UNL A   1      32.874  20.211  24.871  1.00  0.00     0.167 HD
ATOM     23  O   UNL A   1      35.170  19.687  24.806  1.00  0.00    -0.225 OA
BRANCH  21  24
ATOM     24  O   UNL A   1      35.464  21.960  24.856  1.00  0.00    -0.445 OA
BRANCH  24  25
ATOM     25  C   UNL A   1      36.826  21.827  24.418  1.00  0.00     0.270 C 
BRANCH  25  26
ATOM     26  C   UNL A   1      37.769  22.419  25.440  1.00  0.00    -0.011 A 
ATOM     27  C   UNL A   1      37.594  23.740  25.880  1.00  0.00     0.007 A 
ATOM     28  C   UNL A   1      38.881  21.700  25.895  1.00  0.00     0.007 A 
ATOM     29  C   UNL A   1      38.528  24.346  26.717  1.00  0.00     0.000 A 
ATOM     30  C   UNL A   1      39.802  22.299  26.758  1.00  0.00     0.000 A 
ATOM     31  C   UNL A   1      39.633  23.625  27.157  1.00  0.00     0.000 A 
ENDBRANCH  25  26
ENDBRANCH  24  25
ENDBRANCH  21  24
ENDBRANCH  19  20
BRANCH  19  32
ATOM     32  C   UNL A   1      32.217  22.301  22.769  1.00  0.00     0.015 C 
ATOM     33  C   UNL A   1      33.327  23.037  22.001  1.00  0.00     0.010 C 
ATOM     34  C   UNL A   1      32.037  20.923  22.115  1.00  0.00     0.010 C 
ENDBRANCH  19  32
ENDBRANCH  16  19
ENDBRANCH  14  15
ENDBRANCH  11  14
ENDBRANCH   5  10
ENDBRANCH   1   5
BRANCH   3  35
ATOM     35  C   UNL A   1      31.651  30.039  25.486  1.00  0.00     0.116 C 
BRANCH  35  36
ATOM     36  C   UNL A   1      31.887  29.495  26.883  1.00  0.00     0.023 C 
BRANCH  36  37
ATOM     37  C   UNL A   1      33.101  28.580  26.985  1.00  0.00     0.023 C 
BRANCH  37  38
ATOM     38  C   UNL A   1      34.403  29.296  27.320  1.00  0.00     0.116 C 
BRANCH  38  39
ATOM     39  N   UNL A   1      34.181  30.594  27.948  1.00  0.00    -0.352 N 
ATOM     40  C   UNL A   1      34.968  31.226  28.881  1.00  0.00     0.251 C 
ATOM     41  H   UNL A   1      33.368  31.075  27.670  1.00  0.00     0.163 HD
ATOM     42  O   UNL A   1      34.577  32.236  29.454  1.00  0.00    -0.269 OA
BRANCH  40  43
ATOM     43  C   UNL A   1      36.283  30.635  29.191  1.00  0.00     0.039 A 
ATOM     44  C   UNL A   1      37.433  31.214  28.656  1.00  0.00     0.014 A 
ATOM     45  C   UNL A   1      36.363  29.576  30.100  1.00  0.00     0.014 A 
ATOM     46  C   UNL A   1      38.681  30.768  29.090  1.00  0.00     0.010 A 
ATOM     47  C   UNL A   1      37.604  29.192  30.589  1.00  0.00     0.010 A 
ATOM     48  C   UNL A   1      38.775  29.781  30.088  1.00  0.00    -0.014 A 
BRANCH  48  49
ATOM     49  C   UNL A   1      40.090  29.345  30.618  1.00  0.00     0.031 A 
ATOM     50  C   UNL A   1      40.697  30.068  31.789  1.00  0.00     0.074 A 
ATOM     51  C   UNL A   1      40.764  28.351  30.006  1.00  0.00     0.049 A 
ATOM     52  N   UNL A   1      41.860  29.886  32.357  1.00  0.00    -0.248 NA
ATOM     53  C   UNL A   1      39.905  31.159  32.380  1.00  0.00     0.031 C 
ATOM     54  C   UNL A   1      40.302  27.614  28.827  1.00  0.00     0.029 A 
ATOM     55  N   UNL A   1      41.986  27.794  30.284  1.00  0.00    -0.354 N 
ATOM     56  C   UNL A   1      41.947  30.848  33.356  1.00  0.00     0.074 A 
ATOM     57  C   UNL A   1      40.744  31.647  33.281  1.00  0.00     0.031 C 
ATOM     58  C   UNL A   1      41.216  26.685  28.501  1.00  0.00     0.029 A 
ATOM     59  C   UNL A   1      42.343  26.783  29.423  1.00  0.00     0.049 A 
ATOM     60  H   UNL A   1      42.554  28.090  31.032  1.00  0.00     0.167 HD
ATOM     61  C   UNL A   1      42.927  31.032  34.270  1.00  0.00     0.037 A 
ATOM     62  C   UNL A   1      43.456  26.024  29.381  1.00  0.00     0.037 A 
ATOM     63  C   UNL A   1      44.104  30.209  34.362  1.00  0.00     0.049 A 
ATOM     64  C   UNL A   1      44.528  26.241  30.416  1.00  0.00     0.074 A 
ATOM     65  C   UNL A   1      45.122  30.267  35.296  1.00  0.00     0.029 A 
ATOM     66  N   UNL A   1      44.419  29.179  33.488  1.00  0.00    -0.354 N 
ATOM     67  N   UNL A   1      44.560  27.108  31.400  1.00  0.00    -0.248 NA
ATOM     68  C   UNL A   1      45.711  25.373  30.340  1.00  0.00     0.031 C 
ATOM     69  C   UNL A   1      46.075  29.299  34.962  1.00  0.00     0.029 A 
ATOM     70  C   UNL A   1      45.626  28.606  33.848  1.00  0.00     0.049 A 
ATOM     71  H   UNL A   1      43.865  28.897  32.723  1.00  0.00     0.167 HD
ATOM     72  C   UNL A   1      45.751  26.872  32.076  1.00  0.00     0.074 A 
ATOM     73  C   UNL A   1      46.405  25.773  31.397  1.00  0.00     0.031 C 
ATOM     74  C   UNL A   1      46.256  27.504  33.164  1.00  0.00     0.037 A 
BRANCH  61  75
ATOM     75  C   UNL A   1      42.765  32.162  35.250  1.00  0.00     0.058 A 
ATOM     76  C   UNL A   1      42.098  31.986  36.473  1.00  0.00     0.135 A 
ATOM     77  C   UNL A   1      43.312  33.425  34.978  1.00  0.00     0.135 A 
ATOM     78  F   UNL A   1      41.540  30.803  36.776  1.00  0.00    -0.206 F 
ATOM     79  C   UNL A   1      41.954  33.032  37.379  1.00  0.00     0.059 A 
ATOM     80  C   UNL A   1      43.206  34.478  35.883  1.00  0.00     0.059 A 
ATOM     81  F   UNL A   1      43.957  33.649  33.822  1.00  0.00    -0.206 F 
ATOM     82  C   UNL A   1      42.513  34.274  37.075  1.00  0.00     0.060 A 
BRANCH  82  83
ATOM     83  S   UNL A   1      42.329  35.615  38.268  1.00  0.00     0.124 S 
ATOM     84  O   UNL A   1      43.547  35.471  39.059  1.00  0.00    -0.237 OA
ATOM     85  O   UNL A   1      42.268  36.793  37.409  1.00  0.00    -0.237 OA
ATOM     86  O   UNL A   1      41.088  35.284  38.962  1.00  0.00    -0.744 OA
ENDBRANCH  82  83
ENDBRANCH  61  75
BRANCH  62  87
ATOM     87  C   UNL A   1      43.602  24.969  28.342  1.00  0.00     0.058 A 
ATOM     88  C   UNL A   1      44.116  25.276  27.073  1.00  0.00     0.135 A 
ATOM     89  C   UNL A   1      43.237  23.638  28.594  1.00  0.00     0.135 A 
ATOM     90  F   UNL A   1      44.473  26.536  26.782  1.00  0.00    -0.206 F 
ATOM     91  C   UNL A   1      44.244  24.307  26.084  1.00  0.00     0.059 A 
ATOM     92  C   UNL A   1      43.380  22.646  27.629  1.00  0.00     0.059 A 
ATOM     93  F   UNL A   1      42.757  23.288  29.797  1.00  0.00    -0.206 F 
ATOM     94  C   UNL A   1      43.873  22.993  26.371  1.00  0.00     0.060 A 
BRANCH  94  95
ATOM     95  S   UNL A   1      44.082  21.734  25.093  1.00  0.00     0.124 S 
ATOM     96  O   UNL A   1      43.018  20.797  25.428  1.00  0.00    -0.237 OA
ATOM     97  O   UNL A   1      43.894  22.506  23.869  1.00  0.00    -0.237 OA
ATOM     98  O   UNL A   1      45.443  21.253  25.318  1.00  0.00    -0.744 OA
ENDBRANCH  94  95
ENDBRANCH  62  87
BRANCH  74  99
ATOM     99  C   UNL A   1      47.564  27.003  33.713  1.00  0.00     0.058 A 
ATOM    100  C   UNL A   1      47.619  25.966  34.656  1.00  0.00     0.135 A 
ATOM    101  C   UNL A   1      48.778  27.532  33.244  1.00  0.00     0.135 A 
ATOM    102  F   UNL A   1      46.487  25.431  35.141  1.00  0.00    -0.206 F 
ATOM    103  C   UNL A   1      48.834  25.484  35.133  1.00  0.00     0.059 A 
ATOM    104  C   UNL A   1      50.003  27.047  33.686  1.00  0.00     0.059 A 
ATOM    105  F   UNL A   1      48.778  28.518  32.332  1.00  0.00    -0.206 F 
ATOM    106  C   UNL A   1      50.021  26.030  34.639  1.00  0.00     0.060 A 
BRANCH 106 107
ATOM    107  S   UNL A   1      51.591  25.371  35.239  1.00  0.00     0.124 S 
ATOM    108  O   UNL A   1      52.134  26.516  35.961  1.00  0.00    -0.237 OA
ATOM    109  O   UNL A   1      51.163  24.245  36.063  1.00  0.00    -0.237 OA
ATOM    110  O   UNL A   1      52.298  25.008  34.013  1.00  0.00    -0.744 OA
ENDBRANCH 106 107
ENDBRANCH  74  99
ENDBRANCH  48  49
ENDBRANCH  40  43
ENDBRANCH  38  39
ENDBRANCH  37  38
ENDBRANCH  36  37
ENDBRANCH  35  36
ENDBRANCH   3  35
TORSDOF 25
ENDMDL
