MODEL 1
REMARK VINA RESULT:     -12.6      0.000      0.000
REMARK SMILES COc1ccc(Br)cc1CNc1ccc(N2CCOCC2)c(C(=O)NCCCCNC(=O)c2ccc(-c3c4nc(c(-c5c(F)cc(S(=O)(=O)[O-])cc5F)c5ccc([nH]5)c(-c5c(F)cc(S(=O)(=O)[O-])cc5F)c5nc(c(-c6c(F)cc(S(=O)(=O)[O-])cc6F)c6ccc3[nH]6)C=C5)C=C4)cc2)c1
REMARK SMILES IDX 27 1 26 2 25 3 23 4 24 5 22 7 12 8 13 9 99 10 14 11 15 12
REMARK SMILES IDX 11 13 10 15 9 16 3 17 4 18 5 19 8 20 6 21 7 22 2 23 1 24
REMARK SMILES IDX 16 25 17 26 21 27 18 28 20 29 19 30 28 31 29 32 30 33 31 34
REMARK SMILES IDX 32 36 33 37 34 38 98 39 35 40 97 41 36 42 37 43 38 44 91 45
REMARK SMILES IDX 39 46 96 47 90 48 92 49 40 50 95 51 89 52 88 53 41 55 75 56
REMARK SMILES IDX 54 57 74 58 55 59 58 60 73 61 93 62 56 63 57 64 72 66 94 67
REMARK SMILES IDX 59 68 42 69 43 70 52 71 44 72 45 73 51 74 53 75 46 76 47 77
REMARK SMILES IDX 48 78 49 79 50 80 76 81 77 82 86 83 78 84 79 85 85 86 87 87
REMARK SMILES IDX 80 88 81 89 82 90 83 91 84 92 60 93 61 94 70 95 62 96 63 97
REMARK SMILES IDX 69 98 71 99 64 100 65 101 66 102 67 103 68 104
REMARK H PARENT 25 6 11 14 30 35 92 54 58 65
REMARK Flexibility Score: inf
ROOT
ATOM      1  C   UNL A   1      37.340  22.641  24.771  1.00  0.00     0.023 C 
ENDROOT
BRANCH   1   2
ATOM      2  C   UNL A   1      36.784  21.320  25.284  1.00  0.00     0.116 C 
BRANCH   2   3
ATOM      3  N   UNL A   1      35.770  21.418  26.326  1.00  0.00    -0.352 N 
ATOM      4  C   UNL A   1      34.389  21.301  26.278  1.00  0.00     0.253 C 
ATOM      5  O   UNL A   1      33.790  21.268  27.350  1.00  0.00    -0.269 OA
ATOM      6  H   UNL A   1      36.131  21.599  27.225  1.00  0.00     0.163 HD
BRANCH   4   7
ATOM      7  C   UNL A   1      33.659  21.245  24.971  1.00  0.00     0.065 A 
ATOM      8  C   UNL A   1      32.620  22.565  23.185  1.00  0.00     0.035 A 
ATOM      9  C   UNL A   1      32.055  21.392  22.696  1.00  0.00     0.028 A 
ATOM     10  C   UNL A   1      33.488  22.447  24.267  1.00  0.00     0.041 A 
ATOM     11  C   UNL A   1      32.365  20.154  23.265  1.00  0.00     0.029 A 
ATOM     12  C   UNL A   1      33.188  20.046  24.401  1.00  0.00     0.050 A 
BRANCH   8  13
ATOM     13  N   UNL A   1      32.349  23.761  22.562  1.00  0.00    -0.381 N 
ATOM     14  H   UNL A   1      33.004  24.081  21.900  1.00  0.00     0.160 HD
BRANCH  13  15
ATOM     15  C   UNL A   1      31.179  24.596  22.797  1.00  0.00     0.152 C 
BRANCH  15  16
ATOM     16  C   UNL A   1      31.465  25.529  23.951  1.00  0.00     0.014 A 
ATOM     17  C   UNL A   1      31.090  25.210  25.265  1.00  0.00     0.123 A 
ATOM     18  C   UNL A   1      31.401  26.093  26.305  1.00  0.00     0.048 A 
ATOM     19  C   UNL A   1      32.074  27.291  26.043  1.00  0.00     0.019 A 
ATOM     20  C   UNL A   1      32.173  26.722  23.705  1.00  0.00     0.025 A 
ATOM     21  C   UNL A   1      32.461  27.599  24.744  1.00  0.00     0.018 A 
ATOM     22  Br  UNL A   1      33.386  29.206  24.381  1.00  0.00    -0.051 Br
BRANCH  17  23
ATOM     23  O   UNL A   1      30.496  23.992  25.458  1.00  0.00    -0.496 OA
ATOM     24  C   UNL A   1      30.960  23.248  26.580  1.00  0.00     0.278 C 
ENDBRANCH  17  23
ENDBRANCH  15  16
ENDBRANCH  13  15
ENDBRANCH   8  13
BRANCH  12  25
ATOM     25  N   UNL A   1      33.562  18.789  24.823  1.00  0.00    -0.366 N 
ATOM     26  C   UNL A   1      34.789  18.130  24.375  1.00  0.00     0.145 C 
ATOM     27  C   UNL A   1      32.868  18.173  25.956  1.00  0.00     0.145 C 
ATOM     28  C   UNL A   1      34.572  16.607  24.268  1.00  0.00     0.181 C 
ATOM     29  C   UNL A   1      32.704  16.671  25.694  1.00  0.00     0.181 C 
ATOM     30  O   UNL A   1      33.981  16.055  25.462  1.00  0.00    -0.378 OA
ENDBRANCH  12  25
ENDBRANCH   4   7
ENDBRANCH   2   3
ENDBRANCH   1   2
BRANCH   1  31
ATOM     31  C   UNL A   1      37.444  23.784  25.771  1.00  0.00     0.023 C 
BRANCH  31  32
ATOM     32  C   UNL A   1      38.537  23.667  26.826  1.00  0.00     0.116 C 
BRANCH  32  33
ATOM     33  N   UNL A   1      39.889  23.746  26.290  1.00  0.00    -0.352 N 
ATOM     34  C   UNL A   1      40.873  24.684  26.514  1.00  0.00     0.251 C 
ATOM     35  H   UNL A   1      40.138  23.020  25.674  1.00  0.00     0.163 HD
ATOM     36  O   UNL A   1      41.932  24.614  25.913  1.00  0.00    -0.269 OA
BRANCH  34  37
ATOM     37  C   UNL A   1      40.622  25.805  27.452  1.00  0.00     0.039 A 
ATOM     38  C   UNL A   1      39.694  25.624  28.482  1.00  0.00     0.014 A 
ATOM     39  C   UNL A   1      41.320  27.011  27.342  1.00  0.00     0.014 A 
ATOM     40  C   UNL A   1      39.541  26.612  29.458  1.00  0.00     0.010 A 
ATOM     41  C   UNL A   1      41.225  27.958  28.359  1.00  0.00     0.010 A 
ATOM     42  C   UNL A   1      40.342  27.764  29.434  1.00  0.00    -0.014 A 
BRANCH  42  43
ATOM     43  C   UNL A   1      40.293  28.768  30.530  1.00  0.00     0.031 A 
ATOM     44  C   UNL A   1      41.179  28.615  31.736  1.00  0.00     0.074 A 
ATOM     45  C   UNL A   1      39.387  29.767  30.479  1.00  0.00     0.049 A 
ATOM     46  N   UNL A   1      41.207  29.323  32.835  1.00  0.00    -0.248 NA
ATOM     47  C   UNL A   1      42.139  27.499  31.717  1.00  0.00     0.031 C 
ATOM     48  C   UNL A   1      38.429  29.989  29.394  1.00  0.00     0.029 A 
ATOM     49  N   UNL A   1      39.111  30.774  31.372  1.00  0.00    -0.354 N 
ATOM     50  C   UNL A   1      42.167  28.727  33.646  1.00  0.00     0.074 A 
ATOM     51  C   UNL A   1      42.667  27.574  32.930  1.00  0.00     0.031 C 
ATOM     52  C   UNL A   1      37.682  31.069  29.678  1.00  0.00     0.029 A 
ATOM     53  C   UNL A   1      38.079  31.596  30.979  1.00  0.00     0.049 A 
ATOM     54  H   UNL A   1      39.606  30.897  32.214  1.00  0.00     0.167 HD
ATOM     55  C   UNL A   1      42.603  29.117  34.867  1.00  0.00     0.037 A 
ATOM     56  C   UNL A   1      37.510  32.647  31.601  1.00  0.00     0.037 A 
ATOM     57  C   UNL A   1      42.132  30.289  35.556  1.00  0.00     0.049 A 
ATOM     58  C   UNL A   1      38.036  33.078  32.943  1.00  0.00     0.074 A 
ATOM     59  C   UNL A   1      42.569  30.811  36.762  1.00  0.00     0.029 A 
ATOM     60  N   UNL A   1      41.122  31.123  35.103  1.00  0.00    -0.354 N 
ATOM     61  N   UNL A   1      38.995  32.543  33.663  1.00  0.00    -0.248 NA
ATOM     62  C   UNL A   1      37.410  34.257  33.558  1.00  0.00     0.031 C 
ATOM     63  C   UNL A   1      41.799  31.941  37.054  1.00  0.00     0.029 A 
ATOM     64  C   UNL A   1      40.912  32.148  36.011  1.00  0.00     0.049 A 
ATOM     65  H   UNL A   1      40.628  31.005  34.259  1.00  0.00     0.167 HD
ATOM     66  C   UNL A   1      39.103  33.337  34.800  1.00  0.00     0.074 A 
ATOM     67  C   UNL A   1      38.122  34.394  34.668  1.00  0.00     0.031 C 
ATOM     68  C   UNL A   1      39.940  33.201  35.857  1.00  0.00     0.037 A 
BRANCH  55  69
ATOM     69  C   UNL A   1      43.657  28.277  35.535  1.00  0.00     0.058 A 
ATOM     70  C   UNL A   1      45.024  28.486  35.293  1.00  0.00     0.135 A 
ATOM     71  C   UNL A   1      43.300  27.289  36.466  1.00  0.00     0.135 A 
ATOM     72  F   UNL A   1      45.421  29.407  34.399  1.00  0.00    -0.206 F 
ATOM     73  C   UNL A   1      46.000  27.729  35.933  1.00  0.00     0.059 A 
ATOM     74  C   UNL A   1      44.259  26.538  37.137  1.00  0.00     0.059 A 
ATOM     75  F   UNL A   1      42.007  27.048  36.733  1.00  0.00    -0.206 F 
ATOM     76  C   UNL A   1      45.607  26.758  36.855  1.00  0.00     0.060 A 
BRANCH  76  77
ATOM     77  S   UNL A   1      46.887  25.800  37.695  1.00  0.00     0.124 S 
ATOM     78  O   UNL A   1      47.818  26.850  38.096  1.00  0.00    -0.237 OA
ATOM     79  O   UNL A   1      46.143  25.167  38.779  1.00  0.00    -0.237 OA
ATOM     80  O   UNL A   1      47.369  24.894  36.657  1.00  0.00    -0.744 OA
ENDBRANCH  76  77
ENDBRANCH  55  69
BRANCH  56  81
ATOM     81  C   UNL A   1      36.386  33.377  30.957  1.00  0.00     0.058 A 
ATOM     82  C   UNL A   1      36.594  34.154  29.808  1.00  0.00     0.135 A 
ATOM     83  C   UNL A   1      35.083  33.316  31.476  1.00  0.00     0.135 A 
ATOM     84  F   UNL A   1      37.823  34.249  29.277  1.00  0.00    -0.206 F 
ATOM     85  C   UNL A   1      35.557  34.864  29.209  1.00  0.00     0.059 A 
ATOM     86  C   UNL A   1      34.025  33.997  30.881  1.00  0.00     0.059 A 
ATOM     87  F   UNL A   1      34.827  32.571  32.563  1.00  0.00    -0.206 F 
ATOM     88  C   UNL A   1      34.276  34.780  29.755  1.00  0.00     0.060 A 
BRANCH  88  89
ATOM     89  S   UNL A   1      32.929  35.675  28.951  1.00  0.00     0.124 S 
ATOM     90  O   UNL A   1      32.117  36.071  30.095  1.00  0.00    -0.237 OA
ATOM     91  O   UNL A   1      33.639  36.753  28.268  1.00  0.00    -0.237 OA
ATOM     92  O   UNL A   1      32.338  34.671  28.071  1.00  0.00    -0.744 OA
ENDBRANCH  88  89
ENDBRANCH  56  81
BRANCH  68  93
ATOM     93  C   UNL A   1      39.862  34.239  36.941  1.00  0.00     0.058 A 
ATOM     94  C   UNL A   1      40.512  35.477  36.823  1.00  0.00     0.135 A 
ATOM     95  C   UNL A   1      39.077  34.014  38.083  1.00  0.00     0.135 A 
ATOM     96  F   UNL A   1      41.280  35.737  35.753  1.00  0.00    -0.206 F 
ATOM     97  C   UNL A   1      40.401  36.451  37.810  1.00  0.00     0.059 A 
ATOM     98  C   UNL A   1      38.932  34.983  39.071  1.00  0.00     0.059 A 
ATOM     99  F   UNL A   1      38.427  32.850  38.239  1.00  0.00    -0.206 F 
ATOM    100  C   UNL A   1      39.606  36.195  38.929  1.00  0.00     0.060 A 
BRANCH 100 101
ATOM    101  S   UNL A   1      39.436  37.482  40.184  1.00  0.00     0.124 S 
ATOM    102  O   UNL A   1      40.817  37.928  40.338  1.00  0.00    -0.237 OA
ATOM    103  O   UNL A   1      38.532  38.430  39.541  1.00  0.00    -0.237 OA
ATOM    104  O   UNL A   1      38.875  36.769  41.327  1.00  0.00    -0.744 OA
ENDBRANCH 100 101
ENDBRANCH  68  93
ENDBRANCH  42  43
ENDBRANCH  34  37
ENDBRANCH  32  33
ENDBRANCH  31  32
ENDBRANCH   1  31
TORSDOF 19
ENDMDL
MODEL 2
REMARK VINA RESULT:     -11.6      1.031      8.078
REMARK SMILES COc1ccc(Br)cc1CNc1ccc(N2CCOCC2)c(C(=O)NCCCCNC(=O)c2ccc(-c3c4nc(c(-c5c(F)cc(S(=O)(=O)[O-])cc5F)c5ccc([nH]5)c(-c5c(F)cc(S(=O)(=O)[O-])cc5F)c5nc(c(-c6c(F)cc(S(=O)(=O)[O-])cc6F)c6ccc3[nH]6)C=C5)C=C4)cc2)c1
REMARK SMILES IDX 27 1 26 2 25 3 23 4 24 5 22 7 12 8 13 9 99 10 14 11 15 12
REMARK SMILES IDX 11 13 10 15 9 16 3 17 4 18 5 19 8 20 6 21 7 22 2 23 1 24
REMARK SMILES IDX 16 25 17 26 21 27 18 28 20 29 19 30 28 31 29 32 30 33 31 34
REMARK SMILES IDX 32 36 33 37 34 38 98 39 35 40 97 41 36 42 37 43 38 44 91 45
REMARK SMILES IDX 39 46 96 47 90 48 92 49 40 50 95 51 89 52 88 53 41 55 75 56
REMARK SMILES IDX 54 57 74 58 55 59 58 60 73 61 93 62 56 63 57 64 72 66 94 67
REMARK SMILES IDX 59 68 42 69 43 70 52 71 44 72 45 73 51 74 53 75 46 76 47 77
REMARK SMILES IDX 48 78 49 79 50 80 76 81 77 82 86 83 78 84 79 85 85 86 87 87
REMARK SMILES IDX 80 88 81 89 82 90 83 91 84 92 60 93 61 94 70 95 62 96 63 97
REMARK SMILES IDX 69 98 71 99 64 100 65 101 66 102 67 103 68 104
REMARK H PARENT 25 6 11 14 30 35 92 54 58 65
REMARK Flexibility Score: inf
ROOT
ATOM      1  C   UNL A   1      37.112  23.021  25.698  1.00  0.00     0.023 C 
ENDROOT
BRANCH   1   2
ATOM      2  C   UNL A   1      36.441  21.656  25.736  1.00  0.00     0.116 C 
BRANCH   2   3
ATOM      3  N   UNL A   1      35.302  21.530  26.637  1.00  0.00    -0.352 N 
ATOM      4  C   UNL A   1      33.971  21.222  26.397  1.00  0.00     0.253 C 
ATOM      5  O   UNL A   1      33.255  21.025  27.376  1.00  0.00    -0.269 OA
ATOM      6  H   UNL A   1      35.516  21.694  27.584  1.00  0.00     0.163 HD
BRANCH   4   7
ATOM      7  C   UNL A   1      33.427  21.160  25.003  1.00  0.00     0.065 A 
ATOM      8  C   UNL A   1      32.574  22.466  23.112  1.00  0.00     0.035 A 
ATOM      9  C   UNL A   1      32.136  21.279  22.535  1.00  0.00     0.028 A 
ATOM     10  C   UNL A   1      33.294  22.366  24.300  1.00  0.00     0.041 A 
ATOM     11  C   UNL A   1      32.426  20.045  23.124  1.00  0.00     0.029 A 
ATOM     12  C   UNL A   1      33.093  19.952  24.358  1.00  0.00     0.050 A 
BRANCH   8  13
ATOM     13  N   UNL A   1      32.332  23.661  22.475  1.00  0.00    -0.381 N 
ATOM     14  H   UNL A   1      31.792  23.629  21.652  1.00  0.00     0.160 HD
BRANCH  13  15
ATOM     15  C   UNL A   1      32.805  24.968  22.908  1.00  0.00     0.152 C 
BRANCH  15  16
ATOM     16  C   UNL A   1      31.621  25.804  23.332  1.00  0.00     0.014 A 
ATOM     17  C   UNL A   1      30.873  25.494  24.479  1.00  0.00     0.123 A 
ATOM     18  C   UNL A   1      29.801  26.315  24.848  1.00  0.00     0.048 A 
ATOM     19  C   UNL A   1      29.467  27.434  24.079  1.00  0.00     0.019 A 
ATOM     20  C   UNL A   1      31.294  26.954  22.586  1.00  0.00     0.025 A 
ATOM     21  C   UNL A   1      30.216  27.751  22.953  1.00  0.00     0.018 A 
ATOM     22  Br  UNL A   1      29.783  29.270  21.917  1.00  0.00    -0.051 Br
BRANCH  17  23
ATOM     23  O   UNL A   1      31.300  24.425  25.222  1.00  0.00    -0.496 OA
ATOM     24  C   UNL A   1      30.485  24.083  26.338  1.00  0.00     0.278 C 
ENDBRANCH  17  23
ENDBRANCH  15  16
ENDBRANCH  13  15
ENDBRANCH   8  13
BRANCH  12  25
ATOM     25  N   UNL A   1      33.467  18.704  24.810  1.00  0.00    -0.366 N 
ATOM     26  C   UNL A   1      34.785  18.125  24.552  1.00  0.00     0.145 C 
ATOM     27  C   UNL A   1      32.639  18.020  25.805  1.00  0.00     0.145 C 
ATOM     28  C   UNL A   1      34.676  16.597  24.381  1.00  0.00     0.181 C 
ATOM     29  C   UNL A   1      32.604  16.520  25.490  1.00  0.00     0.181 C 
ATOM     30  O   UNL A   1      33.936  15.979  25.453  1.00  0.00    -0.378 OA
ENDBRANCH  12  25
ENDBRANCH   4   7
ENDBRANCH   2   3
ENDBRANCH   1   2
BRANCH   1  31
ATOM     31  C   UNL A   1      38.544  23.103  26.209  1.00  0.00     0.023 C 
BRANCH  31  32
ATOM     32  C   UNL A   1      39.078  24.497  26.513  1.00  0.00     0.116 C 
BRANCH  32  33
ATOM     33  N   UNL A   1      40.236  24.875  25.715  1.00  0.00    -0.352 N 
ATOM     34  C   UNL A   1      41.248  25.767  25.997  1.00  0.00     0.251 C 
ATOM     35  H   UNL A   1      40.307  24.426  24.842  1.00  0.00     0.163 HD
ATOM     36  O   UNL A   1      42.106  26.001  25.162  1.00  0.00    -0.269 OA
BRANCH  34  37
ATOM     37  C   UNL A   1      41.264  26.476  27.299  1.00  0.00     0.039 A 
ATOM     38  C   UNL A   1      41.909  27.714  27.382  1.00  0.00     0.014 A 
ATOM     39  C   UNL A   1      40.617  25.948  28.419  1.00  0.00     0.014 A 
ATOM     40  C   UNL A   1      41.819  28.465  28.558  1.00  0.00     0.010 A 
ATOM     41  C   UNL A   1      40.461  26.731  29.560  1.00  0.00     0.010 A 
ATOM     42  C   UNL A   1      41.051  28.003  29.637  1.00  0.00    -0.014 A 
BRANCH  42  43
ATOM     43  C   UNL A   1      40.832  28.839  30.848  1.00  0.00     0.031 A 
ATOM     44  C   UNL A   1      39.747  29.881  30.860  1.00  0.00     0.074 A 
ATOM     45  C   UNL A   1      41.666  28.719  31.902  1.00  0.00     0.049 A 
ATOM     46  N   UNL A   1      39.470  30.773  31.776  1.00  0.00    -0.248 NA
ATOM     47  C   UNL A   1      38.880  29.951  29.673  1.00  0.00     0.031 C 
ATOM     48  C   UNL A   1      42.794  27.789  31.989  1.00  0.00     0.029 A 
ATOM     49  N   UNL A   1      41.707  29.396  33.096  1.00  0.00    -0.354 N 
ATOM     50  C   UNL A   1      38.415  31.524  31.267  1.00  0.00     0.074 A 
ATOM     51  C   UNL A   1      38.131  31.010  29.945  1.00  0.00     0.031 C 
ATOM     52  C   UNL A   1      43.406  27.945  33.175  1.00  0.00     0.029 A 
ATOM     53  C   UNL A   1      42.740  29.010  33.919  1.00  0.00     0.049 A 
ATOM     54  H   UNL A   1      41.056  30.094  33.341  1.00  0.00     0.167 HD
ATOM     55  C   UNL A   1      37.735  32.534  31.857  1.00  0.00     0.037 A 
ATOM     56  C   UNL A   1      43.115  29.467  35.129  1.00  0.00     0.037 A 
ATOM     57  C   UNL A   1      37.993  33.013  33.189  1.00  0.00     0.049 A 
ATOM     58  C   UNL A   1      42.321  30.570  35.775  1.00  0.00     0.074 A 
ATOM     59  C   UNL A   1      37.307  33.980  33.904  1.00  0.00     0.029 A 
ATOM     60  N   UNL A   1      39.016  32.561  34.009  1.00  0.00    -0.354 N 
ATOM     61  N   UNL A   1      41.281  31.219  35.307  1.00  0.00    -0.248 NA
ATOM     62  C   UNL A   1      42.746  31.001  37.114  1.00  0.00     0.031 C 
ATOM     63  C   UNL A   1      37.937  34.136  35.143  1.00  0.00     0.029 A 
ATOM     64  C   UNL A   1      38.988  33.238  35.217  1.00  0.00     0.049 A 
ATOM     65  H   UNL A   1      39.666  31.861  33.769  1.00  0.00     0.167 HD
ATOM     66  C   UNL A   1      40.913  32.115  36.305  1.00  0.00     0.074 A 
ATOM     67  C   UNL A   1      41.833  31.916  37.406  1.00  0.00     0.031 C 
ATOM     68  C   UNL A   1      39.903  33.019  36.308  1.00  0.00     0.037 A 
BRANCH  55  69
ATOM     69  C   UNL A   1      36.629  33.186  31.072  1.00  0.00     0.058 A 
ATOM     70  C   UNL A   1      35.279  32.919  31.346  1.00  0.00     0.135 A 
ATOM     71  C   UNL A   1      36.922  34.126  30.071  1.00  0.00     0.135 A 
ATOM     72  F   UNL A   1      34.943  32.016  32.282  1.00  0.00    -0.206 F 
ATOM     73  C   UNL A   1      34.256  33.544  30.640  1.00  0.00     0.059 A 
ATOM     74  C   UNL A   1      35.915  34.782  29.370  1.00  0.00     0.059 A 
ATOM     75  F   UNL A   1      38.197  34.416  29.769  1.00  0.00    -0.206 F 
ATOM     76  C   UNL A   1      34.585  34.475  29.655  1.00  0.00     0.060 A 
BRANCH  76  77
ATOM     77  S   UNL A   1      33.246  35.295  28.763  1.00  0.00     0.124 S 
ATOM     78  O   UNL A   1      32.505  35.915  29.858  1.00  0.00    -0.237 OA
ATOM     79  O   UNL A   1      33.968  36.214  27.889  1.00  0.00    -0.237 OA
ATOM     80  O   UNL A   1      32.564  34.196  28.086  1.00  0.00    -0.744 OA
ENDBRANCH  76  77
ENDBRANCH  55  69
BRANCH  56  81
ATOM     81  C   UNL A   1      44.292  28.875  35.819  1.00  0.00     0.058 A 
ATOM     82  C   UNL A   1      44.140  27.806  36.715  1.00  0.00     0.135 A 
ATOM     83  C   UNL A   1      45.589  29.365  35.602  1.00  0.00     0.135 A 
ATOM     84  F   UNL A   1      42.920  27.306  36.961  1.00  0.00    -0.206 F 
ATOM     85  C   UNL A   1      45.228  27.258  37.388  1.00  0.00     0.059 A 
ATOM     86  C   UNL A   1      46.696  28.818  36.245  1.00  0.00     0.059 A 
ATOM     87  F   UNL A   1      45.791  30.375  34.741  1.00  0.00    -0.206 F 
ATOM     88  C   UNL A   1      46.502  27.773  37.148  1.00  0.00     0.060 A 
BRANCH  88  89
ATOM     89  S   UNL A   1      47.913  27.033  37.998  1.00  0.00     0.124 S 
ATOM     90  O   UNL A   1      47.448  27.018  39.380  1.00  0.00    -0.237 OA
ATOM     91  O   UNL A   1      48.019  25.731  37.346  1.00  0.00    -0.237 OA
ATOM     92  O   UNL A   1      49.003  27.959  37.706  1.00  0.00    -0.744 OA
ENDBRANCH  88  89
ENDBRANCH  56  81
BRANCH  68  93
ATOM     93  C   UNL A   1      39.712  33.840  37.552  1.00  0.00     0.058 A 
ATOM     94  C   UNL A   1      38.838  33.436  38.574  1.00  0.00     0.135 A 
ATOM     95  C   UNL A   1      40.458  35.013  37.750  1.00  0.00     0.135 A 
ATOM     96  F   UNL A   1      38.098  32.326  38.429  1.00  0.00    -0.206 F 
ATOM     97  C   UNL A   1      38.697  34.178  39.742  1.00  0.00     0.059 A 
ATOM     98  C   UNL A   1      40.351  35.756  38.920  1.00  0.00     0.059 A 
ATOM     99  F   UNL A   1      41.315  35.436  36.807  1.00  0.00    -0.206 F 
ATOM    100  C   UNL A   1      39.461  35.336  39.907  1.00  0.00     0.060 A 
BRANCH 100 101
ATOM    101  S   UNL A   1      39.300  36.268  41.445  1.00  0.00     0.124 S 
ATOM    102  O   UNL A   1      38.968  37.600  40.949  1.00  0.00    -0.237 OA
ATOM    103  O   UNL A   1      38.223  35.560  42.130  1.00  0.00    -0.237 OA
ATOM    104  O   UNL A   1      40.617  36.137  42.060  1.00  0.00    -0.744 OA
ENDBRANCH 100 101
ENDBRANCH  68  93
ENDBRANCH  42  43
ENDBRANCH  34  37
ENDBRANCH  32  33
ENDBRANCH  31  32
ENDBRANCH   1  31
TORSDOF 19
ENDMDL
MODEL 3
REMARK VINA RESULT:     -11.2      1.503      8.829
REMARK SMILES COc1ccc(Br)cc1CNc1ccc(N2CCOCC2)c(C(=O)NCCCCNC(=O)c2ccc(-c3c4nc(c(-c5c(F)cc(S(=O)(=O)[O-])cc5F)c5ccc([nH]5)c(-c5c(F)cc(S(=O)(=O)[O-])cc5F)c5nc(c(-c6c(F)cc(S(=O)(=O)[O-])cc6F)c6ccc3[nH]6)C=C5)C=C4)cc2)c1
REMARK SMILES IDX 27 1 26 2 25 3 23 4 24 5 22 7 12 8 13 9 99 10 14 11 15 12
REMARK SMILES IDX 11 13 10 15 9 16 3 17 4 18 5 19 8 20 6 21 7 22 2 23 1 24
REMARK SMILES IDX 16 25 17 26 21 27 18 28 20 29 19 30 28 31 29 32 30 33 31 34
REMARK SMILES IDX 32 36 33 37 34 38 98 39 35 40 97 41 36 42 37 43 38 44 91 45
REMARK SMILES IDX 39 46 96 47 90 48 92 49 40 50 95 51 89 52 88 53 41 55 75 56
REMARK SMILES IDX 54 57 74 58 55 59 58 60 73 61 93 62 56 63 57 64 72 66 94 67
REMARK SMILES IDX 59 68 42 69 43 70 52 71 44 72 45 73 51 74 53 75 46 76 47 77
REMARK SMILES IDX 48 78 49 79 50 80 76 81 77 82 86 83 78 84 79 85 85 86 87 87
REMARK SMILES IDX 80 88 81 89 82 90 83 91 84 92 60 93 61 94 70 95 62 96 63 97
REMARK SMILES IDX 69 98 71 99 64 100 65 101 66 102 67 103 68 104
REMARK H PARENT 25 6 11 14 30 35 92 54 58 65
REMARK Flexibility Score: inf
ROOT
ATOM      1  C   UNL A   1      36.175  23.712  26.110  1.00  0.00     0.023 C 
ENDROOT
BRANCH   1   2
ATOM      2  C   UNL A   1      35.270  22.550  26.494  1.00  0.00     0.116 C 
BRANCH   2   3
ATOM      3  N   UNL A   1      34.008  22.908  27.127  1.00  0.00    -0.352 N 
ATOM      4  C   UNL A   1      32.696  22.797  26.688  1.00  0.00     0.253 C 
ATOM      5  O   UNL A   1      31.809  23.031  27.505  1.00  0.00    -0.269 OA
ATOM      6  H   UNL A   1      34.102  23.298  28.027  1.00  0.00     0.163 HD
BRANCH   4   7
ATOM      7  C   UNL A   1      32.380  22.433  25.270  1.00  0.00     0.065 A 
ATOM      8  C   UNL A   1      32.309  20.620  23.622  1.00  0.00     0.035 A 
ATOM      9  C   UNL A   1      32.131  21.578  22.629  1.00  0.00     0.028 A 
ATOM     10  C   UNL A   1      32.339  21.071  24.938  1.00  0.00     0.041 A 
ATOM     11  C   UNL A   1      31.975  22.928  22.954  1.00  0.00     0.029 A 
ATOM     12  C   UNL A   1      32.075  23.388  24.279  1.00  0.00     0.050 A 
BRANCH   8  13
ATOM     13  N   UNL A   1      32.391  19.291  23.277  1.00  0.00    -0.381 N 
ATOM     14  H   UNL A   1      32.525  19.082  22.324  1.00  0.00     0.160 HD
BRANCH  13  15
ATOM     15  C   UNL A   1      32.297  18.166  24.196  1.00  0.00     0.152 C 
BRANCH  15  16
ATOM     16  C   UNL A   1      33.690  17.727  24.582  1.00  0.00     0.014 A 
ATOM     17  C   UNL A   1      33.982  16.390  24.891  1.00  0.00     0.123 A 
ATOM     18  C   UNL A   1      35.294  16.027  25.216  1.00  0.00     0.048 A 
ATOM     19  C   UNL A   1      36.311  16.987  25.241  1.00  0.00     0.019 A 
ATOM     20  C   UNL A   1      34.731  18.677  24.576  1.00  0.00     0.025 A 
ATOM     21  C   UNL A   1      36.026  18.308  24.917  1.00  0.00     0.018 A 
ATOM     22  Br  UNL A   1      37.396  19.609  24.931  1.00  0.00    -0.051 Br
BRANCH  17  23
ATOM     23  O   UNL A   1      32.953  15.493  24.780  1.00  0.00    -0.496 OA
ATOM     24  C   UNL A   1      32.275  15.178  25.991  1.00  0.00     0.278 C 
ENDBRANCH  17  23
ENDBRANCH  15  16
ENDBRANCH  13  15
ENDBRANCH   8  13
BRANCH  12  25
ATOM     25  N   UNL A   1      31.774  24.707  24.541  1.00  0.00    -0.366 N 
ATOM     26  C   UNL A   1      32.696  25.806  24.258  1.00  0.00     0.145 C 
ATOM     27  C   UNL A   1      30.396  25.080  24.867  1.00  0.00     0.145 C 
ATOM     28  C   UNL A   1      32.546  26.918  25.315  1.00  0.00     0.181 C 
ATOM     29  C   UNL A   1      30.408  26.170  25.945  1.00  0.00     0.181 C 
ATOM     30  O   UNL A   1      31.171  27.307  25.508  1.00  0.00    -0.378 OA
ENDBRANCH  12  25
ENDBRANCH   4   7
ENDBRANCH   2   3
ENDBRANCH   1   2
BRANCH   1  31
ATOM     31  C   UNL A   1      37.664  23.420  25.990  1.00  0.00     0.023 C 
BRANCH  31  32
ATOM     32  C   UNL A   1      38.606  24.398  26.682  1.00  0.00     0.116 C 
BRANCH  32  33
ATOM     33  N   UNL A   1      39.748  24.796  25.870  1.00  0.00    -0.352 N 
ATOM     34  C   UNL A   1      40.758  25.692  26.148  1.00  0.00     0.251 C 
ATOM     35  H   UNL A   1      39.808  24.360  24.991  1.00  0.00     0.163 HD
ATOM     36  O   UNL A   1      41.600  25.944  25.302  1.00  0.00    -0.269 OA
BRANCH  34  37
ATOM     37  C   UNL A   1      40.789  26.383  27.460  1.00  0.00     0.039 A 
ATOM     38  C   UNL A   1      41.686  27.441  27.640  1.00  0.00     0.014 A 
ATOM     39  C   UNL A   1      39.919  26.020  28.491  1.00  0.00     0.014 A 
ATOM     40  C   UNL A   1      41.639  28.197  28.815  1.00  0.00     0.010 A 
ATOM     41  C   UNL A   1      39.819  26.823  29.624  1.00  0.00     0.010 A 
ATOM     42  C   UNL A   1      40.671  27.926  29.794  1.00  0.00    -0.014 A 
BRANCH  42  43
ATOM     43  C   UNL A   1      40.514  28.794  30.992  1.00  0.00     0.031 A 
ATOM     44  C   UNL A   1      39.482  29.889  31.001  1.00  0.00     0.074 A 
ATOM     45  C   UNL A   1      41.360  28.653  32.033  1.00  0.00     0.049 A 
ATOM     46  N   UNL A   1      39.264  30.810  31.904  1.00  0.00    -0.248 NA
ATOM     47  C   UNL A   1      38.598  29.979  29.828  1.00  0.00     0.031 C 
ATOM     48  C   UNL A   1      42.442  27.670  32.120  1.00  0.00     0.029 A 
ATOM     49  N   UNL A   1      41.454  29.350  33.213  1.00  0.00    -0.354 N 
ATOM     50  C   UNL A   1      38.239  31.602  31.399  1.00  0.00     0.074 A 
ATOM     51  C   UNL A   1      37.907  31.079  30.092  1.00  0.00     0.031 C 
ATOM     52  C   UNL A   1      43.082  27.819  33.292  1.00  0.00     0.029 A 
ATOM     53  C   UNL A   1      42.481  28.928  34.026  1.00  0.00     0.049 A 
ATOM     54  H   UNL A   1      40.843  30.084  33.455  1.00  0.00     0.167 HD
ATOM     55  C   UNL A   1      37.619  32.655  31.980  1.00  0.00     0.037 A 
ATOM     56  C   UNL A   1      42.900  29.389  35.220  1.00  0.00     0.037 A 
ATOM     57  C   UNL A   1      37.925  33.146  33.297  1.00  0.00     0.049 A 
ATOM     58  C   UNL A   1      42.173  30.542  35.858  1.00  0.00     0.074 A 
ATOM     59  C   UNL A   1      37.299  34.159  34.005  1.00  0.00     0.029 A 
ATOM     60  N   UNL A   1      38.938  32.659  34.109  1.00  0.00    -0.354 N 
ATOM     61  N   UNL A   1      41.158  31.232  35.395  1.00  0.00    -0.248 NA
ATOM     62  C   UNL A   1      42.641  30.977  37.182  1.00  0.00     0.031 C 
ATOM     63  C   UNL A   1      37.957  34.307  35.230  1.00  0.00     0.029 A 
ATOM     64  C   UNL A   1      38.965  33.360  35.304  1.00  0.00     0.049 A 
ATOM     65  H   UNL A   1      39.549  31.924  33.872  1.00  0.00     0.167 HD
ATOM     66  C   UNL A   1      40.851  32.163  36.382  1.00  0.00     0.074 A 
ATOM     67  C   UNL A   1      41.779  31.941  37.471  1.00  0.00     0.031 C 
ATOM     68  C   UNL A   1      39.887  33.116  36.384  1.00  0.00     0.037 A 
BRANCH  55  69
ATOM     69  C   UNL A   1      36.533  33.346  31.201  1.00  0.00     0.058 A 
ATOM     70  C   UNL A   1      36.825  34.143  30.083  1.00  0.00     0.135 A 
ATOM     71  C   UNL A   1      35.183  33.168  31.544  1.00  0.00     0.135 A 
ATOM     72  F   UNL A   1      38.100  34.360  29.721  1.00  0.00    -0.206 F 
ATOM     73  C   UNL A   1      35.819  34.757  29.345  1.00  0.00     0.059 A 
ATOM     74  C   UNL A   1      34.160  33.751  30.805  1.00  0.00     0.059 A 
ATOM     75  F   UNL A   1      34.849  32.416  32.605  1.00  0.00    -0.206 F 
ATOM     76  C   UNL A   1      34.489  34.554  29.713  1.00  0.00     0.060 A 
BRANCH  76  77
ATOM     77  S   UNL A   1      33.193  35.340  28.732  1.00  0.00     0.124 S 
ATOM     78  O   UNL A   1      32.601  34.188  28.057  1.00  0.00    -0.237 OA
ATOM     79  O   UNL A   1      32.363  35.969  29.754  1.00  0.00    -0.237 OA
ATOM     80  O   UNL A   1      33.929  36.262  27.872  1.00  0.00    -0.744 OA
ENDBRANCH  76  77
ENDBRANCH  55  69
BRANCH  56  81
ATOM     81  C   UNL A   1      44.058  28.753  35.903  1.00  0.00     0.058 A 
ATOM     82  C   UNL A   1      45.366  29.215  35.688  1.00  0.00     0.135 A 
ATOM     83  C   UNL A   1      43.884  27.670  36.779  1.00  0.00     0.135 A 
ATOM     84  F   UNL A   1      45.584  30.243  34.855  1.00  0.00    -0.206 F 
ATOM     85  C   UNL A   1      46.462  28.612  36.299  1.00  0.00     0.059 A 
ATOM     86  C   UNL A   1      44.962  27.067  37.420  1.00  0.00     0.059 A 
ATOM     87  F   UNL A   1      42.652  27.202  37.033  1.00  0.00    -0.206 F 
ATOM     88  C   UNL A   1      46.250  27.538  37.163  1.00  0.00     0.060 A 
BRANCH  88  89
ATOM     89  S   UNL A   1      47.674  26.785  37.979  1.00  0.00     0.124 S 
ATOM     90  O   UNL A   1      47.442  27.155  39.371  1.00  0.00    -0.237 OA
ATOM     91  O   UNL A   1      47.503  25.371  37.657  1.00  0.00    -0.237 OA
ATOM     92  O   UNL A   1      48.811  27.433  37.333  1.00  0.00    -0.744 OA
ENDBRANCH  88  89
ENDBRANCH  56  81
BRANCH  68  93
ATOM     93  C   UNL A   1      39.758  33.969  37.614  1.00  0.00     0.058 A 
ATOM     94  C   UNL A   1      38.953  33.582  38.697  1.00  0.00     0.135 A 
ATOM     95  C   UNL A   1      40.497  35.157  37.735  1.00  0.00     0.135 A 
ATOM     96  F   UNL A   1      38.222  32.458  38.627  1.00  0.00    -0.206 F 
ATOM     97  C   UNL A   1      38.871  34.354  39.852  1.00  0.00     0.059 A 
ATOM     98  C   UNL A   1      40.449  35.931  38.890  1.00  0.00     0.059 A 
ATOM     99  F   UNL A   1      41.289  35.565  36.732  1.00  0.00    -0.206 F 
ATOM    100  C   UNL A   1      39.625  35.526  39.939  1.00  0.00     0.060 A 
BRANCH 100 101
ATOM    101  S   UNL A   1      39.543  36.498  41.458  1.00  0.00     0.124 S 
ATOM    102  O   UNL A   1      38.508  35.792  42.205  1.00  0.00    -0.237 OA
ATOM    103  O   UNL A   1      40.899  36.375  41.984  1.00  0.00    -0.237 OA
ATOM    104  O   UNL A   1      39.180  37.832  40.988  1.00  0.00    -0.744 OA
ENDBRANCH 100 101
ENDBRANCH  68  93
ENDBRANCH  42  43
ENDBRANCH  34  37
ENDBRANCH  32  33
ENDBRANCH  31  32
ENDBRANCH   1  31
TORSDOF 19
ENDMDL
