MODEL 1
REMARK VINA RESULT:     -14.8      0.000      0.000
REMARK SMILES Cc1ccccc1[C@@H]1[NH2+][C@@H](C(=O)NCCCCNC(=O)c2ccc(-c3c4nc(c(-c5c(F)cc(S(=O)(=O)[O-])cc5F)c5ccc([nH]5)c(-c5c(F)cc(S(=O)(=O)[O-])cc5F)c5nc(c(-c6c(F)cc(S(=O)(=O)[O-])cc6F)c6ccc3[nH]6)C=C5)C=C4)cc2)CC2=c3ccccc3=N[C@@H]21
REMARK SMILES IDX 16 1 15 2 14 3 13 4 11 5 12 6 10 8 8 9 9 10 96 11 88 14
REMARK SMILES IDX 95 15 87 16 89 17 94 18 90 19 93 20 91 21 92 22 7 23 1 24
REMARK SMILES IDX 2 25 3 26 4 27 6 28 5 29 17 30 18 31 19 32 20 34 21 35 22 36
REMARK SMILES IDX 86 37 23 38 85 39 24 40 25 41 26 42 79 43 27 44 84 45 78 46
REMARK SMILES IDX 80 47 28 48 83 49 77 50 76 51 29 53 63 54 42 55 62 56 43 57
REMARK SMILES IDX 46 58 61 59 81 60 44 61 45 62 60 64 82 65 47 66 30 67 31 68
REMARK SMILES IDX 40 69 32 70 33 71 39 72 41 73 34 74 35 75 36 76 37 77 38 78
REMARK SMILES IDX 64 79 65 80 74 81 66 82 67 83 73 84 75 85 68 86 69 87 70 88
REMARK SMILES IDX 71 89 72 90 48 91 49 92 58 93 50 94 51 95 57 96 59 97 52 98
REMARK SMILES IDX 53 99 54 100 55 101 56 102
REMARK H PARENT 13 7 9 12 9 13 18 33 80 52 46 63
REMARK Flexibility Score: inf
ROOT
ATOM      1  C   UNL A   1      34.069  32.628  28.039  1.00  0.00     0.023 C 
ENDROOT
BRANCH   1   2
ATOM      2  C   UNL A   1      33.257  31.199  27.425  1.00  0.00     0.023 C 
BRANCH   2   3
ATOM      3  C   UNL A   1      33.637  29.662  26.989  1.00  0.00     0.116 C 
BRANCH   3   4
ATOM      4  N   UNL A   1      34.242  29.206  25.680  1.00  0.00    -0.351 N 
ATOM      5  C   UNL A   1      33.689  28.582  24.555  1.00  0.00     0.278 C 
ATOM      6  O   UNL A   1      34.130  28.734  23.422  1.00  0.00    -0.268 OA
ATOM      7  H   UNL A   1      35.207  29.382  25.604  1.00  0.00     0.163 HD
BRANCH   5   8
ATOM      8  C   UNL A   1      32.717  27.502  24.969  1.00  0.00     0.277 C 
ATOM      9  C   UNL A   1      30.333  27.133  24.442  1.00  0.00     0.243 C 
ATOM     10  N   UNL A   1      31.391  28.101  24.839  1.00  0.00    -0.327 N 
ATOM     11  C   UNL A   1      30.692  25.537  24.751  1.00  0.00     0.196 C 
ATOM     12  H   UNL A   1      31.133  28.510  25.737  1.00  0.00     0.347 HD
ATOM     13  H   UNL A   1      31.450  28.798  24.097  1.00  0.00     0.347 HD
ATOM     14  C   UNL A   1      32.053  25.353  25.479  1.00  0.00    -0.024 C 
ATOM     15  N   UNL A   1      30.789  24.581  23.596  1.00  0.00    -0.270 NA
ATOM     16  C   UNL A   1      32.661  26.574  26.164  1.00  0.00     0.109 C 
ATOM     17  C   UNL A   1      32.810  24.429  24.867  1.00  0.00     0.002 A 
ATOM     18  C   UNL A   1      31.952  24.000  23.742  1.00  0.00     0.066 A 
ATOM     19  C   UNL A   1      34.245  24.286  24.794  1.00  0.00     0.010 A 
ATOM     20  C   UNL A   1      32.608  23.065  22.776  1.00  0.00     0.028 A 
ATOM     21  C   UNL A   1      34.789  23.626  23.756  1.00  0.00     0.001 A 
ATOM     22  C   UNL A   1      33.952  22.963  22.773  1.00  0.00     0.002 A 
BRANCH   9  23
ATOM     23  C   UNL A   1      29.518  27.876  23.314  1.00  0.00     0.015 A 
ATOM     24  C   UNL A   1      27.293  26.797  23.973  1.00  0.00     0.045 C 
ATOM     25  C   UNL A   1      28.102  27.860  23.293  1.00  0.00    -0.042 A 
ATOM     26  C   UNL A   1      27.366  28.953  22.751  1.00  0.00     0.004 A 
ATOM     27  C   UNL A   1      27.992  30.062  22.196  1.00  0.00     0.000 A 
ATOM     28  C   UNL A   1      30.092  28.983  22.639  1.00  0.00     0.010 A 
ATOM     29  C   UNL A   1      29.364  30.062  22.114  1.00  0.00     0.001 A 
ENDBRANCH   9  23
ENDBRANCH   5   8
ENDBRANCH   3   4
ENDBRANCH   2   3
ENDBRANCH   1   2
BRANCH   1  30
ATOM     30  C   UNL A   1      34.785  32.901  29.470  1.00  0.00     0.116 C 
BRANCH  30  31
ATOM     31  N   UNL A   1      36.206  32.487  30.108  1.00  0.00    -0.352 N 
ATOM     32  C   UNL A   1      37.061  31.277  30.492  1.00  0.00     0.251 C 
ATOM     33  H   UNL A   1      36.702  33.308  30.333  1.00  0.00     0.163 HD
ATOM     34  O   UNL A   1      37.954  31.602  31.301  1.00  0.00    -0.269 OA
BRANCH  32  35
ATOM     35  C   UNL A   1      37.304  29.727  29.900  1.00  0.00     0.039 A 
ATOM     36  C   UNL A   1      37.667  28.634  30.739  1.00  0.00     0.014 A 
ATOM     37  C   UNL A   1      37.299  29.291  28.592  1.00  0.00     0.014 A 
ATOM     38  C   UNL A   1      38.732  27.741  30.329  1.00  0.00     0.010 A 
ATOM     39  C   UNL A   1      38.330  28.394  28.162  1.00  0.00     0.010 A 
ATOM     40  C   UNL A   1      39.277  27.885  29.060  1.00  0.00    -0.014 A 
BRANCH  40  41
ATOM     41  C   UNL A   1      40.739  27.625  28.675  1.00  0.00     0.031 A 
ATOM     42  C   UNL A   1      41.072  26.277  28.261  1.00  0.00     0.074 A 
ATOM     43  C   UNL A   1      41.836  28.437  28.472  1.00  0.00     0.049 A 
ATOM     44  N   UNL A   1      41.777  25.454  28.959  1.00  0.00    -0.248 NA
ATOM     45  C   UNL A   1      40.643  25.801  26.954  1.00  0.00     0.031 C 
ATOM     46  C   UNL A   1      43.258  28.143  28.159  1.00  0.00     0.029 A 
ATOM     47  N   UNL A   1      41.941  29.813  28.552  1.00  0.00    -0.354 N 
ATOM     48  C   UNL A   1      42.114  24.460  28.071  1.00  0.00     0.074 A 
ATOM     49  C   UNL A   1      41.193  24.586  26.954  1.00  0.00     0.031 C 
ATOM     50  C   UNL A   1      44.032  29.176  28.581  1.00  0.00     0.029 A 
ATOM     51  C   UNL A   1      43.146  30.166  29.154  1.00  0.00     0.049 A 
ATOM     52  H   UNL A   1      41.263  30.451  28.232  1.00  0.00     0.167 HD
ATOM     53  C   UNL A   1      43.330  23.846  28.120  1.00  0.00     0.037 A 
ATOM     54  C   UNL A   1      43.099  30.678  30.423  1.00  0.00     0.037 A 
ATOM     55  C   UNL A   1      44.281  24.610  28.943  1.00  0.00     0.049 A 
ATOM     56  C   UNL A   1      43.664  29.699  31.412  1.00  0.00     0.074 A 
ATOM     57  C   UNL A   1      45.368  25.402  28.598  1.00  0.00     0.029 A 
ATOM     58  N   UNL A   1      43.993  24.923  30.270  1.00  0.00    -0.354 N 
ATOM     59  N   UNL A   1      43.914  28.462  31.099  1.00  0.00    -0.248 NA
ATOM     60  C   UNL A   1      43.992  29.995  32.802  1.00  0.00     0.031 C 
ATOM     61  C   UNL A   1      45.692  26.231  29.701  1.00  0.00     0.029 A 
ATOM     62  C   UNL A   1      44.814  25.939  30.731  1.00  0.00     0.049 A 
ATOM     63  H   UNL A   1      43.298  24.480  30.809  1.00  0.00     0.167 HD
ATOM     64  C   UNL A   1      44.397  27.789  32.177  1.00  0.00     0.074 A 
ATOM     65  C   UNL A   1      44.458  28.801  33.217  1.00  0.00     0.031 C 
ATOM     66  C   UNL A   1      44.688  26.459  32.092  1.00  0.00     0.037 A 
BRANCH  53  67
ATOM     67  C   UNL A   1      43.718  22.786  27.109  1.00  0.00     0.058 A 
ATOM     68  C   UNL A   1      43.058  21.546  27.026  1.00  0.00     0.135 A 
ATOM     69  C   UNL A   1      44.729  22.981  26.140  1.00  0.00     0.135 A 
ATOM     70  F   UNL A   1      41.989  21.264  27.782  1.00  0.00    -0.206 F 
ATOM     71  C   UNL A   1      43.441  20.545  26.129  1.00  0.00     0.059 A 
ATOM     72  C   UNL A   1      45.179  21.974  25.286  1.00  0.00     0.059 A 
ATOM     73  F   UNL A   1      45.286  24.188  25.950  1.00  0.00    -0.206 F 
ATOM     74  C   UNL A   1      44.519  20.757  25.279  1.00  0.00     0.060 A 
BRANCH  74  75
ATOM     75  S   UNL A   1      44.976  19.466  24.109  1.00  0.00     0.124 S 
ATOM     76  O   UNL A   1      44.524  20.023  22.838  1.00  0.00    -0.237 OA
ATOM     77  O   UNL A   1      46.421  19.395  24.294  1.00  0.00    -0.237 OA
ATOM     78  O   UNL A   1      44.229  18.301  24.576  1.00  0.00    -0.744 OA
ENDBRANCH  74  75
ENDBRANCH  53  67
BRANCH  54  79
ATOM     79  C   UNL A   1      41.870  31.530  30.677  1.00  0.00     0.058 A 
ATOM     80  C   UNL A   1      41.179  31.220  31.844  1.00  0.00     0.135 A 
ATOM     81  C   UNL A   1      42.038  32.891  30.578  1.00  0.00     0.135 A 
ATOM     82  F   UNL A   1      40.497  30.072  31.952  1.00  0.00    -0.206 F 
ATOM     83  C   UNL A   1      41.340  32.009  33.002  1.00  0.00     0.059 A 
ATOM     84  C   UNL A   1      42.083  33.675  31.756  1.00  0.00     0.059 A 
ATOM     85  F   UNL A   1      42.012  33.496  29.380  1.00  0.00    -0.206 F 
ATOM     86  C   UNL A   1      42.098  33.151  33.028  1.00  0.00     0.060 A 
BRANCH  86  87
ATOM     87  S   UNL A   1      43.307  33.731  34.700  1.00  0.00     0.124 S 
ATOM     88  O   UNL A   1      43.666  32.482  35.350  1.00  0.00    -0.237 OA
ATOM     89  O   UNL A   1      44.495  34.390  34.189  1.00  0.00    -0.237 OA
ATOM     90  O   UNL A   1      42.451  34.505  35.581  1.00  0.00    -0.744 OA
ENDBRANCH  86  87
ENDBRANCH  54  79
BRANCH  66  91
ATOM     91  C   UNL A   1      44.992  25.554  33.255  1.00  0.00     0.058 A 
ATOM     92  C   UNL A   1      44.044  25.154  34.210  1.00  0.00     0.135 A 
ATOM     93  C   UNL A   1      46.267  24.949  33.370  1.00  0.00     0.135 A 
ATOM     94  F   UNL A   1      42.764  25.541  34.140  1.00  0.00    -0.206 F 
ATOM     95  C   UNL A   1      44.364  24.295  35.261  1.00  0.00     0.059 A 
ATOM     96  C   UNL A   1      46.586  24.036  34.367  1.00  0.00     0.059 A 
ATOM     97  F   UNL A   1      47.258  25.218  32.506  1.00  0.00    -0.206 F 
ATOM     98  C   UNL A   1      45.638  23.746  35.334  1.00  0.00     0.060 A 
BRANCH  98  99
ATOM     99  S   UNL A   1      46.039  22.621  36.679  1.00  0.00     0.124 S 
ATOM    100  O   UNL A   1      47.487  22.780  36.763  1.00  0.00    -0.237 OA
ATOM    101  O   UNL A   1      45.277  23.175  37.794  1.00  0.00    -0.237 OA
ATOM    102  O   UNL A   1      45.572  21.329  36.189  1.00  0.00    -0.744 OA
ENDBRANCH  98  99
ENDBRANCH  66  91
ENDBRANCH  40  41
ENDBRANCH  32  35
ENDBRANCH  30  31
ENDBRANCH   1  30
TORSDOF 15
ENDMDL
MODEL 2
REMARK VINA RESULT:     -14.7      3.082      4.320
REMARK SMILES Cc1ccccc1[C@@H]1[NH2+][C@@H](C(=O)NCCCCNC(=O)c2ccc(-c3c4nc(c(-c5c(F)cc(S(=O)(=O)[O-])cc5F)c5ccc([nH]5)c(-c5c(F)cc(S(=O)(=O)[O-])cc5F)c5nc(c(-c6c(F)cc(S(=O)(=O)[O-])cc6F)c6ccc3[nH]6)C=C5)C=C4)cc2)CC2=c3ccccc3=N[C@@H]21
REMARK SMILES IDX 16 1 15 2 14 3 13 4 11 5 12 6 10 8 8 9 9 10 96 11 88 14
REMARK SMILES IDX 95 15 87 16 89 17 94 18 90 19 93 20 91 21 92 22 7 23 1 24
REMARK SMILES IDX 2 25 3 26 4 27 6 28 5 29 17 30 18 31 19 32 20 34 21 35 22 36
REMARK SMILES IDX 86 37 23 38 85 39 24 40 25 41 26 42 79 43 27 44 84 45 78 46
REMARK SMILES IDX 80 47 28 48 83 49 77 50 76 51 29 53 63 54 42 55 62 56 43 57
REMARK SMILES IDX 46 58 61 59 81 60 44 61 45 62 60 64 82 65 47 66 30 67 31 68
REMARK SMILES IDX 40 69 32 70 33 71 39 72 41 73 34 74 35 75 36 76 37 77 38 78
REMARK SMILES IDX 64 79 65 80 74 81 66 82 67 83 73 84 75 85 68 86 69 87 70 88
REMARK SMILES IDX 71 89 72 90 48 91 49 92 58 93 50 94 51 95 57 96 59 97 52 98
REMARK SMILES IDX 53 99 54 100 55 101 56 102
REMARK H PARENT 13 7 9 12 9 13 18 33 80 52 46 63
REMARK Flexibility Score: inf
ROOT
ATOM      1  C   UNL A   1      31.794  29.136  27.100  1.00  0.00     0.023 C 
ENDROOT
BRANCH   1   2
ATOM      2  C   UNL A   1      32.700  27.666  26.787  1.00  0.00     0.023 C 
BRANCH   2   3
ATOM      3  C   UNL A   1      32.410  26.122  26.306  1.00  0.00     0.116 C 
BRANCH   3   4
ATOM      4  N   UNL A   1      31.272  25.228  26.743  1.00  0.00    -0.351 N 
ATOM      5  C   UNL A   1      31.045  23.854  26.593  1.00  0.00     0.278 C 
ATOM      6  O   UNL A   1      30.395  23.193  27.394  1.00  0.00    -0.268 OA
ATOM      7  H   UNL A   1      30.555  25.699  27.225  1.00  0.00     0.163 HD
BRANCH   5   8
ATOM      8  C   UNL A   1      31.429  23.399  25.205  1.00  0.00     0.277 C 
ATOM      9  C   UNL A   1      31.412  24.554  23.023  1.00  0.00     0.243 C 
ATOM     10  N   UNL A   1      30.691  24.268  24.292  1.00  0.00    -0.327 N 
ATOM     11  C   UNL A   1      32.600  23.457  22.629  1.00  0.00     0.196 C 
ATOM     12  H   UNL A   1      29.804  23.816  24.064  1.00  0.00     0.347 HD
ATOM     13  H   UNL A   1      30.561  25.160  24.768  1.00  0.00     0.347 HD
ATOM     14  C   UNL A   1      32.688  22.274  23.633  1.00  0.00    -0.024 C 
ATOM     15  N   UNL A   1      34.022  23.933  22.536  1.00  0.00    -0.270 NA
ATOM     16  C   UNL A   1      31.492  22.034  24.552  1.00  0.00     0.109 C 
ATOM     17  C   UNL A   1      33.950  22.075  24.042  1.00  0.00     0.002 A 
ATOM     18  C   UNL A   1      34.696  23.120  23.307  1.00  0.00     0.066 A 
ATOM     19  C   UNL A   1      34.467  21.534  25.277  1.00  0.00     0.010 A 
ATOM     20  C   UNL A   1      36.138  23.242  23.686  1.00  0.00     0.028 A 
ATOM     21  C   UNL A   1      35.701  21.880  25.682  1.00  0.00     0.001 A 
ATOM     22  C   UNL A   1      36.560  22.697  24.844  1.00  0.00     0.002 A 
BRANCH   9  23
ATOM     23  C   UNL A   1      31.239  26.108  22.809  1.00  0.00     0.015 A 
ATOM     24  C   UNL A   1      28.927  26.173  23.907  1.00  0.00     0.045 C 
ATOM     25  C   UNL A   1      30.191  26.827  23.434  1.00  0.00    -0.042 A 
ATOM     26  C   UNL A   1      30.355  28.197  23.791  1.00  0.00     0.004 A 
ATOM     27  C   UNL A   1      31.525  28.895  23.520  1.00  0.00     0.000 A 
ATOM     28  C   UNL A   1      32.361  26.904  22.467  1.00  0.00     0.010 A 
ATOM     29  C   UNL A   1      32.523  28.250  22.827  1.00  0.00     0.001 A 
ENDBRANCH   9  23
ENDBRANCH   5   8
ENDBRANCH   3   4
ENDBRANCH   2   3
ENDBRANCH   1   2
BRANCH   1  30
ATOM     30  C   UNL A   1      32.255  30.691  27.043  1.00  0.00     0.116 C 
BRANCH  30  31
ATOM     31  N   UNL A   1      33.609  31.473  27.432  1.00  0.00    -0.352 N 
ATOM     32  C   UNL A   1      34.891  31.348  28.259  1.00  0.00     0.251 C 
ATOM     33  H   UNL A   1      33.614  32.344  26.973  1.00  0.00     0.163 HD
ATOM     34  O   UNL A   1      35.410  32.467  28.447  1.00  0.00    -0.269 OA
BRANCH  32  35
ATOM     35  C   UNL A   1      35.925  30.108  28.715  1.00  0.00     0.039 A 
ATOM     36  C   UNL A   1      36.269  29.858  30.075  1.00  0.00     0.014 A 
ATOM     37  C   UNL A   1      36.648  29.249  27.916  1.00  0.00     0.014 A 
ATOM     38  C   UNL A   1      37.653  29.622  30.430  1.00  0.00     0.010 A 
ATOM     39  C   UNL A   1      38.015  28.983  28.252  1.00  0.00     0.010 A 
ATOM     40  C   UNL A   1      38.595  29.502  29.416  1.00  0.00    -0.014 A 
BRANCH  40  41
ATOM     41  C   UNL A   1      40.059  29.954  29.492  1.00  0.00     0.031 A 
ATOM     42  C   UNL A   1      41.013  29.205  28.700  1.00  0.00     0.074 A 
ATOM     43  C   UNL A   1      40.696  31.049  30.039  1.00  0.00     0.049 A 
ATOM     44  N   UNL A   1      41.901  28.410  29.190  1.00  0.00    -0.248 NA
ATOM     45  C   UNL A   1      41.035  29.374  27.255  1.00  0.00     0.031 C 
ATOM     46  C   UNL A   1      42.130  31.426  30.147  1.00  0.00     0.029 A 
ATOM     47  N   UNL A   1      40.165  32.132  30.714  1.00  0.00    -0.354 N 
ATOM     48  C   UNL A   1      42.769  28.189  28.148  1.00  0.00     0.074 A 
ATOM     49  C   UNL A   1      42.061  28.582  26.942  1.00  0.00     0.031 C 
ATOM     50  C   UNL A   1      42.292  32.268  31.200  1.00  0.00     0.029 A 
ATOM     51  C   UNL A   1      40.986  32.477  31.785  1.00  0.00     0.049 A 
ATOM     52  H   UNL A   1      39.329  32.593  30.474  1.00  0.00     0.167 HD
ATOM     53  C   UNL A   1      44.111  28.058  28.356  1.00  0.00     0.037 A 
ATOM     54  C   UNL A   1      40.532  32.208  33.048  1.00  0.00     0.037 A 
ATOM     55  C   UNL A   1      44.491  28.534  29.696  1.00  0.00     0.049 A 
ATOM     56  C   UNL A   1      41.324  31.092  33.670  1.00  0.00     0.074 A 
ATOM     57  C   UNL A   1      45.150  29.684  30.112  1.00  0.00     0.029 A 
ATOM     58  N   UNL A   1      43.905  28.000  30.842  1.00  0.00    -0.354 N 
ATOM     59  N   UNL A   1      42.140  30.352  32.980  1.00  0.00    -0.248 NA
ATOM     60  C   UNL A   1      41.280  30.706  35.076  1.00  0.00     0.031 C 
ATOM     61  C   UNL A   1      44.907  29.868  31.495  1.00  0.00     0.029 A 
ATOM     62  C   UNL A   1      44.111  28.824  31.936  1.00  0.00     0.049 A 
ATOM     63  H   UNL A   1      43.410  27.150  30.870  1.00  0.00     0.167 HD
ATOM     64  C   UNL A   1      42.710  29.408  33.776  1.00  0.00     0.074 A 
ATOM     65  C   UNL A   1      42.163  29.688  35.091  1.00  0.00     0.031 C 
ATOM     66  C   UNL A   1      43.571  28.489  33.253  1.00  0.00     0.037 A 
BRANCH  53  67
ATOM     67  C   UNL A   1      45.071  27.865  27.201  1.00  0.00     0.058 A 
ATOM     68  C   UNL A   1      45.403  26.593  26.700  1.00  0.00     0.135 A 
ATOM     69  C   UNL A   1      45.662  28.945  26.503  1.00  0.00     0.135 A 
ATOM     70  F   UNL A   1      44.820  25.479  27.162  1.00  0.00    -0.206 F 
ATOM     71  C   UNL A   1      46.325  26.404  25.666  1.00  0.00     0.059 A 
ATOM     72  C   UNL A   1      46.639  28.782  25.522  1.00  0.00     0.059 A 
ATOM     73  F   UNL A   1      45.265  30.210  26.718  1.00  0.00    -0.206 F 
ATOM     74  C   UNL A   1      46.958  27.503  25.099  1.00  0.00     0.060 A 
BRANCH  74  75
ATOM     75  S   UNL A   1      48.118  27.240  23.748  1.00  0.00     0.124 S 
ATOM     76  O   UNL A   1      47.494  27.976  22.653  1.00  0.00    -0.237 OA
ATOM     77  O   UNL A   1      49.342  27.822  24.288  1.00  0.00    -0.237 OA
ATOM     78  O   UNL A   1      48.135  25.788  23.588  1.00  0.00    -0.744 OA
ENDBRANCH  74  75
ENDBRANCH  53  67
BRANCH  54  79
ATOM     79  C   UNL A   1      39.030  32.365  33.189  1.00  0.00     0.058 A 
ATOM     80  C   UNL A   1      38.399  31.332  33.874  1.00  0.00     0.135 A 
ATOM     81  C   UNL A   1      38.584  33.580  33.655  1.00  0.00     0.135 A 
ATOM     82  F   UNL A   1      38.295  30.113  33.330  1.00  0.00    -0.206 F 
ATOM     83  C   UNL A   1      38.030  31.490  35.227  1.00  0.00     0.059 A 
ATOM     84  C   UNL A   1      38.113  33.685  34.986  1.00  0.00     0.059 A 
ATOM     85  F   UNL A   1      38.454  34.624  32.821  1.00  0.00    -0.206 F 
ATOM     86  C   UNL A   1      38.187  32.668  35.910  1.00  0.00     0.060 A 
BRANCH  86  87
ATOM     87  S   UNL A   1      38.768  32.773  37.970  1.00  0.00     0.124 S 
ATOM     88  O   UNL A   1      38.562  34.162  38.344  1.00  0.00    -0.237 OA
ATOM     89  O   UNL A   1      37.881  31.912  38.732  1.00  0.00    -0.237 OA
ATOM     90  O   UNL A   1      40.186  32.465  38.017  1.00  0.00    -0.744 OA
ENDBRANCH  86  87
ENDBRANCH  54  79
BRANCH  66  91
ATOM     91  C   UNL A   1      44.074  27.259  33.960  1.00  0.00     0.058 A 
ATOM     92  C   UNL A   1      45.425  27.013  34.250  1.00  0.00     0.135 A 
ATOM     93  C   UNL A   1      43.155  26.318  34.488  1.00  0.00     0.135 A 
ATOM     94  F   UNL A   1      46.387  27.889  33.930  1.00  0.00    -0.206 F 
ATOM     95  C   UNL A   1      45.845  25.869  34.927  1.00  0.00     0.059 A 
ATOM     96  C   UNL A   1      43.547  25.210  35.227  1.00  0.00     0.059 A 
ATOM     97  F   UNL A   1      41.832  26.447  34.312  1.00  0.00    -0.206 F 
ATOM     98  C   UNL A   1      44.899  24.970  35.407  1.00  0.00     0.060 A 
BRANCH  98  99
ATOM     99  S   UNL A   1      45.444  23.508  36.299  1.00  0.00     0.124 S 
ATOM    100  O   UNL A   1      45.107  23.867  37.672  1.00  0.00    -0.237 OA
ATOM    101  O   UNL A   1      44.631  22.451  35.705  1.00  0.00    -0.237 OA
ATOM    102  O   UNL A   1      46.869  23.438  35.995  1.00  0.00    -0.744 OA
ENDBRANCH  98  99
ENDBRANCH  66  91
ENDBRANCH  40  41
ENDBRANCH  32  35
ENDBRANCH  30  31
ENDBRANCH   1  30
TORSDOF 15
ENDMDL
MODEL 3
REMARK VINA RESULT:     -14.7      4.220      9.655
REMARK SMILES Cc1ccccc1[C@@H]1[NH2+][C@@H](C(=O)NCCCCNC(=O)c2ccc(-c3c4nc(c(-c5c(F)cc(S(=O)(=O)[O-])cc5F)c5ccc([nH]5)c(-c5c(F)cc(S(=O)(=O)[O-])cc5F)c5nc(c(-c6c(F)cc(S(=O)(=O)[O-])cc6F)c6ccc3[nH]6)C=C5)C=C4)cc2)CC2=c3ccccc3=N[C@@H]21
REMARK SMILES IDX 16 1 15 2 14 3 13 4 11 5 12 6 10 8 8 9 9 10 96 11 88 14
REMARK SMILES IDX 95 15 87 16 89 17 94 18 90 19 93 20 91 21 92 22 7 23 1 24
REMARK SMILES IDX 2 25 3 26 4 27 6 28 5 29 17 30 18 31 19 32 20 34 21 35 22 36
REMARK SMILES IDX 86 37 23 38 85 39 24 40 25 41 26 42 79 43 27 44 84 45 78 46
REMARK SMILES IDX 80 47 28 48 83 49 77 50 76 51 29 53 63 54 42 55 62 56 43 57
REMARK SMILES IDX 46 58 61 59 81 60 44 61 45 62 60 64 82 65 47 66 30 67 31 68
REMARK SMILES IDX 40 69 32 70 33 71 39 72 41 73 34 74 35 75 36 76 37 77 38 78
REMARK SMILES IDX 64 79 65 80 74 81 66 82 67 83 73 84 75 85 68 86 69 87 70 88
REMARK SMILES IDX 71 89 72 90 48 91 49 92 58 93 50 94 51 95 57 96 59 97 52 98
REMARK SMILES IDX 53 99 54 100 55 101 56 102
REMARK H PARENT 13 7 9 12 9 13 18 33 80 52 46 63
REMARK Flexibility Score: inf
ROOT
ATOM      1  C   UNL A   1      34.021  28.960  27.390  1.00  0.00     0.023 C 
ENDROOT
BRANCH   1   2
ATOM      2  C   UNL A   1      33.623  27.741  26.192  1.00  0.00     0.023 C 
BRANCH   2   3
ATOM      3  C   UNL A   1      33.254  26.141  26.144  1.00  0.00     0.116 C 
BRANCH   3   4
ATOM      4  N   UNL A   1      31.963  25.487  26.583  1.00  0.00    -0.351 N 
ATOM      5  C   UNL A   1      31.493  24.172  26.482  1.00  0.00     0.278 C 
ATOM      6  O   UNL A   1      30.718  23.675  27.291  1.00  0.00    -0.268 OA
ATOM      7  H   UNL A   1      31.334  26.102  27.025  1.00  0.00     0.163 HD
BRANCH   5   8
ATOM      8  C   UNL A   1      31.817  23.593  25.126  1.00  0.00     0.277 C 
ATOM      9  C   UNL A   1      31.880  24.599  22.872  1.00  0.00     0.243 C 
ATOM     10  N   UNL A   1      31.151  24.465  24.161  1.00  0.00    -0.327 N 
ATOM     11  C   UNL A   1      32.957  23.373  22.544  1.00  0.00     0.196 C 
ATOM     12  H   UNL A   1      30.224  24.084  23.969  1.00  0.00     0.347 HD
ATOM     13  H   UNL A   1      31.111  25.395  24.578  1.00  0.00     0.347 HD
ATOM     14  C   UNL A   1      32.947  22.254  23.624  1.00  0.00    -0.024 C 
ATOM     15  N   UNL A   1      34.416  23.706  22.412  1.00  0.00    -0.270 NA
ATOM     16  C   UNL A   1      31.746  22.189  24.564  1.00  0.00     0.109 C 
ATOM     17  C   UNL A   1      34.191  21.967  24.038  1.00  0.00     0.002 A 
ATOM     18  C   UNL A   1      35.021  22.887  23.231  1.00  0.00     0.066 A 
ATOM     19  C   UNL A   1      34.670  21.462  25.304  1.00  0.00     0.010 A 
ATOM     20  C   UNL A   1      36.473  22.899  23.593  1.00  0.00     0.028 A 
ATOM     21  C   UNL A   1      35.935  21.717  25.677  1.00  0.00     0.001 A 
ATOM     22  C   UNL A   1      36.856  22.394  24.782  1.00  0.00     0.002 A 
BRANCH   9  23
ATOM     23  C   UNL A   1      31.849  26.145  22.557  1.00  0.00     0.015 A 
ATOM     24  C   UNL A   1      29.551  26.491  23.630  1.00  0.00     0.045 C 
ATOM     25  C   UNL A   1      30.871  26.995  23.126  1.00  0.00    -0.042 A 
ATOM     26  C   UNL A   1      31.158  28.365  23.394  1.00  0.00     0.004 A 
ATOM     27  C   UNL A   1      32.387  28.935  23.087  1.00  0.00     0.000 A 
ATOM     28  C   UNL A   1      33.040  26.812  22.172  1.00  0.00     0.010 A 
ATOM     29  C   UNL A   1      33.323  28.159  22.445  1.00  0.00     0.001 A 
ENDBRANCH   9  23
ENDBRANCH   5   8
ENDBRANCH   3   4
ENDBRANCH   2   3
ENDBRANCH   1   2
BRANCH   1  30
ATOM     30  C   UNL A   1      35.359  29.861  27.572  1.00  0.00     0.116 C 
BRANCH  30  31
ATOM     31  N   UNL A   1      36.681  29.732  28.485  1.00  0.00    -0.352 N 
ATOM     32  C   UNL A   1      38.045  29.043  28.560  1.00  0.00     0.251 C 
ATOM     33  H   UNL A   1      36.571  30.302  29.281  1.00  0.00     0.163 HD
ATOM     34  O   UNL A   1      38.492  29.065  29.725  1.00  0.00    -0.269 OA
BRANCH  32  35
ATOM     35  C   UNL A   1      39.213  28.543  27.465  1.00  0.00     0.039 A 
ATOM     36  C   UNL A   1      39.587  27.176  27.314  1.00  0.00     0.014 A 
ATOM     37  C   UNL A   1      40.027  29.310  26.659  1.00  0.00     0.014 A 
ATOM     38  C   UNL A   1      40.990  26.821  27.250  1.00  0.00     0.010 A 
ATOM     39  C   UNL A   1      41.415  28.973  26.563  1.00  0.00     0.010 A 
ATOM     40  C   UNL A   1      41.936  27.836  27.193  1.00  0.00    -0.014 A 
BRANCH  40  41
ATOM     41  C   UNL A   1      43.341  27.791  27.810  1.00  0.00     0.031 A 
ATOM     42  C   UNL A   1      44.049  29.050  27.906  1.00  0.00     0.074 A 
ATOM     43  C   UNL A   1      44.067  26.819  28.467  1.00  0.00     0.049 A 
ATOM     44  N   UNL A   1      45.071  29.367  27.188  1.00  0.00    -0.248 NA
ATOM     45  C   UNL A   1      43.642  30.029  28.904  1.00  0.00     0.031 C 
ATOM     46  C   UNL A   1      45.455  26.791  28.999  1.00  0.00     0.029 A 
ATOM     47  N   UNL A   1      43.715  25.521  28.789  1.00  0.00    -0.354 N 
ATOM     48  C   UNL A   1      45.606  30.463  27.824  1.00  0.00     0.074 A 
ATOM     49  C   UNL A   1      44.562  30.972  28.697  1.00  0.00     0.031 C 
ATOM     50  C   UNL A   1      45.885  25.504  29.057  1.00  0.00     0.029 A 
ATOM     51  C   UNL A   1      44.799  24.670  28.591  1.00  0.00     0.049 A 
ATOM     52  H   UNL A   1      42.828  25.240  29.110  1.00  0.00     0.167 HD
ATOM     53  C   UNL A   1      46.953  30.662  27.885  1.00  0.00     0.037 A 
ATOM     54  C   UNL A   1      44.745  23.803  27.532  1.00  0.00     0.037 A 
ATOM     55  C   UNL A   1      47.690  29.437  27.535  1.00  0.00     0.049 A 
ATOM     56  C   UNL A   1      45.726  24.205  26.467  1.00  0.00     0.074 A 
ATOM     57  C   UNL A   1      48.397  28.532  28.317  1.00  0.00     0.029 A 
ATOM     58  N   UNL A   1      47.485  28.799  26.313  1.00  0.00    -0.354 N 
ATOM     59  N   UNL A   1      46.332  25.354  26.480  1.00  0.00    -0.248 NA
ATOM     60  C   UNL A   1      46.109  23.390  25.320  1.00  0.00     0.031 C 
ATOM     61  C   UNL A   1      48.562  27.333  27.581  1.00  0.00     0.029 A 
ATOM     62  C   UNL A   1      47.970  27.502  26.342  1.00  0.00     0.049 A 
ATOM     63  H   UNL A   1      47.052  29.215  25.533  1.00  0.00     0.167 HD
ATOM     64  C   UNL A   1      47.145  25.473  25.397  1.00  0.00     0.074 A 
ATOM     65  C   UNL A   1      46.995  24.201  24.712  1.00  0.00     0.031 C 
ATOM     66  C   UNL A   1      47.851  26.620  25.181  1.00  0.00     0.037 A 
BRANCH  53  67
ATOM     67  C   UNL A   1      47.541  31.843  28.629  1.00  0.00     0.058 A 
ATOM     68  C   UNL A   1      47.763  31.825  30.019  1.00  0.00     0.135 A 
ATOM     69  C   UNL A   1      47.964  33.027  27.981  1.00  0.00     0.135 A 
ATOM     70  F   UNL A   1      47.545  30.726  30.752  1.00  0.00    -0.206 F 
ATOM     71  C   UNL A   1      48.260  32.927  30.719  1.00  0.00     0.059 A 
ATOM     72  C   UNL A   1      48.391  34.166  28.664  1.00  0.00     0.059 A 
ATOM     73  F   UNL A   1      48.026  33.101  26.642  1.00  0.00    -0.206 F 
ATOM     74  C   UNL A   1      48.548  34.103  30.038  1.00  0.00     0.060 A 
BRANCH  74  75
ATOM     75  S   UNL A   1      49.218  35.501  30.954  1.00  0.00     0.124 S 
ATOM     76  O   UNL A   1      49.411  34.937  32.287  1.00  0.00    -0.237 OA
ATOM     77  O   UNL A   1      50.435  35.793  30.206  1.00  0.00    -0.237 OA
ATOM     78  O   UNL A   1      48.167  36.511  30.855  1.00  0.00    -0.744 OA
ENDBRANCH  74  75
ENDBRANCH  53  67
BRANCH  54  79
ATOM     79  C   UNL A   1      43.344  23.294  27.250  1.00  0.00     0.058 A 
ATOM     80  C   UNL A   1      42.997  23.263  25.904  1.00  0.00     0.135 A 
ATOM     81  C   UNL A   1      42.992  22.109  27.854  1.00  0.00     0.135 A 
ATOM     82  F   UNL A   1      42.801  24.399  25.221  1.00  0.00    -0.206 F 
ATOM     83  C   UNL A   1      43.034  22.052  25.182  1.00  0.00     0.059 A 
ATOM     84  C   UNL A   1      42.928  20.925  27.079  1.00  0.00     0.059 A 
ATOM     85  F   UNL A   1      42.568  22.092  29.127  1.00  0.00    -0.206 F 
ATOM     86  C   UNL A   1      43.323  20.845  25.764  1.00  0.00     0.060 A 
BRANCH  86  87
ATOM     87  S   UNL A   1      44.478  19.315  24.805  1.00  0.00     0.124 S 
ATOM     88  O   UNL A   1      44.544  19.719  23.410  1.00  0.00    -0.237 OA
ATOM     89  O   UNL A   1      45.806  19.319  25.392  1.00  0.00    -0.237 OA
ATOM     90  O   UNL A   1      43.711  18.087  24.916  1.00  0.00    -0.744 OA
ENDBRANCH  86  87
ENDBRANCH  54  79
BRANCH  66  91
ATOM     91  C   UNL A   1      48.584  26.971  23.915  1.00  0.00     0.058 A 
ATOM     92  C   UNL A   1      48.022  27.700  22.854  1.00  0.00     0.135 A 
ATOM     93  C   UNL A   1      49.963  26.671  23.786  1.00  0.00     0.135 A 
ATOM     94  F   UNL A   1      46.768  28.167  22.905  1.00  0.00    -0.206 F 
ATOM     95  C   UNL A   1      48.745  28.021  21.707  1.00  0.00     0.059 A 
ATOM     96  C   UNL A   1      50.719  27.045  22.683  1.00  0.00     0.059 A 
ATOM     97  F   UNL A   1      50.633  26.006  24.738  1.00  0.00    -0.206 F 
ATOM     98  C   UNL A   1      50.091  27.685  21.628  1.00  0.00     0.060 A 
BRANCH  98  99
ATOM     99  S   UNL A   1      51.025  28.122  20.155  1.00  0.00     0.124 S 
ATOM    100  O   UNL A   1      50.268  27.426  19.119  1.00  0.00    -0.237 OA
ATOM    101  O   UNL A   1      50.929  29.578  20.137  1.00  0.00    -0.237 OA
ATOM    102  O   UNL A   1      52.357  27.592  20.429  1.00  0.00    -0.744 OA
ENDBRANCH  98  99
ENDBRANCH  66  91
ENDBRANCH  40  41
ENDBRANCH  32  35
ENDBRANCH  30  31
ENDBRANCH   1  30
TORSDOF 15
ENDMDL
