MODEL 1
REMARK VINA RESULT:     -11.7      0.000      0.000
REMARK SMILES [H]/N=c1\ccc2c(C)c(CC(=O)NCCCCNC(=O)c3ccc(-c4c5nc(c(-c6c(F)cc(S(=O)(=O)[O-])cc6F)c6ccc([nH]6)c(-c6c(F)cc(S(=O)(=O)[O-])cc6F)c6nc(c(-c7c(F)cc(S(=O)(=O)[O-])cc7F)c7ccc4[nH]7)C=C6)C=C5)cc3)c(O)oc-2c1
REMARK SMILES IDX 16 1 15 2 14 3 13 4 11 5 12 6 10 8 9 9 8 10 7 11 6 12 5 13
REMARK SMILES IDX 90 14 87 15 4 16 91 17 89 18 3 19 2 20 1 21 88 22 17 24
REMARK SMILES IDX 18 25 19 26 20 28 21 29 22 30 86 31 23 32 85 33 24 34 25 35
REMARK SMILES IDX 26 36 79 37 27 38 84 39 78 40 80 41 28 42 83 43 77 44 76 45
REMARK SMILES IDX 29 47 63 48 42 49 62 50 43 51 46 52 61 53 81 54 44 55 45 56
REMARK SMILES IDX 60 58 82 59 47 60 30 61 31 62 40 63 32 64 33 65 39 66 41 67
REMARK SMILES IDX 34 68 35 69 36 70 37 71 38 72 64 73 65 74 74 75 66 76 67 77
REMARK SMILES IDX 73 78 75 79 68 80 69 81 70 82 71 83 72 84 48 85 49 86 58 87
REMARK SMILES IDX 50 88 51 89 57 90 59 91 52 92 53 93 54 94 55 95 56 96
REMARK H PARENT 13 7 88 23 18 27 80 46 46 57
REMARK Flexibility Score: inf
ROOT
ATOM      1  C   UNL A   1      32.144  27.758  27.161  1.00  0.00     0.023 C 
ENDROOT
BRANCH   1   2
ATOM      2  C   UNL A   1      31.356  27.831  25.851  1.00  0.00     0.023 C 
BRANCH   2   3
ATOM      3  C   UNL A   1      30.592  26.559  25.484  1.00  0.00     0.116 C 
BRANCH   3   4
ATOM      4  N   UNL A   1      30.648  25.562  26.536  1.00  0.00    -0.356 N 
ATOM      5  C   UNL A   1      30.926  24.232  26.451  1.00  0.00     0.224 C 
ATOM      6  O   UNL A   1      30.918  23.561  27.486  1.00  0.00    -0.275 OA
ATOM      7  H   UNL A   1      30.458  25.896  27.443  1.00  0.00     0.163 HD
BRANCH   5   8
ATOM      8  C   UNL A   1      31.302  23.597  25.112  1.00  0.00     0.143 C 
BRANCH   8   9
ATOM      9  C   UNL A   1      32.668  22.934  25.066  1.00  0.00     0.046 A 
ATOM     10  C   UNL A   1      33.703  25.194  24.417  1.00  0.00     0.046 C 
ATOM     11  C   UNL A   1      33.882  23.762  24.868  1.00  0.00    -0.029 A 
ATOM     12  C   UNL A   1      35.106  23.209  25.087  1.00  0.00     0.021 A 
ATOM     13  C   UNL A   1      36.341  23.992  25.058  1.00  0.00     0.014 A 
ATOM     14  C   UNL A   1      35.209  21.779  25.387  1.00  0.00     0.140 A 
ATOM     15  C   UNL A   1      32.819  21.603  25.261  1.00  0.00     0.286 A 
ATOM     16  C   UNL A   1      37.535  23.431  25.298  1.00  0.00     0.028 A 
ATOM     17  C   UNL A   1      36.391  21.194  25.618  1.00  0.00     0.075 A 
ATOM     18  O   UNL A   1      34.060  21.011  25.382  1.00  0.00    -0.425 OA
ATOM     19  C   UNL A   1      37.644  21.980  25.591  1.00  0.00     0.058 A 
ATOM     20  N   UNL A   1      38.773  21.391  25.815  1.00  0.00    -0.301 NA
ATOM     21  H   UNL A   1      39.610  21.910  25.798  1.00  0.00     0.188 HD
BRANCH  15  22
ATOM     22  O   UNL A   1      31.754  20.737  25.401  1.00  0.00    -0.480 OA
ATOM     23  H   UNL A   1      31.779  20.065  26.053  1.00  0.00     0.297 HD
ENDBRANCH  15  22
ENDBRANCH   8   9
ENDBRANCH   5   8
ENDBRANCH   3   4
ENDBRANCH   2   3
ENDBRANCH   1   2
BRANCH   1  24
ATOM     24  C   UNL A   1      33.491  28.472  27.157  1.00  0.00     0.116 C 
BRANCH  24  25
ATOM     25  N   UNL A   1      33.434  29.831  27.672  1.00  0.00    -0.352 N 
ATOM     26  C   UNL A   1      34.449  30.571  28.237  1.00  0.00     0.251 C 
ATOM     27  H   UNL A   1      32.560  30.280  27.607  1.00  0.00     0.163 HD
ATOM     28  O   UNL A   1      34.222  31.685  28.699  1.00  0.00    -0.269 OA
BRANCH  26  29
ATOM     29  C   UNL A   1      35.804  29.984  28.327  1.00  0.00     0.039 A 
ATOM     30  C   UNL A   1      36.245  29.397  29.515  1.00  0.00     0.014 A 
ATOM     31  C   UNL A   1      36.663  30.089  27.230  1.00  0.00     0.014 A 
ATOM     32  C   UNL A   1      37.589  29.069  29.660  1.00  0.00     0.010 A 
ATOM     33  C   UNL A   1      37.997  29.691  27.355  1.00  0.00     0.010 A 
ATOM     34  C   UNL A   1      38.483  29.231  28.589  1.00  0.00    -0.014 A 
BRANCH  34  35
ATOM     35  C   UNL A   1      39.927  28.944  28.797  1.00  0.00     0.031 A 
ATOM     36  C   UNL A   1      40.816  29.950  29.481  1.00  0.00     0.074 A 
ATOM     37  C   UNL A   1      40.421  27.743  28.436  1.00  0.00     0.049 A 
ATOM     38  N   UNL A   1      42.089  29.858  29.775  1.00  0.00    -0.248 NA
ATOM     39  C   UNL A   1      40.200  31.224  29.886  1.00  0.00     0.031 C 
ATOM     40  C   UNL A   1      39.654  26.681  27.782  1.00  0.00     0.029 A 
ATOM     41  N   UNL A   1      41.670  27.203  28.595  1.00  0.00    -0.354 N 
ATOM     42  C   UNL A   1      42.429  31.061  30.384  1.00  0.00     0.074 A 
ATOM     43  C   UNL A   1      41.236  31.880  30.395  1.00  0.00     0.031 C 
ATOM     44  C   UNL A   1      40.434  25.598  27.646  1.00  0.00     0.029 A 
ATOM     45  C   UNL A   1      41.767  25.905  28.155  1.00  0.00     0.049 A 
ATOM     46  H   UNL A   1      42.427  27.697  28.988  1.00  0.00     0.167 HD
ATOM     47  C   UNL A   1      43.622  31.442  30.900  1.00  0.00     0.037 A 
ATOM     48  C   UNL A   1      42.814  25.056  28.154  1.00  0.00     0.037 A 
ATOM     49  C   UNL A   1      44.802  30.617  30.912  1.00  0.00     0.049 A 
ATOM     50  C   UNL A   1      44.134  25.514  28.702  1.00  0.00     0.074 A 
ATOM     51  C   UNL A   1      46.055  30.914  31.421  1.00  0.00     0.029 A 
ATOM     52  N   UNL A   1      44.874  29.330  30.402  1.00  0.00    -0.354 N 
ATOM     53  N   UNL A   1      44.438  26.662  29.258  1.00  0.00    -0.248 NA
ATOM     54  C   UNL A   1      45.255  24.570  28.612  1.00  0.00     0.031 C 
ATOM     55  C   UNL A   1      46.892  29.817  31.193  1.00  0.00     0.029 A 
ATOM     56  C   UNL A   1      46.152  28.825  30.571  1.00  0.00     0.049 A 
ATOM     57  H   UNL A   1      44.127  28.847  29.980  1.00  0.00     0.167 HD
ATOM     58  C   UNL A   1      45.786  26.578  29.584  1.00  0.00     0.074 A 
ATOM     59  C   UNL A   1      46.233  25.259  29.183  1.00  0.00     0.031 C 
ATOM     60  C   UNL A   1      46.583  27.513  30.158  1.00  0.00     0.037 A 
BRANCH  47  61
ATOM     61  C   UNL A   1      43.719  32.819  31.493  1.00  0.00     0.058 A 
ATOM     62  C   UNL A   1      43.489  33.047  32.859  1.00  0.00     0.135 A 
ATOM     63  C   UNL A   1      44.101  33.915  30.702  1.00  0.00     0.135 A 
ATOM     64  F   UNL A   1      43.106  32.038  33.657  1.00  0.00    -0.206 F 
ATOM     65  C   UNL A   1      43.619  34.315  33.417  1.00  0.00     0.059 A 
ATOM     66  C   UNL A   1      44.255  35.188  31.242  1.00  0.00     0.059 A 
ATOM     67  F   UNL A   1      44.331  33.751  29.389  1.00  0.00    -0.206 F 
ATOM     68  C   UNL A   1      44.003  35.380  32.600  1.00  0.00     0.060 A 
BRANCH  68  69
ATOM     69  S   UNL A   1      44.177  37.017  33.342  1.00  0.00     0.124 S 
ATOM     70  O   UNL A   1      42.916  37.143  34.066  1.00  0.00    -0.237 OA
ATOM     71  O   UNL A   1      45.369  36.859  34.170  1.00  0.00    -0.237 OA
ATOM     72  O   UNL A   1      44.331  37.899  32.189  1.00  0.00    -0.744 OA
ENDBRANCH  68  69
ENDBRANCH  47  61
BRANCH  48  73
ATOM     73  C   UNL A   1      42.641  23.684  27.613  1.00  0.00     0.058 A 
ATOM     74  C   UNL A   1      42.754  23.433  26.239  1.00  0.00     0.135 A 
ATOM     75  C   UNL A   1      42.404  22.593  28.464  1.00  0.00     0.135 A 
ATOM     76  F   UNL A   1      42.973  24.446  25.388  1.00  0.00    -0.206 F 
ATOM     77  C   UNL A   1      42.643  22.146  25.724  1.00  0.00     0.059 A 
ATOM     78  C   UNL A   1      42.311  21.294  27.976  1.00  0.00     0.059 A 
ATOM     79  F   UNL A   1      42.301  22.783  29.789  1.00  0.00    -0.206 F 
ATOM     80  C   UNL A   1      42.428  21.082  26.603  1.00  0.00     0.060 A 
BRANCH  80  81
ATOM     81  S   UNL A   1      42.363  19.405  25.936  1.00  0.00     0.124 S 
ATOM     82  O   UNL A   1      40.942  19.261  25.642  1.00  0.00    -0.237 OA
ATOM     83  O   UNL A   1      43.248  19.500  24.778  1.00  0.00    -0.237 OA
ATOM     84  O   UNL A   1      42.869  18.588  27.035  1.00  0.00    -0.744 OA
ENDBRANCH  80  81
ENDBRANCH  48  73
BRANCH  60  85
ATOM     85  C   UNL A   1      48.020  27.146  30.387  1.00  0.00     0.058 A 
ATOM     86  C   UNL A   1      49.020  27.524  29.478  1.00  0.00     0.135 A 
ATOM     87  C   UNL A   1      48.409  26.467  31.551  1.00  0.00     0.135 A 
ATOM     88  F   UNL A   1      48.696  28.168  28.346  1.00  0.00    -0.206 F 
ATOM     89  C   UNL A   1      50.359  27.230  29.710  1.00  0.00     0.059 A 
ATOM     90  C   UNL A   1      49.744  26.179  31.814  1.00  0.00     0.059 A 
ATOM     91  F   UNL A   1      47.489  26.091  32.454  1.00  0.00    -0.206 F 
ATOM     92  C   UNL A   1      50.712  26.559  30.883  1.00  0.00     0.060 A 
BRANCH  92  93
ATOM     93  S   UNL A   1      52.458  26.222  31.195  1.00  0.00     0.124 S 
ATOM     94  O   UNL A   1      52.995  26.176  29.839  1.00  0.00    -0.237 OA
ATOM     95  O   UNL A   1      52.861  27.373  31.997  1.00  0.00    -0.237 OA
ATOM     96  O   UNL A   1      52.436  24.948  31.906  1.00  0.00    -0.744 OA
ENDBRANCH  92  93
ENDBRANCH  60  85
ENDBRANCH  34  35
ENDBRANCH  26  29
ENDBRANCH  24  25
ENDBRANCH   1  24
TORSDOF 16
ENDMDL
MODEL 2
REMARK VINA RESULT:     -11.3      1.209      8.363
REMARK SMILES [H]/N=c1\ccc2c(C)c(CC(=O)NCCCCNC(=O)c3ccc(-c4c5nc(c(-c6c(F)cc(S(=O)(=O)[O-])cc6F)c6ccc([nH]6)c(-c6c(F)cc(S(=O)(=O)[O-])cc6F)c6nc(c(-c7c(F)cc(S(=O)(=O)[O-])cc7F)c7ccc4[nH]7)C=C6)C=C5)cc3)c(O)oc-2c1
REMARK SMILES IDX 16 1 15 2 14 3 13 4 11 5 12 6 10 8 9 9 8 10 7 11 6 12 5 13
REMARK SMILES IDX 90 14 87 15 4 16 91 17 89 18 3 19 2 20 1 21 88 22 17 24
REMARK SMILES IDX 18 25 19 26 20 28 21 29 22 30 86 31 23 32 85 33 24 34 25 35
REMARK SMILES IDX 26 36 79 37 27 38 84 39 78 40 80 41 28 42 83 43 77 44 76 45
REMARK SMILES IDX 29 47 63 48 42 49 62 50 43 51 46 52 61 53 81 54 44 55 45 56
REMARK SMILES IDX 60 58 82 59 47 60 30 61 31 62 40 63 32 64 33 65 39 66 41 67
REMARK SMILES IDX 34 68 35 69 36 70 37 71 38 72 64 73 65 74 74 75 66 76 67 77
REMARK SMILES IDX 73 78 75 79 68 80 69 81 70 82 71 83 72 84 48 85 49 86 58 87
REMARK SMILES IDX 50 88 51 89 57 90 59 91 52 92 53 93 54 94 55 95 56 96
REMARK H PARENT 13 7 88 23 18 27 80 46 46 57
REMARK Flexibility Score: inf
ROOT
ATOM      1  C   UNL A   1      32.903  28.261  27.141  1.00  0.00     0.023 C 
ENDROOT
BRANCH   1   2
ATOM      2  C   UNL A   1      32.837  27.124  26.120  1.00  0.00     0.023 C 
BRANCH   2   3
ATOM      3  C   UNL A   1      31.427  26.729  25.680  1.00  0.00     0.116 C 
BRANCH   3   4
ATOM      4  N   UNL A   1      30.875  25.666  26.496  1.00  0.00    -0.356 N 
ATOM      5  C   UNL A   1      30.614  24.371  26.166  1.00  0.00     0.224 C 
ATOM      6  O   UNL A   1      30.137  23.628  27.027  1.00  0.00    -0.275 OA
ATOM      7  H   UNL A   1      30.657  25.917  27.423  1.00  0.00     0.163 HD
BRANCH   5   8
ATOM      8  C   UNL A   1      30.964  23.834  24.778  1.00  0.00     0.143 C 
BRANCH   8   9
ATOM      9  C   UNL A   1      32.184  22.930  24.718  1.00  0.00     0.046 A 
ATOM     10  C   UNL A   1      33.406  24.730  23.352  1.00  0.00     0.046 C 
ATOM     11  C   UNL A   1      33.451  23.439  24.138  1.00  0.00    -0.029 A 
ATOM     12  C   UNL A   1      34.597  22.730  24.321  1.00  0.00     0.021 A 
ATOM     13  C   UNL A   1      35.908  23.232  23.911  1.00  0.00     0.014 A 
ATOM     14  C   UNL A   1      34.539  21.419  24.973  1.00  0.00     0.140 A 
ATOM     15  C   UNL A   1      32.169  21.679  25.237  1.00  0.00     0.286 A 
ATOM     16  C   UNL A   1      37.028  22.526  24.122  1.00  0.00     0.028 A 
ATOM     17  C   UNL A   1      35.643  20.691  25.183  1.00  0.00     0.075 A 
ATOM     18  O   UNL A   1      33.308  20.907  25.335  1.00  0.00    -0.425 OA
ATOM     19  C   UNL A   1      36.972  21.193  24.772  1.00  0.00     0.058 A 
ATOM     20  N   UNL A   1      38.022  20.469  24.983  1.00  0.00    -0.301 NA
ATOM     21  H   UNL A   1      38.909  20.799  24.710  1.00  0.00     0.188 HD
BRANCH  15  22
ATOM     22  O   UNL A   1      31.030  21.092  25.751  1.00  0.00    -0.480 OA
ATOM     23  H   UNL A   1      30.969  20.914  26.668  1.00  0.00     0.297 HD
ENDBRANCH  15  22
ENDBRANCH   8   9
ENDBRANCH   5   8
ENDBRANCH   3   4
ENDBRANCH   2   3
ENDBRANCH   1   2
BRANCH   1  24
ATOM     24  C   UNL A   1      34.244  28.978  27.242  1.00  0.00     0.116 C 
BRANCH  24  25
ATOM     25  N   UNL A   1      34.193  30.211  28.012  1.00  0.00    -0.352 N 
ATOM     26  C   UNL A   1      35.198  30.797  28.748  1.00  0.00     0.251 C 
ATOM     27  H   UNL A   1      33.331  30.687  28.005  1.00  0.00     0.163 HD
ATOM     28  O   UNL A   1      34.975  31.804  29.412  1.00  0.00    -0.269 OA
BRANCH  26  29
ATOM     29  C   UNL A   1      36.536  30.167  28.770  1.00  0.00     0.039 A 
ATOM     30  C   UNL A   1      37.072  29.680  29.965  1.00  0.00     0.014 A 
ATOM     31  C   UNL A   1      37.288  30.129  27.593  1.00  0.00     0.014 A 
ATOM     32  C   UNL A   1      38.412  29.313  30.016  1.00  0.00     0.010 A 
ATOM     33  C   UNL A   1      38.615  29.691  27.633  1.00  0.00     0.010 A 
ATOM     34  C   UNL A   1      39.204  29.333  28.856  1.00  0.00    -0.014 A 
BRANCH  34  35
ATOM     35  C   UNL A   1      40.651  29.009  28.956  1.00  0.00     0.031 A 
ATOM     36  C   UNL A   1      41.159  27.644  28.569  1.00  0.00     0.074 A 
ATOM     37  C   UNL A   1      41.519  29.972  29.325  1.00  0.00     0.049 A 
ATOM     38  N   UNL A   1      42.389  27.196  28.562  1.00  0.00    -0.248 NA
ATOM     39  C   UNL A   1      40.159  26.655  28.135  1.00  0.00     0.031 C 
ATOM     40  C   UNL A   1      41.149  31.336  29.707  1.00  0.00     0.029 A 
ATOM     41  N   UNL A   1      42.887  29.961  29.409  1.00  0.00    -0.354 N 
ATOM     42  C   UNL A   1      42.311  25.873  28.139  1.00  0.00     0.074 A 
ATOM     43  C   UNL A   1      40.910  25.582  27.924  1.00  0.00     0.031 C 
ATOM     44  C   UNL A   1      42.265  32.046  29.930  1.00  0.00     0.029 A 
ATOM     45  C   UNL A   1      43.425  31.177  29.759  1.00  0.00     0.049 A 
ATOM     46  H   UNL A   1      43.433  29.160  29.236  1.00  0.00     0.167 HD
ATOM     47  C   UNL A   1      43.316  24.988  27.936  1.00  0.00     0.037 A 
ATOM     48  C   UNL A   1      44.708  31.550  29.930  1.00  0.00     0.037 A 
ATOM     49  C   UNL A   1      44.711  25.287  28.126  1.00  0.00     0.049 A 
ATOM     50  C   UNL A   1      45.801  30.541  29.729  1.00  0.00     0.074 A 
ATOM     51  C   UNL A   1      45.803  24.456  27.936  1.00  0.00     0.029 A 
ATOM     52  N   UNL A   1      45.210  26.512  28.538  1.00  0.00    -0.354 N 
ATOM     53  N   UNL A   1      45.705  29.291  29.346  1.00  0.00    -0.248 NA
ATOM     54  C   UNL A   1      47.175  30.987  29.996  1.00  0.00     0.031 C 
ATOM     55  C   UNL A   1      46.960  25.173  28.261  1.00  0.00     0.029 A 
ATOM     56  C   UNL A   1      46.592  26.458  28.623  1.00  0.00     0.049 A 
ATOM     57  H   UNL A   1      44.663  27.305  28.743  1.00  0.00     0.167 HD
ATOM     58  C   UNL A   1      47.004  28.801  29.326  1.00  0.00     0.074 A 
ATOM     59  C   UNL A   1      47.872  29.895  29.714  1.00  0.00     0.031 C 
ATOM     60  C   UNL A   1      47.439  27.554  29.019  1.00  0.00     0.037 A 
BRANCH  47  61
ATOM     61  C   UNL A   1      42.947  23.602  27.487  1.00  0.00     0.058 A 
ATOM     62  C   UNL A   1      42.920  23.254  26.127  1.00  0.00     0.135 A 
ATOM     63  C   UNL A   1      42.671  22.595  28.427  1.00  0.00     0.135 A 
ATOM     64  F   UNL A   1      43.160  24.182  25.189  1.00  0.00    -0.206 F 
ATOM     65  C   UNL A   1      42.618  21.960  25.714  1.00  0.00     0.059 A 
ATOM     66  C   UNL A   1      42.385  21.291  28.037  1.00  0.00     0.059 A 
ATOM     67  F   UNL A   1      42.681  22.876  29.740  1.00  0.00    -0.206 F 
ATOM     68  C   UNL A   1      42.352  20.985  26.676  1.00  0.00     0.060 A 
BRANCH  68  69
ATOM     69  S   UNL A   1      41.973  19.309  26.122  1.00  0.00     0.124 S 
ATOM     70  O   UNL A   1      42.280  18.531  27.319  1.00  0.00    -0.237 OA
ATOM     71  O   UNL A   1      40.558  19.406  25.776  1.00  0.00    -0.237 OA
ATOM     72  O   UNL A   1      42.879  19.110  24.995  1.00  0.00    -0.744 OA
ENDBRANCH  68  69
ENDBRANCH  47  61
BRANCH  48  73
ATOM     73  C   UNL A   1      45.017  32.952  30.310  1.00  0.00     0.058 A 
ATOM     74  C   UNL A   1      45.169  33.944  29.333  1.00  0.00     0.135 A 
ATOM     75  C   UNL A   1      45.121  33.334  31.657  1.00  0.00     0.135 A 
ATOM     76  F   UNL A   1      45.085  33.624  28.033  1.00  0.00    -0.206 F 
ATOM     77  C   UNL A   1      45.411  35.271  29.675  1.00  0.00     0.059 A 
ATOM     78  C   UNL A   1      45.340  34.656  32.025  1.00  0.00     0.059 A 
ATOM     79  F   UNL A   1      44.970  32.419  32.628  1.00  0.00    -0.206 F 
ATOM     80  C   UNL A   1      45.488  35.617  31.026  1.00  0.00     0.060 A 
BRANCH  80  81
ATOM     81  S   UNL A   1      45.723  37.353  31.464  1.00  0.00     0.124 S 
ATOM     82  O   UNL A   1      46.891  37.702  30.665  1.00  0.00    -0.237 OA
ATOM     83  O   UNL A   1      44.458  37.950  31.044  1.00  0.00    -0.237 OA
ATOM     84  O   UNL A   1      45.934  37.307  32.908  1.00  0.00    -0.744 OA
ENDBRANCH  80  81
ENDBRANCH  48  73
BRANCH  60  85
ATOM     85  C   UNL A   1      48.917  27.303  29.091  1.00  0.00     0.058 A 
ATOM     86  C   UNL A   1      49.752  27.558  27.993  1.00  0.00     0.135 A 
ATOM     87  C   UNL A   1      49.511  26.863  30.284  1.00  0.00     0.135 A 
ATOM     88  F   UNL A   1      49.229  27.972  26.828  1.00  0.00    -0.206 F 
ATOM     89  C   UNL A   1      51.128  27.374  28.071  1.00  0.00     0.059 A 
ATOM     90  C   UNL A   1      50.887  26.691  30.391  1.00  0.00     0.059 A 
ATOM     91  F   UNL A   1      48.754  26.613  31.364  1.00  0.00    -0.206 F 
ATOM     92  C   UNL A   1      51.687  26.943  29.275  1.00  0.00     0.060 A 
BRANCH  92  93
ATOM     93  S   UNL A   1      53.479  26.750  29.378  1.00  0.00     0.124 S 
ATOM     94  O   UNL A   1      53.922  28.140  29.428  1.00  0.00    -0.237 OA
ATOM     95  O   UNL A   1      53.642  25.988  30.612  1.00  0.00    -0.237 OA
ATOM     96  O   UNL A   1      53.814  26.028  28.154  1.00  0.00    -0.744 OA
ENDBRANCH  92  93
ENDBRANCH  60  85
ENDBRANCH  34  35
ENDBRANCH  26  29
ENDBRANCH  24  25
ENDBRANCH   1  24
TORSDOF 16
ENDMDL
MODEL 3
REMARK VINA RESULT:     -11.3      4.652     10.514
REMARK SMILES [H]/N=c1\ccc2c(C)c(CC(=O)NCCCCNC(=O)c3ccc(-c4c5nc(c(-c6c(F)cc(S(=O)(=O)[O-])cc6F)c6ccc([nH]6)c(-c6c(F)cc(S(=O)(=O)[O-])cc6F)c6nc(c(-c7c(F)cc(S(=O)(=O)[O-])cc7F)c7ccc4[nH]7)C=C6)C=C5)cc3)c(O)oc-2c1
REMARK SMILES IDX 16 1 15 2 14 3 13 4 11 5 12 6 10 8 9 9 8 10 7 11 6 12 5 13
REMARK SMILES IDX 90 14 87 15 4 16 91 17 89 18 3 19 2 20 1 21 88 22 17 24
REMARK SMILES IDX 18 25 19 26 20 28 21 29 22 30 86 31 23 32 85 33 24 34 25 35
REMARK SMILES IDX 26 36 79 37 27 38 84 39 78 40 80 41 28 42 83 43 77 44 76 45
REMARK SMILES IDX 29 47 63 48 42 49 62 50 43 51 46 52 61 53 81 54 44 55 45 56
REMARK SMILES IDX 60 58 82 59 47 60 30 61 31 62 40 63 32 64 33 65 39 66 41 67
REMARK SMILES IDX 34 68 35 69 36 70 37 71 38 72 64 73 65 74 74 75 66 76 67 77
REMARK SMILES IDX 73 78 75 79 68 80 69 81 70 82 71 83 72 84 48 85 49 86 58 87
REMARK SMILES IDX 50 88 51 89 57 90 59 91 52 92 53 93 54 94 55 95 56 96
REMARK H PARENT 13 7 88 23 18 27 80 46 46 57
REMARK Flexibility Score: inf
ROOT
ATOM      1  C   UNL A   1      37.645  23.345  25.515  1.00  0.00     0.023 C 
ENDROOT
BRANCH   1   2
ATOM      2  C   UNL A   1      37.477  21.835  25.327  1.00  0.00     0.023 C 
BRANCH   2   3
ATOM      3  C   UNL A   1      36.034  21.362  25.151  1.00  0.00     0.116 C 
BRANCH   3   4
ATOM      4  N   UNL A   1      35.309  21.332  26.407  1.00  0.00    -0.356 N 
ATOM      5  C   UNL A   1      34.069  21.813  26.699  1.00  0.00     0.224 C 
ATOM      6  O   UNL A   1      33.641  21.679  27.848  1.00  0.00    -0.275 OA
ATOM      7  H   UNL A   1      35.781  20.900  27.155  1.00  0.00     0.163 HD
BRANCH   5   8
ATOM      8  C   UNL A   1      33.202  22.449  25.612  1.00  0.00     0.143 C 
BRANCH   8   9
ATOM      9  C   UNL A   1      32.860  23.914  25.825  1.00  0.00     0.046 A 
ATOM     10  C   UNL A   1      34.725  24.551  24.178  1.00  0.00     0.046 C 
ATOM     11  C   UNL A   1      33.519  24.952  24.996  1.00  0.00    -0.029 A 
ATOM     12  C   UNL A   1      33.027  26.220  25.006  1.00  0.00     0.021 A 
ATOM     13  C   UNL A   1      33.523  27.265  24.110  1.00  0.00     0.014 A 
ATOM     14  C   UNL A   1      31.943  26.567  25.928  1.00  0.00     0.140 A 
ATOM     15  C   UNL A   1      31.919  24.302  26.718  1.00  0.00     0.286 A 
ATOM     16  C   UNL A   1      33.008  28.503  24.121  1.00  0.00     0.028 A 
ATOM     17  C   UNL A   1      31.422  27.800  25.966  1.00  0.00     0.075 A 
ATOM     18  O   UNL A   1      31.484  25.608  26.811  1.00  0.00    -0.425 OA
ATOM     19  C   UNL A   1      31.917  28.861  25.062  1.00  0.00     0.058 A 
ATOM     20  N   UNL A   1      31.399  30.044  25.120  1.00  0.00    -0.301 NA
ATOM     21  H   UNL A   1      31.726  30.753  24.521  1.00  0.00     0.188 HD
BRANCH  15  22
ATOM     22  O   UNL A   1      31.287  23.424  27.575  1.00  0.00    -0.480 OA
ATOM     23  H   UNL A   1      30.478  23.025  27.322  1.00  0.00     0.297 HD
ENDBRANCH  15  22
ENDBRANCH   8   9
ENDBRANCH   5   8
ENDBRANCH   3   4
ENDBRANCH   2   3
ENDBRANCH   1   2
BRANCH   1  24
ATOM     24  C   UNL A   1      38.608  23.766  26.619  1.00  0.00     0.116 C 
BRANCH  24  25
ATOM     25  N   UNL A   1      40.000  23.808  26.196  1.00  0.00    -0.352 N 
ATOM     26  C   UNL A   1      40.967  24.724  26.543  1.00  0.00     0.251 C 
ATOM     27  H   UNL A   1      40.286  23.089  25.587  1.00  0.00     0.163 HD
ATOM     28  O   UNL A   1      42.084  24.669  26.038  1.00  0.00    -0.269 OA
BRANCH  26  29
ATOM     29  C   UNL A   1      40.628  25.806  27.492  1.00  0.00     0.039 A 
ATOM     30  C   UNL A   1      41.294  27.032  27.439  1.00  0.00     0.014 A 
ATOM     31  C   UNL A   1      39.681  25.561  28.490  1.00  0.00     0.014 A 
ATOM     32  C   UNL A   1      41.137  27.945  28.476  1.00  0.00     0.010 A 
ATOM     33  C   UNL A   1      39.471  26.511  29.493  1.00  0.00     0.010 A 
ATOM     34  C   UNL A   1      40.239  27.686  29.525  1.00  0.00    -0.014 A 
BRANCH  34  35
ATOM     35  C   UNL A   1      40.149  28.643  30.659  1.00  0.00     0.031 A 
ATOM     36  C   UNL A   1      41.137  28.580  31.795  1.00  0.00     0.074 A 
ATOM     37  C   UNL A   1      39.220  29.620  30.626  1.00  0.00     0.049 A 
ATOM     38  N   UNL A   1      41.229  29.352  32.848  1.00  0.00    -0.248 NA
ATOM     39  C   UNL A   1      42.150  27.513  31.744  1.00  0.00     0.031 C 
ATOM     40  C   UNL A   1      38.220  29.794  29.571  1.00  0.00     0.029 A 
ATOM     41  N   UNL A   1      38.987  30.663  31.483  1.00  0.00    -0.354 N 
ATOM     42  C   UNL A   1      42.297  28.858  33.590  1.00  0.00     0.074 A 
ATOM     43  C   UNL A   1      42.805  27.704  32.882  1.00  0.00     0.031 C 
ATOM     44  C   UNL A   1      37.518  30.911  29.814  1.00  0.00     0.029 A 
ATOM     45  C   UNL A   1      37.980  31.502  31.066  1.00  0.00     0.049 A 
ATOM     46  H   UNL A   1      39.491  30.800  32.318  1.00  0.00     0.167 HD
ATOM     47  C   UNL A   1      42.814  29.332  34.749  1.00  0.00     0.037 A 
ATOM     48  C   UNL A   1      37.480  32.618  31.630  1.00  0.00     0.037 A 
ATOM     49  C   UNL A   1      42.324  30.496  35.440  1.00  0.00     0.049 A 
ATOM     50  C   UNL A   1      38.051  33.105  32.930  1.00  0.00     0.074 A 
ATOM     51  C   UNL A   1      42.791  31.058  36.617  1.00  0.00     0.029 A 
ATOM     52  N   UNL A   1      41.265  31.283  35.016  1.00  0.00    -0.354 N 
ATOM     53  N   UNL A   1      39.049  32.614  33.625  1.00  0.00    -0.248 NA
ATOM     54  C   UNL A   1      37.420  34.288  33.532  1.00  0.00     0.031 C 
ATOM     55  C   UNL A   1      41.994  32.169  36.918  1.00  0.00     0.029 A 
ATOM     56  C   UNL A   1      41.053  32.317  35.912  1.00  0.00     0.049 A 
ATOM     57  H   UNL A   1      40.739  31.128  34.197  1.00  0.00     0.167 HD
ATOM     58  C   UNL A   1      39.166  33.427  34.744  1.00  0.00     0.074 A 
ATOM     59  C   UNL A   1      38.152  34.455  34.625  1.00  0.00     0.031 C 
ATOM     60  C   UNL A   1      40.033  33.327  35.782  1.00  0.00     0.037 A 
BRANCH  47  61
ATOM     61  C   UNL A   1      43.973  28.590  35.353  1.00  0.00     0.058 A 
ATOM     62  C   UNL A   1      45.300  28.909  35.024  1.00  0.00     0.135 A 
ATOM     63  C   UNL A   1      43.759  27.587  36.313  1.00  0.00     0.135 A 
ATOM     64  F   UNL A   1      45.559  29.848  34.101  1.00  0.00    -0.206 F 
ATOM     65  C   UNL A   1      46.374  28.249  35.613  1.00  0.00     0.059 A 
ATOM     66  C   UNL A   1      44.818  26.927  36.928  1.00  0.00     0.059 A 
ATOM     67  F   UNL A   1      42.509  27.243  36.662  1.00  0.00    -0.206 F 
ATOM     68  C   UNL A   1      46.123  27.259  36.566  1.00  0.00     0.060 A 
BRANCH  68  69
ATOM     69  S   UNL A   1      47.528  26.421  37.328  1.00  0.00     0.124 S 
ATOM     70  O   UNL A   1      48.406  27.547  37.635  1.00  0.00    -0.237 OA
ATOM     71  O   UNL A   1      46.914  25.765  38.479  1.00  0.00    -0.237 OA
ATOM     72  O   UNL A   1      48.001  25.525  36.278  1.00  0.00    -0.744 OA
ENDBRANCH  68  69
ENDBRANCH  47  61
BRANCH  48  73
ATOM     73  C   UNL A   1      36.378  33.348  30.954  1.00  0.00     0.058 A 
ATOM     74  C   UNL A   1      35.076  33.322  31.471  1.00  0.00     0.135 A 
ATOM     75  C   UNL A   1      36.615  34.120  29.806  1.00  0.00     0.135 A 
ATOM     76  F   UNL A   1      34.802  32.591  32.562  1.00  0.00    -0.206 F 
ATOM     77  C   UNL A   1      34.043  34.039  30.876  1.00  0.00     0.059 A 
ATOM     78  C   UNL A   1      35.605  34.863  29.206  1.00  0.00     0.059 A 
ATOM     79  F   UNL A   1      37.849  34.185  29.282  1.00  0.00    -0.206 F 
ATOM     80  C   UNL A   1      34.320  34.813  29.747  1.00  0.00     0.060 A 
BRANCH  80  81
ATOM     81  S   UNL A   1      32.993  35.803  29.027  1.00  0.00     0.124 S 
ATOM     82  O   UNL A   1      33.742  36.879  28.390  1.00  0.00    -0.237 OA
ATOM     83  O   UNL A   1      32.353  34.849  28.124  1.00  0.00    -0.237 OA
ATOM     84  O   UNL A   1      32.195  36.187  30.188  1.00  0.00    -0.744 OA
ENDBRANCH  80  81
ENDBRANCH  48  73
BRANCH  60  85
ATOM     85  C   UNL A   1      39.924  34.353  36.872  1.00  0.00     0.058 A 
ATOM     86  C   UNL A   1      40.611  35.574  36.792  1.00  0.00     0.135 A 
ATOM     87  C   UNL A   1      39.081  34.141  37.973  1.00  0.00     0.135 A 
ATOM     88  F   UNL A   1      41.436  35.819  35.762  1.00  0.00    -0.206 F 
ATOM     89  C   UNL A   1      40.474  36.548  37.775  1.00  0.00     0.059 A 
ATOM     90  C   UNL A   1      38.913  35.109  38.958  1.00  0.00     0.059 A 
ATOM     91  F   UNL A   1      38.397  32.991  38.089  1.00  0.00    -0.206 F 
ATOM     92  C   UNL A   1      39.620  36.307  38.854  1.00  0.00     0.060 A 
BRANCH  92  93
ATOM     93  S   UNL A   1      39.417  37.596  40.100  1.00  0.00     0.124 S 
ATOM     94  O   UNL A   1      38.283  38.344  39.567  1.00  0.00    -0.237 OA
ATOM     95  O   UNL A   1      39.154  36.823  41.310  1.00  0.00    -0.237 OA
ATOM     96  O   UNL A   1      40.697  38.297  40.078  1.00  0.00    -0.744 OA
ENDBRANCH  92  93
ENDBRANCH  60  85
ENDBRANCH  34  35
ENDBRANCH  26  29
ENDBRANCH  24  25
ENDBRANCH   1  24
TORSDOF 16
ENDMDL
