MODEL 1
REMARK VINA RESULT:     -12.7      0.000      0.000
REMARK SMILES COc1cc(/N=N/c2ccccc2)ccc1NC(=O)[C@H]1CC=CC[C@@H]1C(=O)NCCCCNC(=O)c1ccc(-c2c3nc(c(-c4c(F)cc(S(=O)(=O)[O-])cc4F)c4ccc([nH]4)c(-c4c(F)cc(S(=O)(=O)[O-])cc4F)c4nc(c(-c5c(F)cc(S(=O)(=O)[O-])cc5F)c5ccc2[nH]5)C=C4)C=C3)cc1
REMARK SMILES IDX 30 1 29 2 28 3 26 4 27 5 25 7 20 8 21 9 22 10 24 11 23 12
REMARK SMILES IDX 18 13 17 14 19 16 16 17 3 18 4 19 5 20 15 21 14 22 2 23 1 24
REMARK SMILES IDX 6 25 7 26 8 27 9 28 13 29 10 30 12 31 11 32 31 33 32 34
REMARK SMILES IDX 33 35 34 36 35 38 36 39 37 40 101 41 38 42 100 43 39 44
REMARK SMILES IDX 40 45 41 46 94 47 42 48 99 49 93 50 95 51 43 52 98 53 92 54
REMARK SMILES IDX 91 55 44 57 78 58 57 59 77 60 58 61 61 62 76 63 96 64 59 65
REMARK SMILES IDX 60 66 75 68 97 69 62 70 45 71 46 72 55 73 47 74 48 75 54 76
REMARK SMILES IDX 56 77 49 78 50 79 51 80 52 81 53 82 79 83 80 84 89 85 81 86
REMARK SMILES IDX 82 87 88 88 90 89 83 90 84 91 85 92 86 93 87 94 63 95 64 96
REMARK SMILES IDX 73 97 65 98 66 99 72 100 74 101 67 102 68 103 69 104 70 105
REMARK SMILES IDX 71 106
REMARK H PARENT 28 6 17 15 33 37 95 56 61 67
REMARK Flexibility Score: inf
ROOT
ATOM      1  C   UNL A   1      33.321  31.100  27.592  1.00  0.00     0.023 C 
ENDROOT
BRANCH   1   2
ATOM      2  C   UNL A   1      32.439  30.789  26.386  1.00  0.00     0.116 C 
BRANCH   2   3
ATOM      3  N   UNL A   1      33.166  30.138  25.326  1.00  0.00    -0.356 N 
ATOM      4  C   UNL A   1      32.839  29.081  24.533  1.00  0.00     0.224 C 
ATOM      5  O   UNL A   1      33.625  28.852  23.610  1.00  0.00    -0.275 OA
ATOM      6  H   UNL A   1      34.052  30.526  25.143  1.00  0.00     0.163 HD
BRANCH   4   7
ATOM      7  C   UNL A   1      31.538  28.263  24.733  1.00  0.00     0.095 C 
ATOM      8  C   UNL A   1      31.371  27.069  23.757  1.00  0.00     0.095 C 
ATOM      9  C   UNL A   1      31.412  27.627  22.307  1.00  0.00     0.041 C 
ATOM     10  C   UNL A   1      30.524  28.829  22.118  1.00  0.00    -0.030 C 
ATOM     11  C   UNL A   1      30.323  29.213  24.581  1.00  0.00     0.041 C 
ATOM     12  C   UNL A   1      30.002  29.520  23.143  1.00  0.00    -0.030 C 
BRANCH   8  13
ATOM     13  C   UNL A   1      30.069  26.247  23.937  1.00  0.00     0.228 C 
ATOM     14  N   UNL A   1      30.002  24.994  24.464  1.00  0.00    -0.323 N 
ATOM     15  H   UNL A   1      29.074  24.706  24.626  1.00  0.00     0.170 HD
ATOM     16  O   UNL A   1      28.971  26.710  23.597  1.00  0.00    -0.274 OA
BRANCH  14  17
ATOM     17  C   UNL A   1      30.932  24.016  24.834  1.00  0.00     0.083 A 
ATOM     18  C   UNL A   1      31.645  23.348  23.826  1.00  0.00     0.144 A 
ATOM     19  C   UNL A   1      32.321  22.154  24.098  1.00  0.00     0.079 A 
ATOM     20  C   UNL A   1      32.383  21.676  25.408  1.00  0.00     0.090 A 
ATOM     21  C   UNL A   1      31.196  23.667  26.143  1.00  0.00     0.032 A 
ATOM     22  C   UNL A   1      31.893  22.492  26.435  1.00  0.00     0.033 A 
BRANCH  18  23
ATOM     23  O   UNL A   1      31.666  23.818  22.535  1.00  0.00    -0.494 OA
ATOM     24  C   UNL A   1      33.014  24.133  22.152  1.00  0.00     0.278 C 
ENDBRANCH  18  23
BRANCH  20  25
ATOM     25  N   UNL A   1      32.966  20.422  25.688  1.00  0.00    -0.150 NA
ATOM     26  N   UNL A   1      32.729  19.638  24.742  1.00  0.00    -0.151 NA
BRANCH  26  27
ATOM     27  C   UNL A   1      33.178  18.314  24.941  1.00  0.00     0.086 A 
ATOM     28  C   UNL A   1      34.451  17.988  24.449  1.00  0.00     0.030 A 
ATOM     29  C   UNL A   1      32.423  17.297  25.543  1.00  0.00     0.030 A 
ATOM     30  C   UNL A   1      34.961  16.692  24.561  1.00  0.00     0.002 A 
ATOM     31  C   UNL A   1      32.931  16.000  25.659  1.00  0.00     0.002 A 
ATOM     32  C   UNL A   1      34.200  15.697  25.168  1.00  0.00     0.000 A 
ENDBRANCH  26  27
ENDBRANCH  20  25
ENDBRANCH  14  17
ENDBRANCH   8  13
ENDBRANCH   4   7
ENDBRANCH   2   3
ENDBRANCH   1   2
BRANCH   1  33
ATOM     33  C   UNL A   1      34.706  30.450  27.539  1.00  0.00     0.023 C 
BRANCH  33  34
ATOM     34  C   UNL A   1      35.785  31.159  28.353  1.00  0.00     0.116 C 
BRANCH  34  35
ATOM     35  N   UNL A   1      35.604  31.034  29.791  1.00  0.00    -0.352 N 
ATOM     36  C   UNL A   1      36.419  30.392  30.699  1.00  0.00     0.251 C 
ATOM     37  H   UNL A   1      34.798  31.461  30.162  1.00  0.00     0.163 HD
ATOM     38  O   UNL A   1      36.083  30.288  31.867  1.00  0.00    -0.269 OA
BRANCH  36  39
ATOM     39  C   UNL A   1      37.684  29.793  30.220  1.00  0.00     0.039 A 
ATOM     40  C   UNL A   1      38.042  29.953  28.879  1.00  0.00     0.014 A 
ATOM     41  C   UNL A   1      38.539  29.135  31.108  1.00  0.00     0.014 A 
ATOM     42  C   UNL A   1      39.298  29.522  28.446  1.00  0.00     0.010 A 
ATOM     43  C   UNL A   1      39.814  28.769  30.691  1.00  0.00     0.010 A 
ATOM     44  C   UNL A   1      40.209  28.965  29.359  1.00  0.00    -0.014 A 
BRANCH  44  45
ATOM     45  C   UNL A   1      41.588  28.595  28.945  1.00  0.00     0.031 A 
ATOM     46  C   UNL A   1      42.667  29.642  28.908  1.00  0.00     0.074 A 
ATOM     47  C   UNL A   1      41.845  27.340  28.525  1.00  0.00     0.049 A 
ATOM     48  N   UNL A   1      43.904  29.537  28.494  1.00  0.00    -0.248 NA
ATOM     49  C   UNL A   1      42.302  30.992  29.369  1.00  0.00     0.031 C 
ATOM     50  C   UNL A   1      40.867  26.250  28.461  1.00  0.00     0.029 A 
ATOM     51  N   UNL A   1      43.003  26.770  28.058  1.00  0.00    -0.354 N 
ATOM     52  C   UNL A   1      44.455  30.807  28.620  1.00  0.00     0.074 A 
ATOM     53  C   UNL A   1      43.408  31.676  29.111  1.00  0.00     0.031 C 
ATOM     54  C   UNL A   1      41.473  25.141  28.005  1.00  0.00     0.029 A 
ATOM     55  C   UNL A   1      42.870  25.445  27.712  1.00  0.00     0.049 A 
ATOM     56  H   UNL A   1      43.851  27.264  27.981  1.00  0.00     0.167 HD
ATOM     57  C   UNL A   1      45.723  31.206  28.366  1.00  0.00     0.037 A 
ATOM     58  C   UNL A   1      43.769  24.578  27.209  1.00  0.00     0.037 A 
ATOM     59  C   UNL A   1      46.774  30.327  27.928  1.00  0.00     0.049 A 
ATOM     60  C   UNL A   1      45.179  25.044  26.961  1.00  0.00     0.074 A 
ATOM     61  C   UNL A   1      48.113  30.618  27.732  1.00  0.00     0.029 A 
ATOM     62  N   UNL A   1      46.607  28.985  27.620  1.00  0.00    -0.354 N 
ATOM     63  N   UNL A   1      45.701  26.232  27.159  1.00  0.00    -0.248 NA
ATOM     64  C   UNL A   1      46.123  24.055  26.424  1.00  0.00     0.031 C 
ATOM     65  C   UNL A   1      48.749  29.461  27.271  1.00  0.00     0.029 A 
ATOM     66  C   UNL A   1      47.815  28.440  27.218  1.00  0.00     0.049 A 
ATOM     67  H   UNL A   1      45.756  28.493  27.678  1.00  0.00     0.167 HD
ATOM     68  C   UNL A   1      47.040  26.121  26.804  1.00  0.00     0.074 A 
ATOM     69  C   UNL A   1      47.250  24.751  26.384  1.00  0.00     0.031 C 
ATOM     70  C   UNL A   1      48.010  27.068  26.823  1.00  0.00     0.037 A 
BRANCH  57  71
ATOM     71  C   UNL A   1      46.056  32.658  28.569  1.00  0.00     0.058 A 
ATOM     72  C   UNL A   1      46.527  33.141  29.799  1.00  0.00     0.135 A 
ATOM     73  C   UNL A   1      45.959  33.565  27.501  1.00  0.00     0.135 A 
ATOM     74  F   UNL A   1      46.621  32.319  30.856  1.00  0.00    -0.206 F 
ATOM     75  C   UNL A   1      46.874  34.476  29.971  1.00  0.00     0.059 A 
ATOM     76  C   UNL A   1      46.324  34.901  27.643  1.00  0.00     0.059 A 
ATOM     77  F   UNL A   1      45.511  33.156  26.304  1.00  0.00    -0.206 F 
ATOM     78  C   UNL A   1      46.772  35.349  28.886  1.00  0.00     0.060 A 
BRANCH  78  79
ATOM     79  S   UNL A   1      47.252  37.073  29.117  1.00  0.00     0.124 S 
ATOM     80  O   UNL A   1      48.554  37.103  28.458  1.00  0.00    -0.237 OA
ATOM     81  O   UNL A   1      46.180  37.791  28.434  1.00  0.00    -0.237 OA
ATOM     82  O   UNL A   1      47.279  37.228  30.568  1.00  0.00    -0.744 OA
ENDBRANCH  78  79
ENDBRANCH  57  71
BRANCH  58  83
ATOM     83  C   UNL A   1      43.382  23.170  26.927  1.00  0.00     0.058 A 
ATOM     84  C   UNL A   1      43.146  22.267  27.975  1.00  0.00     0.135 A 
ATOM     85  C   UNL A   1      43.261  22.692  25.613  1.00  0.00     0.135 A 
ATOM     86  F   UNL A   1      43.254  22.677  29.248  1.00  0.00    -0.206 F 
ATOM     87  C   UNL A   1      42.834  20.934  27.733  1.00  0.00     0.059 A 
ATOM     88  C   UNL A   1      42.927  21.368  25.345  1.00  0.00     0.059 A 
ATOM     89  F   UNL A   1      43.459  23.520  24.575  1.00  0.00    -0.206 F 
ATOM     90  C   UNL A   1      42.731  20.493  26.413  1.00  0.00     0.060 A 
BRANCH  90  91
ATOM     91  S   UNL A   1      42.306  18.764  26.107  1.00  0.00     0.124 S 
ATOM     92  O   UNL A   1      40.893  18.868  25.760  1.00  0.00    -0.237 OA
ATOM     93  O   UNL A   1      43.209  18.412  25.016  1.00  0.00    -0.237 OA
ATOM     94  O   UNL A   1      42.598  18.119  27.384  1.00  0.00    -0.744 OA
ENDBRANCH  90  91
ENDBRANCH  58  83
BRANCH  70  95
ATOM     95  C   UNL A   1      49.395  26.648  26.423  1.00  0.00     0.058 A 
ATOM     96  C   UNL A   1      50.292  26.089  27.345  1.00  0.00     0.135 A 
ATOM     97  C   UNL A   1      49.810  26.760  25.085  1.00  0.00     0.135 A 
ATOM     98  F   UNL A   1      49.945  25.968  28.636  1.00  0.00    -0.206 F 
ATOM     99  C   UNL A   1      51.561  25.671  26.960  1.00  0.00     0.059 A 
ATOM    100  C   UNL A   1      51.065  26.325  24.673  1.00  0.00     0.059 A 
ATOM    101  F   UNL A   1      48.985  27.279  24.162  1.00  0.00    -0.206 F 
ATOM    102  C   UNL A   1      51.939  25.793  25.620  1.00  0.00     0.060 A 
BRANCH 102 103
ATOM    103  S   UNL A   1      53.574  25.211  25.123  1.00  0.00     0.124 S 
ATOM    104  O   UNL A   1      53.426  23.766  25.263  1.00  0.00    -0.237 OA
ATOM    105  O   UNL A   1      53.683  25.707  23.755  1.00  0.00    -0.237 OA
ATOM    106  O   UNL A   1      54.466  25.848  26.087  1.00  0.00    -0.744 OA
ENDBRANCH 102 103
ENDBRANCH  70  95
ENDBRANCH  44  45
ENDBRANCH  36  39
ENDBRANCH  34  35
ENDBRANCH  33  34
ENDBRANCH   1  33
TORSDOF 19
ENDMDL
MODEL 2
REMARK VINA RESULT:     -12.7      6.255      8.166
REMARK SMILES COc1cc(/N=N/c2ccccc2)ccc1NC(=O)[C@H]1CC=CC[C@@H]1C(=O)NCCCCNC(=O)c1ccc(-c2c3nc(c(-c4c(F)cc(S(=O)(=O)[O-])cc4F)c4ccc([nH]4)c(-c4c(F)cc(S(=O)(=O)[O-])cc4F)c4nc(c(-c5c(F)cc(S(=O)(=O)[O-])cc5F)c5ccc2[nH]5)C=C4)C=C3)cc1
REMARK SMILES IDX 30 1 29 2 28 3 26 4 27 5 25 7 20 8 21 9 22 10 24 11 23 12
REMARK SMILES IDX 18 13 17 14 19 16 16 17 3 18 4 19 5 20 15 21 14 22 2 23 1 24
REMARK SMILES IDX 6 25 7 26 8 27 9 28 13 29 10 30 12 31 11 32 31 33 32 34
REMARK SMILES IDX 33 35 34 36 35 38 36 39 37 40 101 41 38 42 100 43 39 44
REMARK SMILES IDX 40 45 41 46 94 47 42 48 99 49 93 50 95 51 43 52 98 53 92 54
REMARK SMILES IDX 91 55 44 57 78 58 57 59 77 60 58 61 61 62 76 63 96 64 59 65
REMARK SMILES IDX 60 66 75 68 97 69 62 70 45 71 46 72 55 73 47 74 48 75 54 76
REMARK SMILES IDX 56 77 49 78 50 79 51 80 52 81 53 82 79 83 80 84 89 85 81 86
REMARK SMILES IDX 82 87 88 88 90 89 83 90 84 91 85 92 86 93 87 94 63 95 64 96
REMARK SMILES IDX 73 97 65 98 66 99 72 100 74 101 67 102 68 103 69 104 70 105
REMARK SMILES IDX 71 106
REMARK H PARENT 28 6 17 15 33 37 95 56 61 67
REMARK Flexibility Score: inf
ROOT
ATOM      1  C   UNL A   1      34.037  32.120  27.965  1.00  0.00     0.023 C 
ENDROOT
BRANCH   1   2
ATOM      2  C   UNL A   1      33.148  30.925  27.632  1.00  0.00     0.116 C 
BRANCH   2   3
ATOM      3  N   UNL A   1      33.900  29.706  27.480  1.00  0.00    -0.356 N 
ATOM      4  C   UNL A   1      33.639  28.574  26.770  1.00  0.00     0.224 C 
ATOM      5  O   UNL A   1      34.559  27.754  26.727  1.00  0.00    -0.275 OA
ATOM      6  H   UNL A   1      34.750  29.688  27.976  1.00  0.00     0.163 HD
BRANCH   4   7
ATOM      7  C   UNL A   1      32.305  28.359  26.010  1.00  0.00     0.095 C 
ATOM      8  C   UNL A   1      32.053  26.898  25.551  1.00  0.00     0.095 C 
ATOM      9  C   UNL A   1      33.239  26.471  24.642  1.00  0.00     0.041 C 
ATOM     10  C   UNL A   1      33.570  27.499  23.592  1.00  0.00    -0.030 C 
ATOM     11  C   UNL A   1      32.280  29.289  24.771  1.00  0.00     0.041 C 
ATOM     12  C   UNL A   1      33.106  28.758  23.630  1.00  0.00    -0.030 C 
BRANCH   8  13
ATOM     13  C   UNL A   1      30.727  26.669  24.781  1.00  0.00     0.228 C 
ATOM     14  N   UNL A   1      30.223  25.452  24.437  1.00  0.00    -0.323 N 
ATOM     15  H   UNL A   1      29.306  25.515  24.083  1.00  0.00     0.170 HD
ATOM     16  O   UNL A   1      30.025  27.625  24.423  1.00  0.00    -0.274 OA
BRANCH  14  17
ATOM     17  C   UNL A   1      30.691  24.133  24.467  1.00  0.00     0.083 A 
ATOM     18  C   UNL A   1      30.714  23.454  25.695  1.00  0.00     0.144 A 
ATOM     19  C   UNL A   1      31.468  22.287  25.853  1.00  0.00     0.079 A 
ATOM     20  C   UNL A   1      32.117  21.726  24.752  1.00  0.00     0.090 A 
ATOM     21  C   UNL A   1      31.133  23.454  23.350  1.00  0.00     0.032 A 
ATOM     22  C   UNL A   1      31.865  22.272  23.486  1.00  0.00     0.033 A 
BRANCH  18  23
ATOM     23  O   UNL A   1      30.036  23.934  26.789  1.00  0.00    -0.494 OA
ATOM     24  C   UNL A   1      29.267  22.879  27.388  1.00  0.00     0.278 C 
ENDBRANCH  18  23
BRANCH  20  25
ATOM     25  N   UNL A   1      32.969  20.613  24.908  1.00  0.00    -0.150 NA
ATOM     26  N   UNL A   1      32.322  19.565  24.681  1.00  0.00    -0.151 NA
BRANCH  26  27
ATOM     27  C   UNL A   1      33.036  18.367  24.898  1.00  0.00     0.086 A 
ATOM     28  C   UNL A   1      34.337  18.294  24.375  1.00  0.00     0.030 A 
ATOM     29  C   UNL A   1      32.520  17.236  25.546  1.00  0.00     0.030 A 
ATOM     30  C   UNL A   1      35.104  17.133  24.503  1.00  0.00     0.002 A 
ATOM     31  C   UNL A   1      33.286  16.073  25.676  1.00  0.00     0.002 A 
ATOM     32  C   UNL A   1      34.578  16.021  25.155  1.00  0.00     0.000 A 
ENDBRANCH  26  27
ENDBRANCH  20  25
ENDBRANCH  14  17
ENDBRANCH   8  13
ENDBRANCH   4   7
ENDBRANCH   2   3
ENDBRANCH   1   2
BRANCH   1  33
ATOM     33  C   UNL A   1      33.295  33.457  28.020  1.00  0.00     0.023 C 
BRANCH  33  34
ATOM     34  C   UNL A   1      33.956  34.529  28.880  1.00  0.00     0.116 C 
BRANCH  34  35
ATOM     35  N   UNL A   1      33.040  35.178  29.806  1.00  0.00    -0.352 N 
ATOM     36  C   UNL A   1      33.095  35.200  31.184  1.00  0.00     0.251 C 
ATOM     37  H   UNL A   1      32.287  35.662  29.397  1.00  0.00     0.163 HD
ATOM     38  O   UNL A   1      32.194  35.708  31.831  1.00  0.00    -0.269 OA
BRANCH  36  39
ATOM     39  C   UNL A   1      34.242  34.556  31.860  1.00  0.00     0.039 A 
ATOM     40  C   UNL A   1      34.101  33.250  32.333  1.00  0.00     0.014 A 
ATOM     41  C   UNL A   1      35.468  35.219  31.965  1.00  0.00     0.014 A 
ATOM     42  C   UNL A   1      35.215  32.577  32.841  1.00  0.00     0.010 A 
ATOM     43  C   UNL A   1      36.589  34.526  32.408  1.00  0.00     0.010 A 
ATOM     44  C   UNL A   1      36.476  33.196  32.843  1.00  0.00    -0.014 A 
BRANCH  44  45
ATOM     45  C   UNL A   1      37.693  32.465  33.281  1.00  0.00     0.031 A 
ATOM     46  C   UNL A   1      38.375  32.845  34.567  1.00  0.00     0.074 A 
ATOM     47  C   UNL A   1      38.228  31.521  32.482  1.00  0.00     0.049 A 
ATOM     48  N   UNL A   1      39.491  32.387  35.074  1.00  0.00    -0.248 NA
ATOM     49  C   UNL A   1      37.735  33.895  35.376  1.00  0.00     0.031 C 
ATOM     50  C   UNL A   1      37.691  31.103  31.184  1.00  0.00     0.029 A 
ATOM     51  N   UNL A   1      39.352  30.748  32.635  1.00  0.00    -0.354 N 
ATOM     52  C   UNL A   1      39.700  33.111  36.243  1.00  0.00     0.074 A 
ATOM     53  C   UNL A   1      38.618  34.063  36.350  1.00  0.00     0.031 C 
ATOM     54  C   UNL A   1      38.472  30.137  30.673  1.00  0.00     0.029 A 
ATOM     55  C   UNL A   1      39.583  29.888  31.586  1.00  0.00     0.049 A 
ATOM     56  H   UNL A   1      39.939  30.802  33.425  1.00  0.00     0.167 HD
ATOM     57  C   UNL A   1      40.695  32.978  37.152  1.00  0.00     0.037 A 
ATOM     58  C   UNL A   1      40.580  29.006  31.381  1.00  0.00     0.037 A 
ATOM     59  C   UNL A   1      41.740  31.993  37.066  1.00  0.00     0.049 A 
ATOM     60  C   UNL A   1      41.658  28.862  32.422  1.00  0.00     0.074 A 
ATOM     61  C   UNL A   1      42.740  31.719  37.984  1.00  0.00     0.029 A 
ATOM     62  N   UNL A   1      41.920  31.119  36.005  1.00  0.00    -0.354 N 
ATOM     63  N   UNL A   1      41.797  29.502  33.559  1.00  0.00    -0.248 NA
ATOM     64  C   UNL A   1      42.715  27.877  32.154  1.00  0.00     0.031 C 
ATOM     65  C   UNL A   1      43.546  30.703  37.461  1.00  0.00     0.029 A 
ATOM     66  C   UNL A   1      43.025  30.317  36.237  1.00  0.00     0.049 A 
ATOM     67  H   UNL A   1      41.347  31.075  35.206  1.00  0.00     0.167 HD
ATOM     68  C   UNL A   1      42.934  28.972  34.156  1.00  0.00     0.074 A 
ATOM     69  C   UNL A   1      43.444  27.956  33.259  1.00  0.00     0.031 C 
ATOM     70  C   UNL A   1      43.506  29.297  35.341  1.00  0.00     0.037 A 
BRANCH  57  71
ATOM     71  C   UNL A   1      40.697  33.910  38.330  1.00  0.00     0.058 A 
ATOM     72  C   UNL A   1      41.425  35.110  38.320  1.00  0.00     0.135 A 
ATOM     73  C   UNL A   1      39.914  33.628  39.462  1.00  0.00     0.135 A 
ATOM     74  F   UNL A   1      42.204  35.418  37.270  1.00  0.00    -0.206 F 
ATOM     75  C   UNL A   1      41.392  35.990  39.395  1.00  0.00     0.059 A 
ATOM     76  C   UNL A   1      39.846  34.506  40.540  1.00  0.00     0.059 A 
ATOM     77  F   UNL A   1      39.201  32.493  39.525  1.00  0.00    -0.206 F 
ATOM     78  C   UNL A   1      40.597  35.681  40.501  1.00  0.00     0.060 A 
BRANCH  78  79
ATOM     79  S   UNL A   1      40.542  36.847  41.877  1.00  0.00     0.124 S 
ATOM     80  O   UNL A   1      41.763  37.615  41.656  1.00  0.00    -0.237 OA
ATOM     81  O   UNL A   1      39.292  37.559  41.635  1.00  0.00    -0.237 OA
ATOM     82  O   UNL A   1      40.548  35.984  43.054  1.00  0.00    -0.744 OA
ENDBRANCH  78  79
ENDBRANCH  57  71
BRANCH  58  83
ATOM     83  C   UNL A   1      40.602  28.165  30.155  1.00  0.00     0.058 A 
ATOM     84  C   UNL A   1      39.706  27.096  30.003  1.00  0.00     0.135 A 
ATOM     85  C   UNL A   1      41.525  28.395  29.124  1.00  0.00     0.135 A 
ATOM     86  F   UNL A   1      38.807  26.835  30.963  1.00  0.00    -0.206 F 
ATOM     87  C   UNL A   1      39.743  26.266  28.887  1.00  0.00     0.059 A 
ATOM     88  C   UNL A   1      41.567  27.593  27.988  1.00  0.00     0.059 A 
ATOM     89  F   UNL A   1      42.393  29.417  29.213  1.00  0.00    -0.206 F 
ATOM     90  C   UNL A   1      40.681  26.521  27.886  1.00  0.00     0.060 A 
BRANCH  90  91
ATOM     91  S   UNL A   1      40.711  25.450  26.432  1.00  0.00     0.124 S 
ATOM     92  O   UNL A   1      39.327  24.994  26.377  1.00  0.00    -0.237 OA
ATOM     93  O   UNL A   1      41.124  26.370  25.378  1.00  0.00    -0.237 OA
ATOM     94  O   UNL A   1      41.698  24.434  26.787  1.00  0.00    -0.744 OA
ENDBRANCH  90  91
ENDBRANCH  58  83
BRANCH  70  95
ATOM     95  C   UNL A   1      44.720  28.518  35.760  1.00  0.00     0.058 A 
ATOM     96  C   UNL A   1      46.017  28.939  35.431  1.00  0.00     0.135 A 
ATOM     97  C   UNL A   1      44.583  27.362  36.548  1.00  0.00     0.135 A 
ATOM     98  F   UNL A   1      46.199  30.034  34.675  1.00  0.00    -0.206 F 
ATOM     99  C   UNL A   1      47.138  28.232  35.851  1.00  0.00     0.059 A 
ATOM    100  C   UNL A   1      45.692  26.653  36.999  1.00  0.00     0.059 A 
ATOM    101  F   UNL A   1      43.365  26.923  36.897  1.00  0.00    -0.206 F 
ATOM    102  C   UNL A   1      46.965  27.089  36.636  1.00  0.00     0.060 A 
BRANCH 102 103
ATOM    103  S   UNL A   1      48.428  26.200  37.209  1.00  0.00     0.124 S 
ATOM    104  O   UNL A   1      48.530  25.134  36.218  1.00  0.00    -0.237 OA
ATOM    105  O   UNL A   1      49.465  27.226  37.145  1.00  0.00    -0.237 OA
ATOM    106  O   UNL A   1      48.059  25.774  38.555  1.00  0.00    -0.744 OA
ENDBRANCH 102 103
ENDBRANCH  70  95
ENDBRANCH  44  45
ENDBRANCH  36  39
ENDBRANCH  34  35
ENDBRANCH  33  34
ENDBRANCH   1  33
TORSDOF 19
ENDMDL
MODEL 3
REMARK VINA RESULT:     -12.4      2.476      9.474
REMARK SMILES COc1cc(/N=N/c2ccccc2)ccc1NC(=O)[C@H]1CC=CC[C@@H]1C(=O)NCCCCNC(=O)c1ccc(-c2c3nc(c(-c4c(F)cc(S(=O)(=O)[O-])cc4F)c4ccc([nH]4)c(-c4c(F)cc(S(=O)(=O)[O-])cc4F)c4nc(c(-c5c(F)cc(S(=O)(=O)[O-])cc5F)c5ccc2[nH]5)C=C4)C=C3)cc1
REMARK SMILES IDX 30 1 29 2 28 3 26 4 27 5 25 7 20 8 21 9 22 10 24 11 23 12
REMARK SMILES IDX 18 13 17 14 19 16 16 17 3 18 4 19 5 20 15 21 14 22 2 23 1 24
REMARK SMILES IDX 6 25 7 26 8 27 9 28 13 29 10 30 12 31 11 32 31 33 32 34
REMARK SMILES IDX 33 35 34 36 35 38 36 39 37 40 101 41 38 42 100 43 39 44
REMARK SMILES IDX 40 45 41 46 94 47 42 48 99 49 93 50 95 51 43 52 98 53 92 54
REMARK SMILES IDX 91 55 44 57 78 58 57 59 77 60 58 61 61 62 76 63 96 64 59 65
REMARK SMILES IDX 60 66 75 68 97 69 62 70 45 71 46 72 55 73 47 74 48 75 54 76
REMARK SMILES IDX 56 77 49 78 50 79 51 80 52 81 53 82 79 83 80 84 89 85 81 86
REMARK SMILES IDX 82 87 88 88 90 89 83 90 84 91 85 92 86 93 87 94 63 95 64 96
REMARK SMILES IDX 73 97 65 98 66 99 72 100 74 101 67 102 68 103 69 104 70 105
REMARK SMILES IDX 71 106
REMARK H PARENT 28 6 17 15 33 37 95 56 61 67
REMARK Flexibility Score: inf
ROOT
ATOM      1  C   UNL A   1      38.358  22.958  25.763  1.00  0.00     0.023 C 
ENDROOT
BRANCH   1   2
ATOM      2  C   UNL A   1      36.898  23.263  25.441  1.00  0.00     0.116 C 
BRANCH   2   3
ATOM      3  N   UNL A   1      36.021  22.992  26.551  1.00  0.00    -0.356 N 
ATOM      4  C   UNL A   1      34.672  23.121  26.680  1.00  0.00     0.224 C 
ATOM      5  O   UNL A   1      34.196  22.663  27.722  1.00  0.00    -0.275 OA
ATOM      6  H   UNL A   1      36.476  22.655  27.356  1.00  0.00     0.163 HD
BRANCH   4   7
ATOM      7  C   UNL A   1      33.785  23.736  25.567  1.00  0.00     0.095 C 
ATOM      8  C   UNL A   1      32.266  23.742  25.883  1.00  0.00     0.095 C 
ATOM      9  C   UNL A   1      31.825  22.275  26.142  1.00  0.00     0.041 C 
ATOM     10  C   UNL A   1      32.328  21.319  25.092  1.00  0.00    -0.030 C 
ATOM     11  C   UNL A   1      34.024  22.954  24.250  1.00  0.00     0.041 C 
ATOM     12  C   UNL A   1      33.293  21.640  24.215  1.00  0.00    -0.030 C 
BRANCH   8  13
ATOM     13  C   UNL A   1      31.365  24.345  24.775  1.00  0.00     0.228 C 
ATOM     14  N   UNL A   1      31.340  25.658  24.415  1.00  0.00    -0.323 N 
ATOM     15  H   UNL A   1      30.811  25.811  23.599  1.00  0.00     0.170 HD
ATOM     16  O   UNL A   1      30.586  23.630  24.129  1.00  0.00    -0.274 OA
BRANCH  14  17
ATOM     17  C   UNL A   1      31.886  26.842  24.924  1.00  0.00     0.083 A 
ATOM     18  C   UNL A   1      32.832  27.534  24.152  1.00  0.00     0.144 A 
ATOM     19  C   UNL A   1      33.650  28.511  24.729  1.00  0.00     0.079 A 
ATOM     20  C   UNL A   1      33.451  28.885  26.059  1.00  0.00     0.090 A 
ATOM     21  C   UNL A   1      31.544  27.377  26.149  1.00  0.00     0.032 A 
ATOM     22  C   UNL A   1      32.332  28.373  26.730  1.00  0.00     0.033 A 
BRANCH  18  23
ATOM     23  O   UNL A   1      33.018  27.245  22.822  1.00  0.00    -0.494 OA
ATOM     24  C   UNL A   1      33.874  28.231  22.223  1.00  0.00     0.278 C 
ENDBRANCH  18  23
BRANCH  20  25
ATOM     25  N   UNL A   1      34.330  29.788  26.692  1.00  0.00    -0.150 NA
ATOM     26  N   UNL A   1      33.665  30.718  27.204  1.00  0.00    -0.151 NA
BRANCH  26  27
ATOM     27  C   UNL A   1      34.435  31.746  27.789  1.00  0.00     0.086 A 
ATOM     28  C   UNL A   1      33.770  32.937  28.118  1.00  0.00     0.030 A 
ATOM     29  C   UNL A   1      35.818  31.679  28.012  1.00  0.00     0.030 A 
ATOM     30  C   UNL A   1      34.459  34.025  28.661  1.00  0.00     0.002 A 
ATOM     31  C   UNL A   1      36.510  32.766  28.557  1.00  0.00     0.002 A 
ATOM     32  C   UNL A   1      35.831  33.938  28.881  1.00  0.00     0.000 A 
ENDBRANCH  26  27
ENDBRANCH  20  25
ENDBRANCH  14  17
ENDBRANCH   8  13
ENDBRANCH   4   7
ENDBRANCH   2   3
ENDBRANCH   1   2
BRANCH   1  33
ATOM     33  C   UNL A   1      38.751  21.493  25.555  1.00  0.00     0.023 C 
BRANCH  33  34
ATOM     34  C   UNL A   1      39.569  20.877  26.687  1.00  0.00     0.116 C 
BRANCH  34  35
ATOM     35  N   UNL A   1      40.452  19.807  26.249  1.00  0.00    -0.352 N 
ATOM     36  C   UNL A   1      41.807  19.869  25.999  1.00  0.00     0.251 C 
ATOM     37  H   UNL A   1      40.030  18.928  26.114  1.00  0.00     0.163 HD
ATOM     38  O   UNL A   1      42.397  18.905  25.541  1.00  0.00    -0.269 OA
BRANCH  36  39
ATOM     39  C   UNL A   1      42.519  21.141  26.255  1.00  0.00     0.039 A 
ATOM     40  C   UNL A   1      42.661  22.056  25.210  1.00  0.00     0.014 A 
ATOM     41  C   UNL A   1      42.984  21.449  27.536  1.00  0.00     0.014 A 
ATOM     42  C   UNL A   1      43.200  23.318  25.470  1.00  0.00     0.010 A 
ATOM     43  C   UNL A   1      43.457  22.728  27.806  1.00  0.00     0.010 A 
ATOM     44  C   UNL A   1      43.563  23.678  26.779  1.00  0.00    -0.014 A 
BRANCH  44  45
ATOM     45  C   UNL A   1      44.040  25.049  27.098  1.00  0.00     0.031 A 
ATOM     46  C   UNL A   1      45.451  25.450  26.765  1.00  0.00     0.074 A 
ATOM     47  C   UNL A   1      43.231  25.900  27.760  1.00  0.00     0.049 A 
ATOM     48  N   UNL A   1      46.078  26.564  27.041  1.00  0.00    -0.248 NA
ATOM     49  C   UNL A   1      46.275  24.458  26.054  1.00  0.00     0.031 C 
ATOM     50  C   UNL A   1      41.860  25.608  28.188  1.00  0.00     0.029 A 
ATOM     51  N   UNL A   1      43.446  27.181  28.202  1.00  0.00    -0.354 N 
ATOM     52  C   UNL A   1      47.373  26.398  26.563  1.00  0.00     0.074 A 
ATOM     53  C   UNL A   1      47.454  25.062  26.015  1.00  0.00     0.031 C 
ATOM     54  C   UNL A   1      41.353  26.686  28.810  1.00  0.00     0.029 A 
ATOM     55  C   UNL A   1      42.368  27.732  28.856  1.00  0.00     0.049 A 
ATOM     56  H   UNL A   1      44.294  27.662  28.063  1.00  0.00     0.167 HD
ATOM     57  C   UNL A   1      48.395  27.287  26.565  1.00  0.00     0.037 A 
ATOM     58  C   UNL A   1      42.219  28.940  29.433  1.00  0.00     0.037 A 
ATOM     59  C   UNL A   1      48.293  28.633  27.064  1.00  0.00     0.049 A 
ATOM     60  C   UNL A   1      43.364  29.917  29.397  1.00  0.00     0.074 A 
ATOM     61  C   UNL A   1      49.244  29.638  27.026  1.00  0.00     0.029 A 
ATOM     62  N   UNL A   1      47.174  29.164  27.688  1.00  0.00    -0.354 N 
ATOM     63  N   UNL A   1      44.557  29.769  28.871  1.00  0.00    -0.248 NA
ATOM     64  C   UNL A   1      43.144  31.225  30.029  1.00  0.00     0.031 C 
ATOM     65  C   UNL A   1      48.713  30.766  27.660  1.00  0.00     0.029 A 
ATOM     66  C   UNL A   1      47.418  30.476  28.056  1.00  0.00     0.049 A 
ATOM     67  H   UNL A   1      46.332  28.679  27.846  1.00  0.00     0.167 HD
ATOM     68  C   UNL A   1      45.215  30.976  29.080  1.00  0.00     0.074 A 
ATOM     69  C   UNL A   1      44.288  31.844  29.774  1.00  0.00     0.031 C 
ATOM     70  C   UNL A   1      46.475  31.333  28.728  1.00  0.00     0.037 A 
BRANCH  57  71
ATOM     71  C   UNL A   1      49.713  26.842  25.997  1.00  0.00     0.058 A 
ATOM     72  C   UNL A   1      50.072  27.113  24.668  1.00  0.00     0.135 A 
ATOM     73  C   UNL A   1      50.654  26.190  26.811  1.00  0.00     0.135 A 
ATOM     74  F   UNL A   1      49.202  27.718  23.843  1.00  0.00    -0.206 F 
ATOM     75  C   UNL A   1      51.310  26.737  24.158  1.00  0.00     0.059 A 
ATOM     76  C   UNL A   1      51.908  25.826  26.329  1.00  0.00     0.059 A 
ATOM     77  F   UNL A   1      50.360  25.905  28.089  1.00  0.00    -0.206 F 
ATOM     78  C   UNL A   1      52.223  26.097  24.998  1.00  0.00     0.060 A 
BRANCH  78  79
ATOM     79  S   UNL A   1      53.836  25.639  24.329  1.00  0.00     0.124 S 
ATOM     80  O   UNL A   1      54.723  26.517  25.086  1.00  0.00    -0.237 OA
ATOM     81  O   UNL A   1      53.919  24.219  24.656  1.00  0.00    -0.237 OA
ATOM     82  O   UNL A   1      53.714  25.945  22.907  1.00  0.00    -0.744 OA
ENDBRANCH  78  79
ENDBRANCH  57  71
BRANCH  58  83
ATOM     83  C   UNL A   1      40.931  29.315  30.074  1.00  0.00     0.058 A 
ATOM     84  C   UNL A   1      39.834  29.718  29.297  1.00  0.00     0.135 A 
ATOM     85  C   UNL A   1      40.774  29.300  31.468  1.00  0.00     0.135 A 
ATOM     86  F   UNL A   1      39.937  29.752  27.960  1.00  0.00    -0.206 F 
ATOM     87  C   UNL A   1      38.637  30.121  29.878  1.00  0.00     0.059 A 
ATOM     88  C   UNL A   1      39.579  29.677  32.073  1.00  0.00     0.059 A 
ATOM     89  F   UNL A   1      41.788  28.906  32.255  1.00  0.00    -0.206 F 
ATOM     90  C   UNL A   1      38.521  30.101  31.269  1.00  0.00     0.060 A 
BRANCH  90  91
ATOM     91  S   UNL A   1      36.957  30.609  32.016  1.00  0.00     0.124 S 
ATOM     92  O   UNL A   1      35.992  29.902  31.182  1.00  0.00    -0.237 OA
ATOM     93  O   UNL A   1      37.096  30.123  33.386  1.00  0.00    -0.237 OA
ATOM     94  O   UNL A   1      36.974  32.062  31.871  1.00  0.00    -0.744 OA
ENDBRANCH  90  91
ENDBRANCH  58  83
BRANCH  70  95
ATOM     95  C   UNL A   1      46.911  32.735  29.046  1.00  0.00     0.058 A 
ATOM     96  C   UNL A   1      47.578  33.047  30.239  1.00  0.00     0.135 A 
ATOM     97  C   UNL A   1      46.703  33.768  28.117  1.00  0.00     0.135 A 
ATOM     98  F   UNL A   1      47.793  32.096  31.162  1.00  0.00    -0.206 F 
ATOM     99  C   UNL A   1      48.009  34.341  30.512  1.00  0.00     0.059 A 
ATOM    100  C   UNL A   1      47.148  35.064  28.358  1.00  0.00     0.059 A 
ATOM    101  F   UNL A   1      46.078  33.518  26.956  1.00  0.00    -0.206 F 
ATOM    102  C   UNL A   1      47.790  35.343  29.563  1.00  0.00     0.060 A 
BRANCH 102 103
ATOM    103  S   UNL A   1      48.387  37.011  29.910  1.00  0.00     0.124 S 
ATOM    104  O   UNL A   1      47.675  37.793  28.905  1.00  0.00    -0.237 OA
ATOM    105  O   UNL A   1      47.963  37.218  31.291  1.00  0.00    -0.237 OA
ATOM    106  O   UNL A   1      49.830  36.900  29.714  1.00  0.00    -0.744 OA
ENDBRANCH 102 103
ENDBRANCH  70  95
ENDBRANCH  44  45
ENDBRANCH  36  39
ENDBRANCH  34  35
ENDBRANCH  33  34
ENDBRANCH   1  33
TORSDOF 19
ENDMDL
