MODEL 1
REMARK VINA RESULT:     -12.9      0.000      0.000
REMARK SMILES Cc1oc2c(c1C(=O)NCCCCNC(=O)c1ccc(-c3c4nc(c(-c5c(F)cc(S(=O)(=O)[O-])cc5F)c5ccc([nH]5)c(-c5c(F)cc(S(=O)(=O)[O-])cc5F)c5nc(c(-c6c(F)cc(S(=O)(=O)[O-])cc6F)c6ccc3[nH]6)C=C5)C=C4)cc1)C(=O)C[C@H](c1ccco1)C2
REMARK SMILES IDX 12 1 11 2 10 3 9 4 7 5 8 6 6 8 1 9 2 10 3 11 4 12 5 13 92 14
REMARK SMILES IDX 83 15 86 16 84 17 85 18 87 19 88 20 91 21 89 22 90 23 13 24
REMARK SMILES IDX 14 25 15 26 16 28 17 29 18 30 82 31 19 32 81 33 20 34 21 35
REMARK SMILES IDX 22 36 75 37 23 38 80 39 74 40 76 41 24 42 79 43 73 44 72 45
REMARK SMILES IDX 25 47 59 48 38 49 58 50 39 51 42 52 57 53 77 54 40 55 41 56
REMARK SMILES IDX 56 58 78 59 43 60 26 61 27 62 36 63 28 64 29 65 35 66 37 67
REMARK SMILES IDX 30 68 31 69 32 70 33 71 34 72 60 73 61 74 70 75 62 76 63 77
REMARK SMILES IDX 69 78 71 79 64 80 65 81 66 82 67 83 68 84 44 85 45 86 54 87
REMARK SMILES IDX 46 88 47 89 53 90 55 91 48 92 49 93 50 94 51 95 52 96
REMARK H PARENT 9 7 14 27 76 46 42 57
REMARK Flexibility Score: inf
ROOT
ATOM      1  C   UNL A   1      35.988  22.947  25.397  1.00  0.00     0.023 C 
ENDROOT
BRANCH   1   2
ATOM      2  C   UNL A   1      35.169  22.394  24.221  1.00  0.00     0.023 C 
BRANCH   2   3
ATOM      3  C   UNL A   1      33.939  21.578  24.614  1.00  0.00     0.116 C 
BRANCH   3   4
ATOM      4  N   UNL A   1      32.753  21.925  23.876  1.00  0.00    -0.352 N 
ATOM      5  C   UNL A   1      31.785  22.891  23.968  1.00  0.00     0.255 C 
ATOM      6  O   UNL A   1      31.069  22.931  22.964  1.00  0.00    -0.269 OA
ATOM      7  H   UNL A   1      32.598  21.317  23.118  1.00  0.00     0.163 HD
BRANCH   5   8
ATOM      8  C   UNL A   1      31.538  23.812  25.090  1.00  0.00     0.092 A 
ATOM      9  C   UNL A   1      29.726  22.872  26.871  1.00  0.00     0.088 C 
ATOM     10  C   UNL A   1      30.708  23.769  26.223  1.00  0.00     0.114 A 
ATOM     11  O   UNL A   1      30.872  24.884  26.991  1.00  0.00    -0.465 OA
ATOM     12  C   UNL A   1      31.801  25.641  26.411  1.00  0.00     0.116 A 
ATOM     13  C   UNL A   1      32.257  25.077  25.247  1.00  0.00     0.072 A 
ATOM     14  C   UNL A   1      32.197  26.898  27.073  1.00  0.00     0.088 C 
ATOM     15  C   UNL A   1      33.263  25.824  24.490  1.00  0.00     0.167 C 
ATOM     16  C   UNL A   1      32.946  27.784  26.057  1.00  0.00     0.071 C 
ATOM     17  O   UNL A   1      33.516  25.643  23.303  1.00  0.00    -0.294 OA
ATOM     18  C   UNL A   1      33.972  26.946  25.265  1.00  0.00     0.093 C 
BRANCH  16  19
ATOM     19  C   UNL A   1      33.569  28.974  26.717  1.00  0.00     0.107 A 
ATOM     20  C   UNL A   1      34.830  29.227  27.221  1.00  0.00     0.046 A 
ATOM     21  O   UNL A   1      32.800  30.096  26.832  1.00  0.00    -0.469 OA
ATOM     22  C   UNL A   1      34.822  30.571  27.668  1.00  0.00     0.042 A 
ATOM     23  C   UNL A   1      33.563  31.055  27.409  1.00  0.00     0.195 A 
ENDBRANCH  16  19
ENDBRANCH   5   8
ENDBRANCH   3   4
ENDBRANCH   2   3
ENDBRANCH   1   2
BRANCH   1  24
ATOM     24  C   UNL A   1      37.495  23.029  25.155  1.00  0.00     0.116 C 
BRANCH  24  25
ATOM     25  N   UNL A   1      38.252  22.029  25.903  1.00  0.00    -0.352 N 
ATOM     26  C   UNL A   1      39.454  22.204  26.567  1.00  0.00     0.251 C 
ATOM     27  H   UNL A   1      37.863  21.125  25.938  1.00  0.00     0.163 HD
ATOM     28  O   UNL A   1      40.176  21.252  26.812  1.00  0.00    -0.269 OA
BRANCH  26  29
ATOM     29  C   UNL A   1      39.842  23.568  26.977  1.00  0.00     0.039 A 
ATOM     30  C   UNL A   1      38.927  24.624  26.914  1.00  0.00     0.014 A 
ATOM     31  C   UNL A   1      41.136  23.771  27.454  1.00  0.00     0.014 A 
ATOM     32  C   UNL A   1      39.295  25.865  27.430  1.00  0.00     0.010 A 
ATOM     33  C   UNL A   1      41.465  24.969  28.049  1.00  0.00     0.010 A 
ATOM     34  C   UNL A   1      40.556  26.025  28.023  1.00  0.00    -0.014 A 
BRANCH  34  35
ATOM     35  C   UNL A   1      40.877  27.246  28.760  1.00  0.00     0.031 A 
ATOM     36  C   UNL A   1      41.982  28.060  28.174  1.00  0.00     0.074 A 
ATOM     37  C   UNL A   1      40.093  27.739  29.743  1.00  0.00     0.049 A 
ATOM     38  N   UNL A   1      43.134  28.320  28.700  1.00  0.00    -0.248 NA
ATOM     39  C   UNL A   1      41.851  28.535  26.787  1.00  0.00     0.031 C 
ATOM     40  C   UNL A   1      38.812  27.209  30.222  1.00  0.00     0.029 A 
ATOM     41  N   UNL A   1      40.211  28.902  30.442  1.00  0.00    -0.354 N 
ATOM     42  C   UNL A   1      43.789  29.170  27.811  1.00  0.00     0.074 A 
ATOM     43  C   UNL A   1      43.038  29.112  26.584  1.00  0.00     0.031 C 
ATOM     44  C   UNL A   1      38.172  28.158  30.938  1.00  0.00     0.029 A 
ATOM     45  C   UNL A   1      39.048  29.305  31.093  1.00  0.00     0.049 A 
ATOM     46  H   UNL A   1      41.051  29.414  30.483  1.00  0.00     0.167 HD
ATOM     47  C   UNL A   1      44.770  30.019  28.232  1.00  0.00     0.037 A 
ATOM     48  C   UNL A   1      38.811  30.507  31.679  1.00  0.00     0.037 A 
ATOM     49  C   UNL A   1      45.202  29.681  29.565  1.00  0.00     0.049 A 
ATOM     50  C   UNL A   1      40.139  31.122  31.951  1.00  0.00     0.074 A 
ATOM     51  C   UNL A   1      45.743  28.553  30.152  1.00  0.00     0.029 A 
ATOM     52  N   UNL A   1      44.739  30.460  30.599  1.00  0.00    -0.354 N 
ATOM     53  N   UNL A   1      40.984  30.655  32.829  1.00  0.00    -0.248 NA
ATOM     54  C   UNL A   1      40.717  31.982  30.929  1.00  0.00     0.031 C 
ATOM     55  C   UNL A   1      45.136  28.484  31.438  1.00  0.00     0.029 A 
ATOM     56  C   UNL A   1      44.329  29.613  31.595  1.00  0.00     0.049 A 
ATOM     57  H   UNL A   1      44.708  31.443  30.620  1.00  0.00     0.167 HD
ATOM     58  C   UNL A   1      42.225  30.776  32.219  1.00  0.00     0.074 A 
ATOM     59  C   UNL A   1      42.011  31.693  31.101  1.00  0.00     0.031 C 
ATOM     60  C   UNL A   1      43.234  29.896  32.494  1.00  0.00     0.037 A 
BRANCH  47  61
ATOM     61  C   UNL A   1      45.105  31.360  27.615  1.00  0.00     0.058 A 
ATOM     62  C   UNL A   1      46.363  31.536  26.995  1.00  0.00     0.135 A 
ATOM     63  C   UNL A   1      44.378  32.546  27.852  1.00  0.00     0.135 A 
ATOM     64  F   UNL A   1      47.143  30.479  26.715  1.00  0.00    -0.206 F 
ATOM     65  C   UNL A   1      46.895  32.795  26.718  1.00  0.00     0.059 A 
ATOM     66  C   UNL A   1      44.866  33.810  27.532  1.00  0.00     0.059 A 
ATOM     67  F   UNL A   1      43.204  32.549  28.493  1.00  0.00    -0.206 F 
ATOM     68  C   UNL A   1      46.144  33.929  27.008  1.00  0.00     0.060 A 
BRANCH  68  69
ATOM     69  S   UNL A   1      46.866  35.557  26.747  1.00  0.00     0.124 S 
ATOM     70  O   UNL A   1      45.675  36.372  26.536  1.00  0.00    -0.237 OA
ATOM     71  O   UNL A   1      47.578  35.777  28.001  1.00  0.00    -0.237 OA
ATOM     72  O   UNL A   1      47.715  35.362  25.576  1.00  0.00    -0.744 OA
ENDBRANCH  68  69
ENDBRANCH  47  61
BRANCH  48  73
ATOM     73  C   UNL A   1      37.536  31.275  31.774  1.00  0.00     0.058 A 
ATOM     74  C   UNL A   1      37.015  31.662  33.024  1.00  0.00     0.135 A 
ATOM     75  C   UNL A   1      36.951  31.891  30.648  1.00  0.00     0.135 A 
ATOM     76  F   UNL A   1      37.508  31.136  34.155  1.00  0.00    -0.206 F 
ATOM     77  C   UNL A   1      36.034  32.654  33.153  1.00  0.00     0.059 A 
ATOM     78  C   UNL A   1      35.962  32.869  30.752  1.00  0.00     0.059 A 
ATOM     79  F   UNL A   1      37.389  31.635  29.407  1.00  0.00    -0.206 F 
ATOM     80  C   UNL A   1      35.534  33.273  32.010  1.00  0.00     0.060 A 
BRANCH  80  81
ATOM     81  S   UNL A   1      34.446  34.709  32.175  1.00  0.00     0.124 S 
ATOM     82  O   UNL A   1      34.199  35.064  30.782  1.00  0.00    -0.237 OA
ATOM     83  O   UNL A   1      33.310  34.153  32.902  1.00  0.00    -0.237 OA
ATOM     84  O   UNL A   1      35.256  35.663  32.929  1.00  0.00    -0.744 OA
ENDBRANCH  80  81
ENDBRANCH  48  73
BRANCH  60  85
ATOM     85  C   UNL A   1      43.096  28.991  33.691  1.00  0.00     0.058 A 
ATOM     86  C   UNL A   1      43.378  29.365  35.017  1.00  0.00     0.135 A 
ATOM     87  C   UNL A   1      42.495  27.737  33.495  1.00  0.00     0.135 A 
ATOM     88  F   UNL A   1      43.849  30.585  35.308  1.00  0.00    -0.206 F 
ATOM     89  C   UNL A   1      43.119  28.513  36.092  1.00  0.00     0.059 A 
ATOM     90  C   UNL A   1      42.195  26.887  34.555  1.00  0.00     0.059 A 
ATOM     91  F   UNL A   1      42.142  27.346  32.260  1.00  0.00    -0.206 F 
ATOM     92  C   UNL A   1      42.525  27.275  35.851  1.00  0.00     0.060 A 
BRANCH  92  93
ATOM     93  S   UNL A   1      42.124  26.204  37.247  1.00  0.00     0.124 S 
ATOM     94  O   UNL A   1      42.253  24.875  36.659  1.00  0.00    -0.237 OA
ATOM     95  O   UNL A   1      43.142  26.565  38.229  1.00  0.00    -0.237 OA
ATOM     96  O   UNL A   1      40.763  26.600  37.601  1.00  0.00    -0.744 OA
ENDBRANCH  92  93
ENDBRANCH  60  85
ENDBRANCH  34  35
ENDBRANCH  26  29
ENDBRANCH  24  25
ENDBRANCH   1  24
TORSDOF 15
ENDMDL
MODEL 2
REMARK VINA RESULT:     -12.9      1.711      2.228
REMARK SMILES Cc1oc2c(c1C(=O)NCCCCNC(=O)c1ccc(-c3c4nc(c(-c5c(F)cc(S(=O)(=O)[O-])cc5F)c5ccc([nH]5)c(-c5c(F)cc(S(=O)(=O)[O-])cc5F)c5nc(c(-c6c(F)cc(S(=O)(=O)[O-])cc6F)c6ccc3[nH]6)C=C5)C=C4)cc1)C(=O)C[C@H](c1ccco1)C2
REMARK SMILES IDX 12 1 11 2 10 3 9 4 7 5 8 6 6 8 1 9 2 10 3 11 4 12 5 13 92 14
REMARK SMILES IDX 83 15 86 16 84 17 85 18 87 19 88 20 91 21 89 22 90 23 13 24
REMARK SMILES IDX 14 25 15 26 16 28 17 29 18 30 82 31 19 32 81 33 20 34 21 35
REMARK SMILES IDX 22 36 75 37 23 38 80 39 74 40 76 41 24 42 79 43 73 44 72 45
REMARK SMILES IDX 25 47 59 48 38 49 58 50 39 51 42 52 57 53 77 54 40 55 41 56
REMARK SMILES IDX 56 58 78 59 43 60 26 61 27 62 36 63 28 64 29 65 35 66 37 67
REMARK SMILES IDX 30 68 31 69 32 70 33 71 34 72 60 73 61 74 70 75 62 76 63 77
REMARK SMILES IDX 69 78 71 79 64 80 65 81 66 82 67 83 68 84 44 85 45 86 54 87
REMARK SMILES IDX 46 88 47 89 53 90 55 91 48 92 49 93 50 94 51 95 52 96
REMARK H PARENT 9 7 14 27 76 46 42 57
REMARK Flexibility Score: inf
ROOT
ATOM      1  C   UNL A   1      36.131  23.358  26.176  1.00  0.00     0.023 C 
ENDROOT
BRANCH   1   2
ATOM      2  C   UNL A   1      35.062  24.151  25.409  1.00  0.00     0.023 C 
BRANCH   2   3
ATOM      3  C   UNL A   1      35.236  24.175  23.892  1.00  0.00     0.116 C 
BRANCH   3   4
ATOM      4  N   UNL A   1      34.363  23.270  23.192  1.00  0.00    -0.352 N 
ATOM      5  C   UNL A   1      33.009  23.146  23.020  1.00  0.00     0.255 C 
ATOM      6  O   UNL A   1      32.724  22.330  22.140  1.00  0.00    -0.269 OA
ATOM      7  H   UNL A   1      34.862  22.566  22.720  1.00  0.00     0.163 HD
BRANCH   5   8
ATOM      8  C   UNL A   1      31.942  23.846  23.756  1.00  0.00     0.092 A 
ATOM      9  C   UNL A   1      31.161  22.551  26.003  1.00  0.00     0.088 C 
ATOM     10  C   UNL A   1      31.231  23.574  24.937  1.00  0.00     0.114 A 
ATOM     11  O   UNL A   1      30.346  24.573  25.215  1.00  0.00    -0.465 OA
ATOM     12  C   UNL A   1      30.474  25.501  24.268  1.00  0.00     0.116 A 
ATOM     13  C   UNL A   1      31.413  25.143  23.334  1.00  0.00     0.072 A 
ATOM     14  C   UNL A   1      29.649  26.719  24.363  1.00  0.00     0.088 C 
ATOM     15  C   UNL A   1      31.631  26.064  22.218  1.00  0.00     0.167 C 
ATOM     16  C   UNL A   1      29.652  27.433  22.996  1.00  0.00     0.071 C 
ATOM     17  O   UNL A   1      32.158  25.755  21.154  1.00  0.00    -0.294 OA
ATOM     18  C   UNL A   1      31.083  27.485  22.419  1.00  0.00     0.093 C 
BRANCH  16  19
ATOM     19  C   UNL A   1      29.020  28.788  23.079  1.00  0.00     0.107 A 
ATOM     20  C   UNL A   1      27.737  29.250  22.865  1.00  0.00     0.046 A 
ATOM     21  O   UNL A   1      29.812  29.819  23.496  1.00  0.00    -0.469 OA
ATOM     22  C   UNL A   1      27.753  30.635  23.164  1.00  0.00     0.042 A 
ATOM     23  C   UNL A   1      29.040  30.932  23.543  1.00  0.00     0.195 A 
ENDBRANCH  16  19
ENDBRANCH   5   8
ENDBRANCH   3   4
ENDBRANCH   2   3
ENDBRANCH   1   2
BRANCH   1  24
ATOM     24  C   UNL A   1      37.449  23.158  25.429  1.00  0.00     0.116 C 
BRANCH  24  25
ATOM     25  N   UNL A   1      38.276  22.098  25.998  1.00  0.00    -0.352 N 
ATOM     26  C   UNL A   1      39.552  22.212  26.522  1.00  0.00     0.251 C 
ATOM     27  H   UNL A   1      37.880  21.196  26.010  1.00  0.00     0.163 HD
ATOM     28  O   UNL A   1      40.284  21.239  26.600  1.00  0.00    -0.269 OA
BRANCH  26  29
ATOM     29  C   UNL A   1      40.010  23.536  26.986  1.00  0.00     0.039 A 
ATOM     30  C   UNL A   1      39.267  24.689  26.710  1.00  0.00     0.014 A 
ATOM     31  C   UNL A   1      41.187  23.606  27.730  1.00  0.00     0.014 A 
ATOM     32  C   UNL A   1      39.666  25.899  27.275  1.00  0.00     0.010 A 
ATOM     33  C   UNL A   1      41.526  24.780  28.365  1.00  0.00     0.010 A 
ATOM     34  C   UNL A   1      40.781  25.934  28.126  1.00  0.00    -0.014 A 
BRANCH  34  35
ATOM     35  C   UNL A   1      41.085  27.138  28.897  1.00  0.00     0.031 A 
ATOM     36  C   UNL A   1      42.243  27.931  28.391  1.00  0.00     0.074 A 
ATOM     37  C   UNL A   1      40.253  27.639  29.836  1.00  0.00     0.049 A 
ATOM     38  N   UNL A   1      43.366  28.156  28.989  1.00  0.00    -0.248 NA
ATOM     39  C   UNL A   1      42.209  28.425  27.004  1.00  0.00     0.031 C 
ATOM     40  C   UNL A   1      38.933  27.135  30.229  1.00  0.00     0.029 A 
ATOM     41  N   UNL A   1      40.357  28.790  30.556  1.00  0.00    -0.354 N 
ATOM     42  C   UNL A   1      44.095  29.000  28.154  1.00  0.00     0.074 A 
ATOM     43  C   UNL A   1      43.420  28.975  26.883  1.00  0.00     0.031 C 
ATOM     44  C   UNL A   1      38.273  28.092  30.916  1.00  0.00     0.029 A 
ATOM     45  C   UNL A   1      39.165  29.215  31.140  1.00  0.00     0.049 A 
ATOM     46  H   UNL A   1      41.204  29.282  30.655  1.00  0.00     0.167 HD
ATOM     47  C   UNL A   1      45.068  29.820  28.645  1.00  0.00     0.037 A 
ATOM     48  C   UNL A   1      38.921  30.416  31.725  1.00  0.00     0.037 A 
ATOM     49  C   UNL A   1      45.409  29.456  29.998  1.00  0.00     0.049 A 
ATOM     50  C   UNL A   1      40.244  30.994  32.087  1.00  0.00     0.074 A 
ATOM     51  C   UNL A   1      45.886  28.308  30.603  1.00  0.00     0.029 A 
ATOM     52  N   UNL A   1      44.902  30.234  31.012  1.00  0.00    -0.354 N 
ATOM     53  N   UNL A   1      41.023  30.497  33.009  1.00  0.00    -0.248 NA
ATOM     54  C   UNL A   1      40.905  31.851  31.114  1.00  0.00     0.031 C 
ATOM     55  C   UNL A   1      45.199  28.240  31.848  1.00  0.00     0.029 A 
ATOM     56  C   UNL A   1      44.411  29.386  31.969  1.00  0.00     0.049 A 
ATOM     57  H   UNL A   1      44.893  31.217  31.043  1.00  0.00     0.167 HD
ATOM     58  C   UNL A   1      42.300  30.593  32.478  1.00  0.00     0.074 A 
ATOM     59  C   UNL A   1      42.179  31.528  31.361  1.00  0.00     0.031 C 
ATOM     60  C   UNL A   1      43.270  29.686  32.803  1.00  0.00     0.037 A 
BRANCH  47  61
ATOM     61  C   UNL A   1      45.473  31.159  28.067  1.00  0.00     0.058 A 
ATOM     62  C   UNL A   1      44.497  32.173  27.936  1.00  0.00     0.135 A 
ATOM     63  C   UNL A   1      46.684  31.394  27.382  1.00  0.00     0.135 A 
ATOM     64  F   UNL A   1      43.306  32.062  28.547  1.00  0.00    -0.206 F 
ATOM     65  C   UNL A   1      44.676  33.287  27.115  1.00  0.00     0.059 A 
ATOM     66  C   UNL A   1      46.905  32.526  26.603  1.00  0.00     0.059 A 
ATOM     67  F   UNL A   1      47.675  30.496  27.354  1.00  0.00    -0.206 F 
ATOM     68  C   UNL A   1      45.880  33.444  26.437  1.00  0.00     0.060 A 
BRANCH  68  69
ATOM     69  S   UNL A   1      46.078  34.825  25.298  1.00  0.00     0.124 S 
ATOM     70  O   UNL A   1      47.504  34.751  25.000  1.00  0.00    -0.237 OA
ATOM     71  O   UNL A   1      45.177  34.453  24.212  1.00  0.00    -0.237 OA
ATOM     72  O   UNL A   1      45.656  35.975  26.091  1.00  0.00    -0.744 OA
ENDBRANCH  68  69
ENDBRANCH  47  61
BRANCH  48  73
ATOM     73  C   UNL A   1      37.662  31.213  31.752  1.00  0.00     0.058 A 
ATOM     74  C   UNL A   1      37.001  31.484  32.966  1.00  0.00     0.135 A 
ATOM     75  C   UNL A   1      37.232  31.965  30.639  1.00  0.00     0.135 A 
ATOM     76  F   UNL A   1      37.341  30.823  34.083  1.00  0.00    -0.206 F 
ATOM     77  C   UNL A   1      36.034  32.491  33.086  1.00  0.00     0.059 A 
ATOM     78  C   UNL A   1      36.260  32.962  30.732  1.00  0.00     0.059 A 
ATOM     79  F   UNL A   1      37.812  31.828  29.439  1.00  0.00    -0.206 F 
ATOM     80  C   UNL A   1      35.691  33.245  31.967  1.00  0.00     0.060 A 
BRANCH  80  81
ATOM     81  S   UNL A   1      34.623  34.693  32.158  1.00  0.00     0.124 S 
ATOM     82  O   UNL A   1      34.347  35.050  30.770  1.00  0.00    -0.237 OA
ATOM     83  O   UNL A   1      33.499  34.150  32.912  1.00  0.00    -0.237 OA
ATOM     84  O   UNL A   1      35.462  35.637  32.891  1.00  0.00    -0.744 OA
ENDBRANCH  80  81
ENDBRANCH  48  73
BRANCH  60  85
ATOM     85  C   UNL A   1      43.037  28.771  33.977  1.00  0.00     0.058 A 
ATOM     86  C   UNL A   1      43.258  29.118  35.322  1.00  0.00     0.135 A 
ATOM     87  C   UNL A   1      42.405  27.541  33.731  1.00  0.00     0.135 A 
ATOM     88  F   UNL A   1      43.753  30.317  35.656  1.00  0.00    -0.206 F 
ATOM     89  C   UNL A   1      42.912  28.262  36.369  1.00  0.00     0.059 A 
ATOM     90  C   UNL A   1      42.019  26.688  34.760  1.00  0.00     0.059 A 
ATOM     91  F   UNL A   1      42.106  27.178  32.473  1.00  0.00    -0.206 F 
ATOM     92  C   UNL A   1      42.291  27.048  36.078  1.00  0.00     0.060 A 
BRANCH  92  93
ATOM     93  S   UNL A   1      41.779  25.973  37.434  1.00  0.00     0.124 S 
ATOM     94  O   UNL A   1      41.781  24.660  36.800  1.00  0.00    -0.237 OA
ATOM     95  O   UNL A   1      42.821  26.198  38.431  1.00  0.00    -0.237 OA
ATOM     96  O   UNL A   1      40.461  26.489  37.799  1.00  0.00    -0.744 OA
ENDBRANCH  92  93
ENDBRANCH  60  85
ENDBRANCH  34  35
ENDBRANCH  26  29
ENDBRANCH  24  25
ENDBRANCH   1  24
TORSDOF 15
ENDMDL
MODEL 3
REMARK VINA RESULT:     -12.9      2.754      9.160
REMARK SMILES Cc1oc2c(c1C(=O)NCCCCNC(=O)c1ccc(-c3c4nc(c(-c5c(F)cc(S(=O)(=O)[O-])cc5F)c5ccc([nH]5)c(-c5c(F)cc(S(=O)(=O)[O-])cc5F)c5nc(c(-c6c(F)cc(S(=O)(=O)[O-])cc6F)c6ccc3[nH]6)C=C5)C=C4)cc1)C(=O)C[C@H](c1ccco1)C2
REMARK SMILES IDX 12 1 11 2 10 3 9 4 7 5 8 6 6 8 1 9 2 10 3 11 4 12 5 13 92 14
REMARK SMILES IDX 83 15 86 16 84 17 85 18 87 19 88 20 91 21 89 22 90 23 13 24
REMARK SMILES IDX 14 25 15 26 16 28 17 29 18 30 82 31 19 32 81 33 20 34 21 35
REMARK SMILES IDX 22 36 75 37 23 38 80 39 74 40 76 41 24 42 79 43 73 44 72 45
REMARK SMILES IDX 25 47 59 48 38 49 58 50 39 51 42 52 57 53 77 54 40 55 41 56
REMARK SMILES IDX 56 58 78 59 43 60 26 61 27 62 36 63 28 64 29 65 35 66 37 67
REMARK SMILES IDX 30 68 31 69 32 70 33 71 34 72 60 73 61 74 70 75 62 76 63 77
REMARK SMILES IDX 69 78 71 79 64 80 65 81 66 82 67 83 68 84 44 85 45 86 54 87
REMARK SMILES IDX 46 88 47 89 53 90 55 91 48 92 49 93 50 94 51 95 52 96
REMARK H PARENT 9 7 14 27 76 46 42 57
REMARK Flexibility Score: inf
ROOT
ATOM      1  C   UNL A   1      32.115  28.685  27.571  1.00  0.00     0.023 C 
ENDROOT
BRANCH   1   2
ATOM      2  C   UNL A   1      31.489  27.594  26.690  1.00  0.00     0.023 C 
BRANCH   2   3
ATOM      3  C   UNL A   1      31.544  27.861  25.188  1.00  0.00     0.116 C 
BRANCH   3   4
ATOM      4  N   UNL A   1      30.938  26.826  24.391  1.00  0.00    -0.352 N 
ATOM      5  C   UNL A   1      30.856  25.459  24.452  1.00  0.00     0.255 C 
ATOM      6  O   UNL A   1      30.030  25.006  23.656  1.00  0.00    -0.269 OA
ATOM      7  H   UNL A   1      30.466  27.190  23.609  1.00  0.00     0.163 HD
BRANCH   5   8
ATOM      8  C   UNL A   1      31.626  24.551  25.319  1.00  0.00     0.092 A 
ATOM      9  C   UNL A   1      30.074  23.096  26.995  1.00  0.00     0.088 C 
ATOM     10  C   UNL A   1      31.277  23.629  26.320  1.00  0.00     0.114 A 
ATOM     11  O   UNL A   1      32.384  23.001  26.812  1.00  0.00    -0.465 OA
ATOM     12  C   UNL A   1      33.440  23.462  26.146  1.00  0.00     0.116 A 
ATOM     13  C   UNL A   1      33.080  24.414  25.225  1.00  0.00     0.072 A 
ATOM     14  C   UNL A   1      34.768  22.905  26.462  1.00  0.00     0.088 C 
ATOM     15  C   UNL A   1      34.153  25.027  24.443  1.00  0.00     0.167 C 
ATOM     16  C   UNL A   1      35.852  23.845  25.895  1.00  0.00     0.071 C 
ATOM     17  O   UNL A   1      34.057  26.096  23.848  1.00  0.00    -0.294 OA
ATOM     18  C   UNL A   1      35.493  24.276  24.457  1.00  0.00     0.093 C 
BRANCH  16  19
ATOM     19  C   UNL A   1      37.215  23.231  25.984  1.00  0.00     0.107 A 
ATOM     20  C   UNL A   1      38.431  23.686  26.453  1.00  0.00     0.046 A 
ATOM     21  O   UNL A   1      37.341  21.933  25.578  1.00  0.00    -0.469 OA
ATOM     22  C   UNL A   1      39.342  22.610  26.320  1.00  0.00     0.042 A 
ATOM     23  C   UNL A   1      38.629  21.566  25.783  1.00  0.00     0.195 A 
ENDBRANCH  16  19
ENDBRANCH   5   8
ENDBRANCH   3   4
ENDBRANCH   2   3
ENDBRANCH   1   2
BRANCH   1  24
ATOM     24  C   UNL A   1      33.528  29.108  27.172  1.00  0.00     0.116 C 
BRANCH  24  25
ATOM     25  N   UNL A   1      33.666  30.550  26.987  1.00  0.00    -0.352 N 
ATOM     26  C   UNL A   1      34.571  31.397  27.603  1.00  0.00     0.251 C 
ATOM     27  H   UNL A   1      33.042  30.968  26.350  1.00  0.00     0.163 HD
ATOM     28  O   UNL A   1      34.350  32.595  27.681  1.00  0.00    -0.269 OA
BRANCH  26  29
ATOM     29  C   UNL A   1      35.809  30.822  28.163  1.00  0.00     0.039 A 
ATOM     30  C   UNL A   1      36.062  29.449  28.084  1.00  0.00     0.014 A 
ATOM     31  C   UNL A   1      36.734  31.686  28.748  1.00  0.00     0.014 A 
ATOM     32  C   UNL A   1      37.298  28.966  28.509  1.00  0.00     0.010 A 
ATOM     33  C   UNL A   1      37.988  31.223  29.078  1.00  0.00     0.010 A 
ATOM     34  C   UNL A   1      38.270  29.862  28.978  1.00  0.00    -0.014 A 
BRANCH  34  35
ATOM     35  C   UNL A   1      39.638  29.408  29.221  1.00  0.00     0.031 A 
ATOM     36  C   UNL A   1      40.007  29.267  30.660  1.00  0.00     0.074 A 
ATOM     37  C   UNL A   1      40.433  28.918  28.246  1.00  0.00     0.049 A 
ATOM     38  N   UNL A   1      40.897  29.936  31.315  1.00  0.00    -0.248 NA
ATOM     39  C   UNL A   1      39.204  28.371  31.510  1.00  0.00     0.031 C 
ATOM     40  C   UNL A   1      40.100  28.712  26.833  1.00  0.00     0.029 A 
ATOM     41  N   UNL A   1      41.679  28.374  28.339  1.00  0.00    -0.354 N 
ATOM     42  C   UNL A   1      40.924  29.399  32.601  1.00  0.00     0.074 A 
ATOM     43  C   UNL A   1      39.746  28.581  32.712  1.00  0.00     0.031 C 
ATOM     44  C   UNL A   1      41.007  27.882  26.274  1.00  0.00     0.029 A 
ATOM     45  C   UNL A   1      42.060  27.613  27.236  1.00  0.00     0.049 A 
ATOM     46  H   UNL A   1      42.262  28.510  29.121  1.00  0.00     0.167 HD
ATOM     47  C   UNL A   1      42.033  29.501  33.390  1.00  0.00     0.037 A 
ATOM     48  C   UNL A   1      43.137  26.792  27.139  1.00  0.00     0.037 A 
ATOM     49  C   UNL A   1      42.965  30.456  32.844  1.00  0.00     0.049 A 
ATOM     50  C   UNL A   1      44.099  27.220  28.192  1.00  0.00     0.074 A 
ATOM     51  C   UNL A   1      42.902  31.801  32.530  1.00  0.00     0.029 A 
ATOM     52  N   UNL A   1      44.062  29.964  32.178  1.00  0.00    -0.354 N 
ATOM     53  N   UNL A   1      44.735  28.359  28.169  1.00  0.00    -0.248 NA
ATOM     54  C   UNL A   1      44.010  26.585  29.499  1.00  0.00     0.031 C 
ATOM     55  C   UNL A   1      43.647  31.929  31.324  1.00  0.00     0.029 A 
ATOM     56  C   UNL A   1      44.189  30.680  31.017  1.00  0.00     0.049 A 
ATOM     57  H   UNL A   1      44.648  29.233  32.481  1.00  0.00     0.167 HD
ATOM     58  C   UNL A   1      44.717  28.797  29.485  1.00  0.00     0.074 A 
ATOM     59  C   UNL A   1      44.353  27.620  30.273  1.00  0.00     0.031 C 
ATOM     60  C   UNL A   1      44.706  30.130  29.784  1.00  0.00     0.037 A 
BRANCH  47  61
ATOM     61  C   UNL A   1      42.459  28.508  34.450  1.00  0.00     0.058 A 
ATOM     62  C   UNL A   1      42.546  28.935  35.795  1.00  0.00     0.135 A 
ATOM     63  C   UNL A   1      43.052  27.258  34.174  1.00  0.00     0.135 A 
ATOM     64  F   UNL A   1      42.014  30.107  36.178  1.00  0.00    -0.206 F 
ATOM     65  C   UNL A   1      43.248  28.221  36.766  1.00  0.00     0.059 A 
ATOM     66  C   UNL A   1      43.709  26.502  35.141  1.00  0.00     0.059 A 
ATOM     67  F   UNL A   1      43.111  26.753  32.936  1.00  0.00    -0.206 F 
ATOM     68  C   UNL A   1      43.842  27.011  36.422  1.00  0.00     0.060 A 
BRANCH  68  69
ATOM     69  S   UNL A   1      44.833  26.136  37.645  1.00  0.00     0.124 S 
ATOM     70  O   UNL A   1      46.167  26.239  37.063  1.00  0.00    -0.237 OA
ATOM     71  O   UNL A   1      44.598  26.927  38.848  1.00  0.00    -0.237 OA
ATOM     72  O   UNL A   1      44.249  24.799  37.655  1.00  0.00    -0.744 OA
ENDBRANCH  68  69
ENDBRANCH  47  61
BRANCH  48  73
ATOM     73  C   UNL A   1      43.282  25.510  26.393  1.00  0.00     0.058 A 
ATOM     74  C   UNL A   1      44.252  25.364  25.382  1.00  0.00     0.135 A 
ATOM     75  C   UNL A   1      42.677  24.316  26.838  1.00  0.00     0.135 A 
ATOM     76  F   UNL A   1      44.888  26.440  24.895  1.00  0.00    -0.206 F 
ATOM     77  C   UNL A   1      44.654  24.110  24.902  1.00  0.00     0.059 A 
ATOM     78  C   UNL A   1      43.049  23.058  26.363  1.00  0.00     0.059 A 
ATOM     79  F   UNL A   1      41.769  24.320  27.824  1.00  0.00    -0.206 F 
ATOM     80  C   UNL A   1      44.065  22.960  25.422  1.00  0.00     0.060 A 
BRANCH  80  81
ATOM     81  S   UNL A   1      44.736  21.338  24.982  1.00  0.00     0.124 S 
ATOM     82  O   UNL A   1      44.647  21.357  23.527  1.00  0.00    -0.237 OA
ATOM     83  O   UNL A   1      46.082  21.399  25.540  1.00  0.00    -0.237 OA
ATOM     84  O   UNL A   1      43.831  20.406  25.651  1.00  0.00    -0.744 OA
ENDBRANCH  80  81
ENDBRANCH  48  73
BRANCH  60  85
ATOM     85  C   UNL A   1      45.031  31.117  28.694  1.00  0.00     0.058 A 
ATOM     86  C   UNL A   1      44.136  31.529  27.690  1.00  0.00     0.135 A 
ATOM     87  C   UNL A   1      46.257  31.797  28.773  1.00  0.00     0.135 A 
ATOM     88  F   UNL A   1      42.902  31.014  27.609  1.00  0.00    -0.206 F 
ATOM     89  C   UNL A   1      44.464  32.534  26.778  1.00  0.00     0.059 A 
ATOM     90  C   UNL A   1      46.591  32.827  27.898  1.00  0.00     0.059 A 
ATOM     91  F   UNL A   1      47.132  31.498  29.748  1.00  0.00    -0.206 F 
ATOM     92  C   UNL A   1      45.695  33.179  26.891  1.00  0.00     0.060 A 
BRANCH  92  93
ATOM     93  S   UNL A   1      46.090  34.526  25.758  1.00  0.00     0.124 S 
ATOM     94  O   UNL A   1      45.754  35.702  26.553  1.00  0.00    -0.237 OA
ATOM     95  O   UNL A   1      47.511  34.320  25.499  1.00  0.00    -0.237 OA
ATOM     96  O   UNL A   1      45.215  34.277  24.614  1.00  0.00    -0.744 OA
ENDBRANCH  92  93
ENDBRANCH  60  85
ENDBRANCH  34  35
ENDBRANCH  26  29
ENDBRANCH  24  25
ENDBRANCH   1  24
TORSDOF 15
ENDMDL
