MODEL 1
REMARK VINA RESULT:     -10.6      0.000      0.000
REMARK SMILES COCc1cc(OCC(=O)NCCCCNC(=O)c2ccc(-c3c4nc(c(-c5c(F)cc(S(=O)(=O)[O-])cc5F)c5ccc([nH]5)c(-c5c(F)cc(S(=O)(=O)[O-])cc5F)c5nc(c(-c6c(F)cc(S(=O)(=O)[O-])cc6F)c6ccc3[nH]6)C=C5)C=C4)cc2)nc(Nc2cccc(C)c2C)n1
REMARK SMILES IDX 13 1 12 2 11 3 9 4 10 5 8 7 7 8 6 9 4 10 5 11 96 12 86 13
REMARK SMILES IDX 85 14 3 15 2 16 1 17 87 18 88 20 89 21 94 22 90 23 92 24
REMARK SMILES IDX 95 25 91 26 93 27 14 28 15 29 16 30 17 31 18 33 19 34 20 35
REMARK SMILES IDX 84 36 21 37 83 38 22 39 23 40 24 41 77 42 25 43 82 44 76 45
REMARK SMILES IDX 78 46 26 47 81 48 75 49 74 50 27 52 61 53 40 54 60 55 41 56
REMARK SMILES IDX 44 57 59 58 79 59 42 60 43 61 58 63 80 64 45 65 28 66 29 67
REMARK SMILES IDX 38 68 30 69 31 70 37 71 39 72 32 73 33 74 34 75 35 76 36 77
REMARK SMILES IDX 62 78 63 79 72 80 64 81 65 82 71 83 73 84 66 85 67 86 68 87
REMARK SMILES IDX 69 88 70 89 46 90 47 91 56 92 48 93 49 94 55 95 57 96 50 97
REMARK SMILES IDX 51 98 52 99 53 100 54 101
REMARK H PARENT 11 6 87 19 16 32 78 51 44 62
REMARK Flexibility Score: inf
ROOT
ATOM      1  C   UNL A   1      33.171  26.402  25.662  1.00  0.00     0.023 C 
ENDROOT
BRANCH   1   2
ATOM      2  C   UNL A   1      31.687  26.354  26.018  1.00  0.00     0.116 C 
BRANCH   2   3
ATOM      3  N   UNL A   1      31.359  25.265  26.916  1.00  0.00    -0.353 N 
ATOM      4  C   UNL A   1      30.931  24.010  26.596  1.00  0.00     0.258 C 
ATOM      5  O   UNL A   1      30.758  23.186  27.496  1.00  0.00    -0.271 OA
ATOM      6  H   UNL A   1      31.458  25.454  27.878  1.00  0.00     0.163 HD
BRANCH   4   7
ATOM      7  C   UNL A   1      30.708  23.638  25.127  1.00  0.00     0.331 C 
BRANCH   7   8
ATOM      8  O   UNL A   1      31.875  23.481  24.341  1.00  0.00    -0.467 OA
BRANCH   8   9
ATOM      9  C   UNL A   1      32.694  22.421  24.606  1.00  0.00     0.218 A 
ATOM     10  C   UNL A   1      33.263  20.272  25.336  1.00  0.00     0.076 A 
ATOM     11  C   UNL A   1      32.279  21.200  25.082  1.00  0.00     0.095 A 
ATOM     12  N   UNL A   1      34.554  20.521  25.052  1.00  0.00    -0.215 NA
ATOM     13  C   UNL A   1      34.872  21.713  24.529  1.00  0.00     0.230 A 
ATOM     14  N   UNL A   1      33.982  22.694  24.337  1.00  0.00    -0.177 NA
BRANCH  10  15
ATOM     15  C   UNL A   1      32.946  18.914  25.919  1.00  0.00     0.216 C 
BRANCH  15  16
ATOM     16  O   UNL A   1      32.117  18.098  25.082  1.00  0.00    -0.378 OA
ATOM     17  C   UNL A   1      32.436  16.714  25.154  1.00  0.00     0.195 C 
ENDBRANCH  15  16
ENDBRANCH  10  15
BRANCH  13  18
ATOM     18  N   UNL A   1      36.187  21.979  24.162  1.00  0.00    -0.324 N 
ATOM     19  H   UNL A   1      36.391  21.873  23.205  1.00  0.00     0.170 HD
BRANCH  18  20
ATOM     20  C   UNL A   1      37.262  22.375  24.970  1.00  0.00     0.044 A 
ATOM     21  C   UNL A   1      37.318  23.722  25.363  1.00  0.00     0.026 A 
ATOM     22  C   UNL A   1      38.260  21.479  25.427  1.00  0.00    -0.025 A 
ATOM     23  C   UNL A   1      38.296  24.172  26.246  1.00  0.00     0.002 A 
ATOM     24  C   UNL A   1      39.225  21.929  26.363  1.00  0.00    -0.046 A 
ATOM     25  C   UNL A   1      38.321  20.057  24.919  1.00  0.00     0.047 C 
ATOM     26  C   UNL A   1      39.231  23.277  26.755  1.00  0.00     0.004 A 
ATOM     27  C   UNL A   1      40.272  21.029  26.966  1.00  0.00     0.044 C 
ENDBRANCH  18  20
ENDBRANCH  13  18
ENDBRANCH   8   9
ENDBRANCH   7   8
ENDBRANCH   4   7
ENDBRANCH   2   3
ENDBRANCH   1   2
BRANCH   1  28
ATOM     28  C   UNL A   1      33.705  27.783  25.272  1.00  0.00     0.023 C 
BRANCH  28  29
ATOM     29  C   UNL A   1      34.456  28.535  26.367  1.00  0.00     0.116 C 
BRANCH  29  30
ATOM     30  N   UNL A   1      33.951  29.880  26.593  1.00  0.00    -0.352 N 
ATOM     31  C   UNL A   1      34.420  30.838  27.460  1.00  0.00     0.251 C 
ATOM     32  H   UNL A   1      33.169  30.140  26.053  1.00  0.00     0.163 HD
ATOM     33  O   UNL A   1      33.817  31.899  27.596  1.00  0.00    -0.269 OA
BRANCH  31  34
ATOM     34  C   UNL A   1      35.634  30.562  28.258  1.00  0.00     0.039 A 
ATOM     35  C   UNL A   1      35.548  29.679  29.338  1.00  0.00     0.014 A 
ATOM     36  C   UNL A   1      36.859  31.140  27.913  1.00  0.00     0.014 A 
ATOM     37  C   UNL A   1      36.708  29.312  30.026  1.00  0.00     0.010 A 
ATOM     38  C   UNL A   1      38.019  30.728  28.560  1.00  0.00     0.010 A 
ATOM     39  C   UNL A   1      37.957  29.803  29.616  1.00  0.00    -0.014 A 
BRANCH  39  40
ATOM     40  C   UNL A   1      39.222  29.373  30.264  1.00  0.00     0.031 A 
ATOM     41  C   UNL A   1      39.737  30.126  31.459  1.00  0.00     0.074 A 
ATOM     42  C   UNL A   1      39.956  28.383  29.718  1.00  0.00     0.049 A 
ATOM     43  N   UNL A   1      40.896  30.035  32.056  1.00  0.00    -0.248 NA
ATOM     44  C   UNL A   1      38.837  31.136  32.038  1.00  0.00     0.031 C 
ATOM     45  C   UNL A   1      39.578  27.596  28.542  1.00  0.00     0.029 A 
ATOM     46  N   UNL A   1      41.188  27.887  30.065  1.00  0.00    -0.354 N 
ATOM     47  C   UNL A   1      40.879  30.996  33.060  1.00  0.00     0.074 A 
ATOM     48  C   UNL A   1      39.607  31.680  32.970  1.00  0.00     0.031 C 
ATOM     49  C   UNL A   1      40.555  26.716  28.269  1.00  0.00     0.029 A 
ATOM     50  C   UNL A   1      41.648  26.905  29.218  1.00  0.00     0.049 A 
ATOM     51  H   UNL A   1      41.696  28.205  30.847  1.00  0.00     0.167 HD
ATOM     52  C   UNL A   1      41.833  31.274  33.979  1.00  0.00     0.037 A 
ATOM     53  C   UNL A   1      42.823  26.247  29.196  1.00  0.00     0.037 A 
ATOM     54  C   UNL A   1      43.081  30.566  34.087  1.00  0.00     0.049 A 
ATOM     55  C   UNL A   1      43.866  26.566  30.234  1.00  0.00     0.074 A 
ATOM     56  C   UNL A   1      44.091  30.739  35.015  1.00  0.00     0.029 A 
ATOM     57  N   UNL A   1      43.484  29.544  33.240  1.00  0.00    -0.354 N 
ATOM     58  N   UNL A   1      43.820  27.454  31.197  1.00  0.00    -0.248 NA
ATOM     59  C   UNL A   1      45.117  25.796  30.185  1.00  0.00     0.031 C 
ATOM     60  C   UNL A   1      45.120  29.841  34.713  1.00  0.00     0.029 A 
ATOM     61  C   UNL A   1      44.732  29.081  33.621  1.00  0.00     0.049 A 
ATOM     62  H   UNL A   1      42.961  29.198  32.482  1.00  0.00     0.167 HD
ATOM     63  C   UNL A   1      45.019  27.327  31.889  1.00  0.00     0.074 A 
ATOM     64  C   UNL A   1      45.772  26.279  31.233  1.00  0.00     0.031 C 
ATOM     65  C   UNL A   1      45.453  28.015  32.973  1.00  0.00     0.037 A 
BRANCH  52  66
ATOM     66  C   UNL A   1      41.563  32.395  34.943  1.00  0.00     0.058 A 
ATOM     67  C   UNL A   1      42.023  33.699  34.703  1.00  0.00     0.135 A 
ATOM     68  C   UNL A   1      40.815  32.168  36.110  1.00  0.00     0.135 A 
ATOM     69  F   UNL A   1      42.756  33.967  33.610  1.00  0.00    -0.206 F 
ATOM     70  C   UNL A   1      41.781  34.733  35.601  1.00  0.00     0.059 A 
ATOM     71  C   UNL A   1      40.538  33.193  37.010  1.00  0.00     0.059 A 
ATOM     72  F   UNL A   1      40.350  30.940  36.388  1.00  0.00    -0.206 F 
ATOM     73  C   UNL A   1      41.040  34.469  36.755  1.00  0.00     0.060 A 
BRANCH  73  74
ATOM     74  S   UNL A   1      40.740  35.817  37.917  1.00  0.00     0.124 S 
ATOM     75  O   UNL A   1      39.865  36.684  37.134  1.00  0.00    -0.237 OA
ATOM     76  O   UNL A   1      40.109  35.129  39.040  1.00  0.00    -0.237 OA
ATOM     77  O   UNL A   1      42.076  36.343  38.179  1.00  0.00    -0.744 OA
ENDBRANCH  73  74
ENDBRANCH  52  66
BRANCH  53  78
ATOM     78  C   UNL A   1      43.072  25.209  28.161  1.00  0.00     0.058 A 
ATOM     79  C   UNL A   1      43.551  25.561  26.891  1.00  0.00     0.135 A 
ATOM     80  C   UNL A   1      42.861  23.847  28.426  1.00  0.00     0.135 A 
ATOM     81  F   UNL A   1      43.762  26.852  26.588  1.00  0.00    -0.206 F 
ATOM     82  C   UNL A   1      43.799  24.603  25.913  1.00  0.00     0.059 A 
ATOM     83  C   UNL A   1      43.122  22.869  27.473  1.00  0.00     0.059 A 
ATOM     84  F   UNL A   1      42.420  23.457  29.632  1.00  0.00    -0.206 F 
ATOM     85  C   UNL A   1      43.584  23.257  26.216  1.00  0.00     0.060 A 
BRANCH  85  86
ATOM     86  S   UNL A   1      43.962  22.016  24.958  1.00  0.00     0.124 S 
ATOM     87  O   UNL A   1      45.378  21.770  25.206  1.00  0.00    -0.237 OA
ATOM     88  O   UNL A   1      43.053  20.930  25.314  1.00  0.00    -0.237 OA
ATOM     89  O   UNL A   1      43.647  22.701  23.708  1.00  0.00    -0.744 OA
ENDBRANCH  85  86
ENDBRANCH  53  78
BRANCH  65  90
ATOM     90  C   UNL A   1      46.779  27.629  33.564  1.00  0.00     0.058 A 
ATOM     91  C   UNL A   1      47.966  28.280  33.202  1.00  0.00     0.135 A 
ATOM     92  C   UNL A   1      46.841  26.663  34.583  1.00  0.00     0.135 A 
ATOM     93  F   UNL A   1      47.960  29.204  32.228  1.00  0.00    -0.206 F 
ATOM     94  C   UNL A   1      49.172  27.991  33.832  1.00  0.00     0.059 A 
ATOM     95  C   UNL A   1      48.031  26.373  35.241  1.00  0.00     0.059 A 
ATOM     96  F   UNL A   1      45.729  26.017  34.968  1.00  0.00    -0.206 F 
ATOM     97  C   UNL A   1      49.193  27.043  34.857  1.00  0.00     0.060 A 
BRANCH  97  98
ATOM     98  S   UNL A   1      50.746  26.736  35.726  1.00  0.00     0.124 S 
ATOM     99  O   UNL A   1      50.474  27.324  37.033  1.00  0.00    -0.237 OA
ATOM    100  O   UNL A   1      50.841  25.280  35.693  1.00  0.00    -0.237 OA
ATOM    101  O   UNL A   1      51.734  27.439  34.913  1.00  0.00    -0.744 OA
ENDBRANCH  97  98
ENDBRANCH  65  90
ENDBRANCH  39  40
ENDBRANCH  31  34
ENDBRANCH  29  30
ENDBRANCH  28  29
ENDBRANCH   1  28
TORSDOF 20
ENDMDL
MODEL 2
REMARK VINA RESULT:     -10.6      3.190      8.842
REMARK SMILES COCc1cc(OCC(=O)NCCCCNC(=O)c2ccc(-c3c4nc(c(-c5c(F)cc(S(=O)(=O)[O-])cc5F)c5ccc([nH]5)c(-c5c(F)cc(S(=O)(=O)[O-])cc5F)c5nc(c(-c6c(F)cc(S(=O)(=O)[O-])cc6F)c6ccc3[nH]6)C=C5)C=C4)cc2)nc(Nc2cccc(C)c2C)n1
REMARK SMILES IDX 13 1 12 2 11 3 9 4 10 5 8 7 7 8 6 9 4 10 5 11 96 12 86 13
REMARK SMILES IDX 85 14 3 15 2 16 1 17 87 18 88 20 89 21 94 22 90 23 92 24
REMARK SMILES IDX 95 25 91 26 93 27 14 28 15 29 16 30 17 31 18 33 19 34 20 35
REMARK SMILES IDX 84 36 21 37 83 38 22 39 23 40 24 41 77 42 25 43 82 44 76 45
REMARK SMILES IDX 78 46 26 47 81 48 75 49 74 50 27 52 61 53 40 54 60 55 41 56
REMARK SMILES IDX 44 57 59 58 79 59 42 60 43 61 58 63 80 64 45 65 28 66 29 67
REMARK SMILES IDX 38 68 30 69 31 70 37 71 39 72 32 73 33 74 34 75 35 76 36 77
REMARK SMILES IDX 62 78 63 79 72 80 64 81 65 82 71 83 73 84 66 85 67 86 68 87
REMARK SMILES IDX 69 88 70 89 46 90 47 91 56 92 48 93 49 94 55 95 57 96 50 97
REMARK SMILES IDX 51 98 52 99 53 100 54 101
REMARK H PARENT 11 6 87 19 16 32 78 51 44 62
REMARK Flexibility Score: inf
ROOT
ATOM      1  C   UNL A   1      41.391  21.866  27.775  1.00  0.00     0.023 C 
ENDROOT
BRANCH   1   2
ATOM      2  C   UNL A   1      40.166  21.692  26.879  1.00  0.00     0.116 C 
BRANCH   2   3
ATOM      3  N   UNL A   1      39.359  22.892  26.791  1.00  0.00    -0.353 N 
ATOM      4  C   UNL A   1      38.189  23.071  26.112  1.00  0.00     0.258 C 
ATOM      5  O   UNL A   1      37.603  24.151  26.199  1.00  0.00    -0.271 OA
ATOM      6  H   UNL A   1      39.697  23.676  27.281  1.00  0.00     0.163 HD
BRANCH   4   7
ATOM      7  C   UNL A   1      37.610  21.919  25.286  1.00  0.00     0.331 C 
BRANCH   7   8
ATOM      8  O   UNL A   1      36.725  22.285  24.242  1.00  0.00    -0.467 OA
BRANCH   8   9
ATOM      9  C   UNL A   1      35.413  21.926  24.354  1.00  0.00     0.218 A 
ATOM     10  C   UNL A   1      33.595  20.559  24.904  1.00  0.00     0.076 A 
ATOM     11  C   UNL A   1      34.956  20.767  24.934  1.00  0.00     0.095 A 
ATOM     12  N   UNL A   1      32.753  21.483  24.408  1.00  0.00    -0.215 NA
ATOM     13  C   UNL A   1      33.272  22.618  23.918  1.00  0.00     0.230 A 
ATOM     14  N   UNL A   1      34.587  22.850  23.833  1.00  0.00    -0.177 NA
BRANCH  10  15
ATOM     15  C   UNL A   1      32.970  19.297  25.453  1.00  0.00     0.216 C 
BRANCH  15  16
ATOM     16  O   UNL A   1      32.190  18.567  24.498  1.00  0.00    -0.378 OA
ATOM     17  C   UNL A   1      32.934  17.568  23.813  1.00  0.00     0.195 C 
ENDBRANCH  15  16
ENDBRANCH  10  15
BRANCH  13  18
ATOM     18  N   UNL A   1      32.427  23.622  23.457  1.00  0.00    -0.324 N 
ATOM     19  H   UNL A   1      32.016  23.461  22.577  1.00  0.00     0.170 HD
BRANCH  18  20
ATOM     20  C   UNL A   1      32.081  24.832  24.075  1.00  0.00     0.044 A 
ATOM     21  C   UNL A   1      31.106  24.791  25.085  1.00  0.00     0.026 A 
ATOM     22  C   UNL A   1      32.688  26.071  23.751  1.00  0.00    -0.025 A 
ATOM     23  C   UNL A   1      30.781  25.930  25.816  1.00  0.00     0.002 A 
ATOM     24  C   UNL A   1      32.390  27.218  24.528  1.00  0.00    -0.046 A 
ATOM     25  C   UNL A   1      33.635  26.188  22.579  1.00  0.00     0.047 C 
ATOM     26  C   UNL A   1      31.431  27.130  25.549  1.00  0.00     0.004 A 
ATOM     27  C   UNL A   1      33.047  28.556  24.309  1.00  0.00     0.044 C 
ENDBRANCH  18  20
ENDBRANCH  13  18
ENDBRANCH   8   9
ENDBRANCH   7   8
ENDBRANCH   4   7
ENDBRANCH   2   3
ENDBRANCH   1   2
BRANCH   1  28
ATOM     28  C   UNL A   1      42.707  22.132  27.038  1.00  0.00     0.023 C 
BRANCH  28  29
ATOM     29  C   UNL A   1      43.165  23.586  27.006  1.00  0.00     0.116 C 
BRANCH  29  30
ATOM     30  N   UNL A   1      42.544  24.364  25.945  1.00  0.00    -0.352 N 
ATOM     31  C   UNL A   1      41.859  25.552  26.041  1.00  0.00     0.251 C 
ATOM     32  H   UNL A   1      42.626  23.991  25.037  1.00  0.00     0.163 HD
ATOM     33  O   UNL A   1      41.313  26.033  25.051  1.00  0.00    -0.269 OA
BRANCH  31  34
ATOM     34  C   UNL A   1      41.749  26.222  27.354  1.00  0.00     0.039 A 
ATOM     35  C   UNL A   1      42.621  27.272  27.653  1.00  0.00     0.014 A 
ATOM     36  C   UNL A   1      40.760  25.841  28.266  1.00  0.00     0.014 A 
ATOM     37  C   UNL A   1      42.452  27.996  28.836  1.00  0.00     0.010 A 
ATOM     38  C   UNL A   1      40.557  26.600  29.414  1.00  0.00     0.010 A 
ATOM     39  C   UNL A   1      41.393  27.690  29.706  1.00  0.00    -0.014 A 
BRANCH  39  40
ATOM     40  C   UNL A   1      41.127  28.487  30.930  1.00  0.00     0.031 A 
ATOM     41  C   UNL A   1      40.024  29.507  30.927  1.00  0.00     0.074 A 
ATOM     42  C   UNL A   1      41.940  28.371  32.000  1.00  0.00     0.049 A 
ATOM     43  N   UNL A   1      39.745  30.426  31.814  1.00  0.00    -0.248 NA
ATOM     44  C   UNL A   1      39.136  29.513  29.753  1.00  0.00     0.031 C 
ATOM     45  C   UNL A   1      43.062  27.437  32.114  1.00  0.00     0.029 A 
ATOM     46  N   UNL A   1      41.964  29.062  33.185  1.00  0.00    -0.354 N 
ATOM     47  C   UNL A   1      38.672  31.140  31.293  1.00  0.00     0.074 A 
ATOM     48  C   UNL A   1      38.371  30.567  29.999  1.00  0.00     0.031 C 
ATOM     49  C   UNL A   1      43.661  27.612  33.303  1.00  0.00     0.029 A 
ATOM     50  C   UNL A   1      42.998  28.698  34.017  1.00  0.00     0.049 A 
ATOM     51  H   UNL A   1      41.302  29.754  33.419  1.00  0.00     0.167 HD
ATOM     52  C   UNL A   1      37.993  32.170  31.850  1.00  0.00     0.037 A 
ATOM     53  C   UNL A   1      43.380  29.198  35.208  1.00  0.00     0.037 A 
ATOM     54  C   UNL A   1      38.273  32.711  33.154  1.00  0.00     0.049 A 
ATOM     55  C   UNL A   1      42.604  30.337  35.813  1.00  0.00     0.074 A 
ATOM     56  C   UNL A   1      37.611  33.721  33.827  1.00  0.00     0.029 A 
ATOM     57  N   UNL A   1      39.297  32.279  33.984  1.00  0.00    -0.354 N 
ATOM     58  N   UNL A   1      41.570  30.978  35.323  1.00  0.00    -0.248 NA
ATOM     59  C   UNL A   1      43.042  30.821  37.130  1.00  0.00     0.031 C 
ATOM     60  C   UNL A   1      38.252  33.921  35.054  1.00  0.00     0.029 A 
ATOM     61  C   UNL A   1      39.288  33.008  35.161  1.00  0.00     0.049 A 
ATOM     62  H   UNL A   1      39.935  31.561  33.769  1.00  0.00     0.167 HD
ATOM     63  C   UNL A   1      41.214  31.917  36.284  1.00  0.00     0.074 A 
ATOM     64  C   UNL A   1      42.144  31.765  37.384  1.00  0.00     0.031 C 
ATOM     65  C   UNL A   1      40.204  32.821  36.258  1.00  0.00     0.037 A 
BRANCH  52  66
ATOM     66  C   UNL A   1      36.878  32.781  31.048  1.00  0.00     0.058 A 
ATOM     67  C   UNL A   1      37.131  33.706  30.023  1.00  0.00     0.135 A 
ATOM     68  C   UNL A   1      35.543  32.421  31.292  1.00  0.00     0.135 A 
ATOM     69  F   UNL A   1      38.388  34.097  29.759  1.00  0.00    -0.206 F 
ATOM     70  C   UNL A   1      36.098  34.279  29.289  1.00  0.00     0.059 A 
ATOM     71  C   UNL A   1      34.495  32.962  30.553  1.00  0.00     0.059 A 
ATOM     72  F   UNL A   1      35.246  31.540  32.260  1.00  0.00    -0.206 F 
ATOM     73  C   UNL A   1      34.781  33.902  29.564  1.00  0.00     0.060 A 
BRANCH  73  74
ATOM     74  S   UNL A   1      33.449  34.659  28.611  1.00  0.00     0.124 S 
ATOM     75  O   UNL A   1      34.153  35.752  27.947  1.00  0.00    -0.237 OA
ATOM     76  O   UNL A   1      33.022  33.564  27.745  1.00  0.00    -0.237 OA
ATOM     77  O   UNL A   1      32.486  35.059  29.631  1.00  0.00    -0.744 OA
ENDBRANCH  73  74
ENDBRANCH  52  66
BRANCH  53  78
ATOM     78  C   UNL A   1      44.548  28.612  35.917  1.00  0.00     0.058 A 
ATOM     79  C   UNL A   1      44.384  27.540  36.807  1.00  0.00     0.135 A 
ATOM     80  C   UNL A   1      45.849  29.092  35.704  1.00  0.00     0.135 A 
ATOM     81  F   UNL A   1      43.158  27.051  37.049  1.00  0.00    -0.206 F 
ATOM     82  C   UNL A   1      45.467  26.973  37.472  1.00  0.00     0.059 A 
ATOM     83  C   UNL A   1      46.950  28.528  36.340  1.00  0.00     0.059 A 
ATOM     84  F   UNL A   1      46.061  30.105  34.849  1.00  0.00    -0.206 F 
ATOM     85  C   UNL A   1      46.747  27.473  37.229  1.00  0.00     0.060 A 
BRANCH  85  86
ATOM     86  S   UNL A   1      48.152  26.693  38.055  1.00  0.00     0.124 S 
ATOM     87  O   UNL A   1      47.636  26.518  39.408  1.00  0.00    -0.237 OA
ATOM     88  O   UNL A   1      48.329  25.472  37.275  1.00  0.00    -0.237 OA
ATOM     89  O   UNL A   1      49.217  27.681  37.907  1.00  0.00    -0.744 OA
ENDBRANCH  85  86
ENDBRANCH  53  78
BRANCH  65  90
ATOM     90  C   UNL A   1      40.005  33.684  37.471  1.00  0.00     0.058 A 
ATOM     91  C   UNL A   1      40.605  34.945  37.586  1.00  0.00     0.135 A 
ATOM     92  C   UNL A   1      39.114  33.283  38.481  1.00  0.00     0.135 A 
ATOM     93  F   UNL A   1      41.470  35.369  36.649  1.00  0.00    -0.206 F 
ATOM     94  C   UNL A   1      40.329  35.784  38.661  1.00  0.00     0.059 A 
ATOM     95  C   UNL A   1      38.808  34.112  39.554  1.00  0.00     0.059 A 
ATOM     96  F   UNL A   1      38.510  32.086  38.411  1.00  0.00    -0.206 F 
ATOM     97  C   UNL A   1      39.421  35.363  39.635  1.00  0.00     0.060 A 
BRANCH  97  98
ATOM     98  S   UNL A   1      39.006  36.492  40.981  1.00  0.00     0.124 S 
ATOM     99  O   UNL A   1      40.274  36.573  41.699  1.00  0.00    -0.237 OA
ATOM    100  O   UNL A   1      38.606  37.699  40.266  1.00  0.00    -0.237 OA
ATOM    101  O   UNL A   1      37.929  35.802  41.684  1.00  0.00    -0.744 OA
ENDBRANCH  97  98
ENDBRANCH  65  90
ENDBRANCH  39  40
ENDBRANCH  31  34
ENDBRANCH  29  30
ENDBRANCH  28  29
ENDBRANCH   1  28
TORSDOF 20
ENDMDL
MODEL 3
REMARK VINA RESULT:     -10.5      5.126      7.375
REMARK SMILES COCc1cc(OCC(=O)NCCCCNC(=O)c2ccc(-c3c4nc(c(-c5c(F)cc(S(=O)(=O)[O-])cc5F)c5ccc([nH]5)c(-c5c(F)cc(S(=O)(=O)[O-])cc5F)c5nc(c(-c6c(F)cc(S(=O)(=O)[O-])cc6F)c6ccc3[nH]6)C=C5)C=C4)cc2)nc(Nc2cccc(C)c2C)n1
REMARK SMILES IDX 13 1 12 2 11 3 9 4 10 5 8 7 7 8 6 9 4 10 5 11 96 12 86 13
REMARK SMILES IDX 85 14 3 15 2 16 1 17 87 18 88 20 89 21 94 22 90 23 92 24
REMARK SMILES IDX 95 25 91 26 93 27 14 28 15 29 16 30 17 31 18 33 19 34 20 35
REMARK SMILES IDX 84 36 21 37 83 38 22 39 23 40 24 41 77 42 25 43 82 44 76 45
REMARK SMILES IDX 78 46 26 47 81 48 75 49 74 50 27 52 61 53 40 54 60 55 41 56
REMARK SMILES IDX 44 57 59 58 79 59 42 60 43 61 58 63 80 64 45 65 28 66 29 67
REMARK SMILES IDX 38 68 30 69 31 70 37 71 39 72 32 73 33 74 34 75 35 76 36 77
REMARK SMILES IDX 62 78 63 79 72 80 64 81 65 82 71 83 73 84 66 85 67 86 68 87
REMARK SMILES IDX 69 88 70 89 46 90 47 91 56 92 48 93 49 94 55 95 57 96 50 97
REMARK SMILES IDX 51 98 52 99 53 100 54 101
REMARK H PARENT 11 6 87 19 16 32 78 51 44 62
REMARK Flexibility Score: inf
ROOT
ATOM      1  C   UNL A   1      34.169  32.072  27.917  1.00  0.00     0.023 C 
ENDROOT
BRANCH   1   2
ATOM      2  C   UNL A   1      34.587  30.660  27.509  1.00  0.00     0.116 C 
BRANCH   2   3
ATOM      3  N   UNL A   1      33.631  29.651  27.917  1.00  0.00    -0.353 N 
ATOM      4  C   UNL A   1      32.673  29.044  27.159  1.00  0.00     0.258 C 
ATOM      5  O   UNL A   1      31.982  28.156  27.661  1.00  0.00    -0.271 OA
ATOM      6  H   UNL A   1      33.678  29.367  28.859  1.00  0.00     0.163 HD
BRANCH   4   7
ATOM      7  C   UNL A   1      32.497  29.453  25.693  1.00  0.00     0.331 C 
BRANCH   7   8
ATOM      8  O   UNL A   1      31.272  30.084  25.366  1.00  0.00    -0.467 OA
BRANCH   8   9
ATOM      9  C   UNL A   1      30.624  29.685  24.232  1.00  0.00     0.218 A 
ATOM     10  C   UNL A   1      29.092  29.821  22.469  1.00  0.00     0.076 A 
ATOM     11  C   UNL A   1      29.668  30.416  23.568  1.00  0.00     0.095 A 
ATOM     12  N   UNL A   1      29.504  28.622  22.022  1.00  0.00    -0.215 NA
ATOM     13  C   UNL A   1      30.488  27.999  22.687  1.00  0.00     0.230 A 
ATOM     14  N   UNL A   1      31.033  28.476  23.812  1.00  0.00    -0.177 NA
BRANCH  10  15
ATOM     15  C   UNL A   1      27.986  30.493  21.687  1.00  0.00     0.216 C 
BRANCH  15  16
ATOM     16  O   UNL A   1      27.830  31.888  21.975  1.00  0.00    -0.378 OA
ATOM     17  C   UNL A   1      27.883  32.710  20.817  1.00  0.00     0.195 C 
ENDBRANCH  15  16
ENDBRANCH  10  15
BRANCH  13  18
ATOM     18  N   UNL A   1      30.983  26.789  22.213  1.00  0.00    -0.324 N 
ATOM     19  H   UNL A   1      30.981  26.683  21.235  1.00  0.00     0.170 HD
BRANCH  18  20
ATOM     20  C   UNL A   1      31.485  25.699  22.939  1.00  0.00     0.044 A 
ATOM     21  C   UNL A   1      30.556  24.790  23.471  1.00  0.00     0.026 A 
ATOM     22  C   UNL A   1      32.869  25.461  23.126  1.00  0.00    -0.025 A 
ATOM     23  C   UNL A   1      30.975  23.629  24.115  1.00  0.00     0.002 A 
ATOM     24  C   UNL A   1      33.293  24.257  23.739  1.00  0.00    -0.046 A 
ATOM     25  C   UNL A   1      33.897  26.481  22.695  1.00  0.00     0.047 C 
ATOM     26  C   UNL A   1      32.334  23.358  24.233  1.00  0.00     0.004 A 
ATOM     27  C   UNL A   1      34.743  23.881  23.907  1.00  0.00     0.044 C 
ENDBRANCH  18  20
ENDBRANCH  13  18
ENDBRANCH   8   9
ENDBRANCH   7   8
ENDBRANCH   4   7
ENDBRANCH   2   3
ENDBRANCH   1   2
BRANCH   1  28
ATOM     28  C   UNL A   1      35.313  33.080  28.049  1.00  0.00     0.023 C 
BRANCH  28  29
ATOM     29  C   UNL A   1      36.424  32.696  29.021  1.00  0.00     0.116 C 
BRANCH  29  30
ATOM     30  N   UNL A   1      35.934  32.071  30.241  1.00  0.00    -0.352 N 
ATOM     31  C   UNL A   1      36.472  31.017  30.940  1.00  0.00     0.251 C 
ATOM     32  H   UNL A   1      35.108  32.455  30.615  1.00  0.00     0.163 HD
ATOM     33  O   UNL A   1      35.878  30.549  31.907  1.00  0.00    -0.269 OA
BRANCH  31  34
ATOM     34  C   UNL A   1      37.751  30.426  30.492  1.00  0.00     0.039 A 
ATOM     35  C   UNL A   1      38.054  30.423  29.128  1.00  0.00     0.014 A 
ATOM     36  C   UNL A   1      38.663  29.916  31.420  1.00  0.00     0.014 A 
ATOM     37  C   UNL A   1      39.309  29.981  28.699  1.00  0.00     0.010 A 
ATOM     38  C   UNL A   1      39.931  29.533  30.997  1.00  0.00     0.010 A 
ATOM     39  C   UNL A   1      40.271  29.571  29.635  1.00  0.00    -0.014 A 
BRANCH  39  40
ATOM     40  C   UNL A   1      41.643  29.174  29.229  1.00  0.00     0.031 A 
ATOM     41  C   UNL A   1      42.725  30.215  29.154  1.00  0.00     0.074 A 
ATOM     42  C   UNL A   1      41.888  27.911  28.827  1.00  0.00     0.049 A 
ATOM     43  N   UNL A   1      43.929  30.120  28.653  1.00  0.00    -0.248 NA
ATOM     44  C   UNL A   1      42.395  31.547  29.686  1.00  0.00     0.031 C 
ATOM     45  C   UNL A   1      40.913  26.818  28.826  1.00  0.00     0.029 A 
ATOM     46  N   UNL A   1      43.026  27.339  28.315  1.00  0.00    -0.354 N 
ATOM     47  C   UNL A   1      44.490  31.386  28.780  1.00  0.00     0.074 A 
ATOM     48  C   UNL A   1      43.483  32.237  29.375  1.00  0.00     0.031 C 
ATOM     49  C   UNL A   1      41.497  25.709  28.341  1.00  0.00     0.029 A 
ATOM     50  C   UNL A   1      42.869  26.021  27.954  1.00  0.00     0.049 A 
ATOM     51  H   UNL A   1      43.876  27.828  28.215  1.00  0.00     0.167 HD
ATOM     52  C   UNL A   1      45.735  31.796  28.441  1.00  0.00     0.037 A 
ATOM     53  C   UNL A   1      43.725  25.168  27.359  1.00  0.00     0.037 A 
ATOM     54  C   UNL A   1      46.743  30.935  27.883  1.00  0.00     0.049 A 
ATOM     55  C   UNL A   1      45.108  25.643  27.000  1.00  0.00     0.074 A 
ATOM     56  C   UNL A   1      48.051  31.243  27.552  1.00  0.00     0.029 A 
ATOM     57  N   UNL A   1      46.558  29.594  27.580  1.00  0.00    -0.354 N 
ATOM     58  N   UNL A   1      45.634  26.834  27.158  1.00  0.00    -0.248 NA
ATOM     59  C   UNL A   1      46.014  24.662  26.385  1.00  0.00     0.031 C 
ATOM     60  C   UNL A   1      48.649  30.095  27.022  1.00  0.00     0.029 A 
ATOM     61  C   UNL A   1      47.726  29.062  27.061  1.00  0.00     0.049 A 
ATOM     62  H   UNL A   1      45.721  29.094  27.716  1.00  0.00     0.167 HD
ATOM     63  C   UNL A   1      46.940  26.737  26.693  1.00  0.00     0.074 A 
ATOM     64  C   UNL A   1      47.126  25.373  26.245  1.00  0.00     0.031 C 
ATOM     65  C   UNL A   1      47.900  27.693  26.647  1.00  0.00     0.037 A 
BRANCH  52  66
ATOM     66  C   UNL A   1      46.074  33.242  28.664  1.00  0.00     0.058 A 
ATOM     67  C   UNL A   1      46.691  33.679  29.848  1.00  0.00     0.135 A 
ATOM     68  C   UNL A   1      45.801  34.201  27.675  1.00  0.00     0.135 A 
ATOM     69  F   UNL A   1      46.960  32.807  30.832  1.00  0.00    -0.206 F 
ATOM     70  C   UNL A   1      46.995  35.020  30.057  1.00  0.00     0.059 A 
ATOM     71  C   UNL A   1      46.120  35.544  27.852  1.00  0.00     0.059 A 
ATOM     72  F   UNL A   1      45.213  33.837  26.525  1.00  0.00    -0.206 F 
ATOM     73  C   UNL A   1      46.702  35.947  29.054  1.00  0.00     0.060 A 
BRANCH  73  74
ATOM     74  S   UNL A   1      47.094  37.684  29.341  1.00  0.00     0.124 S 
ATOM     75  O   UNL A   1      47.607  37.643  30.707  1.00  0.00    -0.237 OA
ATOM     76  O   UNL A   1      48.081  37.960  28.302  1.00  0.00    -0.237 OA
ATOM     77  O   UNL A   1      45.808  38.355  29.173  1.00  0.00    -0.744 OA
ENDBRANCH  73  74
ENDBRANCH  52  66
BRANCH  53  78
ATOM     78  C   UNL A   1      43.304  23.770  27.079  1.00  0.00     0.058 A 
ATOM     79  C   UNL A   1      43.197  22.831  28.115  1.00  0.00     0.135 A 
ATOM     80  C   UNL A   1      42.979  23.351  25.780  1.00  0.00     0.135 A 
ATOM     81  F   UNL A   1      43.505  23.183  29.373  1.00  0.00    -0.206 F 
ATOM     82  C   UNL A   1      42.795  21.521  27.874  1.00  0.00     0.059 A 
ATOM     83  C   UNL A   1      42.553  22.053  25.516  1.00  0.00     0.059 A 
ATOM     84  F   UNL A   1      43.048  24.216  24.757  1.00  0.00    -0.206 F 
ATOM     85  C   UNL A   1      42.473  21.142  26.569  1.00  0.00     0.060 A 
BRANCH  85  86
ATOM     86  S   UNL A   1      41.899  19.455  26.275  1.00  0.00     0.124 S 
ATOM     87  O   UNL A   1      40.467  19.660  26.090  1.00  0.00    -0.237 OA
ATOM     88  O   UNL A   1      42.651  19.078  25.081  1.00  0.00    -0.237 OA
ATOM     89  O   UNL A   1      42.285  18.753  27.496  1.00  0.00    -0.744 OA
ENDBRANCH  85  86
ENDBRANCH  53  78
BRANCH  65  90
ATOM     90  C   UNL A   1      49.260  27.297  26.147  1.00  0.00     0.058 A 
ATOM     91  C   UNL A   1      50.250  26.806  27.010  1.00  0.00     0.135 A 
ATOM     92  C   UNL A   1      49.535  27.313  24.769  1.00  0.00     0.135 A 
ATOM     93  F   UNL A   1      50.036  26.778  28.336  1.00  0.00    -0.206 F 
ATOM     94  C   UNL A   1      51.467  26.339  26.525  1.00  0.00     0.059 A 
ATOM     95  C   UNL A   1      50.737  26.834  24.260  1.00  0.00     0.059 A 
ATOM     96  F   UNL A   1      48.616  27.769  23.903  1.00  0.00    -0.206 F 
ATOM     97  C   UNL A   1      51.698  26.348  25.148  1.00  0.00     0.060 A 
BRANCH  97  98
ATOM     98  S   UNL A   1      53.247  25.663  24.522  1.00  0.00     0.124 S 
ATOM     99  O   UNL A   1      53.220  24.315  25.080  1.00  0.00    -0.237 OA
ATOM    100  O   UNL A   1      53.070  25.755  23.077  1.00  0.00    -0.237 OA
ATOM    101  O   UNL A   1      54.262  26.554  25.080  1.00  0.00    -0.744 OA
ENDBRANCH  97  98
ENDBRANCH  65  90
ENDBRANCH  39  40
ENDBRANCH  31  34
ENDBRANCH  29  30
ENDBRANCH  28  29
ENDBRANCH   1  28
TORSDOF 20
ENDMDL
