MODEL 1
REMARK VINA RESULT:     -13.8      0.000      0.000
REMARK SMILES C[C@@H]1C(C(=O)NCCCCNC(=O)c2ccc(-c3c4nc(c(-c5c(F)cc(S(=O)(=O)[O-])cc5F)c5ccc([nH]5)c(-c5c(F)cc(S(=O)(=O)[O-])cc5F)c5nc(c(-c6c(F)cc(S(=O)(=O)[O-])cc6F)c6ccc3[nH]6)C=C5)C=C4)cc2)=NC2=C1C(=O)C[C@H](c1ccccc1)C2
REMARK SMILES IDX 9 1 8 2 7 3 6 4 4 5 5 6 3 8 1 9 2 10 82 11 80 12 81 13 83 14
REMARK SMILES IDX 93 15 84 16 85 17 86 18 87 19 88 20 92 21 89 22 91 23 90 24
REMARK SMILES IDX 10 25 11 26 12 27 13 29 14 30 15 31 79 32 16 33 78 34 17 35
REMARK SMILES IDX 18 36 19 37 72 38 20 39 77 40 71 41 73 42 21 43 76 44 70 45
REMARK SMILES IDX 69 46 22 48 56 49 35 50 55 51 36 52 39 53 54 54 74 55 37 56
REMARK SMILES IDX 38 57 53 59 75 60 40 61 23 62 24 63 33 64 25 65 26 66 32 67
REMARK SMILES IDX 34 68 27 69 28 70 29 71 30 72 31 73 57 74 58 75 67 76 59 77
REMARK SMILES IDX 60 78 66 79 68 80 61 81 62 82 63 83 64 84 65 85 41 86 42 87
REMARK SMILES IDX 51 88 43 89 44 90 50 91 52 92 45 93 46 94 47 95 48 96 49 97
REMARK H PARENT 6 7 11 28 73 47 39 58
REMARK Flexibility Score: inf
ROOT
ATOM      1  C   UNL A   1      36.060  22.747  25.788  1.00  0.00     0.023 C 
ENDROOT
BRANCH   1   2
ATOM      2  C   UNL A   1      35.112  23.549  24.900  1.00  0.00     0.023 C 
BRANCH   2   3
ATOM      3  C   UNL A   1      34.715  24.982  25.272  1.00  0.00     0.116 C 
BRANCH   3   4
ATOM      4  N   UNL A   1      33.657  25.203  26.239  1.00  0.00    -0.351 N 
ATOM      5  C   UNL A   1      32.276  25.110  26.065  1.00  0.00     0.266 C 
ATOM      6  O   UNL A   1      31.566  24.886  27.040  1.00  0.00    -0.268 OA
ATOM      7  H   UNL A   1      33.955  25.454  27.142  1.00  0.00     0.163 HD
BRANCH   5   8
ATOM      8  C   UNL A   1      31.597  25.459  24.738  1.00  0.00     0.113 C 
ATOM      9  C   UNL A   1      30.567  23.824  23.141  1.00  0.00     0.020 C 
ATOM     10  C   UNL A   1      31.785  24.693  23.457  1.00  0.00     0.076 C 
ATOM     11  C   UNL A   1      31.773  25.961  22.661  1.00  0.00     0.026 C 
ATOM     12  N   UNL A   1      30.874  26.547  24.605  1.00  0.00    -0.251 NA
ATOM     13  C   UNL A   1      31.008  26.872  23.272  1.00  0.00     0.049 C 
ATOM     14  C   UNL A   1      32.995  26.514  22.028  1.00  0.00     0.161 C 
ATOM     15  C   UNL A   1      31.032  28.308  22.838  1.00  0.00     0.065 C 
ATOM     16  O   UNL A   1      33.693  25.776  21.335  1.00  0.00    -0.294 OA
ATOM     17  C   UNL A   1      33.443  27.956  22.360  1.00  0.00     0.089 C 
ATOM     18  C   UNL A   1      32.436  28.859  23.148  1.00  0.00     0.033 C 
BRANCH  18  19
ATOM     19  C   UNL A   1      32.689  29.048  24.658  1.00  0.00    -0.044 A 
ATOM     20  C   UNL A   1      33.838  28.498  25.270  1.00  0.00     0.004 A 
ATOM     21  C   UNL A   1      31.814  29.759  25.490  1.00  0.00     0.004 A 
ATOM     22  C   UNL A   1      34.186  28.789  26.590  1.00  0.00     0.000 A 
ATOM     23  C   UNL A   1      32.148  30.027  26.827  1.00  0.00     0.000 A 
ATOM     24  C   UNL A   1      33.348  29.572  27.364  1.00  0.00     0.000 A 
ENDBRANCH  18  19
ENDBRANCH   5   8
ENDBRANCH   3   4
ENDBRANCH   2   3
ENDBRANCH   1   2
BRANCH   1  25
ATOM     25  C   UNL A   1      37.528  23.115  25.696  1.00  0.00     0.116 C 
BRANCH  25  26
ATOM     26  N   UNL A   1      38.447  22.170  26.330  1.00  0.00    -0.352 N 
ATOM     27  C   UNL A   1      39.690  22.464  26.889  1.00  0.00     0.251 C 
ATOM     28  H   UNL A   1      38.158  21.230  26.365  1.00  0.00     0.163 HD
ATOM     29  O   UNL A   1      40.511  21.592  27.098  1.00  0.00    -0.269 OA
BRANCH  27  30
ATOM     30  C   UNL A   1      39.983  23.880  27.208  1.00  0.00     0.039 A 
ATOM     31  C   UNL A   1      39.028  24.886  27.048  1.00  0.00     0.014 A 
ATOM     32  C   UNL A   1      41.225  24.164  27.764  1.00  0.00     0.014 A 
ATOM     33  C   UNL A   1      39.304  26.156  27.558  1.00  0.00     0.010 A 
ATOM     34  C   UNL A   1      41.415  25.348  28.427  1.00  0.00     0.010 A 
ATOM     35  C   UNL A   1      40.489  26.373  28.284  1.00  0.00    -0.014 A 
BRANCH  35  36
ATOM     36  C   UNL A   1      40.722  27.633  28.988  1.00  0.00     0.031 A 
ATOM     37  C   UNL A   1      41.807  28.480  28.417  1.00  0.00     0.074 A 
ATOM     38  C   UNL A   1      39.903  28.115  29.951  1.00  0.00     0.049 A 
ATOM     39  N   UNL A   1      42.954  28.751  28.947  1.00  0.00    -0.248 NA
ATOM     40  C   UNL A   1      41.664  28.970  27.036  1.00  0.00     0.031 C 
ATOM     41  C   UNL A   1      38.626  27.572  30.429  1.00  0.00     0.029 A 
ATOM     42  N   UNL A   1      40.000  29.281  30.647  1.00  0.00    -0.354 N 
ATOM     43  C   UNL A   1      43.582  29.637  28.075  1.00  0.00     0.074 A 
ATOM     44  C   UNL A   1      42.835  29.583  26.845  1.00  0.00     0.031 C 
ATOM     45  C   UNL A   1      37.963  28.515  31.133  1.00  0.00     0.029 A 
ATOM     46  C   UNL A   1      38.840  29.655  31.317  1.00  0.00     0.049 A 
ATOM     47  H   UNL A   1      40.825  29.816  30.674  1.00  0.00     0.167 HD
ATOM     48  C   UNL A   1      44.520  30.521  28.518  1.00  0.00     0.037 A 
ATOM     49  C   UNL A   1      38.610  30.823  31.968  1.00  0.00     0.037 A 
ATOM     50  C   UNL A   1      45.015  30.150  29.821  1.00  0.00     0.049 A 
ATOM     51  C   UNL A   1      39.942  31.400  32.292  1.00  0.00     0.074 A 
ATOM     52  C   UNL A   1      45.604  29.010  30.337  1.00  0.00     0.029 A 
ATOM     53  N   UNL A   1      44.558  30.851  30.912  1.00  0.00    -0.354 N 
ATOM     54  N   UNL A   1      40.785  30.851  33.126  1.00  0.00    -0.248 NA
ATOM     55  C   UNL A   1      40.529  32.319  31.330  1.00  0.00     0.031 C 
ATOM     56  C   UNL A   1      45.004  28.837  31.620  1.00  0.00     0.029 A 
ATOM     57  C   UNL A   1      44.159  29.925  31.846  1.00  0.00     0.049 A 
ATOM     58  H   UNL A   1      44.522  31.830  31.007  1.00  0.00     0.167 HD
ATOM     59  C   UNL A   1      42.027  31.001  32.525  1.00  0.00     0.074 A 
ATOM     60  C   UNL A   1      41.815  31.985  31.463  1.00  0.00     0.031 C 
ATOM     61  C   UNL A   1      43.042  30.113  32.748  1.00  0.00     0.037 A 
BRANCH  48  62
ATOM     62  C   UNL A   1      44.732  31.898  27.932  1.00  0.00     0.058 A 
ATOM     63  C   UNL A   1      45.943  32.202  27.279  1.00  0.00     0.135 A 
ATOM     64  C   UNL A   1      43.901  33.003  28.219  1.00  0.00     0.135 A 
ATOM     65  F   UNL A   1      46.821  31.231  26.979  1.00  0.00    -0.206 F 
ATOM     66  C   UNL A   1      46.323  33.512  26.981  1.00  0.00     0.059 A 
ATOM     67  C   UNL A   1      44.234  34.310  27.881  1.00  0.00     0.059 A 
ATOM     68  F   UNL A   1      42.772  32.884  28.927  1.00  0.00    -0.206 F 
ATOM     69  C   UNL A   1      45.464  34.561  27.297  1.00  0.00     0.060 A 
BRANCH  69  70
ATOM     70  S   UNL A   1      45.983  36.257  26.992  1.00  0.00     0.124 S 
ATOM     71  O   UNL A   1      46.730  36.113  25.747  1.00  0.00    -0.237 OA
ATOM     72  O   UNL A   1      44.704  36.953  26.895  1.00  0.00    -0.237 OA
ATOM     73  O   UNL A   1      46.778  36.582  28.173  1.00  0.00    -0.744 OA
ENDBRANCH  69  70
ENDBRANCH  48  62
BRANCH  49  74
ATOM     74  C   UNL A   1      37.347  31.610  32.018  1.00  0.00     0.058 A 
ATOM     75  C   UNL A   1      36.774  31.991  33.245  1.00  0.00     0.135 A 
ATOM     76  C   UNL A   1      36.829  32.247  30.871  1.00  0.00     0.135 A 
ATOM     77  F   UNL A   1      37.213  31.452  34.392  1.00  0.00    -0.206 F 
ATOM     78  C   UNL A   1      35.791  32.986  33.336  1.00  0.00     0.059 A 
ATOM     79  C   UNL A   1      35.843  33.232  30.935  1.00  0.00     0.059 A 
ATOM     80  F   UNL A   1      37.335  32.000  29.655  1.00  0.00    -0.206 F 
ATOM     81  C   UNL A   1      35.347  33.618  32.174  1.00  0.00     0.060 A 
BRANCH  81  82
ATOM     82  S   UNL A   1      34.223  35.030  32.301  1.00  0.00     0.124 S 
ATOM     83  O   UNL A   1      33.065  34.437  32.960  1.00  0.00    -0.237 OA
ATOM     84  O   UNL A   1      35.000  35.971  33.102  1.00  0.00    -0.237 OA
ATOM     85  O   UNL A   1      34.016  35.426  30.911  1.00  0.00    -0.744 OA
ENDBRANCH  81  82
ENDBRANCH  49  74
BRANCH  61  86
ATOM     86  C   UNL A   1      42.900  29.111  33.870  1.00  0.00     0.058 A 
ATOM     87  C   UNL A   1      43.154  29.382  35.228  1.00  0.00     0.135 A 
ATOM     88  C   UNL A   1      42.327  27.864  33.572  1.00  0.00     0.135 A 
ATOM     89  F   UNL A   1      43.599  30.583  35.622  1.00  0.00    -0.206 F 
ATOM     90  C   UNL A   1      42.893  28.444  36.232  1.00  0.00     0.059 A 
ATOM     91  C   UNL A   1      42.028  26.928  34.559  1.00  0.00     0.059 A 
ATOM     92  F   UNL A   1      42.001  27.561  32.305  1.00  0.00    -0.206 F 
ATOM     93  C   UNL A   1      42.327  27.218  35.887  1.00  0.00     0.060 A 
BRANCH  93  94
ATOM     94  S   UNL A   1      41.929  26.033  37.190  1.00  0.00     0.124 S 
ATOM     95  O   UNL A   1      42.114  24.755  36.510  1.00  0.00    -0.237 OA
ATOM     96  O   UNL A   1      42.912  26.349  38.222  1.00  0.00    -0.237 OA
ATOM     97  O   UNL A   1      40.547  26.359  37.538  1.00  0.00    -0.744 OA
ENDBRANCH  93  94
ENDBRANCH  61  86
ENDBRANCH  35  36
ENDBRANCH  27  30
ENDBRANCH  25  26
ENDBRANCH   1  25
TORSDOF 15
ENDMDL
MODEL 2
REMARK VINA RESULT:     -13.5      2.884      9.439
REMARK SMILES C[C@@H]1C(C(=O)NCCCCNC(=O)c2ccc(-c3c4nc(c(-c5c(F)cc(S(=O)(=O)[O-])cc5F)c5ccc([nH]5)c(-c5c(F)cc(S(=O)(=O)[O-])cc5F)c5nc(c(-c6c(F)cc(S(=O)(=O)[O-])cc6F)c6ccc3[nH]6)C=C5)C=C4)cc2)=NC2=C1C(=O)C[C@H](c1ccccc1)C2
REMARK SMILES IDX 9 1 8 2 7 3 6 4 4 5 5 6 3 8 1 9 2 10 82 11 80 12 81 13 83 14
REMARK SMILES IDX 93 15 84 16 85 17 86 18 87 19 88 20 92 21 89 22 91 23 90 24
REMARK SMILES IDX 10 25 11 26 12 27 13 29 14 30 15 31 79 32 16 33 78 34 17 35
REMARK SMILES IDX 18 36 19 37 72 38 20 39 77 40 71 41 73 42 21 43 76 44 70 45
REMARK SMILES IDX 69 46 22 48 56 49 35 50 55 51 36 52 39 53 54 54 74 55 37 56
REMARK SMILES IDX 38 57 53 59 75 60 40 61 23 62 24 63 33 64 25 65 26 66 32 67
REMARK SMILES IDX 34 68 27 69 28 70 29 71 30 72 31 73 57 74 58 75 67 76 59 77
REMARK SMILES IDX 60 78 66 79 68 80 61 81 62 82 63 83 64 84 65 85 41 86 42 87
REMARK SMILES IDX 51 88 43 89 44 90 50 91 52 92 45 93 46 94 47 95 48 96 49 97
REMARK H PARENT 6 7 11 28 73 47 39 58
REMARK Flexibility Score: inf
ROOT
ATOM      1  C   UNL A   1      33.001  29.021  26.591  1.00  0.00     0.023 C 
ENDROOT
BRANCH   1   2
ATOM      2  C   UNL A   1      33.833  27.837  26.105  1.00  0.00     0.023 C 
BRANCH   2   3
ATOM      3  C   UNL A   1      33.237  26.803  25.144  1.00  0.00     0.116 C 
BRANCH   3   4
ATOM      4  N   UNL A   1      34.114  26.061  24.258  1.00  0.00    -0.351 N 
ATOM      5  C   UNL A   1      33.818  24.970  23.442  1.00  0.00     0.266 C 
ATOM      6  O   UNL A   1      34.516  24.755  22.456  1.00  0.00    -0.268 OA
ATOM      7  H   UNL A   1      35.047  26.372  24.229  1.00  0.00     0.163 HD
BRANCH   5   8
ATOM      8  C   UNL A   1      32.770  23.923  23.830  1.00  0.00     0.113 C 
ATOM      9  C   UNL A   1      30.320  24.037  23.313  1.00  0.00     0.020 C 
ATOM     10  C   UNL A   1      31.404  24.246  24.371  1.00  0.00     0.076 C 
ATOM     11  C   UNL A   1      31.473  23.088  25.319  1.00  0.00     0.026 C 
ATOM     12  N   UNL A   1      33.048  22.640  23.820  1.00  0.00    -0.251 NA
ATOM     13  C   UNL A   1      32.223  22.115  24.792  1.00  0.00     0.049 C 
ATOM     14  C   UNL A   1      31.642  23.267  26.781  1.00  0.00     0.161 C 
ATOM     15  C   UNL A   1      32.677  20.957  25.632  1.00  0.00     0.065 C 
ATOM     16  O   UNL A   1      30.901  24.050  27.375  1.00  0.00    -0.294 OA
ATOM     17  C   UNL A   1      32.824  22.582  27.504  1.00  0.00     0.089 C 
ATOM     18  C   UNL A   1      33.637  21.513  26.700  1.00  0.00     0.033 C 
BRANCH  18  19
ATOM     19  C   UNL A   1      34.997  21.952  26.118  1.00  0.00    -0.044 A 
ATOM     20  C   UNL A   1      35.472  23.269  26.309  1.00  0.00     0.004 A 
ATOM     21  C   UNL A   1      35.821  21.089  25.383  1.00  0.00     0.004 A 
ATOM     22  C   UNL A   1      36.763  23.653  25.946  1.00  0.00     0.000 A 
ATOM     23  C   UNL A   1      37.110  21.483  24.991  1.00  0.00     0.000 A 
ATOM     24  C   UNL A   1      37.592  22.750  25.303  1.00  0.00     0.000 A 
ENDBRANCH  18  19
ENDBRANCH   5   8
ENDBRANCH   3   4
ENDBRANCH   2   3
ENDBRANCH   1   2
BRANCH   1  25
ATOM     25  C   UNL A   1      33.609  29.847  27.708  1.00  0.00     0.116 C 
BRANCH  25  26
ATOM     26  N   UNL A   1      33.987  31.210  27.338  1.00  0.00    -0.352 N 
ATOM     27  C   UNL A   1      35.147  31.884  27.717  1.00  0.00     0.251 C 
ATOM     28  H   UNL A   1      33.358  31.702  26.764  1.00  0.00     0.163 HD
ATOM     29  O   UNL A   1      35.229  33.095  27.636  1.00  0.00    -0.269 OA
BRANCH  27  30
ATOM     30  C   UNL A   1      36.276  31.076  28.233  1.00  0.00     0.039 A 
ATOM     31  C   UNL A   1      36.469  29.748  27.849  1.00  0.00     0.014 A 
ATOM     32  C   UNL A   1      37.197  31.718  29.052  1.00  0.00     0.014 A 
ATOM     33  C   UNL A   1      37.659  29.114  28.211  1.00  0.00     0.010 A 
ATOM     34  C   UNL A   1      38.436  31.163  29.242  1.00  0.00     0.010 A 
ATOM     35  C   UNL A   1      38.660  29.841  28.879  1.00  0.00    -0.014 A 
BRANCH  35  36
ATOM     36  C   UNL A   1      39.985  29.267  29.107  1.00  0.00     0.031 A 
ATOM     37  C   UNL A   1      40.349  29.078  30.540  1.00  0.00     0.074 A 
ATOM     38  C   UNL A   1      40.755  28.746  28.125  1.00  0.00     0.049 A 
ATOM     39  N   UNL A   1      41.250  29.714  31.213  1.00  0.00    -0.248 NA
ATOM     40  C   UNL A   1      39.523  28.179  31.363  1.00  0.00     0.031 C 
ATOM     41  C   UNL A   1      40.435  28.566  26.703  1.00  0.00     0.029 A 
ATOM     42  N   UNL A   1      41.980  28.160  28.221  1.00  0.00    -0.354 N 
ATOM     43  C   UNL A   1      41.270  29.133  32.478  1.00  0.00     0.074 A 
ATOM     44  C   UNL A   1      40.072  28.339  32.570  1.00  0.00     0.031 C 
ATOM     45  C   UNL A   1      41.314  27.708  26.142  1.00  0.00     0.029 A 
ATOM     46  C   UNL A   1      42.362  27.426  27.103  1.00  0.00     0.049 A 
ATOM     47  H   UNL A   1      42.549  28.248  29.019  1.00  0.00     0.167 HD
ATOM     48  C   UNL A   1      42.390  29.162  33.254  1.00  0.00     0.037 A 
ATOM     49  C   UNL A   1      43.456  26.634  26.978  1.00  0.00     0.037 A 
ATOM     50  C   UNL A   1      43.328  30.152  32.783  1.00  0.00     0.049 A 
ATOM     51  C   UNL A   1      44.428  27.082  28.010  1.00  0.00     0.074 A 
ATOM     52  C   UNL A   1      43.252  31.513  32.547  1.00  0.00     0.029 A 
ATOM     53  N   UNL A   1      44.427  29.719  32.079  1.00  0.00    -0.354 N 
ATOM     54  N   UNL A   1      45.008  28.253  27.999  1.00  0.00    -0.248 NA
ATOM     55  C   UNL A   1      44.384  26.422  29.306  1.00  0.00     0.031 C 
ATOM     56  C   UNL A   1      43.961  31.712  31.325  1.00  0.00     0.029 A 
ATOM     57  C   UNL A   1      44.501  30.484  30.939  1.00  0.00     0.049 A 
ATOM     58  H   UNL A   1      45.045  28.999  32.341  1.00  0.00     0.167 HD
ATOM     59  C   UNL A   1      45.000  28.666  29.323  1.00  0.00     0.074 A 
ATOM     60  C   UNL A   1      44.679  27.462  30.091  1.00  0.00     0.031 C 
ATOM     61  C   UNL A   1      44.969  29.990  29.661  1.00  0.00     0.037 A 
BRANCH  48  62
ATOM     62  C   UNL A   1      42.783  28.067  34.217  1.00  0.00     0.058 A 
ATOM     63  C   UNL A   1      42.916  28.356  35.590  1.00  0.00     0.135 A 
ATOM     64  C   UNL A   1      43.290  26.813  33.808  1.00  0.00     0.135 A 
ATOM     65  F   UNL A   1      42.491  29.530  36.086  1.00  0.00    -0.206 F 
ATOM     66  C   UNL A   1      43.552  27.487  36.479  1.00  0.00     0.059 A 
ATOM     67  C   UNL A   1      43.877  25.909  34.686  1.00  0.00     0.059 A 
ATOM     68  F   UNL A   1      43.330  26.445  32.523  1.00  0.00    -0.206 F 
ATOM     69  C   UNL A   1      44.039  26.269  36.013  1.00  0.00     0.060 A 
BRANCH  69  70
ATOM     70  S   UNL A   1      44.933  25.182  37.135  1.00  0.00     0.124 S 
ATOM     71  O   UNL A   1      44.292  25.488  38.409  1.00  0.00    -0.237 OA
ATOM     72  O   UNL A   1      44.646  23.865  36.574  1.00  0.00    -0.237 OA
ATOM     73  O   UNL A   1      46.317  25.625  36.999  1.00  0.00    -0.744 OA
ENDBRANCH  69  70
ENDBRANCH  48  62
BRANCH  49  74
ATOM     74  C   UNL A   1      43.566  25.329  26.267  1.00  0.00     0.058 A 
ATOM     75  C   UNL A   1      44.551  25.115  25.286  1.00  0.00     0.135 A 
ATOM     76  C   UNL A   1      42.896  24.179  26.731  1.00  0.00     0.135 A 
ATOM     77  F   UNL A   1      45.253  26.148  24.796  1.00  0.00    -0.206 F 
ATOM     78  C   UNL A   1      44.893  23.832  24.837  1.00  0.00     0.059 A 
ATOM     79  C   UNL A   1      43.211  22.893  26.291  1.00  0.00     0.059 A 
ATOM     80  F   UNL A   1      41.975  24.258  27.702  1.00  0.00    -0.206 F 
ATOM     81  C   UNL A   1      44.232  22.723  25.363  1.00  0.00     0.060 A 
BRANCH  81  82
ATOM     82  S   UNL A   1      44.797  21.060  24.933  1.00  0.00     0.124 S 
ATOM     83  O   UNL A   1      46.172  21.071  25.420  1.00  0.00    -0.237 OA
ATOM     84  O   UNL A   1      43.866  20.216  25.674  1.00  0.00    -0.237 OA
ATOM     85  O   UNL A   1      44.650  21.015  23.480  1.00  0.00    -0.744 OA
ENDBRANCH  81  82
ENDBRANCH  49  74
BRANCH  61  86
ATOM     86  C   UNL A   1      45.221  31.022  28.586  1.00  0.00     0.058 A 
ATOM     87  C   UNL A   1      44.259  31.467  27.659  1.00  0.00     0.135 A 
ATOM     88  C   UNL A   1      46.447  31.705  28.601  1.00  0.00     0.135 A 
ATOM     89  F   UNL A   1      43.024  30.950  27.641  1.00  0.00    -0.206 F 
ATOM     90  C   UNL A   1      44.522  32.509  26.763  1.00  0.00     0.059 A 
ATOM     91  C   UNL A   1      46.718  32.766  27.742  1.00  0.00     0.059 A 
ATOM     92  F   UNL A   1      47.388  31.374  29.501  1.00  0.00    -0.206 F 
ATOM     93  C   UNL A   1      45.757  33.154  26.813  1.00  0.00     0.060 A 
BRANCH  93  94
ATOM     94  S   UNL A   1      46.072  34.542  25.702  1.00  0.00     0.124 S 
ATOM     95  O   UNL A   1      47.491  34.378  25.401  1.00  0.00    -0.237 OA
ATOM     96  O   UNL A   1      45.156  34.280  24.595  1.00  0.00    -0.237 OA
ATOM     97  O   UNL A   1      45.738  35.712  26.512  1.00  0.00    -0.744 OA
ENDBRANCH  93  94
ENDBRANCH  61  86
ENDBRANCH  35  36
ENDBRANCH  27  30
ENDBRANCH  25  26
ENDBRANCH   1  25
TORSDOF 15
ENDMDL
MODEL 3
REMARK VINA RESULT:     -13.5      1.578      2.233
REMARK SMILES C[C@@H]1C(C(=O)NCCCCNC(=O)c2ccc(-c3c4nc(c(-c5c(F)cc(S(=O)(=O)[O-])cc5F)c5ccc([nH]5)c(-c5c(F)cc(S(=O)(=O)[O-])cc5F)c5nc(c(-c6c(F)cc(S(=O)(=O)[O-])cc6F)c6ccc3[nH]6)C=C5)C=C4)cc2)=NC2=C1C(=O)C[C@H](c1ccccc1)C2
REMARK SMILES IDX 9 1 8 2 7 3 6 4 4 5 5 6 3 8 1 9 2 10 82 11 80 12 81 13 83 14
REMARK SMILES IDX 93 15 84 16 85 17 86 18 87 19 88 20 92 21 89 22 91 23 90 24
REMARK SMILES IDX 10 25 11 26 12 27 13 29 14 30 15 31 79 32 16 33 78 34 17 35
REMARK SMILES IDX 18 36 19 37 72 38 20 39 77 40 71 41 73 42 21 43 76 44 70 45
REMARK SMILES IDX 69 46 22 48 56 49 35 50 55 51 36 52 39 53 54 54 74 55 37 56
REMARK SMILES IDX 38 57 53 59 75 60 40 61 23 62 24 63 33 64 25 65 26 66 32 67
REMARK SMILES IDX 34 68 27 69 28 70 29 71 30 72 31 73 57 74 58 75 67 76 59 77
REMARK SMILES IDX 60 78 66 79 68 80 61 81 62 82 63 83 64 84 65 85 41 86 42 87
REMARK SMILES IDX 51 88 43 89 44 90 50 91 52 92 45 93 46 94 47 95 48 96 49 97
REMARK H PARENT 6 7 11 28 73 47 39 58
REMARK Flexibility Score: inf
ROOT
ATOM      1  C   UNL A   1      38.062  22.461  25.771  1.00  0.00     0.023 C 
ENDROOT
BRANCH   1   2
ATOM      2  C   UNL A   1      37.419  23.620  25.014  1.00  0.00     0.023 C 
BRANCH   2   3
ATOM      3  C   UNL A   1      35.896  23.720  24.883  1.00  0.00     0.116 C 
BRANCH   3   4
ATOM      4  N   UNL A   1      35.076  23.763  26.078  1.00  0.00    -0.351 N 
ATOM      5  C   UNL A   1      33.875  23.105  26.344  1.00  0.00     0.266 C 
ATOM      6  O   UNL A   1      33.558  22.889  27.509  1.00  0.00    -0.268 OA
ATOM      7  H   UNL A   1      35.414  24.337  26.803  1.00  0.00     0.163 HD
BRANCH   5   8
ATOM      8  C   UNL A   1      32.852  22.804  25.246  1.00  0.00     0.113 C 
ATOM      9  C   UNL A   1      32.497  20.584  24.138  1.00  0.00     0.020 C 
ATOM     10  C   UNL A   1      33.132  21.970  24.025  1.00  0.00     0.076 C 
ATOM     11  C   UNL A   1      32.304  22.882  23.175  1.00  0.00     0.026 C 
ATOM     12  N   UNL A   1      31.664  23.364  25.246  1.00  0.00    -0.251 NA
ATOM     13  C   UNL A   1      31.329  23.427  23.909  1.00  0.00     0.049 C 
ATOM     14  C   UNL A   1      32.904  23.802  22.178  1.00  0.00     0.161 C 
ATOM     15  C   UNL A   1      30.521  24.575  23.381  1.00  0.00     0.065 C 
ATOM     16  O   UNL A   1      33.718  23.356  21.370  1.00  0.00    -0.294 OA
ATOM     17  C   UNL A   1      32.607  25.317  22.259  1.00  0.00     0.089 C 
ATOM     18  C   UNL A   1      31.472  25.777  23.233  1.00  0.00     0.033 C 
BRANCH  18  19
ATOM     19  C   UNL A   1      31.904  26.374  24.588  1.00  0.00    -0.044 A 
ATOM     20  C   UNL A   1      33.272  26.545  24.898  1.00  0.00     0.004 A 
ATOM     21  C   UNL A   1      30.986  26.772  25.569  1.00  0.00     0.004 A 
ATOM     22  C   UNL A   1      33.696  27.234  26.035  1.00  0.00     0.000 A 
ATOM     23  C   UNL A   1      31.411  27.438  26.728  1.00  0.00     0.000 A 
ATOM     24  C   UNL A   1      32.761  27.699  26.944  1.00  0.00     0.000 A 
ENDBRANCH  18  19
ENDBRANCH   5   8
ENDBRANCH   3   4
ENDBRANCH   2   3
ENDBRANCH   1   2
BRANCH   1  25
ATOM     25  C   UNL A   1      39.279  22.807  26.608  1.00  0.00     0.116 C 
BRANCH  25  26
ATOM     26  N   UNL A   1      40.531  22.194  26.167  1.00  0.00    -0.352 N 
ATOM     27  C   UNL A   1      41.720  22.855  25.862  1.00  0.00     0.251 C 
ATOM     28  H   UNL A   1      40.535  21.214  26.075  1.00  0.00     0.163 HD
ATOM     29  O   UNL A   1      42.593  22.317  25.208  1.00  0.00    -0.269 OA
BRANCH  27  30
ATOM     30  C   UNL A   1      41.880  24.243  26.351  1.00  0.00     0.039 A 
ATOM     31  C   UNL A   1      41.357  25.336  25.658  1.00  0.00     0.014 A 
ATOM     32  C   UNL A   1      42.499  24.417  27.584  1.00  0.00     0.014 A 
ATOM     33  C   UNL A   1      41.367  26.587  26.277  1.00  0.00     0.010 A 
ATOM     34  C   UNL A   1      42.338  25.597  28.262  1.00  0.00     0.010 A 
ATOM     35  C   UNL A   1      41.827  26.707  27.600  1.00  0.00    -0.014 A 
BRANCH  35  36
ATOM     36  C   UNL A   1      41.680  27.959  28.341  1.00  0.00     0.031 A 
ATOM     37  C   UNL A   1      42.766  28.953  28.114  1.00  0.00     0.074 A 
ATOM     38  C   UNL A   1      40.560  28.300  29.019  1.00  0.00     0.049 A 
ATOM     39  N   UNL A   1      43.662  29.344  28.958  1.00  0.00    -0.248 NA
ATOM     40  C   UNL A   1      42.971  29.472  26.751  1.00  0.00     0.031 C 
ATOM     41  C   UNL A   1      39.280  27.586  29.100  1.00  0.00     0.029 A 
ATOM     42  N   UNL A   1      40.298  29.442  29.711  1.00  0.00    -0.354 N 
ATOM     43  C   UNL A   1      44.398  30.333  28.309  1.00  0.00     0.074 A 
ATOM     44  C   UNL A   1      44.057  30.232  26.913  1.00  0.00     0.031 C 
ATOM     45  C   UNL A   1      38.324  28.414  29.576  1.00  0.00     0.029 A 
ATOM     46  C   UNL A   1      38.955  29.645  30.009  1.00  0.00     0.049 A 
ATOM     47  H   UNL A   1      41.003  30.074  29.979  1.00  0.00     0.167 HD
ATOM     48  C   UNL A   1      45.044  31.309  29.007  1.00  0.00     0.037 A 
ATOM     49  C   UNL A   1      38.396  30.752  30.562  1.00  0.00     0.037 A 
ATOM     50  C   UNL A   1      45.180  30.954  30.399  1.00  0.00     0.049 A 
ATOM     51  C   UNL A   1      39.489  31.476  31.264  1.00  0.00     0.074 A 
ATOM     52  C   UNL A   1      45.734  29.877  31.067  1.00  0.00     0.029 A 
ATOM     53  N   UNL A   1      44.337  31.553  31.306  1.00  0.00    -0.354 N 
ATOM     54  N   UNL A   1      40.114  31.005  32.309  1.00  0.00    -0.248 NA
ATOM     55  C   UNL A   1      40.208  32.495  30.515  1.00  0.00     0.031 C 
ATOM     56  C   UNL A   1      44.812  29.584  32.116  1.00  0.00     0.029 A 
ATOM     57  C   UNL A   1      43.805  30.550  32.082  1.00  0.00     0.049 A 
ATOM     58  H   UNL A   1      44.149  32.516  31.385  1.00  0.00     0.167 HD
ATOM     59  C   UNL A   1      41.447  31.329  32.101  1.00  0.00     0.074 A 
ATOM     60  C   UNL A   1      41.431  32.318  31.023  1.00  0.00     0.031 C 
ATOM     61  C   UNL A   1      42.459  30.566  32.614  1.00  0.00     0.037 A 
BRANCH  48  62
ATOM     62  C   UNL A   1      45.238  32.721  28.508  1.00  0.00     0.058 A 
ATOM     63  C   UNL A   1      46.534  33.274  28.459  1.00  0.00     0.135 A 
ATOM     64  C   UNL A   1      44.179  33.638  28.329  1.00  0.00     0.135 A 
ATOM     65  F   UNL A   1      47.615  32.499  28.640  1.00  0.00    -0.206 F 
ATOM     66  C   UNL A   1      46.757  34.643  28.295  1.00  0.00     0.059 A 
ATOM     67  C   UNL A   1      44.380  34.996  28.110  1.00  0.00     0.059 A 
ATOM     68  F   UNL A   1      42.896  33.280  28.456  1.00  0.00    -0.206 F 
ATOM     69  C   UNL A   1      45.670  35.497  28.132  1.00  0.00     0.060 A 
BRANCH  69  70
ATOM     70  S   UNL A   1      45.946  37.272  28.005  1.00  0.00     0.124 S 
ATOM     71  O   UNL A   1      46.712  37.359  26.767  1.00  0.00    -0.237 OA
ATOM     72  O   UNL A   1      44.582  37.788  27.953  1.00  0.00    -0.237 OA
ATOM     73  O   UNL A   1      46.681  37.584  29.228  1.00  0.00    -0.744 OA
ENDBRANCH  69  70
ENDBRANCH  48  62
BRANCH  49  74
ATOM     74  C   UNL A   1      37.083  31.375  30.236  1.00  0.00     0.058 A 
ATOM     75  C   UNL A   1      36.300  31.987  31.232  1.00  0.00     0.135 A 
ATOM     76  C   UNL A   1      36.700  31.633  28.904  1.00  0.00     0.135 A 
ATOM     77  F   UNL A   1      36.598  31.813  32.528  1.00  0.00    -0.206 F 
ATOM     78  C   UNL A   1      35.241  32.852  30.925  1.00  0.00     0.059 A 
ATOM     79  C   UNL A   1      35.642  32.481  28.573  1.00  0.00     0.059 A 
ATOM     80  F   UNL A   1      37.405  31.143  27.874  1.00  0.00    -0.206 F 
ATOM     81  C   UNL A   1      34.934  33.111  29.589  1.00  0.00     0.060 A 
BRANCH  81  82
ATOM     82  S   UNL A   1      33.698  34.369  29.186  1.00  0.00     0.124 S 
ATOM     83  O   UNL A   1      32.819  33.648  28.272  1.00  0.00    -0.237 OA
ATOM     84  O   UNL A   1      33.135  34.680  30.497  1.00  0.00    -0.237 OA
ATOM     85  O   UNL A   1      34.486  35.439  28.582  1.00  0.00    -0.744 OA
ENDBRANCH  81  82
ENDBRANCH  49  74
BRANCH  61  86
ATOM     86  C   UNL A   1      42.125  29.513  33.646  1.00  0.00     0.058 A 
ATOM     87  C   UNL A   1      41.734  28.193  33.350  1.00  0.00     0.135 A 
ATOM     88  C   UNL A   1      42.369  29.812  34.996  1.00  0.00     0.135 A 
ATOM     89  F   UNL A   1      41.583  27.783  32.084  1.00  0.00    -0.206 F 
ATOM     90  C   UNL A   1      41.552  27.234  34.351  1.00  0.00     0.059 A 
ATOM     91  C   UNL A   1      42.226  28.863  36.005  1.00  0.00     0.059 A 
ATOM     92  F   UNL A   1      42.804  31.034  35.345  1.00  0.00    -0.206 F 
ATOM     93  C   UNL A   1      41.802  27.578  35.679  1.00  0.00     0.060 A 
BRANCH  93  94
ATOM     94  S   UNL A   1      41.630  26.322  36.964  1.00  0.00     0.124 S 
ATOM     95  O   UNL A   1      40.381  26.711  37.609  1.00  0.00    -0.237 OA
ATOM     96  O   UNL A   1      41.586  25.081  36.195  1.00  0.00    -0.237 OA
ATOM     97  O   UNL A   1      42.832  26.498  37.777  1.00  0.00    -0.744 OA
ENDBRANCH  93  94
ENDBRANCH  61  86
ENDBRANCH  35  36
ENDBRANCH  27  30
ENDBRANCH  25  26
ENDBRANCH   1  25
TORSDOF 15
ENDMDL
