MODEL 1
REMARK VINA RESULT:     -12.9      0.000      0.000
REMARK SMILES O=C(NCCCCNC(=O)c1cc(F)c(F)cc1NS(=O)(=O)c1ccc2c(c1)CCC2)c1ccc(-c2c3nc(c(-c4c(F)cc(S(=O)(=O)[O-])cc4F)c4ccc([nH]4)c(-c4c(F)cc(S(=O)(=O)[O-])cc4F)c4nc(c(-c5c(F)cc(S(=O)(=O)[O-])cc5F)c5ccc2[nH]5)C=C4)C=C3)cc1
REMARK SMILES IDX 5 1 4 2 3 3 1 4 2 5 32 7 33 8 97 9 34 10 96 11 35 12 36 13
REMARK SMILES IDX 37 14 90 15 38 16 95 17 89 18 91 19 39 20 94 21 88 22 87 23
REMARK SMILES IDX 40 25 74 26 53 27 73 28 54 29 57 30 72 31 92 32 55 33 56 34
REMARK SMILES IDX 71 36 93 37 58 38 41 39 42 40 51 41 43 42 44 43 50 44 52 45
REMARK SMILES IDX 45 46 46 47 47 48 48 49 49 50 75 51 76 52 85 53 77 54 78 55
REMARK SMILES IDX 84 56 86 57 79 58 80 59 81 60 82 61 83 62 59 63 60 64 69 65
REMARK SMILES IDX 61 66 62 67 68 68 70 69 63 70 64 71 65 72 66 73 67 74 6 75
REMARK SMILES IDX 7 76 8 77 9 78 10 80 11 81 12 82 18 83 13 84 17 85 14 86
REMARK SMILES IDX 15 87 16 88 19 89 20 91 21 92 22 93 23 94 24 95 28 96 25 97
REMARK SMILES IDX 27 98 26 99 29 100 31 101 30 102
REMARK H PARENT 3 6 91 24 57 35 8 79 19 90
REMARK Flexibility Score: inf
ROOT
ATOM      1  C   UNL A   1      37.507  23.501  25.500  1.00  0.00     0.023 C 
ENDROOT
BRANCH   1   2
ATOM      2  C   UNL A   1      38.419  24.084  26.570  1.00  0.00     0.116 C 
BRANCH   2   3
ATOM      3  N   UNL A   1      39.836  23.999  26.240  1.00  0.00    -0.352 N 
ATOM      4  O   UNL A   1      41.999  24.642  26.177  1.00  0.00    -0.269 OA
ATOM      5  C   UNL A   1      40.877  24.806  26.646  1.00  0.00     0.251 C 
ATOM      6  H   UNL A   1      40.085  23.258  25.641  1.00  0.00     0.163 HD
BRANCH   5   7
ATOM      7  C   UNL A   1      40.623  25.894  27.615  1.00  0.00     0.039 A 
ATOM      8  C   UNL A   1      41.393  27.057  27.588  1.00  0.00     0.014 A 
ATOM      9  C   UNL A   1      39.644  25.726  28.598  1.00  0.00     0.014 A 
ATOM     10  C   UNL A   1      41.335  27.942  28.656  1.00  0.00     0.010 A 
ATOM     11  C   UNL A   1      39.506  26.683  29.610  1.00  0.00     0.010 A 
ATOM     12  C   UNL A   1      40.389  27.771  29.682  1.00  0.00    -0.014 A 
BRANCH  12  13
ATOM     13  C   UNL A   1      40.340  28.762  30.791  1.00  0.00     0.031 A 
ATOM     14  C   UNL A   1      39.303  29.856  30.821  1.00  0.00     0.074 A 
ATOM     15  C   UNL A   1      41.212  28.634  31.812  1.00  0.00     0.049 A 
ATOM     16  N   UNL A   1      39.091  30.763  31.742  1.00  0.00    -0.248 NA
ATOM     17  C   UNL A   1      38.392  29.954  29.671  1.00  0.00     0.031 C 
ATOM     18  C   UNL A   1      42.269  27.620  31.893  1.00  0.00     0.029 A 
ATOM     19  N   UNL A   1      41.337  29.331  32.986  1.00  0.00    -0.354 N 
ATOM     20  C   UNL A   1      38.046  31.554  31.274  1.00  0.00     0.074 A 
ATOM     21  C   UNL A   1      37.683  31.034  29.972  1.00  0.00     0.031 C 
ATOM     22  C   UNL A   1      42.888  27.720  33.077  1.00  0.00     0.029 A 
ATOM     23  C   UNL A   1      42.326  28.849  33.809  1.00  0.00     0.049 A 
ATOM     24  H   UNL A   1      40.771  30.103  33.217  1.00  0.00     0.167 HD
ATOM     25  C   UNL A   1      37.443  32.608  31.876  1.00  0.00     0.037 A 
ATOM     26  C   UNL A   1      42.750  29.271  35.015  1.00  0.00     0.037 A 
ATOM     27  C   UNL A   1      37.798  33.104  33.183  1.00  0.00     0.049 A 
ATOM     28  C   UNL A   1      42.073  30.451  35.652  1.00  0.00     0.074 A 
ATOM     29  C   UNL A   1      37.216  34.139  33.897  1.00  0.00     0.029 A 
ATOM     30  N   UNL A   1      38.830  32.610  33.969  1.00  0.00    -0.354 N 
ATOM     31  N   UNL A   1      41.063  31.161  35.207  1.00  0.00    -0.248 NA
ATOM     32  C   UNL A   1      42.593  30.888  36.953  1.00  0.00     0.031 C 
ATOM     33  C   UNL A   1      37.932  34.307  35.088  1.00  0.00     0.029 A 
ATOM     34  C   UNL A   1      38.917  33.336  35.148  1.00  0.00     0.049 A 
ATOM     35  H   UNL A   1      39.413  31.856  33.726  1.00  0.00     0.167 HD
ATOM     36  C   UNL A   1      40.807  32.111  36.188  1.00  0.00     0.074 A 
ATOM     37  C   UNL A   1      41.759  31.874  37.255  1.00  0.00     0.031 C 
ATOM     38  C   UNL A   1      39.867  33.088  36.205  1.00  0.00     0.037 A 
BRANCH  25  39
ATOM     39  C   UNL A   1      36.350  33.322  31.120  1.00  0.00     0.058 A 
ATOM     40  C   UNL A   1      35.003  33.255  31.511  1.00  0.00     0.135 A 
ATOM     41  C   UNL A   1      36.666  34.126  30.011  1.00  0.00     0.135 A 
ATOM     42  F   UNL A   1      34.639  32.494  32.556  1.00  0.00    -0.206 F 
ATOM     43  C   UNL A   1      34.007  33.933  30.814  1.00  0.00     0.059 A 
ATOM     44  C   UNL A   1      35.689  34.837  29.317  1.00  0.00     0.059 A 
ATOM     45  F   UNL A   1      37.936  34.233  29.593  1.00  0.00    -0.206 F 
ATOM     46  C   UNL A   1      34.360  34.721  29.717  1.00  0.00     0.060 A 
BRANCH  46  47
ATOM     47  S   UNL A   1      33.055  35.590  28.821  1.00  0.00     0.124 S 
ATOM     48  O   UNL A   1      32.250  36.117  29.919  1.00  0.00    -0.237 OA
ATOM     49  O   UNL A   1      33.808  36.579  28.056  1.00  0.00    -0.237 OA
ATOM     50  O   UNL A   1      32.424  34.538  28.030  1.00  0.00    -0.744 OA
ENDBRANCH  46  47
ENDBRANCH  25  39
BRANCH  26  51
ATOM     51  C   UNL A   1      43.868  28.567  35.695  1.00  0.00     0.058 A 
ATOM     52  C   UNL A   1      45.202  28.924  35.453  1.00  0.00     0.135 A 
ATOM     53  C   UNL A   1      43.625  27.536  36.618  1.00  0.00     0.135 A 
ATOM     54  F   UNL A   1      45.486  29.901  34.577  1.00  0.00    -0.206 F 
ATOM     55  C   UNL A   1      46.257  28.274  36.085  1.00  0.00     0.059 A 
ATOM     56  C   UNL A   1      44.660  26.895  37.288  1.00  0.00     0.059 A 
ATOM     57  F   UNL A   1      42.365  27.170  36.901  1.00  0.00    -0.206 F 
ATOM     58  C   UNL A   1      45.975  27.262  37.005  1.00  0.00     0.060 A 
BRANCH  58  59
ATOM     59  S   UNL A   1      47.349  26.457  37.856  1.00  0.00     0.124 S 
ATOM     60  O   UNL A   1      48.462  27.331  37.504  1.00  0.00    -0.237 OA
ATOM     61  O   UNL A   1      46.915  26.502  39.248  1.00  0.00    -0.237 OA
ATOM     62  O   UNL A   1      47.377  25.125  37.259  1.00  0.00    -0.744 OA
ENDBRANCH  58  59
ENDBRANCH  26  51
BRANCH  38  63
ATOM     63  C   UNL A   1      39.790  33.945  37.439  1.00  0.00     0.058 A 
ATOM     64  C   UNL A   1      40.582  35.093  37.600  1.00  0.00     0.135 A 
ATOM     65  C   UNL A   1      38.891  33.620  38.470  1.00  0.00     0.135 A 
ATOM     66  F   UNL A   1      41.462  35.446  36.650  1.00  0.00    -0.206 F 
ATOM     67  C   UNL A   1      40.514  35.867  38.755  1.00  0.00     0.059 A 
ATOM     68  C   UNL A   1      38.783  34.399  39.618  1.00  0.00     0.059 A 
ATOM     69  F   UNL A   1      38.103  32.539  38.365  1.00  0.00    -0.206 F 
ATOM     70  C   UNL A   1      39.612  35.511  39.759  1.00  0.00     0.060 A 
BRANCH  70  71
ATOM     71  S   UNL A   1      39.524  36.529  41.247  1.00  0.00     0.124 S 
ATOM     72  O   UNL A   1      38.919  37.752  40.729  1.00  0.00    -0.237 OA
ATOM     73  O   UNL A   1      38.680  35.727  42.126  1.00  0.00    -0.237 OA
ATOM     74  O   UNL A   1      40.918  36.646  41.661  1.00  0.00    -0.744 OA
ENDBRANCH  70  71
ENDBRANCH  38  63
ENDBRANCH  12  13
ENDBRANCH   5   7
ENDBRANCH   2   3
ENDBRANCH   1   2
BRANCH   1  75
ATOM     75  C   UNL A   1      37.630  21.996  25.288  1.00  0.00     0.023 C 
BRANCH  75  76
ATOM     76  C   UNL A   1      36.309  21.230  25.297  1.00  0.00     0.116 C 
BRANCH  76  77
ATOM     77  N   UNL A   1      35.545  21.430  26.524  1.00  0.00    -0.352 N 
ATOM     78  C   UNL A   1      34.194  21.634  26.678  1.00  0.00     0.253 C 
ATOM     79  H   UNL A   1      36.070  21.416  27.358  1.00  0.00     0.163 HD
ATOM     80  O   UNL A   1      33.717  21.996  27.746  1.00  0.00    -0.269 OA
BRANCH  78  81
ATOM     81  C   UNL A   1      33.311  21.488  25.509  1.00  0.00     0.067 A 
ATOM     82  C   UNL A   1      33.058  20.192  25.029  1.00  0.00     0.058 A 
ATOM     83  C   UNL A   1      32.847  22.626  24.820  1.00  0.00     0.065 A 
ATOM     84  C   UNL A   1      32.471  20.039  23.785  1.00  0.00     0.159 A 
ATOM     85  C   UNL A   1      32.360  22.440  23.524  1.00  0.00     0.070 A 
ATOM     86  F   UNL A   1      32.274  18.808  23.296  1.00  0.00    -0.204 F 
ATOM     87  C   UNL A   1      32.156  21.156  23.022  1.00  0.00     0.160 A 
ATOM     88  F   UNL A   1      31.652  21.007  21.790  1.00  0.00    -0.204 F 
BRANCH  83  89
ATOM     89  N   UNL A   1      32.991  23.970  25.340  1.00  0.00    -0.279 N 
ATOM     90  H   UNL A   1      33.880  24.393  25.359  1.00  0.00     0.180 HD
BRANCH  89  91
ATOM     91  S   UNL A   1      31.621  24.835  25.925  1.00  0.00     0.261 S 
ATOM     92  O   UNL A   1      30.725  25.026  24.807  1.00  0.00    -0.201 OA
ATOM     93  O   UNL A   1      31.181  24.121  27.109  1.00  0.00    -0.201 OA
BRANCH  91  94
ATOM     94  C   UNL A   1      32.141  26.457  26.438  1.00  0.00     0.088 A 
ATOM     95  C   UNL A   1      31.207  27.301  27.074  1.00  0.00     0.022 A 
ATOM     96  C   UNL A   1      33.473  26.858  26.268  1.00  0.00     0.026 A 
ATOM     97  C   UNL A   1      31.547  28.617  27.387  1.00  0.00     0.005 A 
ATOM     98  C   UNL A   1      33.817  28.141  26.667  1.00  0.00    -0.043 A 
ATOM     99  C   UNL A   1      32.851  29.024  27.166  1.00  0.00    -0.045 A 
ATOM    100  C   UNL A   1      35.163  28.800  26.624  1.00  0.00     0.036 C 
ATOM    101  C   UNL A   1      33.436  30.388  27.363  1.00  0.00     0.036 C 
ATOM    102  C   UNL A   1      34.922  30.041  27.502  1.00  0.00     0.010 C 
ENDBRANCH  91  94
ENDBRANCH  89  91
ENDBRANCH  83  89
ENDBRANCH  78  81
ENDBRANCH  76  77
ENDBRANCH  75  76
ENDBRANCH   1  75
TORSDOF 17
ENDMDL
MODEL 2
REMARK VINA RESULT:     -12.8      0.709      8.138
REMARK SMILES O=C(NCCCCNC(=O)c1cc(F)c(F)cc1NS(=O)(=O)c1ccc2c(c1)CCC2)c1ccc(-c2c3nc(c(-c4c(F)cc(S(=O)(=O)[O-])cc4F)c4ccc([nH]4)c(-c4c(F)cc(S(=O)(=O)[O-])cc4F)c4nc(c(-c5c(F)cc(S(=O)(=O)[O-])cc5F)c5ccc2[nH]5)C=C4)C=C3)cc1
REMARK SMILES IDX 5 1 4 2 3 3 1 4 2 5 32 7 33 8 97 9 34 10 96 11 35 12 36 13
REMARK SMILES IDX 37 14 90 15 38 16 95 17 89 18 91 19 39 20 94 21 88 22 87 23
REMARK SMILES IDX 40 25 74 26 53 27 73 28 54 29 57 30 72 31 92 32 55 33 56 34
REMARK SMILES IDX 71 36 93 37 58 38 41 39 42 40 51 41 43 42 44 43 50 44 52 45
REMARK SMILES IDX 45 46 46 47 47 48 48 49 49 50 75 51 76 52 85 53 77 54 78 55
REMARK SMILES IDX 84 56 86 57 79 58 80 59 81 60 82 61 83 62 59 63 60 64 69 65
REMARK SMILES IDX 61 66 62 67 68 68 70 69 63 70 64 71 65 72 66 73 67 74 6 75
REMARK SMILES IDX 7 76 8 77 9 78 10 80 11 81 12 82 18 83 13 84 17 85 14 86
REMARK SMILES IDX 15 87 16 88 19 89 20 91 21 92 22 93 23 94 24 95 28 96 25 97
REMARK SMILES IDX 27 98 26 99 29 100 31 101 30 102
REMARK H PARENT 3 6 91 24 57 35 8 79 19 90
REMARK Flexibility Score: inf
ROOT
ATOM      1  C   UNL A   1      38.259  23.181  26.323  1.00  0.00     0.023 C 
ENDROOT
BRANCH   1   2
ATOM      2  C   UNL A   1      38.924  24.550  26.383  1.00  0.00     0.116 C 
BRANCH   2   3
ATOM      3  N   UNL A   1      40.228  24.595  25.733  1.00  0.00    -0.352 N 
ATOM      4  O   UNL A   1      42.343  25.291  25.359  1.00  0.00    -0.269 OA
ATOM      5  C   UNL A   1      41.360  25.293  26.094  1.00  0.00     0.251 C 
ATOM      6  H   UNL A   1      40.311  24.047  24.918  1.00  0.00     0.163 HD
BRANCH   5   7
ATOM      7  C   UNL A   1      41.367  26.076  27.349  1.00  0.00     0.039 A 
ATOM      8  C   UNL A   1      40.597  25.670  28.438  1.00  0.00     0.014 A 
ATOM      9  C   UNL A   1      42.106  27.261  27.417  1.00  0.00     0.014 A 
ATOM     10  C   UNL A   1      40.395  26.544  29.499  1.00  0.00     0.010 A 
ATOM     11  C   UNL A   1      41.993  28.085  28.543  1.00  0.00     0.010 A 
ATOM     12  C   UNL A   1      41.091  27.763  29.570  1.00  0.00    -0.014 A 
BRANCH  12  13
ATOM     13  C   UNL A   1      40.870  28.654  30.740  1.00  0.00     0.031 A 
ATOM     14  C   UNL A   1      41.761  28.593  31.954  1.00  0.00     0.074 A 
ATOM     15  C   UNL A   1      39.881  29.569  30.677  1.00  0.00     0.049 A 
ATOM     16  N   UNL A   1      41.736  29.337  33.032  1.00  0.00    -0.248 NA
ATOM     17  C   UNL A   1      42.810  27.562  31.970  1.00  0.00     0.031 C 
ATOM     18  C   UNL A   1      38.945  29.721  29.559  1.00  0.00     0.029 A 
ATOM     19  N   UNL A   1      39.512  30.561  31.549  1.00  0.00    -0.354 N 
ATOM     20  C   UNL A   1      42.740  28.849  33.863  1.00  0.00     0.074 A 
ATOM     21  C   UNL A   1      43.342  27.728  33.173  1.00  0.00     0.031 C 
ATOM     22  C   UNL A   1      38.156  30.781  29.783  1.00  0.00     0.029 A 
ATOM     23  C   UNL A   1      38.476  31.339  31.091  1.00  0.00     0.049 A 
ATOM     24  H   UNL A   1      39.948  30.702  32.421  1.00  0.00     0.167 HD
ATOM     25  C   UNL A   1      43.129  29.301  35.080  1.00  0.00     0.037 A 
ATOM     26  C   UNL A   1      37.840  32.381  31.660  1.00  0.00     0.037 A 
ATOM     27  C   UNL A   1      42.537  30.434  35.749  1.00  0.00     0.049 A 
ATOM     28  C   UNL A   1      38.281  32.849  33.017  1.00  0.00     0.074 A 
ATOM     29  C   UNL A   1      42.890  30.996  36.965  1.00  0.00     0.029 A 
ATOM     30  N   UNL A   1      41.466  31.173  35.266  1.00  0.00    -0.354 N 
ATOM     31  N   UNL A   1      39.258  32.397  33.768  1.00  0.00    -0.248 NA
ATOM     32  C   UNL A   1      37.535  33.969  33.603  1.00  0.00     0.031 C 
ATOM     33  C   UNL A   1      41.997  32.037  37.243  1.00  0.00     0.029 A 
ATOM     34  C   UNL A   1      41.130  32.168  36.172  1.00  0.00     0.049 A 
ATOM     35  H   UNL A   1      41.013  31.015  34.407  1.00  0.00     0.167 HD
ATOM     36  C   UNL A   1      39.262  33.197  34.904  1.00  0.00     0.074 A 
ATOM     37  C   UNL A   1      38.200  34.169  34.733  1.00  0.00     0.031 C 
ATOM     38  C   UNL A   1      40.073  33.134  35.989  1.00  0.00     0.037 A 
BRANCH  25  39
ATOM     39  C   UNL A   1      44.230  28.555  35.792  1.00  0.00     0.058 A 
ATOM     40  C   UNL A   1      45.584  28.891  35.634  1.00  0.00     0.135 A 
ATOM     41  C   UNL A   1      43.918  27.515  36.684  1.00  0.00     0.135 A 
ATOM     42  F   UNL A   1      45.944  29.868  34.786  1.00  0.00    -0.206 F 
ATOM     43  C   UNL A   1      46.590  28.204  36.310  1.00  0.00     0.059 A 
ATOM     44  C   UNL A   1      44.906  26.834  37.393  1.00  0.00     0.059 A 
ATOM     45  F   UNL A   1      42.641  27.152  36.880  1.00  0.00    -0.206 F 
ATOM     46  C   UNL A   1      46.240  27.177  37.187  1.00  0.00     0.060 A 
BRANCH  46  47
ATOM     47  S   UNL A   1      47.556  26.293  38.052  1.00  0.00     0.124 S 
ATOM     48  O   UNL A   1      46.812  25.208  38.682  1.00  0.00    -0.237 OA
ATOM     49  O   UNL A   1      48.442  25.904  36.958  1.00  0.00    -0.237 OA
ATOM     50  O   UNL A   1      48.097  27.295  38.966  1.00  0.00    -0.744 OA
ENDBRANCH  46  47
ENDBRANCH  25  39
BRANCH  26  51
ATOM     51  C   UNL A   1      36.723  33.048  30.941  1.00  0.00     0.058 A 
ATOM     52  C   UNL A   1      35.390  32.841  31.324  1.00  0.00     0.135 A 
ATOM     53  C   UNL A   1      36.967  33.924  29.870  1.00  0.00     0.135 A 
ATOM     54  F   UNL A   1      35.106  32.010  32.339  1.00  0.00    -0.206 F 
ATOM     55  C   UNL A   1      34.337  33.461  30.661  1.00  0.00     0.059 A 
ATOM     56  C   UNL A   1      35.934  34.582  29.213  1.00  0.00     0.059 A 
ATOM     57  F   UNL A   1      38.226  34.172  29.478  1.00  0.00    -0.206 F 
ATOM     58  C   UNL A   1      34.620  34.334  29.608  1.00  0.00     0.060 A 
BRANCH  58  59
ATOM     59  S   UNL A   1      33.249  35.171  28.785  1.00  0.00     0.124 S 
ATOM     60  O   UNL A   1      32.456  35.622  29.922  1.00  0.00    -0.237 OA
ATOM     61  O   UNL A   1      33.936  36.214  28.030  1.00  0.00    -0.237 OA
ATOM     62  O   UNL A   1      32.649  34.114  27.976  1.00  0.00    -0.744 OA
ENDBRANCH  58  59
ENDBRANCH  26  51
BRANCH  38  63
ATOM     63  C   UNL A   1      39.876  34.177  37.055  1.00  0.00     0.058 A 
ATOM     64  C   UNL A   1      39.143  33.918  38.225  1.00  0.00     0.135 A 
ATOM     65  C   UNL A   1      40.450  35.452  36.912  1.00  0.00     0.135 A 
ATOM     66  F   UNL A   1      38.567  32.719  38.410  1.00  0.00    -0.206 F 
ATOM     67  C   UNL A   1      38.953  34.897  39.195  1.00  0.00     0.059 A 
ATOM     68  C   UNL A   1      40.300  36.435  37.885  1.00  0.00     0.059 A 
ATOM     69  F   UNL A   1      41.169  35.750  35.818  1.00  0.00    -0.206 F 
ATOM     70  C   UNL A   1      39.535  36.153  39.015  1.00  0.00     0.060 A 
BRANCH  70  71
ATOM     71  S   UNL A   1      39.291  37.411  40.287  1.00  0.00     0.124 S 
ATOM     72  O   UNL A   1      40.665  37.812  40.569  1.00  0.00    -0.237 OA
ATOM     73  O   UNL A   1      38.471  38.400  39.595  1.00  0.00    -0.237 OA
ATOM     74  O   UNL A   1      38.617  36.685  41.358  1.00  0.00    -0.744 OA
ENDBRANCH  70  71
ENDBRANCH  38  63
ENDBRANCH  12  13
ENDBRANCH   5   7
ENDBRANCH   2   3
ENDBRANCH   1   2
BRANCH   1  75
ATOM     75  C   UNL A   1      36.817  23.179  25.830  1.00  0.00     0.023 C 
BRANCH  75  76
ATOM     76  C   UNL A   1      36.042  21.891  26.099  1.00  0.00     0.116 C 
BRANCH  76  77
ATOM     77  N   UNL A   1      35.063  22.032  27.172  1.00  0.00    -0.352 N 
ATOM     78  C   UNL A   1      33.698  22.167  27.084  1.00  0.00     0.253 C 
ATOM     79  H   UNL A   1      35.431  22.028  28.085  1.00  0.00     0.163 HD
ATOM     80  O   UNL A   1      33.021  22.486  28.053  1.00  0.00    -0.269 OA
BRANCH  78  81
ATOM     81  C   UNL A   1      33.045  22.000  25.775  1.00  0.00     0.067 A 
ATOM     82  C   UNL A   1      32.758  20.695  25.342  1.00  0.00     0.058 A 
ATOM     83  C   UNL A   1      32.839  23.111  24.934  1.00  0.00     0.065 A 
ATOM     84  C   UNL A   1      32.407  20.489  24.018  1.00  0.00     0.159 A 
ATOM     85  C   UNL A   1      32.593  22.859  23.583  1.00  0.00     0.070 A 
ATOM     86  F   UNL A   1      32.183  19.242  23.583  1.00  0.00    -0.204 F 
ATOM     87  C   UNL A   1      32.360  21.559  23.136  1.00  0.00     0.160 A 
ATOM     88  F   UNL A   1      32.088  21.351  21.841  1.00  0.00    -0.204 F 
BRANCH  83  89
ATOM     89  N   UNL A   1      33.017  24.478  25.382  1.00  0.00    -0.279 N 
ATOM     90  H   UNL A   1      33.924  24.858  25.441  1.00  0.00     0.180 HD
BRANCH  89  91
ATOM     91  S   UNL A   1      31.657  25.441  25.814  1.00  0.00     0.261 S 
ATOM     92  O   UNL A   1      30.915  25.705  24.602  1.00  0.00    -0.201 OA
ATOM     93  O   UNL A   1      31.029  24.759  26.930  1.00  0.00    -0.201 OA
BRANCH  91  94
ATOM     94  C   UNL A   1      32.234  27.017  26.406  1.00  0.00     0.088 A 
ATOM     95  C   UNL A   1      31.295  27.935  26.922  1.00  0.00     0.022 A 
ATOM     96  C   UNL A   1      33.605  27.309  26.415  1.00  0.00     0.026 A 
ATOM     97  C   UNL A   1      31.696  29.219  27.288  1.00  0.00     0.005 A 
ATOM     98  C   UNL A   1      33.995  28.560  26.867  1.00  0.00    -0.043 A 
ATOM     99  C   UNL A   1      33.046  29.520  27.244  1.00  0.00    -0.045 A 
ATOM    100  C   UNL A   1      35.384  29.109  27.006  1.00  0.00     0.036 C 
ATOM    101  C   UNL A   1      33.708  30.832  27.527  1.00  0.00     0.036 C 
ATOM    102  C   UNL A   1      35.130  30.366  27.857  1.00  0.00     0.010 C 
ENDBRANCH  91  94
ENDBRANCH  89  91
ENDBRANCH  83  89
ENDBRANCH  78  81
ENDBRANCH  76  77
ENDBRANCH  75  76
ENDBRANCH   1  75
TORSDOF 17
ENDMDL
MODEL 3
REMARK VINA RESULT:     -12.8      5.141     10.638
REMARK SMILES O=C(NCCCCNC(=O)c1cc(F)c(F)cc1NS(=O)(=O)c1ccc2c(c1)CCC2)c1ccc(-c2c3nc(c(-c4c(F)cc(S(=O)(=O)[O-])cc4F)c4ccc([nH]4)c(-c4c(F)cc(S(=O)(=O)[O-])cc4F)c4nc(c(-c5c(F)cc(S(=O)(=O)[O-])cc5F)c5ccc2[nH]5)C=C4)C=C3)cc1
REMARK SMILES IDX 5 1 4 2 3 3 1 4 2 5 32 7 33 8 97 9 34 10 96 11 35 12 36 13
REMARK SMILES IDX 37 14 90 15 38 16 95 17 89 18 91 19 39 20 94 21 88 22 87 23
REMARK SMILES IDX 40 25 74 26 53 27 73 28 54 29 57 30 72 31 92 32 55 33 56 34
REMARK SMILES IDX 71 36 93 37 58 38 41 39 42 40 51 41 43 42 44 43 50 44 52 45
REMARK SMILES IDX 45 46 46 47 47 48 48 49 49 50 75 51 76 52 85 53 77 54 78 55
REMARK SMILES IDX 84 56 86 57 79 58 80 59 81 60 82 61 83 62 59 63 60 64 69 65
REMARK SMILES IDX 61 66 62 67 68 68 70 69 63 70 64 71 65 72 66 73 67 74 6 75
REMARK SMILES IDX 7 76 8 77 9 78 10 80 11 81 12 82 18 83 13 84 17 85 14 86
REMARK SMILES IDX 15 87 16 88 19 89 20 91 21 92 22 93 23 94 24 95 28 96 25 97
REMARK SMILES IDX 27 98 26 99 29 100 31 101 30 102
REMARK H PARENT 3 6 91 24 57 35 8 79 19 90
REMARK Flexibility Score: inf
ROOT
ATOM      1  C   UNL A   1      32.775  28.057  25.869  1.00  0.00     0.023 C 
ENDROOT
BRANCH   1   2
ATOM      2  C   UNL A   1      33.446  28.330  27.208  1.00  0.00     0.116 C 
BRANCH   2   3
ATOM      3  N   UNL A   1      33.363  29.723  27.630  1.00  0.00    -0.352 N 
ATOM      4  O   UNL A   1      34.051  31.657  28.569  1.00  0.00    -0.269 OA
ATOM      5  C   UNL A   1      34.338  30.530  28.174  1.00  0.00     0.251 C 
ATOM      6  H   UNL A   1      32.482  30.147  27.508  1.00  0.00     0.163 HD
BRANCH   5   7
ATOM      7  C   UNL A   1      35.717  30.015  28.318  1.00  0.00     0.039 A 
ATOM      8  C   UNL A   1      36.164  29.528  29.545  1.00  0.00     0.014 A 
ATOM      9  C   UNL A   1      36.591  30.073  27.228  1.00  0.00     0.014 A 
ATOM     10  C   UNL A   1      37.520  29.306  29.742  1.00  0.00     0.010 A 
ATOM     11  C   UNL A   1      37.937  29.734  27.400  1.00  0.00     0.010 A 
ATOM     12  C   UNL A   1      38.428  29.403  28.673  1.00  0.00    -0.014 A 
BRANCH  12  13
ATOM     13  C   UNL A   1      39.868  29.125  28.921  1.00  0.00     0.031 A 
ATOM     14  C   UNL A   1      40.492  27.808  28.535  1.00  0.00     0.074 A 
ATOM     15  C   UNL A   1      40.633  30.101  29.453  1.00  0.00     0.049 A 
ATOM     16  N   UNL A   1      41.742  27.429  28.633  1.00  0.00    -0.248 NA
ATOM     17  C   UNL A   1      39.603  26.778  27.977  1.00  0.00     0.031 C 
ATOM     18  C   UNL A   1      40.142  31.416  29.876  1.00  0.00     0.029 A 
ATOM     19  N   UNL A   1      41.980  30.158  29.702  1.00  0.00    -0.354 N 
ATOM     20  C   UNL A   1      41.786  26.116  28.178  1.00  0.00     0.074 A 
ATOM     21  C   UNL A   1      40.430  25.752  27.826  1.00  0.00     0.031 C 
ATOM     22  C   UNL A   1      41.179  32.169  30.271  1.00  0.00     0.029 A 
ATOM     23  C   UNL A   1      42.396  31.369  30.200  1.00  0.00     0.049 A 
ATOM     24  H   UNL A   1      42.590  29.402  29.541  1.00  0.00     0.167 HD
ATOM     25  C   UNL A   1      42.858  25.294  28.057  1.00  0.00     0.037 A 
ATOM     26  C   UNL A   1      43.618  31.793  30.573  1.00  0.00     0.037 A 
ATOM     27  C   UNL A   1      44.209  25.673  28.390  1.00  0.00     0.049 A 
ATOM     28  C   UNL A   1      44.785  30.856  30.444  1.00  0.00     0.074 A 
ATOM     29  C   UNL A   1      45.369  24.927  28.261  1.00  0.00     0.029 A 
ATOM     30  N   UNL A   1      44.583  26.898  28.924  1.00  0.00    -0.354 N 
ATOM     31  N   UNL A   1      44.809  29.630  29.975  1.00  0.00    -0.248 NA
ATOM     32  C   UNL A   1      46.088  31.359  30.892  1.00  0.00     0.031 C 
ATOM     33  C   UNL A   1      46.433  25.678  28.770  1.00  0.00     0.029 A 
ATOM     34  C   UNL A   1      45.951  26.918  29.154  1.00  0.00     0.049 A 
ATOM     35  H   UNL A   1      43.969  27.643  29.111  1.00  0.00     0.167 HD
ATOM     36  C   UNL A   1      46.136  29.226  30.046  1.00  0.00     0.074 A 
ATOM     37  C   UNL A   1      46.884  30.342  30.588  1.00  0.00     0.031 C 
ATOM     38  C   UNL A   1      46.686  28.038  29.691  1.00  0.00     0.037 A 
BRANCH  25  39
ATOM     39  C   UNL A   1      42.617  23.887  27.569  1.00  0.00     0.058 A 
ATOM     40  C   UNL A   1      42.603  23.561  26.203  1.00  0.00     0.135 A 
ATOM     41  C   UNL A   1      42.445  22.839  28.489  1.00  0.00     0.135 A 
ATOM     42  F   UNL A   1      42.750  24.522  25.277  1.00  0.00    -0.206 F 
ATOM     43  C   UNL A   1      42.396  22.255  25.767  1.00  0.00     0.059 A 
ATOM     44  C   UNL A   1      42.266  21.520  28.076  1.00  0.00     0.059 A 
ATOM     45  F   UNL A   1      42.454  23.088  29.808  1.00  0.00    -0.206 F 
ATOM     46  C   UNL A   1      42.228  21.241  26.712  1.00  0.00     0.060 A 
BRANCH  46  47
ATOM     47  S   UNL A   1      41.956  19.553  26.130  1.00  0.00     0.124 S 
ATOM     48  O   UNL A   1      42.826  19.506  24.959  1.00  0.00    -0.237 OA
ATOM     49  O   UNL A   1      42.389  18.756  27.274  1.00  0.00    -0.237 OA
ATOM     50  O   UNL A   1      40.524  19.515  25.848  1.00  0.00    -0.744 OA
ENDBRANCH  46  47
ENDBRANCH  25  39
BRANCH  26  51
ATOM     51  C   UNL A   1      43.794  33.172  31.100  1.00  0.00     0.058 A 
ATOM     52  C   UNL A   1      44.029  34.252  30.238  1.00  0.00     0.135 A 
ATOM     53  C   UNL A   1      43.708  33.441  32.476  1.00  0.00     0.135 A 
ATOM     54  F   UNL A   1      44.123  34.046  28.915  1.00  0.00    -0.206 F 
ATOM     55  C   UNL A   1      44.193  35.547  30.719  1.00  0.00     0.059 A 
ATOM     56  C   UNL A   1      43.834  34.731  32.979  1.00  0.00     0.059 A 
ATOM     57  F   UNL A   1      43.464  32.446  33.343  1.00  0.00    -0.206 F 
ATOM     58  C   UNL A   1      44.089  35.776  32.093  1.00  0.00     0.060 A 
BRANCH  58  59
ATOM     59  S   UNL A   1      44.256  37.467  32.703  1.00  0.00     0.124 S 
ATOM     60  O   UNL A   1      44.100  38.238  31.475  1.00  0.00    -0.237 OA
ATOM     61  O   UNL A   1      43.157  37.557  33.659  1.00  0.00    -0.237 OA
ATOM     62  O   UNL A   1      45.592  37.480  33.291  1.00  0.00    -0.744 OA
ENDBRANCH  58  59
ENDBRANCH  26  51
BRANCH  38  63
ATOM     63  C   UNL A   1      48.177  27.902  29.831  1.00  0.00     0.058 A 
ATOM     64  C   UNL A   1      48.772  27.366  30.985  1.00  0.00     0.135 A 
ATOM     65  C   UNL A   1      49.025  28.297  28.782  1.00  0.00     0.135 A 
ATOM     66  F   UNL A   1      48.009  26.980  32.021  1.00  0.00    -0.206 F 
ATOM     67  C   UNL A   1      50.154  27.263  31.110  1.00  0.00     0.059 A 
ATOM     68  C   UNL A   1      50.408  28.171  28.873  1.00  0.00     0.059 A 
ATOM     69  F   UNL A   1      48.510  28.806  27.652  1.00  0.00    -0.206 F 
ATOM     70  C   UNL A   1      50.963  27.669  30.048  1.00  0.00     0.060 A 
BRANCH  70  71
ATOM     71  S   UNL A   1      52.755  27.519  30.217  1.00  0.00     0.124 S 
ATOM     72  O   UNL A   1      52.993  26.200  29.641  1.00  0.00    -0.237 OA
ATOM     73  O   UNL A   1      53.239  28.651  29.434  1.00  0.00    -0.237 OA
ATOM     74  O   UNL A   1      52.970  27.623  31.657  1.00  0.00    -0.744 OA
ENDBRANCH  70  71
ENDBRANCH  38  63
ENDBRANCH  12  13
ENDBRANCH   5   7
ENDBRANCH   2   3
ENDBRANCH   1   2
BRANCH   1  75
ATOM     75  C   UNL A   1      33.714  27.640  24.743  1.00  0.00     0.023 C 
BRANCH  75  76
ATOM     76  C   UNL A   1      33.550  28.419  23.439  1.00  0.00     0.116 C 
BRANCH  76  77
ATOM     77  N   UNL A   1      33.727  27.585  22.255  1.00  0.00    -0.352 N 
ATOM     78  C   UNL A   1      32.904  26.602  21.759  1.00  0.00     0.253 C 
ATOM     79  H   UNL A   1      34.549  27.751  21.738  1.00  0.00     0.163 HD
ATOM     80  O   UNL A   1      33.275  25.839  20.876  1.00  0.00    -0.269 OA
BRANCH  78  81
ATOM     81  C   UNL A   1      31.572  26.414  22.359  1.00  0.00     0.067 A 
ATOM     82  C   UNL A   1      30.678  27.496  22.334  1.00  0.00     0.058 A 
ATOM     83  C   UNL A   1      31.264  25.226  23.050  1.00  0.00     0.065 A 
ATOM     84  C   UNL A   1      29.541  27.446  23.123  1.00  0.00     0.159 A 
ATOM     85  C   UNL A   1      30.170  25.252  23.919  1.00  0.00     0.070 A 
ATOM     86  F   UNL A   1      28.709  28.495  23.147  1.00  0.00    -0.204 F 
ATOM     87  C   UNL A   1      29.307  26.347  23.937  1.00  0.00     0.160 A 
ATOM     88  F   UNL A   1      28.245  26.328  24.752  1.00  0.00    -0.204 F 
BRANCH  83  89
ATOM     89  N   UNL A   1      32.110  24.050  23.006  1.00  0.00    -0.279 N 
ATOM     90  H   UNL A   1      31.990  23.390  22.285  1.00  0.00     0.180 HD
BRANCH  89  91
ATOM     91  S   UNL A   1      33.320  23.798  24.204  1.00  0.00     0.261 S 
ATOM     92  O   UNL A   1      34.541  24.396  23.715  1.00  0.00    -0.201 OA
ATOM     93  O   UNL A   1      32.734  24.238  25.456  1.00  0.00    -0.201 OA
BRANCH  91  94
ATOM     94  C   UNL A   1      33.634  22.052  24.345  1.00  0.00     0.088 A 
ATOM     95  C   UNL A   1      34.821  21.623  24.974  1.00  0.00     0.022 A 
ATOM     96  C   UNL A   1      32.685  21.125  23.892  1.00  0.00     0.026 A 
ATOM     97  C   UNL A   1      35.154  20.269  25.000  1.00  0.00     0.005 A 
ATOM     98  C   UNL A   1      32.992  19.778  24.008  1.00  0.00    -0.043 A 
ATOM     99  C   UNL A   1      34.235  19.361  24.502  1.00  0.00    -0.045 A 
ATOM    100  C   UNL A   1      32.150  18.595  23.632  1.00  0.00     0.036 C 
ATOM    101  C   UNL A   1      34.385  17.879  24.368  1.00  0.00     0.036 C 
ATOM    102  C   UNL A   1      32.915  17.449  24.317  1.00  0.00     0.010 C 
ENDBRANCH  91  94
ENDBRANCH  89  91
ENDBRANCH  83  89
ENDBRANCH  78  81
ENDBRANCH  76  77
ENDBRANCH  75  76
ENDBRANCH   1  75
TORSDOF 17
ENDMDL
