MODEL 1
REMARK VINA RESULT:     -11.8      0.000      0.000
REMARK SMILES COc1cc(NC(=O)[C@@H]2CC=CC[C@H]2C(=O)NCCCCNC(=O)c2ccc(-c3c4nc(c(-c5c(F)cc(S(=O)(=O)[O-])cc5F)c5ccc([nH]5)c(-c5c(F)cc(S(=O)(=O)[O-])cc5F)c5nc(c(-c6c(F)cc(S(=O)(=O)[O-])cc6F)c6ccc3[nH]6)C=C5)C=C4)cc2)c(OC)cc1Cl
REMARK SMILES IDX 19 1 18 2 17 3 15 4 16 5 14 7 9 8 10 9 11 10 13 11 12 12
REMARK SMILES IDX 7 13 6 14 8 16 5 17 3 18 4 19 95 20 94 21 96 22 91 23 2 24
REMARK SMILES IDX 1 25 92 26 93 27 20 28 21 29 22 30 23 31 24 33 25 34 26 35
REMARK SMILES IDX 90 36 27 37 89 38 28 39 29 40 30 41 83 42 31 43 88 44 82 45
REMARK SMILES IDX 84 46 32 47 87 48 81 49 80 50 33 52 67 53 46 54 66 55 47 56
REMARK SMILES IDX 50 57 65 58 85 59 48 60 49 61 64 63 86 64 51 65 34 66 35 67
REMARK SMILES IDX 44 68 36 69 37 70 43 71 45 72 38 73 39 74 40 75 41 76 42 77
REMARK SMILES IDX 68 78 69 79 78 80 70 81 71 82 77 83 79 84 72 85 73 86 74 87
REMARK SMILES IDX 75 88 76 89 52 90 53 91 62 92 54 93 55 94 61 95 63 96 56 97
REMARK SMILES IDX 57 98 58 99 59 100 60 101
REMARK H PARENT 17 6 6 15 22 32 84 51 50 62
REMARK Flexibility Score: inf
ROOT
ATOM      1  C   UNL A   1      33.728  26.848  25.293  1.00  0.00     0.023 C 
ENDROOT
BRANCH   1   2
ATOM      2  C   UNL A   1      33.631  26.639  23.776  1.00  0.00     0.116 C 
BRANCH   2   3
ATOM      3  N   UNL A   1      33.818  25.260  23.351  1.00  0.00    -0.356 N 
ATOM      4  C   UNL A   1      32.961  24.197  23.290  1.00  0.00     0.224 C 
ATOM      5  O   UNL A   1      33.368  23.171  22.738  1.00  0.00    -0.275 OA
ATOM      6  H   UNL A   1      34.733  25.054  23.052  1.00  0.00     0.163 HD
BRANCH   4   7
ATOM      7  C   UNL A   1      31.519  24.255  23.777  1.00  0.00     0.095 C 
ATOM      8  C   UNL A   1      31.305  24.253  25.312  1.00  0.00     0.095 C 
ATOM      9  C   UNL A   1      30.005  25.045  25.690  1.00  0.00     0.041 C 
ATOM     10  C   UNL A   1      29.649  26.248  24.889  1.00  0.00    -0.030 C 
ATOM     11  C   UNL A   1      30.954  25.446  22.947  1.00  0.00     0.041 C 
ATOM     12  C   UNL A   1      30.061  26.415  23.635  1.00  0.00    -0.030 C 
BRANCH   8  13
ATOM     13  C   UNL A   1      31.151  22.892  26.065  1.00  0.00     0.228 C 
ATOM     14  N   UNL A   1      32.037  21.909  26.320  1.00  0.00    -0.323 N 
ATOM     15  H   UNL A   1      31.601  21.234  26.888  1.00  0.00     0.170 HD
ATOM     16  O   UNL A   1      30.057  22.638  26.610  1.00  0.00    -0.274 OA
BRANCH  14  17
ATOM     17  C   UNL A   1      33.354  21.494  26.070  1.00  0.00     0.087 A 
ATOM     18  C   UNL A   1      35.739  21.837  25.860  1.00  0.00     0.139 A 
ATOM     19  C   UNL A   1      34.490  22.204  26.381  1.00  0.00     0.078 A 
ATOM     20  C   UNL A   1      35.880  20.638  25.162  1.00  0.00     0.086 A 
ATOM     21  C   UNL A   1      34.766  19.825  24.970  1.00  0.00     0.073 A 
ATOM     22  Cl  UNL A   1      37.399  20.090  24.556  1.00  0.00    -0.080 Cl
ATOM     23  C   UNL A   1      33.512  20.243  25.430  1.00  0.00     0.144 A 
BRANCH  18  24
ATOM     24  O   UNL A   1      36.781  22.700  26.090  1.00  0.00    -0.495 OA
ATOM     25  C   UNL A   1      36.921  23.629  25.003  1.00  0.00     0.278 C 
ENDBRANCH  18  24
BRANCH  23  26
ATOM     26  O   UNL A   1      32.362  19.498  25.271  1.00  0.00    -0.495 OA
ATOM     27  C   UNL A   1      32.441  18.440  24.317  1.00  0.00     0.278 C 
ENDBRANCH  23  26
ENDBRANCH  14  17
ENDBRANCH   8  13
ENDBRANCH   4   7
ENDBRANCH   2   3
ENDBRANCH   1   2
BRANCH   1  28
ATOM     28  C   UNL A   1      33.136  28.142  25.847  1.00  0.00     0.023 C 
BRANCH  28  29
ATOM     29  C   UNL A   1      33.428  28.433  27.310  1.00  0.00     0.116 C 
BRANCH  29  30
ATOM     30  N   UNL A   1      33.387  29.848  27.636  1.00  0.00    -0.352 N 
ATOM     31  C   UNL A   1      34.377  30.660  28.142  1.00  0.00     0.251 C 
ATOM     32  H   UNL A   1      32.524  30.293  27.472  1.00  0.00     0.163 HD
ATOM     33  O   UNL A   1      34.119  31.819  28.436  1.00  0.00    -0.269 OA
BRANCH  31  34
ATOM     34  C   UNL A   1      35.737  30.117  28.369  1.00  0.00     0.039 A 
ATOM     35  C   UNL A   1      36.640  30.112  27.302  1.00  0.00     0.014 A 
ATOM     36  C   UNL A   1      36.132  29.641  29.621  1.00  0.00     0.014 A 
ATOM     37  C   UNL A   1      37.960  29.705  27.514  1.00  0.00     0.010 A 
ATOM     38  C   UNL A   1      37.466  29.312  29.850  1.00  0.00     0.010 A 
ATOM     39  C   UNL A   1      38.395  29.345  28.800  1.00  0.00    -0.014 A 
BRANCH  39  40
ATOM     40  C   UNL A   1      39.822  29.027  29.066  1.00  0.00     0.031 A 
ATOM     41  C   UNL A   1      40.741  30.067  29.643  1.00  0.00     0.074 A 
ATOM     42  C   UNL A   1      40.303  27.813  28.726  1.00  0.00     0.049 A 
ATOM     43  N   UNL A   1      42.022  29.987  29.898  1.00  0.00    -0.248 NA
ATOM     44  C   UNL A   1      40.150  31.379  29.951  1.00  0.00     0.031 C 
ATOM     45  C   UNL A   1      39.526  26.739  28.103  1.00  0.00     0.029 A 
ATOM     46  N   UNL A   1      41.563  27.281  28.847  1.00  0.00    -0.354 N 
ATOM     47  C   UNL A   1      42.392  31.236  30.384  1.00  0.00     0.074 A 
ATOM     48  C   UNL A   1      41.213  32.071  30.339  1.00  0.00     0.031 C 
ATOM     49  C   UNL A   1      40.318  25.670  27.920  1.00  0.00     0.029 A 
ATOM     50  C   UNL A   1      41.665  25.993  28.378  1.00  0.00     0.049 A 
ATOM     51  H   UNL A   1      42.322  27.777  29.232  1.00  0.00     0.167 HD
ATOM     52  C   UNL A   1      43.599  31.640  30.850  1.00  0.00     0.037 A 
ATOM     53  C   UNL A   1      42.727  25.164  28.319  1.00  0.00     0.037 A 
ATOM     54  C   UNL A   1      44.764  30.797  30.913  1.00  0.00     0.049 A 
ATOM     55  C   UNL A   1      44.054  25.635  28.846  1.00  0.00     0.074 A 
ATOM     56  C   UNL A   1      46.015  31.094  31.425  1.00  0.00     0.029 A 
ATOM     57  N   UNL A   1      44.824  29.491  30.446  1.00  0.00    -0.354 N 
ATOM     58  N   UNL A   1      44.368  26.797  29.368  1.00  0.00    -0.248 NA
ATOM     59  C   UNL A   1      45.170  24.682  28.781  1.00  0.00     0.031 C 
ATOM     60  C   UNL A   1      46.844  29.984  31.229  1.00  0.00     0.029 A 
ATOM     61  C   UNL A   1      46.098  28.977  30.638  1.00  0.00     0.049 A 
ATOM     62  H   UNL A   1      44.074  29.001  30.038  1.00  0.00     0.167 HD
ATOM     63  C   UNL A   1      45.712  26.707  29.715  1.00  0.00     0.074 A 
ATOM     64  C   UNL A   1      46.145  25.371  29.358  1.00  0.00     0.031 C 
ATOM     65  C   UNL A   1      46.515  27.645  30.275  1.00  0.00     0.037 A 
BRANCH  52  66
ATOM     66  C   UNL A   1      43.717  33.059  31.336  1.00  0.00     0.058 A 
ATOM     67  C   UNL A   1      43.510  33.395  32.684  1.00  0.00     0.135 A 
ATOM     68  C   UNL A   1      44.074  34.091  30.454  1.00  0.00     0.135 A 
ATOM     69  F   UNL A   1      43.152  32.450  33.570  1.00  0.00    -0.206 F 
ATOM     70  C   UNL A   1      43.624  34.706  33.134  1.00  0.00     0.059 A 
ATOM     71  C   UNL A   1      44.221  35.406  30.888  1.00  0.00     0.059 A 
ATOM     72  F   UNL A   1      44.283  33.828  29.154  1.00  0.00    -0.206 F 
ATOM     73  C   UNL A   1      43.978  35.705  32.228  1.00  0.00     0.060 A 
BRANCH  73  74
ATOM     74  S   UNL A   1      44.125  37.401  32.829  1.00  0.00     0.124 S 
ATOM     75  O   UNL A   1      43.022  37.467  33.784  1.00  0.00    -0.237 OA
ATOM     76  O   UNL A   1      45.465  37.413  33.408  1.00  0.00    -0.237 OA
ATOM     77  O   UNL A   1      43.959  38.206  31.623  1.00  0.00    -0.744 OA
ENDBRANCH  73  74
ENDBRANCH  52  66
BRANCH  53  78
ATOM     78  C   UNL A   1      42.569  23.795  27.761  1.00  0.00     0.058 A 
ATOM     79  C   UNL A   1      42.551  23.578  26.374  1.00  0.00     0.135 A 
ATOM     80  C   UNL A   1      42.448  22.675  28.598  1.00  0.00     0.135 A 
ATOM     81  F   UNL A   1      42.658  24.617  25.533  1.00  0.00    -0.206 F 
ATOM     82  C   UNL A   1      42.403  22.303  25.837  1.00  0.00     0.059 A 
ATOM     83  C   UNL A   1      42.325  21.387  28.084  1.00  0.00     0.059 A 
ATOM     84  F   UNL A   1      42.476  22.826  29.931  1.00  0.00    -0.206 F 
ATOM     85  C   UNL A   1      42.293  21.213  26.702  1.00  0.00     0.060 A 
BRANCH  85  86
ATOM     86  S   UNL A   1      42.152  19.558  25.994  1.00  0.00     0.124 S 
ATOM     87  O   UNL A   1      40.738  19.509  25.640  1.00  0.00    -0.237 OA
ATOM     88  O   UNL A   1      43.089  19.621  24.877  1.00  0.00    -0.237 OA
ATOM     89  O   UNL A   1      42.558  18.687  27.093  1.00  0.00    -0.744 OA
ENDBRANCH  85  86
ENDBRANCH  53  78
BRANCH  65  90
ATOM     90  C   UNL A   1      47.938  27.252  30.560  1.00  0.00     0.058 A 
ATOM     91  C   UNL A   1      48.964  27.472  29.627  1.00  0.00     0.135 A 
ATOM     92  C   UNL A   1      48.286  26.680  31.794  1.00  0.00     0.135 A 
ATOM     93  F   UNL A   1      48.684  28.010  28.430  1.00  0.00    -0.206 F 
ATOM     94  C   UNL A   1      50.280  27.110  29.896  1.00  0.00     0.059 A 
ATOM     95  C   UNL A   1      49.600  26.337  32.096  1.00  0.00     0.059 A 
ATOM     96  F   UNL A   1      47.345  26.459  32.727  1.00  0.00    -0.206 F 
ATOM     97  C   UNL A   1      50.588  26.542  31.134  1.00  0.00     0.060 A 
BRANCH  97  98
ATOM     98  S   UNL A   1      52.303  26.095  31.479  1.00  0.00     0.124 S 
ATOM     99  O   UNL A   1      52.155  24.733  31.981  1.00  0.00    -0.237 OA
ATOM    100  O   UNL A   1      52.930  26.223  30.167  1.00  0.00    -0.237 OA
ATOM    101  O   UNL A   1      52.720  27.087  32.466  1.00  0.00    -0.744 OA
ENDBRANCH  97  98
ENDBRANCH  65  90
ENDBRANCH  39  40
ENDBRANCH  31  34
ENDBRANCH  29  30
ENDBRANCH  28  29
ENDBRANCH   1  28
TORSDOF 18
ENDMDL
MODEL 2
REMARK VINA RESULT:     -11.0      2.697      3.382
REMARK SMILES COc1cc(NC(=O)[C@@H]2CC=CC[C@H]2C(=O)NCCCCNC(=O)c2ccc(-c3c4nc(c(-c5c(F)cc(S(=O)(=O)[O-])cc5F)c5ccc([nH]5)c(-c5c(F)cc(S(=O)(=O)[O-])cc5F)c5nc(c(-c6c(F)cc(S(=O)(=O)[O-])cc6F)c6ccc3[nH]6)C=C5)C=C4)cc2)c(OC)cc1Cl
REMARK SMILES IDX 19 1 18 2 17 3 15 4 16 5 14 7 9 8 10 9 11 10 13 11 12 12
REMARK SMILES IDX 7 13 6 14 8 16 5 17 3 18 4 19 95 20 94 21 96 22 91 23 2 24
REMARK SMILES IDX 1 25 92 26 93 27 20 28 21 29 22 30 23 31 24 33 25 34 26 35
REMARK SMILES IDX 90 36 27 37 89 38 28 39 29 40 30 41 83 42 31 43 88 44 82 45
REMARK SMILES IDX 84 46 32 47 87 48 81 49 80 50 33 52 67 53 46 54 66 55 47 56
REMARK SMILES IDX 50 57 65 58 85 59 48 60 49 61 64 63 86 64 51 65 34 66 35 67
REMARK SMILES IDX 44 68 36 69 37 70 43 71 45 72 38 73 39 74 40 75 41 76 42 77
REMARK SMILES IDX 68 78 69 79 78 80 70 81 71 82 77 83 79 84 72 85 73 86 74 87
REMARK SMILES IDX 75 88 76 89 52 90 53 91 62 92 54 93 55 94 61 95 63 96 56 97
REMARK SMILES IDX 57 98 58 99 59 100 60 101
REMARK H PARENT 17 6 6 15 22 32 84 51 50 62
REMARK Flexibility Score: inf
ROOT
ATOM      1  C   UNL A   1      32.147  27.819  27.098  1.00  0.00     0.023 C 
ENDROOT
BRANCH   1   2
ATOM      2  C   UNL A   1      31.050  26.924  26.505  1.00  0.00     0.116 C 
BRANCH   2   3
ATOM      3  N   UNL A   1      30.631  27.302  25.164  1.00  0.00    -0.356 N 
ATOM      4  C   UNL A   1      30.973  26.824  23.930  1.00  0.00     0.224 C 
ATOM      5  O   UNL A   1      30.335  27.245  22.961  1.00  0.00    -0.275 OA
ATOM      6  H   UNL A   1      29.980  28.040  25.141  1.00  0.00     0.163 HD
BRANCH   4   7
ATOM      7  C   UNL A   1      32.023  25.741  23.714  1.00  0.00     0.095 C 
ATOM      8  C   UNL A   1      31.527  24.273  23.772  1.00  0.00     0.095 C 
ATOM      9  C   UNL A   1      32.399  23.360  22.841  1.00  0.00     0.041 C 
ATOM     10  C   UNL A   1      32.903  23.927  21.560  1.00  0.00    -0.030 C 
ATOM     11  C   UNL A   1      32.727  26.240  22.417  1.00  0.00     0.041 C 
ATOM     12  C   UNL A   1      33.076  25.234  21.380  1.00  0.00    -0.030 C 
BRANCH   8  13
ATOM     13  C   UNL A   1      31.517  23.519  25.140  1.00  0.00     0.228 C 
ATOM     14  N   UNL A   1      32.493  22.877  25.811  1.00  0.00    -0.323 N 
ATOM     15  H   UNL A   1      32.136  22.587  26.682  1.00  0.00     0.170 HD
ATOM     16  O   UNL A   1      30.468  23.534  25.816  1.00  0.00    -0.274 OA
BRANCH  14  17
ATOM     17  C   UNL A   1      33.832  22.468  25.723  1.00  0.00     0.087 A 
ATOM     18  C   UNL A   1      36.198  22.832  25.373  1.00  0.00     0.139 A 
ATOM     19  C   UNL A   1      34.927  23.302  25.730  1.00  0.00     0.078 A 
ATOM     20  C   UNL A   1      36.409  21.467  25.180  1.00  0.00     0.086 A 
ATOM     21  C   UNL A   1      35.342  20.584  25.322  1.00  0.00     0.073 A 
ATOM     22  Cl  UNL A   1      37.961  20.811  24.810  1.00  0.00    -0.080 Cl
ATOM     23  C   UNL A   1      34.063  21.078  25.603  1.00  0.00     0.144 A 
BRANCH  18  24
ATOM     24  O   UNL A   1      37.190  23.771  25.247  1.00  0.00    -0.495 OA
ATOM     25  C   UNL A   1      37.856  23.980  26.502  1.00  0.00     0.278 C 
ENDBRANCH  18  24
BRANCH  23  26
ATOM     26  O   UNL A   1      32.956  20.269  25.751  1.00  0.00    -0.495 OA
ATOM     27  C   UNL A   1      32.932  19.103  24.929  1.00  0.00     0.278 C 
ENDBRANCH  23  26
ENDBRANCH  14  17
ENDBRANCH   8  13
ENDBRANCH   4   7
ENDBRANCH   2   3
ENDBRANCH   1   2
BRANCH   1  28
ATOM     28  C   UNL A   1      33.543  27.681  26.497  1.00  0.00     0.023 C 
BRANCH  28  29
ATOM     29  C   UNL A   1      34.033  28.863  25.676  1.00  0.00     0.116 C 
BRANCH  29  30
ATOM     30  N   UNL A   1      33.720  30.150  26.273  1.00  0.00    -0.352 N 
ATOM     31  C   UNL A   1      34.352  30.817  27.298  1.00  0.00     0.251 C 
ATOM     32  H   UNL A   1      32.942  30.614  25.889  1.00  0.00     0.163 HD
ATOM     33  O   UNL A   1      33.879  31.863  27.722  1.00  0.00    -0.269 OA
BRANCH  31  34
ATOM     34  C   UNL A   1      35.574  30.247  27.912  1.00  0.00     0.039 A 
ATOM     35  C   UNL A   1      36.795  30.419  27.252  1.00  0.00     0.014 A 
ATOM     36  C   UNL A   1      35.530  29.571  29.133  1.00  0.00     0.014 A 
ATOM     37  C   UNL A   1      37.977  29.985  27.857  1.00  0.00     0.010 A 
ATOM     38  C   UNL A   1      36.714  29.212  29.771  1.00  0.00     0.010 A 
ATOM     39  C   UNL A   1      37.951  29.419  29.142  1.00  0.00    -0.014 A 
BRANCH  39  40
ATOM     40  C   UNL A   1      39.208  29.064  29.850  1.00  0.00     0.031 A 
ATOM     41  C   UNL A   1      39.638  29.827  31.072  1.00  0.00     0.074 A 
ATOM     42  C   UNL A   1      39.996  28.091  29.349  1.00  0.00     0.049 A 
ATOM     43  N   UNL A   1      40.723  29.692  31.791  1.00  0.00    -0.248 NA
ATOM     44  C   UNL A   1      38.743  30.900  31.535  1.00  0.00     0.031 C 
ATOM     45  C   UNL A   1      39.720  27.319  28.135  1.00  0.00     0.029 A 
ATOM     46  N   UNL A   1      41.196  27.590  29.792  1.00  0.00    -0.354 N 
ATOM     47  C   UNL A   1      40.648  30.665  32.780  1.00  0.00     0.074 A 
ATOM     48  C   UNL A   1      39.438  31.419  32.538  1.00  0.00     0.031 C 
ATOM     49  C   UNL A   1      40.705  26.427  27.945  1.00  0.00     0.029 A 
ATOM     50  C   UNL A   1      41.701  26.586  29.000  1.00  0.00     0.049 A 
ATOM     51  H   UNL A   1      41.651  27.920  30.600  1.00  0.00     0.167 HD
ATOM     52  C   UNL A   1      41.497  30.893  33.811  1.00  0.00     0.037 A 
ATOM     53  C   UNL A   1      42.841  25.876  29.107  1.00  0.00     0.037 A 
ATOM     54  C   UNL A   1      42.689  30.124  34.060  1.00  0.00     0.049 A 
ATOM     55  C   UNL A   1      43.766  26.144  30.263  1.00  0.00     0.074 A 
ATOM     56  C   UNL A   1      43.582  30.236  35.112  1.00  0.00     0.029 A 
ATOM     57  N   UNL A   1      43.159  29.103  33.246  1.00  0.00    -0.354 N 
ATOM     58  N   UNL A   1      43.643  27.023  31.229  1.00  0.00    -0.248 NA
ATOM     59  C   UNL A   1      44.981  25.323  30.346  1.00  0.00     0.031 C 
ATOM     60  C   UNL A   1      44.614  29.313  34.912  1.00  0.00     0.029 A 
ATOM     61  C   UNL A   1      44.340  28.592  33.761  1.00  0.00     0.049 A 
ATOM     62  H   UNL A   1      42.719  28.788  32.424  1.00  0.00     0.167 HD
ATOM     63  C   UNL A   1      44.752  26.844  32.048  1.00  0.00     0.074 A 
ATOM     64  C   UNL A   1      45.525  25.763  31.472  1.00  0.00     0.031 C 
ATOM     65  C   UNL A   1      45.101  27.516  33.174  1.00  0.00     0.037 A 
BRANCH  52  66
ATOM     66  C   UNL A   1      41.162  32.017  34.754  1.00  0.00     0.058 A 
ATOM     67  C   UNL A   1      40.433  31.794  35.934  1.00  0.00     0.135 A 
ATOM     68  C   UNL A   1      41.602  33.324  34.495  1.00  0.00     0.135 A 
ATOM     69  F   UNL A   1      39.975  30.566  36.226  1.00  0.00    -0.206 F 
ATOM     70  C   UNL A   1      40.127  32.832  36.808  1.00  0.00     0.059 A 
ATOM     71  C   UNL A   1      41.331  34.374  35.370  1.00  0.00     0.059 A 
ATOM     72  F   UNL A   1      42.301  33.594  33.382  1.00  0.00    -0.206 F 
ATOM     73  C   UNL A   1      40.580  34.119  36.516  1.00  0.00     0.060 A 
BRANCH  73  74
ATOM     74  S   UNL A   1      40.177  35.455  37.662  1.00  0.00     0.124 S 
ATOM     75  O   UNL A   1      41.333  35.431  38.553  1.00  0.00    -0.237 OA
ATOM     76  O   UNL A   1      40.084  36.611  36.775  1.00  0.00    -0.237 OA
ATOM     77  O   UNL A   1      38.916  35.023  38.258  1.00  0.00    -0.744 OA
ENDBRANCH  73  74
ENDBRANCH  52  66
BRANCH  53  78
ATOM     78  C   UNL A   1      43.158  24.825  28.104  1.00  0.00     0.058 A 
ATOM     79  C   UNL A   1      43.785  25.150  26.892  1.00  0.00     0.135 A 
ATOM     80  C   UNL A   1      42.856  23.475  28.341  1.00  0.00     0.135 A 
ATOM     81  F   UNL A   1      44.089  26.427  26.617  1.00  0.00    -0.206 F 
ATOM     82  C   UNL A   1      44.087  24.178  25.943  1.00  0.00     0.059 A 
ATOM     83  C   UNL A   1      43.171  22.481  27.419  1.00  0.00     0.059 A 
ATOM     84  F   UNL A   1      42.271  23.108  29.493  1.00  0.00    -0.206 F 
ATOM     85  C   UNL A   1      43.778  22.845  26.218  1.00  0.00     0.060 A 
BRANCH  85  86
ATOM     86  S   UNL A   1      44.219  21.585  25.001  1.00  0.00     0.124 S 
ATOM     87  O   UNL A   1      43.213  20.561  25.259  1.00  0.00    -0.237 OA
ATOM     88  O   UNL A   1      44.082  22.313  23.743  1.00  0.00    -0.237 OA
ATOM     89  O   UNL A   1      45.588  21.233  25.365  1.00  0.00    -0.744 OA
ENDBRANCH  85  86
ENDBRANCH  53  78
BRANCH  65  90
ATOM     90  C   UNL A   1      46.362  27.084  33.870  1.00  0.00     0.058 A 
ATOM     91  C   UNL A   1      46.361  26.052  34.822  1.00  0.00     0.135 A 
ATOM     92  C   UNL A   1      47.591  27.686  33.556  1.00  0.00     0.135 A 
ATOM     93  F   UNL A   1      45.212  25.448  35.163  1.00  0.00    -0.206 F 
ATOM     94  C   UNL A   1      47.531  25.652  35.461  1.00  0.00     0.059 A 
ATOM     95  C   UNL A   1      48.777  27.283  34.162  1.00  0.00     0.059 A 
ATOM     96  F   UNL A   1      47.649  28.670  32.644  1.00  0.00    -0.206 F 
ATOM     97  C   UNL A   1      48.734  26.275  35.125  1.00  0.00     0.060 A 
BRANCH  97  98
ATOM     98  S   UNL A   1      50.248  25.735  35.946  1.00  0.00     0.124 S 
ATOM     99  O   UNL A   1      50.983  25.132  34.839  1.00  0.00    -0.237 OA
ATOM    100  O   UNL A   1      50.791  26.990  36.459  1.00  0.00    -0.237 OA
ATOM    101  O   UNL A   1      49.769  24.804  36.963  1.00  0.00    -0.744 OA
ENDBRANCH  97  98
ENDBRANCH  65  90
ENDBRANCH  39  40
ENDBRANCH  31  34
ENDBRANCH  29  30
ENDBRANCH  28  29
ENDBRANCH   1  28
TORSDOF 18
ENDMDL
MODEL 3
REMARK VINA RESULT:     -11.0      4.401      5.840
REMARK SMILES COc1cc(NC(=O)[C@@H]2CC=CC[C@H]2C(=O)NCCCCNC(=O)c2ccc(-c3c4nc(c(-c5c(F)cc(S(=O)(=O)[O-])cc5F)c5ccc([nH]5)c(-c5c(F)cc(S(=O)(=O)[O-])cc5F)c5nc(c(-c6c(F)cc(S(=O)(=O)[O-])cc6F)c6ccc3[nH]6)C=C5)C=C4)cc2)c(OC)cc1Cl
REMARK SMILES IDX 19 1 18 2 17 3 15 4 16 5 14 7 9 8 10 9 11 10 13 11 12 12
REMARK SMILES IDX 7 13 6 14 8 16 5 17 3 18 4 19 95 20 94 21 96 22 91 23 2 24
REMARK SMILES IDX 1 25 92 26 93 27 20 28 21 29 22 30 23 31 24 33 25 34 26 35
REMARK SMILES IDX 90 36 27 37 89 38 28 39 29 40 30 41 83 42 31 43 88 44 82 45
REMARK SMILES IDX 84 46 32 47 87 48 81 49 80 50 33 52 67 53 46 54 66 55 47 56
REMARK SMILES IDX 50 57 65 58 85 59 48 60 49 61 64 63 86 64 51 65 34 66 35 67
REMARK SMILES IDX 44 68 36 69 37 70 43 71 45 72 38 73 39 74 40 75 41 76 42 77
REMARK SMILES IDX 68 78 69 79 78 80 70 81 71 82 77 83 79 84 72 85 73 86 74 87
REMARK SMILES IDX 75 88 76 89 52 90 53 91 62 92 54 93 55 94 61 95 63 96 56 97
REMARK SMILES IDX 57 98 58 99 59 100 60 101
REMARK H PARENT 17 6 6 15 22 32 84 51 50 62
REMARK Flexibility Score: inf
ROOT
ATOM      1  C   UNL A   1      34.647  30.421  27.638  1.00  0.00     0.023 C 
ENDROOT
BRANCH   1   2
ATOM      2  C   UNL A   1      33.860  29.273  26.993  1.00  0.00     0.116 C 
BRANCH   2   3
ATOM      3  N   UNL A   1      32.634  28.922  27.694  1.00  0.00    -0.356 N 
ATOM      4  C   UNL A   1      31.594  28.100  27.362  1.00  0.00     0.224 C 
ATOM      5  O   UNL A   1      30.747  27.876  28.231  1.00  0.00    -0.275 OA
ATOM      6  H   UNL A   1      32.535  29.358  28.570  1.00  0.00     0.163 HD
BRANCH   4   7
ATOM      7  C   UNL A   1      31.488  27.384  26.021  1.00  0.00     0.095 C 
ATOM      8  C   UNL A   1      30.356  26.334  25.884  1.00  0.00     0.095 C 
ATOM      9  C   UNL A   1      29.860  26.248  24.398  1.00  0.00     0.041 C 
ATOM     10  C   UNL A   1      29.821  27.497  23.589  1.00  0.00    -0.030 C 
ATOM     11  C   UNL A   1      31.522  28.579  25.022  1.00  0.00     0.041 C 
ATOM     12  C   UNL A   1      30.596  28.544  23.861  1.00  0.00    -0.030 C 
BRANCH   8  13
ATOM     13  C   UNL A   1      30.636  24.847  26.276  1.00  0.00     0.228 C 
ATOM     14  N   UNL A   1      31.649  24.017  25.960  1.00  0.00    -0.323 N 
ATOM     15  H   UNL A   1      31.529  23.173  26.453  1.00  0.00     0.170 HD
ATOM     16  O   UNL A   1      29.857  24.290  27.077  1.00  0.00    -0.274 OA
BRANCH  14  17
ATOM     17  C   UNL A   1      32.813  23.914  25.183  1.00  0.00     0.087 A 
ATOM     18  C   UNL A   1      34.041  23.891  23.100  1.00  0.00     0.139 A 
ATOM     19  C   UNL A   1      32.928  24.273  23.860  1.00  0.00     0.078 A 
ATOM     20  C   UNL A   1      35.139  23.294  23.720  1.00  0.00     0.086 A 
ATOM     21  C   UNL A   1      35.106  23.063  25.092  1.00  0.00     0.073 A 
ATOM     22  Cl  UNL A   1      36.571  22.864  22.859  1.00  0.00    -0.080 Cl
ATOM     23  C   UNL A   1      33.955  23.380  25.824  1.00  0.00     0.144 A 
BRANCH  18  24
ATOM     24  O   UNL A   1      33.987  24.149  21.753  1.00  0.00    -0.495 OA
ATOM     25  C   UNL A   1      32.910  25.049  21.450  1.00  0.00     0.278 C 
ENDBRANCH  18  24
BRANCH  23  26
ATOM     26  O   UNL A   1      33.843  23.174  27.182  1.00  0.00    -0.495 OA
ATOM     27  C   UNL A   1      34.078  21.838  27.624  1.00  0.00     0.278 C 
ENDBRANCH  23  26
ENDBRANCH  14  17
ENDBRANCH   8  13
ENDBRANCH   4   7
ENDBRANCH   2   3
ENDBRANCH   1   2
BRANCH   1  28
ATOM     28  C   UNL A   1      34.240  31.839  27.244  1.00  0.00     0.023 C 
BRANCH  28  29
ATOM     29  C   UNL A   1      32.914  32.329  27.803  1.00  0.00     0.116 C 
BRANCH  29  30
ATOM     30  N   UNL A   1      32.804  33.777  27.844  1.00  0.00    -0.352 N 
ATOM     31  C   UNL A   1      33.537  34.691  28.566  1.00  0.00     0.251 C 
ATOM     32  H   UNL A   1      32.102  34.162  27.271  1.00  0.00     0.163 HD
ATOM     33  O   UNL A   1      33.231  35.875  28.532  1.00  0.00    -0.269 OA
BRANCH  31  34
ATOM     34  C   UNL A   1      34.663  34.235  29.413  1.00  0.00     0.039 A 
ATOM     35  C   UNL A   1      34.373  33.535  30.588  1.00  0.00     0.014 A 
ATOM     36  C   UNL A   1      35.991  34.468  29.050  1.00  0.00     0.014 A 
ATOM     37  C   UNL A   1      35.414  33.002  31.352  1.00  0.00     0.010 A 
ATOM     38  C   UNL A   1      37.023  33.869  29.767  1.00  0.00     0.010 A 
ATOM     39  C   UNL A   1      36.746  33.125  30.923  1.00  0.00    -0.014 A 
BRANCH  39  40
ATOM     40  C   UNL A   1      37.853  32.461  31.658  1.00  0.00     0.031 A 
ATOM     41  C   UNL A   1      38.308  32.987  32.991  1.00  0.00     0.074 A 
ATOM     42  C   UNL A   1      38.492  31.418  31.089  1.00  0.00     0.049 A 
ATOM     43  N   UNL A   1      39.285  32.569  33.754  1.00  0.00    -0.248 NA
ATOM     44  C   UNL A   1      37.587  34.153  33.527  1.00  0.00     0.031 C 
ATOM     45  C   UNL A   1      38.185  30.853  29.773  1.00  0.00     0.029 A 
ATOM     46  N   UNL A   1      39.539  30.652  31.541  1.00  0.00    -0.354 N 
ATOM     47  C   UNL A   1      39.303  33.423  34.851  1.00  0.00     0.074 A 
ATOM     48  C   UNL A   1      38.275  34.416  34.629  1.00  0.00     0.031 C 
ATOM     49  C   UNL A   1      39.006  29.816  29.536  1.00  0.00     0.029 A 
ATOM     50  C   UNL A   1      39.920  29.665  30.663  1.00  0.00     0.049 A 
ATOM     51  H   UNL A   1      39.976  30.798  32.411  1.00  0.00     0.167 HD
ATOM     52  C   UNL A   1      40.089  33.369  35.954  1.00  0.00     0.037 A 
ATOM     53  C   UNL A   1      40.899  28.744  30.753  1.00  0.00     0.037 A 
ATOM     54  C   UNL A   1      41.097  32.366  36.179  1.00  0.00     0.049 A 
ATOM     55  C   UNL A   1      41.755  28.702  31.988  1.00  0.00     0.074 A 
ATOM     56  C   UNL A   1      41.901  32.188  37.291  1.00  0.00     0.029 A 
ATOM     57  N   UNL A   1      41.441  31.371  35.275  1.00  0.00    -0.354 N 
ATOM     58  N   UNL A   1      41.711  29.474  33.048  1.00  0.00    -0.248 NA
ATOM     59  C   UNL A   1      42.790  27.661  32.045  1.00  0.00     0.031 C 
ATOM     60  C   UNL A   1      42.762  31.113  37.042  1.00  0.00     0.029 A 
ATOM     61  C   UNL A   1      42.462  30.590  35.795  1.00  0.00     0.049 A 
ATOM     62  H   UNL A   1      41.023  31.238  34.393  1.00  0.00     0.167 HD
ATOM     63  C   UNL A   1      42.696  28.998  33.906  1.00  0.00     0.074 A 
ATOM     64  C   UNL A   1      43.307  27.861  33.249  1.00  0.00     0.031 C 
ATOM     65  C   UNL A   1      43.063  29.462  35.127  1.00  0.00     0.037 A 
BRANCH  52  66
ATOM     66  C   UNL A   1      39.883  34.424  37.007  1.00  0.00     0.058 A 
ATOM     67  C   UNL A   1      40.484  35.689  36.908  1.00  0.00     0.135 A 
ATOM     68  C   UNL A   1      39.049  34.181  38.110  1.00  0.00     0.135 A 
ATOM     69  F   UNL A   1      41.303  35.972  35.882  1.00  0.00    -0.206 F 
ATOM     70  C   UNL A   1      40.290  36.666  37.879  1.00  0.00     0.059 A 
ATOM     71  C   UNL A   1      38.818  35.154  39.080  1.00  0.00     0.059 A 
ATOM     72  F   UNL A   1      38.450  32.990  38.256  1.00  0.00    -0.206 F 
ATOM     73  C   UNL A   1      39.456  36.388  38.963  1.00  0.00     0.060 A 
BRANCH  73  74
ATOM     74  S   UNL A   1      39.213  37.667  40.213  1.00  0.00     0.124 S 
ATOM     75  O   UNL A   1      38.129  38.448  39.622  1.00  0.00    -0.237 OA
ATOM     76  O   UNL A   1      38.860  36.887  41.395  1.00  0.00    -0.237 OA
ATOM     77  O   UNL A   1      40.508  38.338  40.272  1.00  0.00    -0.744 OA
ENDBRANCH  73  74
ENDBRANCH  52  66
BRANCH  53  78
ATOM     78  C   UNL A   1      41.106  27.770  29.648  1.00  0.00     0.058 A 
ATOM     79  C   UNL A   1      40.195  26.725  29.427  1.00  0.00     0.135 A 
ATOM     80  C   UNL A   1      42.207  27.870  28.783  1.00  0.00     0.135 A 
ATOM     81  F   UNL A   1      39.131  26.584  30.231  1.00  0.00    -0.206 F 
ATOM     82  C   UNL A   1      40.376  25.805  28.399  1.00  0.00     0.059 A 
ATOM     83  C   UNL A   1      42.395  26.977  27.732  1.00  0.00     0.059 A 
ATOM     84  F   UNL A   1      43.098  28.862  28.940  1.00  0.00    -0.206 F 
ATOM     85  C   UNL A   1      41.479  25.942  27.555  1.00  0.00     0.060 A 
BRANCH  85  86
ATOM     86  S   UNL A   1      41.677  24.772  26.193  1.00  0.00     0.124 S 
ATOM     87  O   UNL A   1      40.543  23.880  26.404  1.00  0.00    -0.237 OA
ATOM     88  O   UNL A   1      41.596  25.644  25.025  1.00  0.00    -0.237 OA
ATOM     89  O   UNL A   1      42.993  24.190  26.440  1.00  0.00    -0.744 OA
ENDBRANCH  85  86
ENDBRANCH  53  78
BRANCH  65  90
ATOM     90  C   UNL A   1      44.161  28.723  35.842  1.00  0.00     0.058 A 
ATOM     91  C   UNL A   1      43.887  27.647  36.701  1.00  0.00     0.135 A 
ATOM     92  C   UNL A   1      45.505  29.074  35.639  1.00  0.00     0.135 A 
ATOM     93  F   UNL A   1      42.618  27.275  36.935  1.00  0.00    -0.206 F 
ATOM     94  C   UNL A   1      44.905  26.964  37.358  1.00  0.00     0.059 A 
ATOM     95  C   UNL A   1      46.541  28.387  36.263  1.00  0.00     0.059 A 
ATOM     96  F   UNL A   1      45.823  30.088  34.818  1.00  0.00    -0.206 F 
ATOM     97  C   UNL A   1      46.230  27.342  37.132  1.00  0.00     0.060 A 
BRANCH  97  98
ATOM     98  S   UNL A   1      47.545  26.436  37.974  1.00  0.00     0.124 S 
ATOM     99  O   UNL A   1      46.861  25.200  38.340  1.00  0.00    -0.237 OA
ATOM    100  O   UNL A   1      48.559  26.315  36.931  1.00  0.00    -0.237 OA
ATOM    101  O   UNL A   1      47.901  27.310  39.087  1.00  0.00    -0.744 OA
ENDBRANCH  97  98
ENDBRANCH  65  90
ENDBRANCH  39  40
ENDBRANCH  31  34
ENDBRANCH  29  30
ENDBRANCH  28  29
ENDBRANCH   1  28
TORSDOF 18
ENDMDL
