MODEL 1
REMARK VINA RESULT:     -12.8      0.000      0.000
REMARK SMILES C[C@@H]1C[N@@H+](Cc2cccc(C(=O)NCCCCNC(=O)c3ccc(-c4c5nc(c(-c6c(F)cc(S(=O)(=O)[O-])cc6F)c6ccc([nH]6)c(-c6c(F)cc(S(=O)(=O)[O-])cc6F)c6nc(c(-c7c(F)cc(S(=O)(=O)[O-])cc7F)c7ccc4[nH]7)C=C6)C=C5)cc3)c2)CCN1C(=O)OC(C)(C)C
REMARK SMILES IDX 14 1 13 2 11 3 12 4 10 6 6 7 7 8 87 9 8 10 9 11 5 12 4 13
REMARK SMILES IDX 1 14 2 15 3 16 90 17 89 18 88 19 91 21 92 22 93 23 94 24
REMARK SMILES IDX 95 25 96 26 97 27 15 28 16 29 17 30 18 31 19 32 20 34 21 35
REMARK SMILES IDX 22 36 86 37 23 38 85 39 24 40 25 41 26 42 79 43 27 44 84 45
REMARK SMILES IDX 78 46 80 47 28 48 83 49 77 50 76 51 29 53 63 54 42 55 62 56
REMARK SMILES IDX 43 57 46 58 61 59 81 60 44 61 45 62 60 64 82 65 47 66 30 67
REMARK SMILES IDX 31 68 40 69 32 70 33 71 39 72 41 73 34 74 35 75 36 76 37 77
REMARK SMILES IDX 38 78 64 79 65 80 74 81 66 82 67 83 73 84 75 85 68 86 69 87
REMARK SMILES IDX 70 88 71 89 72 90 48 91 49 92 58 93 50 94 51 95 57 96 59 97
REMARK SMILES IDX 52 98 53 99 54 100 55 101 56 102
REMARK H PARENT 13 5 4 20 18 33 80 52 46 63
REMARK Flexibility Score: inf
ROOT
ATOM      1  C   UNL A   1      36.862  22.906  25.495  1.00  0.00     0.116 C 
ENDROOT
BRANCH   1   2
ATOM      2  N   UNL A   1      35.961  22.410  26.513  1.00  0.00    -0.352 N 
ATOM      3  C   UNL A   1      34.650  22.000  26.466  1.00  0.00     0.251 C 
ATOM      4  O   UNL A   1      34.176  21.513  27.495  1.00  0.00    -0.269 OA
ATOM      5  H   UNL A   1      36.363  22.358  27.409  1.00  0.00     0.163 HD
BRANCH   3   6
ATOM      6  C   UNL A   1      33.801  22.041  25.236  1.00  0.00     0.040 A 
ATOM      7  C   UNL A   1      32.820  23.146  23.284  1.00  0.00     0.007 A 
ATOM      8  C   UNL A   1      32.386  21.903  22.805  1.00  0.00     0.009 A 
ATOM      9  C   UNL A   1      33.431  23.203  24.554  1.00  0.00     0.023 A 
ATOM     10  C   UNL A   1      32.627  20.744  23.540  1.00  0.00     0.001 A 
ATOM     11  C   UNL A   1      33.359  20.810  24.726  1.00  0.00     0.014 A 
BRANCH   7  12
ATOM     12  C   UNL A   1      32.710  24.389  22.414  1.00  0.00     0.299 C 
BRANCH  12  13
ATOM     13  N   UNL A   1      32.346  25.652  23.103  1.00  0.00    -0.328 N 
ATOM     14  C   UNL A   1      30.950  27.160  25.538  1.00  0.00     0.037 C 
ATOM     15  C   UNL A   1      30.508  27.134  24.070  1.00  0.00     0.140 C 
ATOM     16  C   UNL A   1      30.893  25.790  23.362  1.00  0.00     0.287 C 
ATOM     17  N   UNL A   1      31.080  28.267  23.318  1.00  0.00    -0.294 N 
ATOM     18  C   UNL A   1      32.519  28.170  23.075  1.00  0.00     0.185 C 
ATOM     19  C   UNL A   1      32.825  26.843  22.375  1.00  0.00     0.284 C 
ATOM     20  H   UNL A   1      32.819  25.596  24.005  1.00  0.00     0.348 HD
BRANCH  17  21
ATOM     21  C   UNL A   1      30.351  29.220  22.626  1.00  0.00     0.410 C 
ATOM     22  O   UNL A   1      30.503  29.437  21.432  1.00  0.00    -0.224 OA
BRANCH  21  23
ATOM     23  O   UNL A   1      29.456  29.881  23.411  1.00  0.00    -0.444 OA
BRANCH  23  24
ATOM     24  C   UNL A   1      28.126  30.187  22.901  1.00  0.00     0.106 C 
ATOM     25  C   UNL A   1      27.426  31.256  23.751  1.00  0.00     0.056 C 
ATOM     26  C   UNL A   1      28.161  30.574  21.418  1.00  0.00     0.056 C 
ATOM     27  C   UNL A   1      27.338  28.874  23.039  1.00  0.00     0.056 C 
ENDBRANCH  23  24
ENDBRANCH  21  23
ENDBRANCH  17  21
ENDBRANCH  12  13
ENDBRANCH   7  12
ENDBRANCH   3   6
ENDBRANCH   1   2
BRANCH   1  28
ATOM     28  C   UNL A   1      38.108  23.546  26.109  1.00  0.00     0.023 C 
BRANCH  28  29
ATOM     29  C   UNL A   1      39.164  22.525  26.533  1.00  0.00     0.023 C 
BRANCH  29  30
ATOM     30  C   UNL A   1      40.513  23.128  26.918  1.00  0.00     0.116 C 
BRANCH  30  31
ATOM     31  N   UNL A   1      41.073  24.000  25.894  1.00  0.00    -0.352 N 
ATOM     32  C   UNL A   1      41.467  25.314  26.018  1.00  0.00     0.251 C 
ATOM     33  H   UNL A   1      41.183  23.600  25.002  1.00  0.00     0.163 HD
ATOM     34  O   UNL A   1      41.829  25.951  25.035  1.00  0.00    -0.269 OA
BRANCH  32  35
ATOM     35  C   UNL A   1      41.391  25.954  27.348  1.00  0.00     0.039 A 
ATOM     36  C   UNL A   1      42.520  26.602  27.847  1.00  0.00     0.014 A 
ATOM     37  C   UNL A   1      40.176  26.004  28.038  1.00  0.00     0.014 A 
ATOM     38  C   UNL A   1      42.405  27.392  28.993  1.00  0.00     0.010 A 
ATOM     39  C   UNL A   1      40.048  26.851  29.137  1.00  0.00     0.010 A 
ATOM     40  C   UNL A   1      41.155  27.571  29.609  1.00  0.00    -0.014 A 
BRANCH  40  41
ATOM     41  C   UNL A   1      40.977  28.562  30.704  1.00  0.00     0.031 A 
ATOM     42  C   UNL A   1      41.801  28.468  31.959  1.00  0.00     0.074 A 
ATOM     43  C   UNL A   1      40.014  29.501  30.593  1.00  0.00     0.049 A 
ATOM     44  N   UNL A   1      41.738  29.201  33.040  1.00  0.00    -0.248 NA
ATOM     45  C   UNL A   1      42.812  27.400  32.018  1.00  0.00     0.031 C 
ATOM     46  C   UNL A   1      39.109  29.656  29.450  1.00  0.00     0.029 A 
ATOM     47  N   UNL A   1      39.620  30.494  31.457  1.00  0.00    -0.354 N 
ATOM     48  C   UNL A   1      42.688  28.679  33.909  1.00  0.00     0.074 A 
ATOM     49  C   UNL A   1      43.287  27.541  33.248  1.00  0.00     0.031 C 
ATOM     50  C   UNL A   1      38.284  30.691  29.673  1.00  0.00     0.029 A 
ATOM     51  C   UNL A   1      38.564  31.246  30.993  1.00  0.00     0.049 A 
ATOM     52  H   UNL A   1      40.052  30.654  32.326  1.00  0.00     0.167 HD
ATOM     53  C   UNL A   1      43.038  29.122  35.140  1.00  0.00     0.037 A 
ATOM     54  C   UNL A   1      37.884  32.257  31.571  1.00  0.00     0.037 A 
ATOM     55  C   UNL A   1      42.456  30.273  35.780  1.00  0.00     0.049 A 
ATOM     56  C   UNL A   1      38.290  32.715  32.948  1.00  0.00     0.074 A 
ATOM     57  C   UNL A   1      42.808  30.851  36.988  1.00  0.00     0.029 A 
ATOM     58  N   UNL A   1      41.399  31.015  35.276  1.00  0.00    -0.354 N 
ATOM     59  N   UNL A   1      39.260  32.272  33.711  1.00  0.00    -0.248 NA
ATOM     60  C   UNL A   1      37.510  33.810  33.543  1.00  0.00     0.031 C 
ATOM     61  C   UNL A   1      41.924  31.902  37.244  1.00  0.00     0.029 A 
ATOM     62  C   UNL A   1      41.059  32.019  36.168  1.00  0.00     0.049 A 
ATOM     63  H   UNL A   1      40.956  30.853  34.412  1.00  0.00     0.167 HD
ATOM     64  C   UNL A   1      39.219  33.047  34.865  1.00  0.00     0.074 A 
ATOM     65  C   UNL A   1      38.147  34.004  34.689  1.00  0.00     0.031 C 
ATOM     66  C   UNL A   1      39.992  32.969  35.976  1.00  0.00     0.037 A 
BRANCH  53  67
ATOM     67  C   UNL A   1      44.106  28.375  35.889  1.00  0.00     0.058 A 
ATOM     68  C   UNL A   1      45.462  28.723  35.783  1.00  0.00     0.135 A 
ATOM     69  C   UNL A   1      43.758  27.368  36.805  1.00  0.00     0.135 A 
ATOM     70  F   UNL A   1      45.851  29.666  34.910  1.00  0.00    -0.206 F 
ATOM     71  C   UNL A   1      46.434  28.100  36.557  1.00  0.00     0.059 A 
ATOM     72  C   UNL A   1      44.712  26.750  37.608  1.00  0.00     0.059 A 
ATOM     73  F   UNL A   1      42.477  26.994  36.942  1.00  0.00    -0.206 F 
ATOM     74  C   UNL A   1      46.048  27.123  37.476  1.00  0.00     0.060 A 
BRANCH  74  75
ATOM     75  S   UNL A   1      47.317  26.373  38.518  1.00  0.00     0.124 S 
ATOM     76  O   UNL A   1      46.784  26.622  39.854  1.00  0.00    -0.237 OA
ATOM     77  O   UNL A   1      47.297  24.982  38.077  1.00  0.00    -0.237 OA
ATOM     78  O   UNL A   1      48.525  27.118  38.177  1.00  0.00    -0.744 OA
ENDBRANCH  74  75
ENDBRANCH  53  67
BRANCH  54  79
ATOM     79  C   UNL A   1      36.737  32.899  30.870  1.00  0.00     0.058 A 
ATOM     80  C   UNL A   1      36.944  33.824  29.837  1.00  0.00     0.135 A 
ATOM     81  C   UNL A   1      35.412  32.631  31.247  1.00  0.00     0.135 A 
ATOM     82  F   UNL A   1      38.192  34.121  29.442  1.00  0.00    -0.206 F 
ATOM     83  C   UNL A   1      35.885  34.490  29.228  1.00  0.00     0.059 A 
ATOM     84  C   UNL A   1      34.333  33.259  30.631  1.00  0.00     0.059 A 
ATOM     85  F   UNL A   1      35.153  31.740  32.217  1.00  0.00    -0.206 F 
ATOM     86  C   UNL A   1      34.581  34.204  29.637  1.00  0.00     0.060 A 
BRANCH  86  87
ATOM     87  S   UNL A   1      33.212  35.072  28.843  1.00  0.00     0.124 S 
ATOM     88  O   UNL A   1      32.389  35.434  29.991  1.00  0.00    -0.237 OA
ATOM     89  O   UNL A   1      33.895  36.175  28.173  1.00  0.00    -0.237 OA
ATOM     90  O   UNL A   1      32.647  34.062  27.953  1.00  0.00    -0.744 OA
ENDBRANCH  86  87
ENDBRANCH  54  79
BRANCH  66  91
ATOM     91  C   UNL A   1      39.725  33.956  37.080  1.00  0.00     0.058 A 
ATOM     92  C   UNL A   1      39.006  33.594  38.230  1.00  0.00     0.135 A 
ATOM     93  C   UNL A   1      40.238  35.261  37.012  1.00  0.00     0.135 A 
ATOM     94  F   UNL A   1      38.486  32.361  38.342  1.00  0.00    -0.206 F 
ATOM     95  C   UNL A   1      38.786  34.497  39.264  1.00  0.00     0.059 A 
ATOM     96  C   UNL A   1      40.058  36.172  38.048  1.00  0.00     0.059 A 
ATOM     97  F   UNL A   1      40.941  35.657  35.939  1.00  0.00    -0.206 F 
ATOM     98  C   UNL A   1      39.321  35.784  39.165  1.00  0.00     0.060 A 
BRANCH  98  99
ATOM     99  S   UNL A   1      39.060  36.933  40.533  1.00  0.00     0.124 S 
ATOM    100  O   UNL A   1      40.404  37.039  41.089  1.00  0.00    -0.237 OA
ATOM    101  O   UNL A   1      38.560  38.122  39.850  1.00  0.00    -0.237 OA
ATOM    102  O   UNL A   1      38.086  36.244  41.374  1.00  0.00    -0.744 OA
ENDBRANCH  98  99
ENDBRANCH  66  91
ENDBRANCH  40  41
ENDBRANCH  32  35
ENDBRANCH  30  31
ENDBRANCH  29  30
ENDBRANCH  28  29
ENDBRANCH   1  28
TORSDOF 19
ENDMDL
MODEL 2
REMARK VINA RESULT:     -12.2      6.065      8.264
REMARK SMILES C[C@@H]1C[N@@H+](Cc2cccc(C(=O)NCCCCNC(=O)c3ccc(-c4c5nc(c(-c6c(F)cc(S(=O)(=O)[O-])cc6F)c6ccc([nH]6)c(-c6c(F)cc(S(=O)(=O)[O-])cc6F)c6nc(c(-c7c(F)cc(S(=O)(=O)[O-])cc7F)c7ccc4[nH]7)C=C6)C=C5)cc3)c2)CCN1C(=O)OC(C)(C)C
REMARK SMILES IDX 14 1 13 2 11 3 12 4 10 6 6 7 7 8 87 9 8 10 9 11 5 12 4 13
REMARK SMILES IDX 1 14 2 15 3 16 90 17 89 18 88 19 91 21 92 22 93 23 94 24
REMARK SMILES IDX 95 25 96 26 97 27 15 28 16 29 17 30 18 31 19 32 20 34 21 35
REMARK SMILES IDX 22 36 86 37 23 38 85 39 24 40 25 41 26 42 79 43 27 44 84 45
REMARK SMILES IDX 78 46 80 47 28 48 83 49 77 50 76 51 29 53 63 54 42 55 62 56
REMARK SMILES IDX 43 57 46 58 61 59 81 60 44 61 45 62 60 64 82 65 47 66 30 67
REMARK SMILES IDX 31 68 40 69 32 70 33 71 39 72 41 73 34 74 35 75 36 76 37 77
REMARK SMILES IDX 38 78 64 79 65 80 74 81 66 82 67 83 73 84 75 85 68 86 69 87
REMARK SMILES IDX 70 88 71 89 72 90 48 91 49 92 58 93 50 94 51 95 57 96 59 97
REMARK SMILES IDX 52 98 53 99 54 100 55 101 56 102
REMARK H PARENT 13 5 4 20 18 33 80 52 46 63
REMARK Flexibility Score: inf
ROOT
ATOM      1  C   UNL A   1      36.800  23.039  25.497  1.00  0.00     0.116 C 
ENDROOT
BRANCH   1   2
ATOM      2  N   UNL A   1      35.939  22.437  26.492  1.00  0.00    -0.352 N 
ATOM      3  C   UNL A   1      34.653  21.957  26.434  1.00  0.00     0.251 C 
ATOM      4  O   UNL A   1      34.220  21.386  27.437  1.00  0.00    -0.269 OA
ATOM      5  H   UNL A   1      36.355  22.355  27.381  1.00  0.00     0.163 HD
BRANCH   3   6
ATOM      6  C   UNL A   1      33.788  22.021  25.216  1.00  0.00     0.040 A 
ATOM      7  C   UNL A   1      32.771  23.166  23.306  1.00  0.00     0.007 A 
ATOM      8  C   UNL A   1      32.343  21.932  22.800  1.00  0.00     0.009 A 
ATOM      9  C   UNL A   1      33.398  23.197  24.569  1.00  0.00     0.023 A 
ATOM     10  C   UNL A   1      32.605  20.757  23.501  1.00  0.00     0.001 A 
ATOM     11  C   UNL A   1      33.352  20.800  24.680  1.00  0.00     0.014 A 
BRANCH   7  12
ATOM     12  C   UNL A   1      32.637  24.430  22.470  1.00  0.00     0.299 C 
BRANCH  12  13
ATOM     13  N   UNL A   1      32.123  25.636  23.166  1.00  0.00    -0.328 N 
ATOM     14  C   UNL A   1      31.052  27.041  25.817  1.00  0.00     0.037 C 
ATOM     15  C   UNL A   1      30.262  26.704  24.546  1.00  0.00     0.140 C 
ATOM     16  C   UNL A   1      30.815  25.425  23.830  1.00  0.00     0.287 C 
ATOM     17  N   UNL A   1      30.264  27.837  23.600  1.00  0.00    -0.294 N 
ATOM     18  C   UNL A   1      31.552  28.085  22.952  1.00  0.00     0.185 C 
ATOM     19  C   UNL A   1      32.029  26.801  22.266  1.00  0.00     0.284 C 
ATOM     20  H   UNL A   1      32.814  25.825  23.892  1.00  0.00     0.348 HD
BRANCH  17  21
ATOM     21  C   UNL A   1      29.136  28.466  23.101  1.00  0.00     0.410 C 
ATOM     22  O   UNL A   1      28.018  27.972  23.162  1.00  0.00    -0.224 OA
BRANCH  21  23
ATOM     23  O   UNL A   1      29.402  29.679  22.544  1.00  0.00    -0.444 OA
BRANCH  23  24
ATOM     24  C   UNL A   1      28.818  30.886  23.111  1.00  0.00     0.106 C 
ATOM     25  C   UNL A   1      27.357  30.667  23.529  1.00  0.00     0.056 C 
ATOM     26  C   UNL A   1      29.662  31.437  24.267  1.00  0.00     0.056 C 
ATOM     27  C   UNL A   1      28.838  31.913  21.967  1.00  0.00     0.056 C 
ENDBRANCH  23  24
ENDBRANCH  21  23
ENDBRANCH  17  21
ENDBRANCH  12  13
ENDBRANCH   7  12
ENDBRANCH   3   6
ENDBRANCH   1   2
BRANCH   1  28
ATOM     28  C   UNL A   1      37.408  21.989  24.566  1.00  0.00     0.023 C 
BRANCH  28  29
ATOM     29  C   UNL A   1      37.960  20.773  25.309  1.00  0.00     0.023 C 
BRANCH  29  30
ATOM     30  C   UNL A   1      39.380  20.944  25.844  1.00  0.00     0.116 C 
BRANCH  30  31
ATOM     31  N   UNL A   1      40.127  19.696  25.921  1.00  0.00    -0.352 N 
ATOM     32  C   UNL A   1      41.477  19.524  26.130  1.00  0.00     0.251 C 
ATOM     33  H   UNL A   1      39.600  18.872  25.809  1.00  0.00     0.163 HD
ATOM     34  O   UNL A   1      41.979  18.407  26.070  1.00  0.00    -0.269 OA
BRANCH  32  35
ATOM     35  C   UNL A   1      42.314  20.716  26.372  1.00  0.00     0.039 A 
ATOM     36  C   UNL A   1      42.870  21.380  25.279  1.00  0.00     0.014 A 
ATOM     37  C   UNL A   1      42.451  21.232  27.664  1.00  0.00     0.014 A 
ATOM     38  C   UNL A   1      43.480  22.623  25.471  1.00  0.00     0.010 A 
ATOM     39  C   UNL A   1      42.992  22.503  27.841  1.00  0.00     0.010 A 
ATOM     40  C   UNL A   1      43.489  23.221  26.742  1.00  0.00    -0.014 A 
BRANCH  40  41
ATOM     41  C   UNL A   1      43.951  24.622  26.925  1.00  0.00     0.031 A 
ATOM     42  C   UNL A   1      45.407  24.970  26.780  1.00  0.00     0.074 A 
ATOM     43  C   UNL A   1      43.062  25.566  27.300  1.00  0.00     0.049 A 
ATOM     44  N   UNL A   1      45.999  26.121  26.966  1.00  0.00    -0.248 NA
ATOM     45  C   UNL A   1      46.321  23.882  26.397  1.00  0.00     0.031 C 
ATOM     46  C   UNL A   1      41.632  25.338  27.531  1.00  0.00     0.029 A 
ATOM     47  N   UNL A   1      43.226  26.903  27.568  1.00  0.00    -0.354 N 
ATOM     48  C   UNL A   1      47.351  25.895  26.736  1.00  0.00     0.074 A 
ATOM     49  C   UNL A   1      47.499  24.488  26.436  1.00  0.00     0.031 C 
ATOM     50  C   UNL A   1      41.050  26.495  27.886  1.00  0.00     0.029 A 
ATOM     51  C   UNL A   1      42.067  27.538  27.955  1.00  0.00     0.049 A 
ATOM     52  H   UNL A   1      44.091  27.364  27.492  1.00  0.00     0.167 HD
ATOM     53  C   UNL A   1      48.370  26.786  26.757  1.00  0.00     0.037 A 
ATOM     54  C   UNL A   1      41.849  28.812  28.339  1.00  0.00     0.037 A 
ATOM     55  C   UNL A   1      48.209  28.191  27.029  1.00  0.00     0.049 A 
ATOM     56  C   UNL A   1      43.009  29.774  28.366  1.00  0.00     0.074 A 
ATOM     57  C   UNL A   1      49.170  29.187  26.985  1.00  0.00     0.029 A 
ATOM     58  N   UNL A   1      47.020  28.799  27.404  1.00  0.00    -0.354 N 
ATOM     59  N   UNL A   1      44.263  29.562  28.045  1.00  0.00    -0.248 NA
ATOM     60  C   UNL A   1      42.725  31.148  28.806  1.00  0.00     0.031 C 
ATOM     61  C   UNL A   1      48.577  30.384  27.394  1.00  0.00     0.029 A 
ATOM     62  C   UNL A   1      47.233  30.148  27.635  1.00  0.00     0.049 A 
ATOM     63  H   UNL A   1      46.154  28.340  27.492  1.00  0.00     0.167 HD
ATOM     64  C   UNL A   1      44.911  30.779  28.226  1.00  0.00     0.074 A 
ATOM     65  C   UNL A   1      43.906  31.729  28.656  1.00  0.00     0.031 C 
ATOM     66  C   UNL A   1      46.222  31.083  28.058  1.00  0.00     0.037 A 
BRANCH  53  67
ATOM     67  C   UNL A   1      49.759  26.286  26.471  1.00  0.00     0.058 A 
ATOM     68  C   UNL A   1      50.290  26.288  25.172  1.00  0.00     0.135 A 
ATOM     69  C   UNL A   1      50.605  25.902  27.525  1.00  0.00     0.135 A 
ATOM     70  F   UNL A   1      49.520  26.629  24.127  1.00  0.00    -0.206 F 
ATOM     71  C   UNL A   1      51.610  25.926  24.927  1.00  0.00     0.059 A 
ATOM     72  C   UNL A   1      51.936  25.561  27.305  1.00  0.00     0.059 A 
ATOM     73  F   UNL A   1      50.145  25.879  28.785  1.00  0.00    -0.206 F 
ATOM     74  C   UNL A   1      52.429  25.576  26.002  1.00  0.00     0.060 A 
BRANCH  74  75
ATOM     75  S   UNL A   1      54.157  25.172  25.671  1.00  0.00     0.124 S 
ATOM     76  O   UNL A   1      54.693  25.045  27.023  1.00  0.00    -0.237 OA
ATOM     77  O   UNL A   1      54.045  23.928  24.916  1.00  0.00    -0.237 OA
ATOM     78  O   UNL A   1      54.639  26.321  24.912  1.00  0.00    -0.744 OA
ENDBRANCH  74  75
ENDBRANCH  53  67
BRANCH  54  79
ATOM     79  C   UNL A   1      40.489  29.258  28.751  1.00  0.00     0.058 A 
ATOM     80  C   UNL A   1      40.150  29.399  30.105  1.00  0.00     0.135 A 
ATOM     81  C   UNL A   1      39.489  29.515  27.800  1.00  0.00     0.135 A 
ATOM     82  F   UNL A   1      41.067  29.160  31.054  1.00  0.00    -0.206 F 
ATOM     83  C   UNL A   1      38.861  29.738  30.504  1.00  0.00     0.059 A 
ATOM     84  C   UNL A   1      38.201  29.888  28.173  1.00  0.00     0.059 A 
ATOM     85  F   UNL A   1      39.762  29.414  26.490  1.00  0.00    -0.206 F 
ATOM     86  C   UNL A   1      37.891  29.976  29.529  1.00  0.00     0.060 A 
BRANCH  86  87
ATOM     87  S   UNL A   1      36.221  30.416  30.055  1.00  0.00     0.124 S 
ATOM     88  O   UNL A   1      36.123  29.718  31.333  1.00  0.00    -0.237 OA
ATOM     89  O   UNL A   1      36.296  31.872  30.128  1.00  0.00    -0.237 OA
ATOM     90  O   UNL A   1      35.382  29.891  28.983  1.00  0.00    -0.744 OA
ENDBRANCH  86  87
ENDBRANCH  54  79
BRANCH  66  91
ATOM     91  C   UNL A   1      46.645  32.503  28.321  1.00  0.00     0.058 A 
ATOM     92  C   UNL A   1      47.137  32.903  29.572  1.00  0.00     0.135 A 
ATOM     93  C   UNL A   1      46.609  33.461  27.294  1.00  0.00     0.135 A 
ATOM     94  F   UNL A   1      47.185  32.029  30.590  1.00  0.00    -0.206 F 
ATOM     95  C   UNL A   1      47.557  34.208  29.805  1.00  0.00     0.059 A 
ATOM     96  C   UNL A   1      47.054  34.764  27.494  1.00  0.00     0.059 A 
ATOM     97  F   UNL A   1      46.156  33.129  26.074  1.00  0.00    -0.206 F 
ATOM     98  C   UNL A   1      47.516  35.131  28.757  1.00  0.00     0.060 A 
BRANCH  98  99
ATOM     99  S   UNL A   1      48.102  36.810  29.063  1.00  0.00     0.124 S 
ATOM    100  O   UNL A   1      47.563  37.072  30.393  1.00  0.00    -0.237 OA
ATOM    101  O   UNL A   1      49.551  36.654  28.985  1.00  0.00    -0.237 OA
ATOM    102  O   UNL A   1      47.501  37.583  27.980  1.00  0.00    -0.744 OA
ENDBRANCH  98  99
ENDBRANCH  66  91
ENDBRANCH  40  41
ENDBRANCH  32  35
ENDBRANCH  30  31
ENDBRANCH  29  30
ENDBRANCH  28  29
ENDBRANCH   1  28
TORSDOF 19
ENDMDL
MODEL 3
REMARK VINA RESULT:     -12.2      1.472      8.299
REMARK SMILES C[C@@H]1C[N@@H+](Cc2cccc(C(=O)NCCCCNC(=O)c3ccc(-c4c5nc(c(-c6c(F)cc(S(=O)(=O)[O-])cc6F)c6ccc([nH]6)c(-c6c(F)cc(S(=O)(=O)[O-])cc6F)c6nc(c(-c7c(F)cc(S(=O)(=O)[O-])cc7F)c7ccc4[nH]7)C=C6)C=C5)cc3)c2)CCN1C(=O)OC(C)(C)C
REMARK SMILES IDX 14 1 13 2 11 3 12 4 10 6 6 7 7 8 87 9 8 10 9 11 5 12 4 13
REMARK SMILES IDX 1 14 2 15 3 16 90 17 89 18 88 19 91 21 92 22 93 23 94 24
REMARK SMILES IDX 95 25 96 26 97 27 15 28 16 29 17 30 18 31 19 32 20 34 21 35
REMARK SMILES IDX 22 36 86 37 23 38 85 39 24 40 25 41 26 42 79 43 27 44 84 45
REMARK SMILES IDX 78 46 80 47 28 48 83 49 77 50 76 51 29 53 63 54 42 55 62 56
REMARK SMILES IDX 43 57 46 58 61 59 81 60 44 61 45 62 60 64 82 65 47 66 30 67
REMARK SMILES IDX 31 68 40 69 32 70 33 71 39 72 41 73 34 74 35 75 36 76 37 77
REMARK SMILES IDX 38 78 64 79 65 80 74 81 66 82 67 83 73 84 75 85 68 86 69 87
REMARK SMILES IDX 70 88 71 89 72 90 48 91 49 92 58 93 50 94 51 95 57 96 59 97
REMARK SMILES IDX 52 98 53 99 54 100 55 101 56 102
REMARK H PARENT 13 5 4 20 18 33 80 52 46 63
REMARK Flexibility Score: inf
ROOT
ATOM      1  C   UNL A   1      36.888  21.845  25.439  1.00  0.00     0.116 C 
ENDROOT
BRANCH   1   2
ATOM      2  N   UNL A   1      35.924  21.780  26.516  1.00  0.00    -0.352 N 
ATOM      3  C   UNL A   1      34.577  21.510  26.536  1.00  0.00     0.251 C 
ATOM      4  O   UNL A   1      34.039  21.413  27.641  1.00  0.00    -0.269 OA
ATOM      5  H   UNL A   1      36.307  21.964  27.404  1.00  0.00     0.163 HD
BRANCH   3   6
ATOM      6  C   UNL A   1      33.753  21.259  25.313  1.00  0.00     0.040 A 
ATOM      7  C   UNL A   1      32.873  21.840  23.104  1.00  0.00     0.007 A 
ATOM      8  C   UNL A   1      32.375  20.538  22.965  1.00  0.00     0.009 A 
ATOM      9  C   UNL A   1      33.464  22.209  24.330  1.00  0.00     0.023 A 
ATOM     10  C   UNL A   1      32.535  19.612  23.993  1.00  0.00     0.001 A 
ATOM     11  C   UNL A   1      33.249  19.961  25.141  1.00  0.00     0.014 A 
BRANCH   7  12
ATOM     12  C   UNL A   1      32.851  22.804  21.927  1.00  0.00     0.299 C 
BRANCH  12  13
ATOM     13  N   UNL A   1      32.531  24.220  22.234  1.00  0.00    -0.328 N 
ATOM     14  C   UNL A   1      33.268  27.315  22.051  1.00  0.00     0.037 C 
ATOM     15  C   UNL A   1      33.266  26.420  23.297  1.00  0.00     0.140 C 
ATOM     16  C   UNL A   1      33.614  24.931  22.955  1.00  0.00     0.287 C 
ATOM     17  N   UNL A   1      31.965  26.473  23.992  1.00  0.00    -0.294 N 
ATOM     18  C   UNL A   1      30.872  25.805  23.287  1.00  0.00     0.185 C 
ATOM     19  C   UNL A   1      31.272  24.356  22.992  1.00  0.00     0.284 C 
ATOM     20  H   UNL A   1      32.423  24.660  21.320  1.00  0.00     0.348 HD
BRANCH  17  21
ATOM     21  C   UNL A   1      31.777  26.846  25.313  1.00  0.00     0.410 C 
ATOM     22  O   UNL A   1      30.694  26.771  25.876  1.00  0.00    -0.224 OA
BRANCH  21  23
ATOM     23  O   UNL A   1      32.914  27.298  25.908  1.00  0.00    -0.444 OA
BRANCH  23  24
ATOM     24  C   UNL A   1      32.963  28.646  26.457  1.00  0.00     0.106 C 
ATOM     25  C   UNL A   1      31.819  28.894  27.450  1.00  0.00     0.056 C 
ATOM     26  C   UNL A   1      34.331  28.959  27.077  1.00  0.00     0.056 C 
ATOM     27  C   UNL A   1      32.757  29.575  25.249  1.00  0.00     0.056 C 
ENDBRANCH  23  24
ENDBRANCH  21  23
ENDBRANCH  17  21
ENDBRANCH  12  13
ENDBRANCH   7  12
ENDBRANCH   3   6
ENDBRANCH   1   2
BRANCH   1  28
ATOM     28  C   UNL A   1      38.002  22.849  25.739  1.00  0.00     0.023 C 
BRANCH  28  29
ATOM     29  C   UNL A   1      39.175  22.237  26.504  1.00  0.00     0.023 C 
BRANCH  29  30
ATOM     30  C   UNL A   1      40.201  23.248  27.012  1.00  0.00     0.116 C 
BRANCH  30  31
ATOM     31  N   UNL A   1      40.635  24.196  25.995  1.00  0.00    -0.352 N 
ATOM     32  C   UNL A   1      40.952  25.526  26.151  1.00  0.00     0.251 C 
ATOM     33  H   UNL A   1      40.712  23.840  25.080  1.00  0.00     0.163 HD
ATOM     34  O   UNL A   1      41.208  26.225  25.177  1.00  0.00    -0.269 OA
BRANCH  32  35
ATOM     35  C   UNL A   1      40.923  26.106  27.510  1.00  0.00     0.039 A 
ATOM     36  C   UNL A   1      42.032  26.824  27.958  1.00  0.00     0.014 A 
ATOM     37  C   UNL A   1      39.762  26.031  28.285  1.00  0.00     0.014 A 
ATOM     38  C   UNL A   1      41.939  27.557  29.143  1.00  0.00     0.010 A 
ATOM     39  C   UNL A   1      39.648  26.821  29.426  1.00  0.00     0.010 A 
ATOM     40  C   UNL A   1      40.727  27.611  29.852  1.00  0.00    -0.014 A 
BRANCH  40  41
ATOM     41  C   UNL A   1      40.552  28.541  30.999  1.00  0.00     0.031 A 
ATOM     42  C   UNL A   1      39.515  29.629  30.948  1.00  0.00     0.074 A 
ATOM     43  C   UNL A   1      41.386  28.447  32.056  1.00  0.00     0.049 A 
ATOM     44  N   UNL A   1      39.266  30.567  31.823  1.00  0.00    -0.248 NA
ATOM     45  C   UNL A   1      38.662  29.684  29.750  1.00  0.00     0.031 C 
ATOM     46  C   UNL A   1      42.472  27.471  32.195  1.00  0.00     0.029 A 
ATOM     47  N   UNL A   1      41.467  29.190  33.209  1.00  0.00    -0.354 N 
ATOM     48  C   UNL A   1      38.239  31.330  31.280  1.00  0.00     0.074 A 
ATOM     49  C   UNL A   1      37.938  30.771  29.981  1.00  0.00     0.031 C 
ATOM     50  C   UNL A   1      43.093  27.662  33.370  1.00  0.00     0.029 A 
ATOM     51  C   UNL A   1      42.486  28.801  34.050  1.00  0.00     0.049 A 
ATOM     52  H   UNL A   1      40.854  29.931  33.415  1.00  0.00     0.167 HD
ATOM     53  C   UNL A   1      37.596  32.390  31.826  1.00  0.00     0.037 A 
ATOM     54  C   UNL A   1      42.898  29.315  35.226  1.00  0.00     0.037 A 
ATOM     55  C   UNL A   1      37.883  32.923  33.133  1.00  0.00     0.049 A 
ATOM     56  C   UNL A   1      42.170  30.504  35.798  1.00  0.00     0.074 A 
ATOM     57  C   UNL A   1      37.225  33.937  33.807  1.00  0.00     0.029 A 
ATOM     58  N   UNL A   1      38.912  32.496  33.958  1.00  0.00    -0.354 N 
ATOM     59  N   UNL A   1      41.135  31.147  35.314  1.00  0.00    -0.248 NA
ATOM     60  C   UNL A   1      42.666  31.038  37.075  1.00  0.00     0.031 C 
ATOM     61  C   UNL A   1      37.895  34.167  35.012  1.00  0.00     0.029 A 
ATOM     62  C   UNL A   1      38.933  33.256  35.117  1.00  0.00     0.049 A 
ATOM     63  H   UNL A   1      39.535  31.763  33.752  1.00  0.00     0.167 HD
ATOM     64  C   UNL A   1      40.844  32.146  36.237  1.00  0.00     0.074 A 
ATOM     65  C   UNL A   1      41.794  32.005  37.321  1.00  0.00     0.031 C 
ATOM     66  C   UNL A   1      39.882  33.100  36.189  1.00  0.00     0.037 A 
BRANCH  53  67
ATOM     67  C   UNL A   1      36.508  33.052  31.027  1.00  0.00     0.058 A 
ATOM     68  C   UNL A   1      35.155  32.929  31.381  1.00  0.00     0.135 A 
ATOM     69  C   UNL A   1      36.831  33.905  29.959  1.00  0.00     0.135 A 
ATOM     70  F   UNL A   1      34.789  32.114  32.383  1.00  0.00    -0.206 F 
ATOM     71  C   UNL A   1      34.162  33.629  30.705  1.00  0.00     0.059 A 
ATOM     72  C   UNL A   1      35.856  34.634  29.286  1.00  0.00     0.059 A 
ATOM     73  F   UNL A   1      38.109  34.054  29.577  1.00  0.00    -0.206 F 
ATOM     74  C   UNL A   1      34.523  34.488  29.666  1.00  0.00     0.060 A 
BRANCH  74  75
ATOM     75  S   UNL A   1      33.225  35.436  28.844  1.00  0.00     0.124 S 
ATOM     76  O   UNL A   1      34.010  36.366  28.036  1.00  0.00    -0.237 OA
ATOM     77  O   UNL A   1      32.510  34.403  28.103  1.00  0.00    -0.237 OA
ATOM     78  O   UNL A   1      32.486  36.037  29.950  1.00  0.00    -0.744 OA
ENDBRANCH  74  75
ENDBRANCH  53  67
BRANCH  54  79
ATOM     79  C   UNL A   1      44.067  28.731  35.941  1.00  0.00     0.058 A 
ATOM     80  C   UNL A   1      43.914  27.647  36.818  1.00  0.00     0.135 A 
ATOM     81  C   UNL A   1      45.355  29.270  35.794  1.00  0.00     0.135 A 
ATOM     82  F   UNL A   1      42.703  27.097  37.000  1.00  0.00    -0.206 F 
ATOM     83  C   UNL A   1      44.983  27.143  37.552  1.00  0.00     0.059 A 
ATOM     84  C   UNL A   1      46.447  28.763  36.492  1.00  0.00     0.059 A 
ATOM     85  F   UNL A   1      45.564  30.297  34.955  1.00  0.00    -0.206 F 
ATOM     86  C   UNL A   1      46.246  27.713  37.386  1.00  0.00     0.060 A 
BRANCH  86  87
ATOM     87  S   UNL A   1      47.628  27.053  38.342  1.00  0.00     0.124 S 
ATOM     88  O   UNL A   1      48.702  27.071  37.354  1.00  0.00    -0.237 OA
ATOM     89  O   UNL A   1      47.742  28.023  39.426  1.00  0.00    -0.237 OA
ATOM     90  O   UNL A   1      47.158  25.730  38.740  1.00  0.00    -0.744 OA
ENDBRANCH  86  87
ENDBRANCH  54  79
BRANCH  66  91
ATOM     91  C   UNL A   1      39.793  34.056  37.349  1.00  0.00     0.058 A 
ATOM     92  C   UNL A   1      40.343  35.345  37.282  1.00  0.00     0.135 A 
ATOM     93  C   UNL A   1      39.104  33.698  38.519  1.00  0.00     0.135 A 
ATOM     94  F   UNL A   1      41.020  35.735  36.190  1.00  0.00    -0.206 F 
ATOM     95  C   UNL A   1      40.234  36.238  38.342  1.00  0.00     0.059 A 
ATOM     96  C   UNL A   1      38.953  34.586  39.579  1.00  0.00     0.059 A 
ATOM     97  F   UNL A   1      38.549  32.480  38.632  1.00  0.00    -0.206 F 
ATOM     98  C   UNL A   1      39.532  35.850  39.486  1.00  0.00     0.060 A 
BRANCH  98  99
ATOM     99  S   UNL A   1      39.364  37.034  40.837  1.00  0.00     0.124 S 
ATOM    100  O   UNL A   1      38.517  36.299  41.770  1.00  0.00    -0.237 OA
ATOM    101  O   UNL A   1      40.749  37.230  41.255  1.00  0.00    -0.237 OA
ATOM    102  O   UNL A   1      38.738  38.190  40.200  1.00  0.00    -0.744 OA
ENDBRANCH  98  99
ENDBRANCH  66  91
ENDBRANCH  40  41
ENDBRANCH  32  35
ENDBRANCH  30  31
ENDBRANCH  29  30
ENDBRANCH  28  29
ENDBRANCH   1  28
TORSDOF 19
ENDMDL
