MODEL 1
REMARK VINA RESULT:     -11.9      0.000      0.000
REMARK SMILES Cc1nc(CCC(=O)NCCCCNC(=O)c2ccc(-c3c4nc(c(-c5c(F)cc(S(=O)(=O)[O-])cc5F)c5ccc([nH]5)c(-c5c(F)cc(S(=O)(=O)[O-])cc5F)c5nc(c(-c6c(F)cc(S(=O)(=O)[O-])cc6F)c6ccc3[nH]6)C=C5)C=C4)cc2)cc([C@@H]2CCC[N@@H+]2C(C)C)n1
REMARK SMILES IDX 11 1 10 2 9 3 7 4 8 5 6 7 5 8 4 9 1 10 2 11 3 12 93 13 84 14
REMARK SMILES IDX 83 15 85 16 86 17 89 18 87 19 88 20 90 22 91 23 92 24 12 25
REMARK SMILES IDX 13 26 14 27 15 28 16 30 17 31 18 32 82 33 19 34 81 35 20 36
REMARK SMILES IDX 21 37 22 38 75 39 23 40 80 41 74 42 76 43 24 44 79 45 73 46
REMARK SMILES IDX 72 47 25 49 59 50 38 51 58 52 39 53 42 54 57 55 77 56 40 57
REMARK SMILES IDX 41 58 56 60 78 61 43 62 26 63 27 64 36 65 28 66 29 67 35 68
REMARK SMILES IDX 37 69 30 70 31 71 32 72 33 73 34 74 60 75 61 76 70 77 62 78
REMARK SMILES IDX 63 79 69 80 71 81 64 82 65 83 66 84 67 85 68 86 44 87 45 88
REMARK SMILES IDX 54 89 46 90 47 91 53 92 55 93 48 94 49 95 50 96 51 97 52 98
REMARK H PARENT 9 6 89 21 14 29 76 48 42 59
REMARK Flexibility Score: inf
ROOT
ATOM      1  C   UNL A   1      33.090  28.745  27.370  1.00  0.00     0.023 C 
ENDROOT
BRANCH   1   2
ATOM      2  C   UNL A   1      31.575  28.617  27.516  1.00  0.00     0.116 C 
BRANCH   2   3
ATOM      3  N   UNL A   1      31.208  27.215  27.365  1.00  0.00    -0.356 N 
ATOM      4  C   UNL A   1      30.754  26.509  26.301  1.00  0.00     0.220 C 
ATOM      5  O   UNL A   1      30.314  25.374  26.499  1.00  0.00    -0.275 OA
ATOM      6  H   UNL A   1      31.308  26.683  28.187  1.00  0.00     0.163 HD
BRANCH   4   7
ATOM      7  C   UNL A   1      30.832  27.064  24.900  1.00  0.00     0.106 C 
BRANCH   7   8
ATOM      8  C   UNL A   1      30.161  26.152  23.875  1.00  0.00     0.066 C 
BRANCH   8   9
ATOM      9  C   UNL A   1      31.189  25.367  23.105  1.00  0.00     0.045 A 
ATOM     10  C   UNL A   1      32.816  25.580  19.827  1.00  0.00     0.089 C 
ATOM     11  C   UNL A   1      32.516  25.245  21.252  1.00  0.00     0.126 A 
ATOM     12  N   UNL A   1      31.499  25.839  21.884  1.00  0.00    -0.238 NA
ATOM     13  N   UNL A   1      33.264  24.288  21.798  1.00  0.00    -0.232 NA
ATOM     14  C   UNL A   1      32.836  23.692  22.921  1.00  0.00     0.102 A 
ATOM     15  C   UNL A   1      31.805  24.249  23.652  1.00  0.00     0.054 A 
BRANCH  14  16
ATOM     16  C   UNL A   1      33.493  22.374  23.307  1.00  0.00     0.234 C 
ATOM     17  C   UNL A   1      32.546  21.369  23.952  1.00  0.00     0.078 C 
ATOM     18  N   UNL A   1      34.719  22.391  24.171  1.00  0.00    -0.325 N 
ATOM     19  C   UNL A   1      33.459  20.390  24.674  1.00  0.00     0.068 C 
ATOM     20  C   UNL A   1      34.848  21.018  24.671  1.00  0.00     0.263 C 
ATOM     21  H   UNL A   1      35.510  22.691  23.601  1.00  0.00     0.348 HD
BRANCH  18  22
ATOM     22  C   UNL A   1      34.807  23.417  25.236  1.00  0.00     0.178 C 
ATOM     23  C   UNL A   1      34.329  23.008  26.636  1.00  0.00     0.075 C 
ATOM     24  C   UNL A   1      36.220  24.010  25.334  1.00  0.00     0.075 C 
ENDBRANCH  18  22
ENDBRANCH  14  16
ENDBRANCH   8   9
ENDBRANCH   7   8
ENDBRANCH   4   7
ENDBRANCH   2   3
ENDBRANCH   1   2
BRANCH   1  25
ATOM     25  C   UNL A   1      33.695  30.122  27.097  1.00  0.00     0.023 C 
BRANCH  25  26
ATOM     26  C   UNL A   1      35.086  30.455  27.612  1.00  0.00     0.116 C 
BRANCH  26  27
ATOM     27  N   UNL A   1      35.175  30.888  29.000  1.00  0.00    -0.352 N 
ATOM     28  C   UNL A   1      36.202  30.722  29.920  1.00  0.00     0.251 C 
ATOM     29  H   UNL A   1      34.387  31.372  29.339  1.00  0.00     0.163 HD
ATOM     30  O   UNL A   1      36.100  31.160  31.049  1.00  0.00    -0.269 OA
BRANCH  28  31
ATOM     31  C   UNL A   1      37.413  29.948  29.542  1.00  0.00     0.039 A 
ATOM     32  C   UNL A   1      37.831  29.941  28.208  1.00  0.00     0.014 A 
ATOM     33  C   UNL A   1      38.173  29.297  30.509  1.00  0.00     0.014 A 
ATOM     34  C   UNL A   1      39.084  29.411  27.876  1.00  0.00     0.010 A 
ATOM     35  C   UNL A   1      39.468  28.899  30.203  1.00  0.00     0.010 A 
ATOM     36  C   UNL A   1      39.948  28.959  28.885  1.00  0.00    -0.014 A 
BRANCH  36  37
ATOM     37  C   UNL A   1      41.358  28.549  28.623  1.00  0.00     0.031 A 
ATOM     38  C   UNL A   1      42.442  29.598  28.602  1.00  0.00     0.074 A 
ATOM     39  C   UNL A   1      41.647  27.280  28.263  1.00  0.00     0.049 A 
ATOM     40  N   UNL A   1      43.666  29.518  28.152  1.00  0.00    -0.248 NA
ATOM     41  C   UNL A   1      42.071  30.935  29.095  1.00  0.00     0.031 C 
ATOM     42  C   UNL A   1      40.687  26.175  28.183  1.00  0.00     0.029 A 
ATOM     43  N   UNL A   1      42.834  26.710  27.873  1.00  0.00    -0.354 N 
ATOM     44  C   UNL A   1      44.186  30.805  28.245  1.00  0.00     0.074 A 
ATOM     45  C   UNL A   1      43.127  31.653  28.747  1.00  0.00     0.031 C 
ATOM     46  C   UNL A   1      41.327  25.059  27.799  1.00  0.00     0.029 A 
ATOM     47  C   UNL A   1      42.730  25.375  27.552  1.00  0.00     0.049 A 
ATOM     48  H   UNL A   1      43.681  27.209  27.826  1.00  0.00     0.167 HD
ATOM     49  C   UNL A   1      45.438  31.239  27.961  1.00  0.00     0.037 A 
ATOM     50  C   UNL A   1      43.656  24.507  27.099  1.00  0.00     0.037 A 
ATOM     51  C   UNL A   1      46.509  30.373  27.547  1.00  0.00     0.049 A 
ATOM     52  C   UNL A   1      45.060  24.992  26.863  1.00  0.00     0.074 A 
ATOM     53  C   UNL A   1      47.838  30.690  27.327  1.00  0.00     0.029 A 
ATOM     54  N   UNL A   1      46.377  29.013  27.311  1.00  0.00    -0.354 N 
ATOM     55  N   UNL A   1      45.545  26.204  26.991  1.00  0.00    -0.248 NA
ATOM     56  C   UNL A   1      46.044  23.994  26.420  1.00  0.00     0.031 C 
ATOM     57  C   UNL A   1      48.505  29.524  26.937  1.00  0.00     0.029 A 
ATOM     58  C   UNL A   1      47.600  28.475  26.946  1.00  0.00     0.049 A 
ATOM     59  H   UNL A   1      45.538  28.504  27.391  1.00  0.00     0.167 HD
ATOM     60  C   UNL A   1      46.894  26.110  26.672  1.00  0.00     0.074 A 
ATOM     61  C   UNL A   1      47.152  24.720  26.352  1.00  0.00     0.031 C 
ATOM     62  C   UNL A   1      47.836  27.085  26.646  1.00  0.00     0.037 A 
BRANCH  49  63
ATOM     63  C   UNL A   1      45.710  32.712  28.106  1.00  0.00     0.058 A 
ATOM     64  C   UNL A   1      46.238  33.255  29.289  1.00  0.00     0.135 A 
ATOM     65  C   UNL A   1      45.433  33.596  27.050  1.00  0.00     0.135 A 
ATOM     66  F   UNL A   1      46.508  32.459  30.337  1.00  0.00    -0.206 F 
ATOM     67  C   UNL A   1      46.428  34.624  29.441  1.00  0.00     0.059 A 
ATOM     68  C   UNL A   1      45.648  34.967  27.168  1.00  0.00     0.059 A 
ATOM     69  F   UNL A   1      44.933  33.133  25.894  1.00  0.00    -0.206 F 
ATOM     70  C   UNL A   1      46.123  35.474  28.377  1.00  0.00     0.060 A 
BRANCH  70  71
ATOM     71  S   UNL A   1      46.352  37.250  28.596  1.00  0.00     0.124 S 
ATOM     72  O   UNL A   1      45.597  37.780  27.464  1.00  0.00    -0.237 OA
ATOM     73  O   UNL A   1      45.767  37.484  29.911  1.00  0.00    -0.237 OA
ATOM     74  O   UNL A   1      47.800  37.418  28.519  1.00  0.00    -0.744 OA
ENDBRANCH  70  71
ENDBRANCH  49  63
BRANCH  50  75
ATOM     75  C   UNL A   1      43.294  23.080  26.881  1.00  0.00     0.058 A 
ATOM     76  C   UNL A   1      43.207  22.561  25.580  1.00  0.00     0.135 A 
ATOM     77  C   UNL A   1      43.059  22.204  27.951  1.00  0.00     0.135 A 
ATOM     78  F   UNL A   1      43.416  23.362  24.525  1.00  0.00    -0.206 F 
ATOM     79  C   UNL A   1      42.893  21.226  25.346  1.00  0.00     0.059 A 
ATOM     80  C   UNL A   1      42.764  20.859  27.743  1.00  0.00     0.059 A 
ATOM     81  F   UNL A   1      43.145  22.648  29.214  1.00  0.00    -0.206 F 
ATOM     82  C   UNL A   1      42.678  20.381  26.435  1.00  0.00     0.060 A 
BRANCH  82  83
ATOM     83  S   UNL A   1      42.340  18.634  26.119  1.00  0.00     0.124 S 
ATOM     84  O   UNL A   1      43.272  18.345  25.036  1.00  0.00    -0.237 OA
ATOM     85  O   UNL A   1      42.648  18.023  27.407  1.00  0.00    -0.237 OA
ATOM     86  O   UNL A   1      40.926  18.629  25.754  1.00  0.00    -0.744 OA
ENDBRANCH  82  83
ENDBRANCH  50  75
BRANCH  62  87
ATOM     87  C   UNL A   1      49.240  26.680  26.297  1.00  0.00     0.058 A 
ATOM     88  C   UNL A   1      50.114  26.153  27.260  1.00  0.00     0.135 A 
ATOM     89  C   UNL A   1      49.692  26.763  24.971  1.00  0.00     0.135 A 
ATOM     90  F   UNL A   1      49.730  26.058  28.543  1.00  0.00    -0.206 F 
ATOM     91  C   UNL A   1      51.397  25.737  26.921  1.00  0.00     0.059 A 
ATOM     92  C   UNL A   1      50.963  26.333  24.606  1.00  0.00     0.059 A 
ATOM     93  F   UNL A   1      48.889  27.252  24.012  1.00  0.00    -0.206 F 
ATOM     94  C   UNL A   1      51.812  25.830  25.591  1.00  0.00     0.060 A 
BRANCH  94  95
ATOM     95  S   UNL A   1      53.465  25.249  25.156  1.00  0.00     0.124 S 
ATOM     96  O   UNL A   1      53.564  25.664  23.760  1.00  0.00    -0.237 OA
ATOM     97  O   UNL A   1      54.311  25.977  26.095  1.00  0.00    -0.237 OA
ATOM     98  O   UNL A   1      53.387  23.807  25.380  1.00  0.00    -0.744 OA
ENDBRANCH  94  95
ENDBRANCH  62  87
ENDBRANCH  36  37
ENDBRANCH  28  31
ENDBRANCH  26  27
ENDBRANCH  25  26
ENDBRANCH   1  25
TORSDOF 18
ENDMDL
MODEL 2
REMARK VINA RESULT:     -11.7      1.783      2.669
REMARK SMILES Cc1nc(CCC(=O)NCCCCNC(=O)c2ccc(-c3c4nc(c(-c5c(F)cc(S(=O)(=O)[O-])cc5F)c5ccc([nH]5)c(-c5c(F)cc(S(=O)(=O)[O-])cc5F)c5nc(c(-c6c(F)cc(S(=O)(=O)[O-])cc6F)c6ccc3[nH]6)C=C5)C=C4)cc2)cc([C@@H]2CCC[N@@H+]2C(C)C)n1
REMARK SMILES IDX 11 1 10 2 9 3 7 4 8 5 6 7 5 8 4 9 1 10 2 11 3 12 93 13 84 14
REMARK SMILES IDX 83 15 85 16 86 17 89 18 87 19 88 20 90 22 91 23 92 24 12 25
REMARK SMILES IDX 13 26 14 27 15 28 16 30 17 31 18 32 82 33 19 34 81 35 20 36
REMARK SMILES IDX 21 37 22 38 75 39 23 40 80 41 74 42 76 43 24 44 79 45 73 46
REMARK SMILES IDX 72 47 25 49 59 50 38 51 58 52 39 53 42 54 57 55 77 56 40 57
REMARK SMILES IDX 41 58 56 60 78 61 43 62 26 63 27 64 36 65 28 66 29 67 35 68
REMARK SMILES IDX 37 69 30 70 31 71 32 72 33 73 34 74 60 75 61 76 70 77 62 78
REMARK SMILES IDX 63 79 69 80 71 81 64 82 65 83 66 84 67 85 68 86 44 87 45 88
REMARK SMILES IDX 54 89 46 90 47 91 53 92 55 93 48 94 49 95 50 96 51 97 52 98
REMARK H PARENT 9 6 89 21 14 29 76 48 42 59
REMARK Flexibility Score: inf
ROOT
ATOM      1  C   UNL A   1      32.683  28.488  26.081  1.00  0.00     0.023 C 
ENDROOT
BRANCH   1   2
ATOM      2  C   UNL A   1      32.636  29.322  24.802  1.00  0.00     0.116 C 
BRANCH   2   3
ATOM      3  N   UNL A   1      31.314  29.923  24.686  1.00  0.00    -0.356 N 
ATOM      4  C   UNL A   1      30.318  29.748  23.783  1.00  0.00     0.220 C 
ATOM      5  O   UNL A   1      29.376  30.545  23.793  1.00  0.00    -0.275 OA
ATOM      6  H   UNL A   1      31.107  30.577  25.391  1.00  0.00     0.163 HD
BRANCH   4   7
ATOM      7  C   UNL A   1      30.322  28.582  22.825  1.00  0.00     0.106 C 
BRANCH   7   8
ATOM      8  C   UNL A   1      30.294  27.237  23.547  1.00  0.00     0.066 C 
BRANCH   8   9
ATOM      9  C   UNL A   1      31.384  26.334  23.035  1.00  0.00     0.045 A 
ATOM     10  C   UNL A   1      32.689  25.299  19.769  1.00  0.00     0.089 C 
ATOM     11  C   UNL A   1      32.565  25.586  21.230  1.00  0.00     0.126 A 
ATOM     12  N   UNL A   1      31.509  26.260  21.697  1.00  0.00    -0.238 NA
ATOM     13  N   UNL A   1      33.512  25.070  22.009  1.00  0.00    -0.232 NA
ATOM     14  C   UNL A   1      33.286  24.976  23.328  1.00  0.00     0.102 A 
ATOM     15  C   UNL A   1      32.232  25.658  23.902  1.00  0.00     0.054 A 
BRANCH  14  16
ATOM     16  C   UNL A   1      34.197  24.056  24.130  1.00  0.00     0.234 C 
ATOM     17  C   UNL A   1      35.298  23.395  23.309  1.00  0.00     0.078 C 
ATOM     18  N   UNL A   1      33.590  22.959  24.954  1.00  0.00    -0.325 N 
ATOM     19  C   UNL A   1      35.740  22.206  24.147  1.00  0.00     0.068 C 
ATOM     20  C   UNL A   1      34.702  22.050  25.252  1.00  0.00     0.263 C 
ATOM     21  H   UNL A   1      33.173  23.375  25.787  1.00  0.00     0.348 HD
BRANCH  18  22
ATOM     22  C   UNL A   1      32.392  22.270  24.422  1.00  0.00     0.178 C 
ATOM     23  C   UNL A   1      32.546  20.785  24.063  1.00  0.00     0.075 C 
ATOM     24  C   UNL A   1      31.180  22.445  25.350  1.00  0.00     0.075 C 
ENDBRANCH  18  22
ENDBRANCH  14  16
ENDBRANCH   8   9
ENDBRANCH   7   8
ENDBRANCH   4   7
ENDBRANCH   2   3
ENDBRANCH   1   2
BRANCH   1  25
ATOM     25  C   UNL A   1      33.522  28.986  27.259  1.00  0.00     0.023 C 
BRANCH  25  26
ATOM     26  C   UNL A   1      34.148  30.371  27.211  1.00  0.00     0.116 C 
BRANCH  26  27
ATOM     27  N   UNL A   1      34.130  31.131  28.454  1.00  0.00    -0.352 N 
ATOM     28  C   UNL A   1      35.110  31.268  29.427  1.00  0.00     0.251 C 
ATOM     29  H   UNL A   1      33.295  31.623  28.632  1.00  0.00     0.163 HD
ATOM     30  O   UNL A   1      34.917  31.957  30.410  1.00  0.00    -0.269 OA
BRANCH  28  31
ATOM     31  C   UNL A   1      36.386  30.517  29.300  1.00  0.00     0.039 A 
ATOM     32  C   UNL A   1      37.043  30.490  28.066  1.00  0.00     0.014 A 
ATOM     33  C   UNL A   1      36.970  29.910  30.408  1.00  0.00     0.014 A 
ATOM     34  C   UNL A   1      38.347  29.985  27.985  1.00  0.00     0.010 A 
ATOM     35  C   UNL A   1      38.307  29.539  30.356  1.00  0.00     0.010 A 
ATOM     36  C   UNL A   1      39.020  29.581  29.148  1.00  0.00    -0.014 A 
BRANCH  36  37
ATOM     37  C   UNL A   1      40.462  29.202  29.160  1.00  0.00     0.031 A 
ATOM     38  C   UNL A   1      41.501  30.253  29.462  1.00  0.00     0.074 A 
ATOM     39  C   UNL A   1      40.851  27.972  28.764  1.00  0.00     0.049 A 
ATOM     40  N   UNL A   1      42.795  30.220  29.280  1.00  0.00    -0.248 NA
ATOM     41  C   UNL A   1      41.002  31.540  29.977  1.00  0.00     0.031 C 
ATOM     42  C   UNL A   1      39.958  26.873  28.385  1.00  0.00     0.029 A 
ATOM     43  N   UNL A   1      42.107  27.443  28.590  1.00  0.00    -0.354 N 
ATOM     44  C   UNL A   1      43.252  31.496  29.592  1.00  0.00     0.074 A 
ATOM     45  C   UNL A   1      42.091  32.291  29.926  1.00  0.00     0.031 C 
ATOM     46  C   UNL A   1      40.691  25.799  28.053  1.00  0.00     0.029 A 
ATOM     47  C   UNL A   1      42.106  26.142  28.141  1.00  0.00     0.049 A 
ATOM     48  H   UNL A   1      42.933  27.949  28.769  1.00  0.00     0.167 HD
ATOM     49  C   UNL A   1      44.525  31.959  29.622  1.00  0.00     0.037 A 
ATOM     50  C   UNL A   1      43.128  25.322  27.826  1.00  0.00     0.037 A 
ATOM     51  C   UNL A   1      45.681  31.139  29.375  1.00  0.00     0.049 A 
ATOM     52  C   UNL A   1      44.538  25.832  27.938  1.00  0.00     0.074 A 
ATOM     53  C   UNL A   1      47.018  31.480  29.473  1.00  0.00     0.029 A 
ATOM     54  N   UNL A   1      45.634  29.804  29.000  1.00  0.00    -0.354 N 
ATOM     55  N   UNL A   1      44.956  27.030  28.271  1.00  0.00    -0.248 NA
ATOM     56  C   UNL A   1      45.616  24.882  27.633  1.00  0.00     0.031 C 
ATOM     57  C   UNL A   1      47.780  30.356  29.137  1.00  0.00     0.029 A 
ATOM     58  C   UNL A   1      46.919  29.306  28.862  1.00  0.00     0.049 A 
ATOM     59  H   UNL A   1      44.809  29.286  28.855  1.00  0.00     0.167 HD
ATOM     60  C   UNL A   1      46.344  26.971  28.242  1.00  0.00     0.074 A 
ATOM     61  C   UNL A   1      46.696  25.616  27.867  1.00  0.00     0.031 C 
ATOM     62  C   UNL A   1      47.247  27.949  28.502  1.00  0.00     0.037 A 
BRANCH  49  63
ATOM     63  C   UNL A   1      44.726  33.415  29.947  1.00  0.00     0.058 A 
ATOM     64  C   UNL A   1      44.644  34.413  28.962  1.00  0.00     0.135 A 
ATOM     65  C   UNL A   1      45.012  33.819  31.262  1.00  0.00     0.135 A 
ATOM     66  F   UNL A   1      44.388  34.083  27.685  1.00  0.00    -0.206 F 
ATOM     67  C   UNL A   1      44.893  35.749  29.256  1.00  0.00     0.059 A 
ATOM     68  C   UNL A   1      45.231  35.156  31.585  1.00  0.00     0.059 A 
ATOM     69  F   UNL A   1      45.097  32.909  32.246  1.00  0.00    -0.206 F 
ATOM     70  C   UNL A   1      45.193  36.110  30.570  1.00  0.00     0.060 A 
BRANCH  70  71
ATOM     71  S   UNL A   1      45.537  37.844  30.932  1.00  0.00     0.124 S 
ATOM     72  O   UNL A   1      46.243  38.257  29.723  1.00  0.00    -0.237 OA
ATOM     73  O   UNL A   1      44.201  38.402  31.106  1.00  0.00    -0.237 OA
ATOM     74  O   UNL A   1      46.349  37.783  32.144  1.00  0.00    -0.744 OA
ENDBRANCH  70  71
ENDBRANCH  49  63
BRANCH  50  75
ATOM     75  C   UNL A   1      42.854  23.918  27.413  1.00  0.00     0.058 A 
ATOM     76  C   UNL A   1      42.693  22.913  28.379  1.00  0.00     0.135 A 
ATOM     77  C   UNL A   1      42.716  23.557  26.064  1.00  0.00     0.135 A 
ATOM     78  F   UNL A   1      42.824  23.208  29.680  1.00  0.00    -0.206 F 
ATOM     79  C   UNL A   1      42.414  21.597  28.023  1.00  0.00     0.059 A 
ATOM     80  C   UNL A   1      42.414  22.252  25.685  1.00  0.00     0.059 A 
ATOM     81  F   UNL A   1      42.844  24.485  25.103  1.00  0.00    -0.206 F 
ATOM     82  C   UNL A   1      42.270  21.277  26.672  1.00  0.00     0.060 A 
BRANCH  82  83
ATOM     83  S   UNL A   1      41.838  19.580  26.228  1.00  0.00     0.124 S 
ATOM     84  O   UNL A   1      42.639  19.377  25.026  1.00  0.00    -0.237 OA
ATOM     85  O   UNL A   1      42.261  18.836  27.410  1.00  0.00    -0.237 OA
ATOM     86  O   UNL A   1      40.394  19.645  26.022  1.00  0.00    -0.744 OA
ENDBRANCH  82  83
ENDBRANCH  50  75
BRANCH  62  87
ATOM     87  C   UNL A   1      48.701  27.583  28.430  1.00  0.00     0.058 A 
ATOM     88  C   UNL A   1      49.431  27.698  27.237  1.00  0.00     0.135 A 
ATOM     89  C   UNL A   1      49.385  27.170  29.584  1.00  0.00     0.135 A 
ATOM     90  F   UNL A   1      48.820  28.084  26.106  1.00  0.00    -0.206 F 
ATOM     91  C   UNL A   1      50.789  27.401  27.189  1.00  0.00     0.059 A 
ATOM     92  C   UNL A   1      50.747  26.888  29.563  1.00  0.00     0.059 A 
ATOM     93  F   UNL A   1      48.732  27.052  30.751  1.00  0.00    -0.206 F 
ATOM     94  C   UNL A   1      51.438  26.998  28.357  1.00  0.00     0.060 A 
BRANCH  94  95
ATOM     95  S   UNL A   1      53.209  26.654  28.291  1.00  0.00     0.124 S 
ATOM     96  O   UNL A   1      53.262  25.575  27.311  1.00  0.00    -0.237 OA
ATOM     97  O   UNL A   1      53.761  27.934  27.855  1.00  0.00    -0.237 OA
ATOM     98  O   UNL A   1      53.531  26.275  29.664  1.00  0.00    -0.744 OA
ENDBRANCH  94  95
ENDBRANCH  62  87
ENDBRANCH  36  37
ENDBRANCH  28  31
ENDBRANCH  26  27
ENDBRANCH  25  26
ENDBRANCH   1  25
TORSDOF 18
ENDMDL
MODEL 3
REMARK VINA RESULT:     -11.5      6.441     10.851
REMARK SMILES Cc1nc(CCC(=O)NCCCCNC(=O)c2ccc(-c3c4nc(c(-c5c(F)cc(S(=O)(=O)[O-])cc5F)c5ccc([nH]5)c(-c5c(F)cc(S(=O)(=O)[O-])cc5F)c5nc(c(-c6c(F)cc(S(=O)(=O)[O-])cc6F)c6ccc3[nH]6)C=C5)C=C4)cc2)cc([C@@H]2CCC[N@@H+]2C(C)C)n1
REMARK SMILES IDX 11 1 10 2 9 3 7 4 8 5 6 7 5 8 4 9 1 10 2 11 3 12 93 13 84 14
REMARK SMILES IDX 83 15 85 16 86 17 89 18 87 19 88 20 90 22 91 23 92 24 12 25
REMARK SMILES IDX 13 26 14 27 15 28 16 30 17 31 18 32 82 33 19 34 81 35 20 36
REMARK SMILES IDX 21 37 22 38 75 39 23 40 80 41 74 42 76 43 24 44 79 45 73 46
REMARK SMILES IDX 72 47 25 49 59 50 38 51 58 52 39 53 42 54 57 55 77 56 40 57
REMARK SMILES IDX 41 58 56 60 78 61 43 62 26 63 27 64 36 65 28 66 29 67 35 68
REMARK SMILES IDX 37 69 30 70 31 71 32 72 33 73 34 74 60 75 61 76 70 77 62 78
REMARK SMILES IDX 63 79 69 80 71 81 64 82 65 83 66 84 67 85 68 86 44 87 45 88
REMARK SMILES IDX 54 89 46 90 47 91 53 92 55 93 48 94 49 95 50 96 51 97 52 98
REMARK H PARENT 9 6 89 21 14 29 76 48 42 59
REMARK Flexibility Score: inf
ROOT
ATOM      1  C   UNL A   1      35.236  30.280  27.853  1.00  0.00     0.023 C 
ENDROOT
BRANCH   1   2
ATOM      2  C   UNL A   1      34.715  29.134  26.989  1.00  0.00     0.116 C 
BRANCH   2   3
ATOM      3  N   UNL A   1      33.539  28.561  27.632  1.00  0.00    -0.356 N 
ATOM      4  C   UNL A   1      32.279  28.345  27.184  1.00  0.00     0.220 C 
ATOM      5  O   UNL A   1      31.411  28.039  28.006  1.00  0.00    -0.275 OA
ATOM      6  H   UNL A   1      33.688  28.280  28.564  1.00  0.00     0.163 HD
BRANCH   4   7
ATOM      7  C   UNL A   1      31.945  28.418  25.714  1.00  0.00     0.106 C 
BRANCH   7   8
ATOM      8  C   UNL A   1      31.206  27.176  25.223  1.00  0.00     0.066 C 
BRANCH   8   9
ATOM      9  C   UNL A   1      32.121  26.296  24.414  1.00  0.00     0.045 A 
ATOM     10  C   UNL A   1      32.706  25.590  20.864  1.00  0.00     0.089 C 
ATOM     11  C   UNL A   1      32.884  25.713  22.342  1.00  0.00     0.126 A 
ATOM     12  N   UNL A   1      31.981  26.370  23.077  1.00  0.00    -0.238 NA
ATOM     13  N   UNL A   1      33.932  25.077  22.860  1.00  0.00    -0.232 NA
ATOM     14  C   UNL A   1      33.960  24.842  24.181  1.00  0.00     0.102 A 
ATOM     15  C   UNL A   1      33.078  25.495  25.020  1.00  0.00     0.054 A 
BRANCH  14  16
ATOM     16  C   UNL A   1      34.952  23.803  24.685  1.00  0.00     0.234 C 
ATOM     17  C   UNL A   1      35.981  23.365  23.649  1.00  0.00     0.078 C 
ATOM     18  N   UNL A   1      34.437  22.539  25.308  1.00  0.00    -0.325 N 
ATOM     19  C   UNL A   1      36.512  22.040  24.173  1.00  0.00     0.068 C 
ATOM     20  C   UNL A   1      35.583  21.623  25.306  1.00  0.00     0.263 C 
ATOM     21  H   UNL A   1      34.094  22.757  26.243  1.00  0.00     0.348 HD
BRANCH  18  22
ATOM     22  C   UNL A   1      33.203  21.940  24.749  1.00  0.00     0.178 C 
ATOM     23  C   UNL A   1      33.300  20.493  24.245  1.00  0.00     0.075 C 
ATOM     24  C   UNL A   1      32.024  22.060  25.726  1.00  0.00     0.075 C 
ENDBRANCH  18  22
ENDBRANCH  14  16
ENDBRANCH   8   9
ENDBRANCH   7   8
ENDBRANCH   4   7
ENDBRANCH   2   3
ENDBRANCH   1   2
BRANCH   1  25
ATOM     25  C   UNL A   1      34.682  31.688  27.628  1.00  0.00     0.023 C 
BRANCH  25  26
ATOM     26  C   UNL A   1      33.231  31.995  27.966  1.00  0.00     0.116 C 
BRANCH  26  27
ATOM     27  N   UNL A   1      32.843  33.399  27.929  1.00  0.00    -0.352 N 
ATOM     28  C   UNL A   1      33.404  34.493  28.571  1.00  0.00     0.251 C 
ATOM     29  H   UNL A   1      32.063  33.602  27.362  1.00  0.00     0.163 HD
ATOM     30  O   UNL A   1      32.942  35.607  28.417  1.00  0.00    -0.269 OA
BRANCH  28  31
ATOM     31  C   UNL A   1      34.543  34.297  29.506  1.00  0.00     0.039 A 
ATOM     32  C   UNL A   1      34.312  33.696  30.747  1.00  0.00     0.014 A 
ATOM     33  C   UNL A   1      35.840  34.632  29.129  1.00  0.00     0.014 A 
ATOM     34  C   UNL A   1      35.397  33.300  31.538  1.00  0.00     0.010 A 
ATOM     35  C   UNL A   1      36.912  34.117  29.847  1.00  0.00     0.010 A 
ATOM     36  C   UNL A   1      36.708  33.434  31.056  1.00  0.00    -0.014 A 
BRANCH  36  37
ATOM     37  C   UNL A   1      37.895  32.874  31.765  1.00  0.00     0.031 A 
ATOM     38  C   UNL A   1      38.615  31.685  31.178  1.00  0.00     0.074 A 
ATOM     39  C   UNL A   1      38.238  33.326  32.989  1.00  0.00     0.049 A 
ATOM     40  N   UNL A   1      39.489  30.887  31.731  1.00  0.00    -0.248 NA
ATOM     41  C   UNL A   1      38.247  31.309  29.802  1.00  0.00     0.031 C 
ATOM     42  C   UNL A   1      37.592  34.430  33.705  1.00  0.00     0.029 A 
ATOM     43  N   UNL A   1      39.206  32.894  33.864  1.00  0.00    -0.354 N 
ATOM     44  C   UNL A   1      39.722  29.880  30.799  1.00  0.00     0.074 A 
ATOM     45  C   UNL A   1      38.861  30.144  29.669  1.00  0.00     0.031 C 
ATOM     46  C   UNL A   1      38.198  34.606  34.890  1.00  0.00     0.029 A 
ATOM     47  C   UNL A   1      39.239  33.597  35.047  1.00  0.00     0.049 A 
ATOM     48  H   UNL A   1      39.818  32.151  33.663  1.00  0.00     0.167 HD
ATOM     49  C   UNL A   1      40.592  28.844  30.868  1.00  0.00     0.037 A 
ATOM     50  C   UNL A   1      40.012  33.438  36.140  1.00  0.00     0.037 A 
ATOM     51  C   UNL A   1      41.508  28.639  31.958  1.00  0.00     0.049 A 
ATOM     52  C   UNL A   1      41.025  32.327  36.165  1.00  0.00     0.074 A 
ATOM     53  C   UNL A   1      42.497  27.681  32.085  1.00  0.00     0.029 A 
ATOM     54  N   UNL A   1      41.561  29.423  33.102  1.00  0.00    -0.354 N 
ATOM     55  N   UNL A   1      41.260  31.406  35.260  1.00  0.00    -0.248 NA
ATOM     56  C   UNL A   1      41.878  32.231  37.357  1.00  0.00     0.031 C 
ATOM     57  C   UNL A   1      43.134  27.871  33.316  1.00  0.00     0.029 A 
ATOM     58  C   UNL A   1      42.564  28.969  33.941  1.00  0.00     0.049 A 
ATOM     59  H   UNL A   1      40.972  30.190  33.289  1.00  0.00     0.167 HD
ATOM     60  C   UNL A   1      42.304  30.638  35.761  1.00  0.00     0.074 A 
ATOM     61  C   UNL A   1      42.662  31.207  37.045  1.00  0.00     0.031 C 
ATOM     62  C   UNL A   1      42.913  29.560  35.209  1.00  0.00     0.037 A 
BRANCH  49  63
ATOM     63  C   UNL A   1      40.598  27.867  29.723  1.00  0.00     0.058 A 
ATOM     64  C   UNL A   1      39.638  26.847  29.615  1.00  0.00     0.135 A 
ATOM     65  C   UNL A   1      41.581  27.945  28.723  1.00  0.00     0.135 A 
ATOM     66  F   UNL A   1      38.683  26.715  30.551  1.00  0.00    -0.206 F 
ATOM     67  C   UNL A   1      39.685  25.908  28.590  1.00  0.00     0.059 A 
ATOM     68  C   UNL A   1      41.627  27.037  27.669  1.00  0.00     0.059 A 
ATOM     69  F   UNL A   1      42.521  28.903  28.772  1.00  0.00    -0.206 F 
ATOM     70  C   UNL A   1      40.688  26.007  27.625  1.00  0.00     0.060 A 
BRANCH  70  71
ATOM     71  S   UNL A   1      40.752  24.767  26.315  1.00  0.00     0.124 S 
ATOM     72  O   UNL A   1      41.422  25.508  25.250  1.00  0.00    -0.237 OA
ATOM     73  O   UNL A   1      41.531  23.698  26.929  1.00  0.00    -0.237 OA
ATOM     74  O   UNL A   1      39.346  24.456  26.075  1.00  0.00    -0.744 OA
ENDBRANCH  70  71
ENDBRANCH  49  63
BRANCH  50  75
ATOM     75  C   UNL A   1      39.886  34.383  37.283  1.00  0.00     0.058 A 
ATOM     76  C   UNL A   1      40.607  35.587  37.293  1.00  0.00     0.135 A 
ATOM     77  C   UNL A   1      39.029  34.126  38.364  1.00  0.00     0.135 A 
ATOM     78  F   UNL A   1      41.444  35.873  36.285  1.00  0.00    -0.206 F 
ATOM     79  C   UNL A   1      40.491  36.499  38.336  1.00  0.00     0.059 A 
ATOM     80  C   UNL A   1      38.879  35.034  39.409  1.00  0.00     0.059 A 
ATOM     81  F   UNL A   1      38.306  32.996  38.395  1.00  0.00    -0.206 F 
ATOM     82  C   UNL A   1      39.619  36.216  39.389  1.00  0.00     0.060 A 
BRANCH  82  83
ATOM     83  S   UNL A   1      39.425  37.441  40.703  1.00  0.00     0.124 S 
ATOM     84  O   UNL A   1      40.747  38.056  40.729  1.00  0.00    -0.237 OA
ATOM     85  O   UNL A   1      38.344  38.274  40.189  1.00  0.00    -0.237 OA
ATOM     86  O   UNL A   1      39.082  36.630  41.868  1.00  0.00    -0.744 OA
ENDBRANCH  82  83
ENDBRANCH  50  75
BRANCH  62  87
ATOM     87  C   UNL A   1      44.055  28.947  35.968  1.00  0.00     0.058 A 
ATOM     88  C   UNL A   1      43.877  27.814  36.775  1.00  0.00     0.135 A 
ATOM     89  C   UNL A   1      45.353  29.467  35.837  1.00  0.00     0.135 A 
ATOM     90  F   UNL A   1      42.655  27.283  36.936  1.00  0.00    -0.206 F 
ATOM     91  C   UNL A   1      44.948  27.224  37.439  1.00  0.00     0.059 A 
ATOM     92  C   UNL A   1      46.440  28.881  36.475  1.00  0.00     0.059 A 
ATOM     93  F   UNL A   1      45.574  30.546  35.070  1.00  0.00    -0.206 F 
ATOM     94  C   UNL A   1      46.226  27.765  37.282  1.00  0.00     0.060 A 
BRANCH  94  95
ATOM     95  S   UNL A   1      47.614  26.967  38.116  1.00  0.00     0.124 S 
ATOM     96  O   UNL A   1      47.726  25.718  37.370  1.00  0.00    -0.237 OA
ATOM     97  O   UNL A   1      48.695  27.926  37.913  1.00  0.00    -0.237 OA
ATOM     98  O   UNL A   1      47.150  26.837  39.495  1.00  0.00    -0.744 OA
ENDBRANCH  94  95
ENDBRANCH  62  87
ENDBRANCH  36  37
ENDBRANCH  28  31
ENDBRANCH  26  27
ENDBRANCH  25  26
ENDBRANCH   1  25
TORSDOF 18
ENDMDL
