MODEL 1
REMARK VINA RESULT:     -13.9      0.000      0.000
REMARK SMILES O=C(NCCCCNC(=O)c1cc(S(=O)(=O)NNC(=O)[C@H]2C=C(c3ccccc3)N=N2)ccc1F)c1ccc(-c2c3nc(c(-c4c(F)cc(S(=O)(=O)[O-])cc4F)c4ccc([nH]4)c(-c4c(F)cc(S(=O)(=O)[O-])cc4F)c4nc(c(-c5c(F)cc(S(=O)(=O)[O-])cc5F)c5ccc2[nH]5)C=C4)C=C3)cc1
REMARK SMILES IDX 6 1 5 2 4 3 3 4 1 5 2 6 36 8 37 9 101 10 38 11 100 12 39 13
REMARK SMILES IDX 40 14 41 15 94 16 42 17 99 18 93 19 95 20 43 21 98 22 92 23
REMARK SMILES IDX 91 24 44 26 78 27 57 28 77 29 58 30 61 31 76 32 96 33 59 34
REMARK SMILES IDX 60 35 75 37 97 38 62 39 45 40 46 41 55 42 47 43 48 44 54 45
REMARK SMILES IDX 56 46 49 47 50 48 51 49 52 50 53 51 79 52 80 53 89 54 81 55
REMARK SMILES IDX 82 56 88 57 90 58 83 59 84 60 85 61 86 62 87 63 63 64 64 65
REMARK SMILES IDX 73 66 65 67 66 68 72 69 74 70 67 71 68 72 69 73 70 74 71 75
REMARK SMILES IDX 7 76 8 77 9 78 10 80 11 81 12 82 34 83 13 84 33 85 35 86
REMARK SMILES IDX 32 87 14 88 15 89 16 90 17 91 18 93 19 94 20 96 21 97 22 98
REMARK SMILES IDX 31 99 23 100 30 101 24 102 25 103 29 104 26 105 28 106
REMARK SMILES IDX 27 107
REMARK H PARENT 3 7 95 25 61 36 8 79 17 92 18 95
REMARK Flexibility Score: inf
ROOT
ATOM      1  C   UNL A   1      38.770  23.223  26.453  1.00  0.00     0.023 C 
ENDROOT
BRANCH   1   2
ATOM      2  C   UNL A   1      39.281  21.822  26.119  1.00  0.00     0.023 C 
BRANCH   2   3
ATOM      3  C   UNL A   1      40.745  21.551  26.470  1.00  0.00     0.116 C 
BRANCH   3   4
ATOM      4  N   UNL A   1      41.698  21.961  25.459  1.00  0.00    -0.352 N 
ATOM      5  O   UNL A   1      43.384  22.926  24.417  1.00  0.00    -0.269 OA
ATOM      6  C   UNL A   1      42.550  23.023  25.322  1.00  0.00     0.251 C 
ATOM      7  H   UNL A   1      41.742  21.336  24.700  1.00  0.00     0.163 HD
BRANCH   6   8
ATOM      8  C   UNL A   1      42.497  24.279  26.122  1.00  0.00     0.039 A 
ATOM      9  C   UNL A   1      43.061  24.467  27.383  1.00  0.00     0.014 A 
ATOM     10  C   UNL A   1      41.751  25.334  25.559  1.00  0.00     0.014 A 
ATOM     11  C   UNL A   1      42.802  25.626  28.110  1.00  0.00     0.010 A 
ATOM     12  C   UNL A   1      41.505  26.503  26.271  1.00  0.00     0.010 A 
ATOM     13  C   UNL A   1      41.997  26.627  27.567  1.00  0.00    -0.014 A 
BRANCH  13  14
ATOM     14  C   UNL A   1      41.797  27.845  28.348  1.00  0.00     0.031 A 
ATOM     15  C   UNL A   1      42.905  28.844  28.251  1.00  0.00     0.074 A 
ATOM     16  C   UNL A   1      40.646  28.128  28.988  1.00  0.00     0.049 A 
ATOM     17  N   UNL A   1      43.634  29.347  29.195  1.00  0.00    -0.248 NA
ATOM     18  C   UNL A   1      43.316  29.258  26.899  1.00  0.00     0.031 C 
ATOM     19  C   UNL A   1      39.374  27.402  28.924  1.00  0.00     0.029 A 
ATOM     20  N   UNL A   1      40.340  29.209  29.760  1.00  0.00    -0.354 N 
ATOM     21  C   UNL A   1      44.466  30.288  28.581  1.00  0.00     0.074 A 
ATOM     22  C   UNL A   1      44.328  30.085  27.163  1.00  0.00     0.031 C 
ATOM     23  C   UNL A   1      38.391  28.179  29.435  1.00  0.00     0.029 A 
ATOM     24  C   UNL A   1      38.980  29.390  29.981  1.00  0.00     0.049 A 
ATOM     25  H   UNL A   1      41.025  29.811  30.132  1.00  0.00     0.167 HD
ATOM     26  C   UNL A   1      45.062  31.298  29.274  1.00  0.00     0.037 A 
ATOM     27  C   UNL A   1      38.384  30.493  30.502  1.00  0.00     0.037 A 
ATOM     28  C   UNL A   1      45.130  31.005  30.681  1.00  0.00     0.049 A 
ATOM     29  C   UNL A   1      39.428  31.248  31.243  1.00  0.00     0.074 A 
ATOM     30  C   UNL A   1      45.727  30.016  31.438  1.00  0.00     0.029 A 
ATOM     31  N   UNL A   1      44.231  31.618  31.519  1.00  0.00    -0.354 N 
ATOM     32  N   UNL A   1      40.023  30.816  32.322  1.00  0.00    -0.248 NA
ATOM     33  C   UNL A   1      40.119  32.313  30.533  1.00  0.00     0.031 C 
ATOM     34  C   UNL A   1      44.810  29.762  32.499  1.00  0.00     0.029 A 
ATOM     35  C   UNL A   1      43.738  30.644  32.350  1.00  0.00     0.049 A 
ATOM     36  H   UNL A   1      43.987  32.571  31.522  1.00  0.00     0.167 HD
ATOM     37  C   UNL A   1      41.334  31.250  32.203  1.00  0.00     0.074 A 
ATOM     38  C   UNL A   1      41.312  32.237  31.126  1.00  0.00     0.031 C 
ATOM     39  C   UNL A   1      42.365  30.582  32.800  1.00  0.00     0.037 A 
BRANCH  26  40
ATOM     40  C   UNL A   1      45.288  32.690  28.722  1.00  0.00     0.058 A 
ATOM     41  C   UNL A   1      44.249  33.623  28.506  1.00  0.00     0.135 A 
ATOM     42  C   UNL A   1      46.596  33.220  28.674  1.00  0.00     0.135 A 
ATOM     43  F   UNL A   1      42.957  33.292  28.600  1.00  0.00    -0.206 F 
ATOM     44  C   UNL A   1      44.483  34.974  28.281  1.00  0.00     0.059 A 
ATOM     45  C   UNL A   1      46.849  34.584  28.503  1.00  0.00     0.059 A 
ATOM     46  F   UNL A   1      47.663  32.429  28.870  1.00  0.00    -0.206 F 
ATOM     47  C   UNL A   1      45.782  35.455  28.320  1.00  0.00     0.060 A 
BRANCH  47  48
ATOM     48  S   UNL A   1      46.017  37.238  28.245  1.00  0.00     0.124 S 
ATOM     49  O   UNL A   1      45.463  37.551  26.932  1.00  0.00    -0.237 OA
ATOM     50  O   UNL A   1      45.237  37.692  29.391  1.00  0.00    -0.237 OA
ATOM     51  O   UNL A   1      47.463  37.393  28.372  1.00  0.00    -0.744 OA
ENDBRANCH  47  48
ENDBRANCH  26  40
BRANCH  27  52
ATOM     52  C   UNL A   1      37.105  31.123  30.070  1.00  0.00     0.058 A 
ATOM     53  C   UNL A   1      36.877  31.473  28.723  1.00  0.00     0.135 A 
ATOM     54  C   UNL A   1      36.205  31.663  31.009  1.00  0.00     0.135 A 
ATOM     55  F   UNL A   1      37.703  31.062  27.750  1.00  0.00    -0.206 F 
ATOM     56  C   UNL A   1      35.853  32.333  28.335  1.00  0.00     0.059 A 
ATOM     57  C   UNL A   1      35.173  32.537  30.643  1.00  0.00     0.059 A 
ATOM     58  F   UNL A   1      36.359  31.402  32.316  1.00  0.00    -0.206 F 
ATOM     59  C   UNL A   1      35.024  32.887  29.303  1.00  0.00     0.060 A 
BRANCH  59  60
ATOM     60  S   UNL A   1      33.820  34.127  28.774  1.00  0.00     0.124 S 
ATOM     61  O   UNL A   1      33.000  33.366  27.836  1.00  0.00    -0.237 OA
ATOM     62  O   UNL A   1      33.171  34.479  30.033  1.00  0.00    -0.237 OA
ATOM     63  O   UNL A   1      34.644  35.175  28.182  1.00  0.00    -0.744 OA
ENDBRANCH  59  60
ENDBRANCH  27  52
BRANCH  39  64
ATOM     64  C   UNL A   1      42.045  29.518  33.818  1.00  0.00     0.058 A 
ATOM     65  C   UNL A   1      42.204  29.833  35.177  1.00  0.00     0.135 A 
ATOM     66  C   UNL A   1      41.789  28.172  33.499  1.00  0.00     0.135 A 
ATOM     67  F   UNL A   1      42.502  31.091  35.546  1.00  0.00    -0.206 F 
ATOM     68  C   UNL A   1      42.132  28.863  36.172  1.00  0.00     0.059 A 
ATOM     69  C   UNL A   1      41.680  27.187  34.484  1.00  0.00     0.059 A 
ATOM     70  F   UNL A   1      41.718  27.768  32.223  1.00  0.00    -0.206 F 
ATOM     71  C   UNL A   1      41.875  27.539  35.817  1.00  0.00     0.060 A 
BRANCH  71  72
ATOM     72  S   UNL A   1      41.853  26.294  37.124  1.00  0.00     0.124 S 
ATOM     73  O   UNL A   1      40.529  26.495  37.707  1.00  0.00    -0.237 OA
ATOM     74  O   UNL A   1      42.029  25.053  36.376  1.00  0.00    -0.237 OA
ATOM     75  O   UNL A   1      42.973  26.668  37.982  1.00  0.00    -0.744 OA
ENDBRANCH  71  72
ENDBRANCH  39  64
ENDBRANCH  13  14
ENDBRANCH   6   8
ENDBRANCH   3   4
ENDBRANCH   2   3
ENDBRANCH   1   2
BRANCH   1  76
ATOM     76  C   UNL A   1      37.375  23.560  25.943  1.00  0.00     0.116 C 
BRANCH  76  77
ATOM     77  N   UNL A   1      37.272  23.553  24.492  1.00  0.00    -0.352 N 
ATOM     78  C   UNL A   1      36.263  23.054  23.705  1.00  0.00     0.254 C 
ATOM     79  H   UNL A   1      38.027  23.960  24.009  1.00  0.00     0.163 HD
ATOM     80  O   UNL A   1      36.340  23.100  22.481  1.00  0.00    -0.269 OA
BRANCH  78  81
ATOM     81  C   UNL A   1      35.100  22.392  24.323  1.00  0.00     0.076 A 
ATOM     82  C   UNL A   1      33.929  23.133  24.502  1.00  0.00     0.038 A 
ATOM     83  C   UNL A   1      35.149  21.064  24.742  1.00  0.00     0.136 A 
ATOM     84  C   UNL A   1      32.788  22.503  25.014  1.00  0.00     0.085 A 
ATOM     85  C   UNL A   1      34.001  20.427  25.209  1.00  0.00     0.041 A 
ATOM     86  F   UNL A   1      36.289  20.363  24.687  1.00  0.00    -0.206 F 
ATOM     87  C   UNL A   1      32.805  21.138  25.318  1.00  0.00     0.025 A 
BRANCH  84  88
ATOM     88  S   UNL A   1      31.400  23.542  25.394  1.00  0.00     0.257 S 
ATOM     89  O   UNL A   1      30.536  22.786  26.272  1.00  0.00    -0.205 OA
ATOM     90  O   UNL A   1      31.922  24.843  25.745  1.00  0.00    -0.205 OA
BRANCH  88  91
ATOM     91  N   UNL A   1      30.548  23.734  23.937  1.00  0.00    -0.123 NA
ATOM     92  H   UNL A   1      29.628  24.102  24.181  1.00  0.00     0.167 HD
BRANCH  91  93
ATOM     93  N   UNL A   1      31.075  24.586  22.897  1.00  0.00    -0.275 N 
ATOM     94  C   UNL A   1      31.169  25.951  22.950  1.00  0.00     0.265 C 
ATOM     95  H   UNL A   1      31.396  24.146  22.077  1.00  0.00     0.186 HD
ATOM     96  O   UNL A   1      31.844  26.515  22.079  1.00  0.00    -0.271 OA
BRANCH  94  97
ATOM     97  C   UNL A   1      30.312  26.776  23.907  1.00  0.00     0.244 C 
ATOM     98  C   UNL A   1      30.416  28.202  23.508  1.00  0.00     0.042 C 
ATOM     99  N   UNL A   1      28.853  26.510  23.790  1.00  0.00    -0.171 NA
ATOM    100  C   UNL A   1      29.171  28.571  23.205  1.00  0.00     0.091 C 
ATOM    101  N   UNL A   1      28.260  27.564  23.408  1.00  0.00    -0.155 NA
BRANCH 100 102
ATOM    102  C   UNL A   1      28.806  29.897  22.713  1.00  0.00     0.002 A 
ATOM    103  C   UNL A   1      28.708  30.977  23.600  1.00  0.00     0.010 A 
ATOM    104  C   UNL A   1      28.562  30.111  21.349  1.00  0.00     0.010 A 
ATOM    105  C   UNL A   1      28.392  32.252  23.126  1.00  0.00     0.001 A 
ATOM    106  C   UNL A   1      28.239  31.386  20.877  1.00  0.00     0.001 A 
ATOM    107  C   UNL A   1      28.159  32.457  21.766  1.00  0.00     0.000 A 
ENDBRANCH 100 102
ENDBRANCH  94  97
ENDBRANCH  91  93
ENDBRANCH  88  91
ENDBRANCH  84  88
ENDBRANCH  78  81
ENDBRANCH  76  77
ENDBRANCH   1  76
TORSDOF 19
ENDMDL
MODEL 2
REMARK VINA RESULT:     -13.9      1.425      2.686
REMARK SMILES O=C(NCCCCNC(=O)c1cc(S(=O)(=O)NNC(=O)[C@H]2C=C(c3ccccc3)N=N2)ccc1F)c1ccc(-c2c3nc(c(-c4c(F)cc(S(=O)(=O)[O-])cc4F)c4ccc([nH]4)c(-c4c(F)cc(S(=O)(=O)[O-])cc4F)c4nc(c(-c5c(F)cc(S(=O)(=O)[O-])cc5F)c5ccc2[nH]5)C=C4)C=C3)cc1
REMARK SMILES IDX 6 1 5 2 4 3 3 4 1 5 2 6 36 8 37 9 101 10 38 11 100 12 39 13
REMARK SMILES IDX 40 14 41 15 94 16 42 17 99 18 93 19 95 20 43 21 98 22 92 23
REMARK SMILES IDX 91 24 44 26 78 27 57 28 77 29 58 30 61 31 76 32 96 33 59 34
REMARK SMILES IDX 60 35 75 37 97 38 62 39 45 40 46 41 55 42 47 43 48 44 54 45
REMARK SMILES IDX 56 46 49 47 50 48 51 49 52 50 53 51 79 52 80 53 89 54 81 55
REMARK SMILES IDX 82 56 88 57 90 58 83 59 84 60 85 61 86 62 87 63 63 64 64 65
REMARK SMILES IDX 73 66 65 67 66 68 72 69 74 70 67 71 68 72 69 73 70 74 71 75
REMARK SMILES IDX 7 76 8 77 9 78 10 80 11 81 12 82 34 83 13 84 33 85 35 86
REMARK SMILES IDX 32 87 14 88 15 89 16 90 17 91 18 93 19 94 20 96 21 97 22 98
REMARK SMILES IDX 31 99 23 100 30 101 24 102 25 103 29 104 26 105 28 106
REMARK SMILES IDX 27 107
REMARK H PARENT 3 7 95 25 61 36 8 79 17 92 18 95
REMARK Flexibility Score: inf
ROOT
ATOM      1  C   UNL A   1      39.153  23.335  26.887  1.00  0.00     0.023 C 
ENDROOT
BRANCH   1   2
ATOM      2  C   UNL A   1      39.529  22.012  26.222  1.00  0.00     0.023 C 
BRANCH   2   3
ATOM      3  C   UNL A   1      40.978  21.563  26.414  1.00  0.00     0.116 C 
BRANCH   3   4
ATOM      4  N   UNL A   1      41.895  22.015  25.388  1.00  0.00    -0.352 N 
ATOM      5  O   UNL A   1      43.522  23.051  24.320  1.00  0.00    -0.269 OA
ATOM      6  C   UNL A   1      42.702  23.110  25.241  1.00  0.00     0.251 C 
ATOM      7  H   UNL A   1      41.950  21.396  24.624  1.00  0.00     0.163 HD
BRANCH   6   8
ATOM      8  C   UNL A   1      42.615  24.359  26.049  1.00  0.00     0.039 A 
ATOM      9  C   UNL A   1      43.138  24.540  27.329  1.00  0.00     0.014 A 
ATOM     10  C   UNL A   1      41.880  25.414  25.472  1.00  0.00     0.014 A 
ATOM     11  C   UNL A   1      42.848  25.691  28.056  1.00  0.00     0.010 A 
ATOM     12  C   UNL A   1      41.604  26.575  26.185  1.00  0.00     0.010 A 
ATOM     13  C   UNL A   1      42.053  26.691  27.496  1.00  0.00    -0.014 A 
BRANCH  13  14
ATOM     14  C   UNL A   1      41.821  27.901  28.281  1.00  0.00     0.031 A 
ATOM     15  C   UNL A   1      42.910  28.923  28.201  1.00  0.00     0.074 A 
ATOM     16  C   UNL A   1      40.657  28.158  28.910  1.00  0.00     0.049 A 
ATOM     17  N   UNL A   1      43.618  29.436  29.155  1.00  0.00    -0.248 NA
ATOM     18  C   UNL A   1      43.328  29.351  26.855  1.00  0.00     0.031 C 
ATOM     19  C   UNL A   1      39.401  27.407  28.829  1.00  0.00     0.029 A 
ATOM     20  N   UNL A   1      40.321  29.229  29.683  1.00  0.00    -0.354 N 
ATOM     21  C   UNL A   1      44.437  30.396  28.555  1.00  0.00     0.074 A 
ATOM     22  C   UNL A   1      44.319  30.197  27.135  1.00  0.00     0.031 C 
ATOM     23  C   UNL A   1      38.397  28.162  29.332  1.00  0.00     0.029 A 
ATOM     24  C   UNL A   1      38.956  29.382  29.889  1.00  0.00     0.049 A 
ATOM     25  H   UNL A   1      40.990  29.842  30.065  1.00  0.00     0.167 HD
ATOM     26  C   UNL A   1      45.005  31.415  29.260  1.00  0.00     0.037 A 
ATOM     27  C   UNL A   1      38.332  30.471  30.409  1.00  0.00     0.037 A 
ATOM     28  C   UNL A   1      45.064  31.116  30.665  1.00  0.00     0.049 A 
ATOM     29  C   UNL A   1      39.352  31.242  31.165  1.00  0.00     0.074 A 
ATOM     30  C   UNL A   1      45.672  30.135  31.424  1.00  0.00     0.029 A 
ATOM     31  N   UNL A   1      44.143  31.707  31.496  1.00  0.00    -0.354 N 
ATOM     32  N   UNL A   1      39.944  30.817  32.248  1.00  0.00    -0.248 NA
ATOM     33  C   UNL A   1      40.029  32.324  30.468  1.00  0.00     0.031 C 
ATOM     34  C   UNL A   1      44.749  29.858  32.474  1.00  0.00     0.029 A 
ATOM     35  C   UNL A   1      43.661  30.720  32.317  1.00  0.00     0.049 A 
ATOM     36  H   UNL A   1      43.881  32.655  31.501  1.00  0.00     0.167 HD
ATOM     37  C   UNL A   1      41.248  31.278  32.146  1.00  0.00     0.074 A 
ATOM     38  C   UNL A   1      41.218  32.269  31.073  1.00  0.00     0.031 C 
ATOM     39  C   UNL A   1      42.285  30.628  32.752  1.00  0.00     0.037 A 
BRANCH  26  40
ATOM     40  C   UNL A   1      45.210  32.813  28.716  1.00  0.00     0.058 A 
ATOM     41  C   UNL A   1      44.161  33.742  28.535  1.00  0.00     0.135 A 
ATOM     42  C   UNL A   1      46.513  33.351  28.641  1.00  0.00     0.135 A 
ATOM     43  F   UNL A   1      42.873  33.402  28.657  1.00  0.00    -0.206 F 
ATOM     44  C   UNL A   1      44.380  35.097  28.319  1.00  0.00     0.059 A 
ATOM     45  C   UNL A   1      46.754  34.719  28.478  1.00  0.00     0.059 A 
ATOM     46  F   UNL A   1      47.589  32.565  28.803  1.00  0.00    -0.206 F 
ATOM     47  C   UNL A   1      45.678  35.585  28.330  1.00  0.00     0.060 A 
BRANCH  47  48
ATOM     48  S   UNL A   1      45.901  37.371  28.268  1.00  0.00     0.124 S 
ATOM     49  O   UNL A   1      45.077  37.808  29.390  1.00  0.00    -0.237 OA
ATOM     50  O   UNL A   1      47.343  37.499  28.448  1.00  0.00    -0.237 OA
ATOM     51  O   UNL A   1      45.402  37.725  26.943  1.00  0.00    -0.744 OA
ENDBRANCH  47  48
ENDBRANCH  26  40
BRANCH  27  52
ATOM     52  C   UNL A   1      37.046  31.077  29.966  1.00  0.00     0.058 A 
ATOM     53  C   UNL A   1      36.809  31.390  28.611  1.00  0.00     0.135 A 
ATOM     54  C   UNL A   1      36.143  31.631  30.894  1.00  0.00     0.135 A 
ATOM     55  F   UNL A   1      37.636  30.963  27.646  1.00  0.00    -0.206 F 
ATOM     56  C   UNL A   1      35.776  32.230  28.205  1.00  0.00     0.059 A 
ATOM     57  C   UNL A   1      35.101  32.485  30.509  1.00  0.00     0.059 A 
ATOM     58  F   UNL A   1      36.304  31.404  32.206  1.00  0.00    -0.206 F 
ATOM     59  C   UNL A   1      34.944  32.800  29.162  1.00  0.00     0.060 A 
BRANCH  59  60
ATOM     60  S   UNL A   1      33.726  34.015  28.606  1.00  0.00     0.124 S 
ATOM     61  O   UNL A   1      34.569  34.991  27.923  1.00  0.00    -0.237 OA
ATOM     62  O   UNL A   1      32.868  33.211  27.741  1.00  0.00    -0.237 OA
ATOM     63  O   UNL A   1      33.109  34.475  29.845  1.00  0.00    -0.744 OA
ENDBRANCH  59  60
ENDBRANCH  27  52
BRANCH  39  64
ATOM     64  C   UNL A   1      41.975  29.553  33.761  1.00  0.00     0.058 A 
ATOM     65  C   UNL A   1      42.078  29.875  35.124  1.00  0.00     0.135 A 
ATOM     66  C   UNL A   1      41.782  28.197  33.437  1.00  0.00     0.135 A 
ATOM     67  F   UNL A   1      42.315  31.143  35.499  1.00  0.00    -0.206 F 
ATOM     68  C   UNL A   1      42.013  28.903  36.118  1.00  0.00     0.059 A 
ATOM     69  C   UNL A   1      41.681  27.209  34.420  1.00  0.00     0.059 A 
ATOM     70  F   UNL A   1      41.768  27.790  32.160  1.00  0.00    -0.206 F 
ATOM     71  C   UNL A   1      41.820  27.570  35.757  1.00  0.00     0.060 A 
BRANCH  71  72
ATOM     72  S   UNL A   1      41.806  26.326  37.066  1.00  0.00     0.124 S 
ATOM     73  O   UNL A   1      41.942  25.088  36.304  1.00  0.00    -0.237 OA
ATOM     74  O   UNL A   1      42.966  26.703  37.868  1.00  0.00    -0.237 OA
ATOM     75  O   UNL A   1      40.512  26.517  37.715  1.00  0.00    -0.744 OA
ENDBRANCH  71  72
ENDBRANCH  39  64
ENDBRANCH  13  14
ENDBRANCH   6   8
ENDBRANCH   3   4
ENDBRANCH   2   3
ENDBRANCH   1   2
BRANCH   1  76
ATOM     76  C   UNL A   1      37.929  24.041  26.317  1.00  0.00     0.116 C 
BRANCH  76  77
ATOM     77  N   UNL A   1      37.600  23.627  24.962  1.00  0.00    -0.352 N 
ATOM     78  C   UNL A   1      36.375  23.614  24.341  1.00  0.00     0.254 C 
ATOM     79  H   UNL A   1      38.357  23.313  24.417  1.00  0.00     0.163 HD
ATOM     80  O   UNL A   1      36.259  23.204  23.190  1.00  0.00    -0.269 OA
BRANCH  78  81
ATOM     81  C   UNL A   1      35.168  24.030  25.076  1.00  0.00     0.076 A 
ATOM     82  C   UNL A   1      34.795  25.376  25.038  1.00  0.00     0.038 A 
ATOM     83  C   UNL A   1      34.409  23.124  25.815  1.00  0.00     0.136 A 
ATOM     84  C   UNL A   1      33.609  25.780  25.663  1.00  0.00     0.085 A 
ATOM     85  C   UNL A   1      33.207  23.518  26.398  1.00  0.00     0.041 A 
ATOM     86  F   UNL A   1      34.803  21.852  25.963  1.00  0.00    -0.206 F 
ATOM     87  C   UNL A   1      32.785  24.844  26.298  1.00  0.00     0.025 A 
BRANCH  84  88
ATOM     88  S   UNL A   1      33.295  27.525  25.738  1.00  0.00     0.257 S 
ATOM     89  O   UNL A   1      33.298  27.893  27.136  1.00  0.00    -0.205 OA
ATOM     90  O   UNL A   1      34.155  28.157  24.764  1.00  0.00    -0.205 OA
BRANCH  88  91
ATOM     91  N   UNL A   1      31.701  27.737  25.193  1.00  0.00    -0.123 NA
ATOM     92  H   UNL A   1      31.093  27.588  25.999  1.00  0.00     0.167 HD
BRANCH  91  93
ATOM     93  N   UNL A   1      31.301  28.989  24.594  1.00  0.00    -0.275 N 
ATOM     94  C   UNL A   1      30.213  29.178  23.784  1.00  0.00     0.265 C 
ATOM     95  H   UNL A   1      31.859  29.776  24.787  1.00  0.00     0.186 HD
ATOM     96  O   UNL A   1      29.879  30.343  23.534  1.00  0.00    -0.271 OA
BRANCH  94  97
ATOM     97  C   UNL A   1      29.558  28.016  23.039  1.00  0.00     0.244 C 
ATOM     98  C   UNL A   1      30.635  27.143  22.508  1.00  0.00     0.042 C 
ATOM     99  N   UNL A   1      28.793  27.092  23.918  1.00  0.00    -0.171 NA
ATOM    100  C   UNL A   1      30.436  25.956  23.081  1.00  0.00     0.091 C 
ATOM    101  N   UNL A   1      29.323  25.941  23.887  1.00  0.00    -0.155 NA
BRANCH 100 102
ATOM    102  C   UNL A   1      31.296  24.793  22.879  1.00  0.00     0.002 A 
ATOM    103  C   UNL A   1      30.952  23.555  23.433  1.00  0.00     0.010 A 
ATOM    104  C   UNL A   1      32.468  24.897  22.116  1.00  0.00     0.010 A 
ATOM    105  C   UNL A   1      31.756  22.434  23.212  1.00  0.00     0.001 A 
ATOM    106  C   UNL A   1      33.275  23.777  21.900  1.00  0.00     0.001 A 
ATOM    107  C   UNL A   1      32.916  22.545  22.445  1.00  0.00     0.000 A 
ENDBRANCH 100 102
ENDBRANCH  94  97
ENDBRANCH  91  93
ENDBRANCH  88  91
ENDBRANCH  84  88
ENDBRANCH  78  81
ENDBRANCH  76  77
ENDBRANCH   1  76
TORSDOF 19
ENDMDL
MODEL 3
REMARK VINA RESULT:     -13.8      1.429      2.285
REMARK SMILES O=C(NCCCCNC(=O)c1cc(S(=O)(=O)NNC(=O)[C@H]2C=C(c3ccccc3)N=N2)ccc1F)c1ccc(-c2c3nc(c(-c4c(F)cc(S(=O)(=O)[O-])cc4F)c4ccc([nH]4)c(-c4c(F)cc(S(=O)(=O)[O-])cc4F)c4nc(c(-c5c(F)cc(S(=O)(=O)[O-])cc5F)c5ccc2[nH]5)C=C4)C=C3)cc1
REMARK SMILES IDX 6 1 5 2 4 3 3 4 1 5 2 6 36 8 37 9 101 10 38 11 100 12 39 13
REMARK SMILES IDX 40 14 41 15 94 16 42 17 99 18 93 19 95 20 43 21 98 22 92 23
REMARK SMILES IDX 91 24 44 26 78 27 57 28 77 29 58 30 61 31 76 32 96 33 59 34
REMARK SMILES IDX 60 35 75 37 97 38 62 39 45 40 46 41 55 42 47 43 48 44 54 45
REMARK SMILES IDX 56 46 49 47 50 48 51 49 52 50 53 51 79 52 80 53 89 54 81 55
REMARK SMILES IDX 82 56 88 57 90 58 83 59 84 60 85 61 86 62 87 63 63 64 64 65
REMARK SMILES IDX 73 66 65 67 66 68 72 69 74 70 67 71 68 72 69 73 70 74 71 75
REMARK SMILES IDX 7 76 8 77 9 78 10 80 11 81 12 82 34 83 13 84 33 85 35 86
REMARK SMILES IDX 32 87 14 88 15 89 16 90 17 91 18 93 19 94 20 96 21 97 22 98
REMARK SMILES IDX 31 99 23 100 30 101 24 102 25 103 29 104 26 105 28 106
REMARK SMILES IDX 27 107
REMARK H PARENT 3 7 95 25 61 36 8 79 17 92 18 95
REMARK Flexibility Score: inf
ROOT
ATOM      1  C   UNL A   1      38.786  23.333  26.494  1.00  0.00     0.023 C 
ENDROOT
BRANCH   1   2
ATOM      2  C   UNL A   1      39.268  21.918  26.176  1.00  0.00     0.023 C 
BRANCH   2   3
ATOM      3  C   UNL A   1      40.743  21.640  26.468  1.00  0.00     0.116 C 
BRANCH   3   4
ATOM      4  N   UNL A   1      41.662  22.097  25.445  1.00  0.00    -0.352 N 
ATOM      5  O   UNL A   1      43.310  23.112  24.391  1.00  0.00    -0.269 OA
ATOM      6  C   UNL A   1      42.506  23.167  25.326  1.00  0.00     0.251 C 
ATOM      7  H   UNL A   1      41.683  21.505  24.659  1.00  0.00     0.163 HD
BRANCH   6   8
ATOM      8  C   UNL A   1      42.476  24.387  26.181  1.00  0.00     0.039 A 
ATOM      9  C   UNL A   1      43.018  24.500  27.461  1.00  0.00     0.014 A 
ATOM     10  C   UNL A   1      41.777  25.490  25.651  1.00  0.00     0.014 A 
ATOM     11  C   UNL A   1      42.781  25.633  28.233  1.00  0.00     0.010 A 
ATOM     12  C   UNL A   1      41.553  26.634  26.410  1.00  0.00     0.010 A 
ATOM     13  C   UNL A   1      42.020  26.684  27.719  1.00  0.00    -0.014 A 
BRANCH  13  14
ATOM     14  C   UNL A   1      41.843  27.872  28.550  1.00  0.00     0.031 A 
ATOM     15  C   UNL A   1      42.984  28.838  28.519  1.00  0.00     0.074 A 
ATOM     16  C   UNL A   1      40.689  28.164  29.180  1.00  0.00     0.049 A 
ATOM     17  N   UNL A   1      43.709  29.275  29.499  1.00  0.00    -0.248 NA
ATOM     18  C   UNL A   1      43.436  29.298  27.195  1.00  0.00     0.031 C 
ATOM     19  C   UNL A   1      39.396  27.483  29.060  1.00  0.00     0.029 A 
ATOM     20  N   UNL A   1      40.401  29.219  29.994  1.00  0.00    -0.354 N 
ATOM     21  C   UNL A   1      44.582  30.215  28.944  1.00  0.00     0.074 A 
ATOM     22  C   UNL A   1      44.467  30.079  27.516  1.00  0.00     0.031 C 
ATOM     23  C   UNL A   1      38.428  28.268  29.586  1.00  0.00     0.029 A 
ATOM     24  C   UNL A   1      39.043  29.434  30.196  1.00  0.00     0.049 A 
ATOM     25  H   UNL A   1      41.097  29.781  30.405  1.00  0.00     0.167 HD
ATOM     26  C   UNL A   1      45.195  31.174  29.693  1.00  0.00     0.037 A 
ATOM     27  C   UNL A   1      38.472  30.532  30.754  1.00  0.00     0.037 A 
ATOM     28  C   UNL A   1      45.225  30.817  31.086  1.00  0.00     0.049 A 
ATOM     29  C   UNL A   1      39.523  31.219  31.549  1.00  0.00     0.074 A 
ATOM     30  C   UNL A   1      45.775  29.776  31.809  1.00  0.00     0.029 A 
ATOM     31  N   UNL A   1      44.329  31.420  31.933  1.00  0.00    -0.354 N 
ATOM     32  N   UNL A   1      40.082  30.721  32.618  1.00  0.00    -0.248 NA
ATOM     33  C   UNL A   1      40.262  32.291  30.901  1.00  0.00     0.031 C 
ATOM     34  C   UNL A   1      44.829  29.505  32.840  1.00  0.00     0.029 A 
ATOM     35  C   UNL A   1      43.788  30.428  32.710  1.00  0.00     0.049 A 
ATOM     36  H   UNL A   1      44.115  32.380  31.974  1.00  0.00     0.167 HD
ATOM     37  C   UNL A   1      41.409  31.117  32.544  1.00  0.00     0.074 A 
ATOM     38  C   UNL A   1      41.440  32.150  31.512  1.00  0.00     0.031 C 
ATOM     39  C   UNL A   1      42.405  30.390  33.131  1.00  0.00     0.037 A 
BRANCH  26  40
ATOM     40  C   UNL A   1      45.477  32.580  29.207  1.00  0.00     0.058 A 
ATOM     41  C   UNL A   1      46.779  33.096  29.020  1.00  0.00     0.135 A 
ATOM     42  C   UNL A   1      44.436  33.345  28.636  1.00  0.00     0.135 A 
ATOM     43  F   UNL A   1      47.874  32.446  29.431  1.00  0.00    -0.206 F 
ATOM     44  C   UNL A   1      47.035  34.262  28.309  1.00  0.00     0.059 A 
ATOM     45  C   UNL A   1      44.677  34.491  27.871  1.00  0.00     0.059 A 
ATOM     46  F   UNL A   1      43.158  32.951  28.744  1.00  0.00    -0.206 F 
ATOM     47  C   UNL A   1      45.984  34.933  27.704  1.00  0.00     0.060 A 
BRANCH  47  48
ATOM     48  S   UNL A   1      46.386  36.308  26.613  1.00  0.00     0.124 S 
ATOM     49  O   UNL A   1      46.302  35.674  25.301  1.00  0.00    -0.237 OA
ATOM     50  O   UNL A   1      45.327  37.260  26.929  1.00  0.00    -0.237 OA
ATOM     51  O   UNL A   1      47.725  36.696  27.042  1.00  0.00    -0.744 OA
ENDBRANCH  47  48
ENDBRANCH  26  40
BRANCH  27  52
ATOM     52  C   UNL A   1      37.222  31.221  30.327  1.00  0.00     0.058 A 
ATOM     53  C   UNL A   1      37.147  31.911  29.099  1.00  0.00     0.135 A 
ATOM     54  C   UNL A   1      36.178  31.469  31.239  1.00  0.00     0.135 A 
ATOM     55  F   UNL A   1      38.115  31.794  28.178  1.00  0.00    -0.206 F 
ATOM     56  C   UNL A   1      36.130  32.817  28.809  1.00  0.00     0.059 A 
ATOM     57  C   UNL A   1      35.150  32.382  30.972  1.00  0.00     0.059 A 
ATOM     58  F   UNL A   1      36.179  30.873  32.441  1.00  0.00    -0.206 F 
ATOM     59  C   UNL A   1      35.152  33.072  29.762  1.00  0.00     0.060 A 
BRANCH  59  60
ATOM     60  S   UNL A   1      33.952  34.378  29.411  1.00  0.00     0.124 S 
ATOM     61  O   UNL A   1      34.808  35.436  28.885  1.00  0.00    -0.237 OA
ATOM     62  O   UNL A   1      33.078  33.733  28.436  1.00  0.00    -0.237 OA
ATOM     63  O   UNL A   1      33.346  34.646  30.711  1.00  0.00    -0.744 OA
ENDBRANCH  59  60
ENDBRANCH  27  52
BRANCH  39  64
ATOM     64  C   UNL A   1      42.031  29.293  34.094  1.00  0.00     0.058 A 
ATOM     65  C   UNL A   1      42.166  29.545  35.468  1.00  0.00     0.135 A 
ATOM     66  C   UNL A   1      41.744  27.970  33.710  1.00  0.00     0.135 A 
ATOM     67  F   UNL A   1      42.492  30.775  35.898  1.00  0.00    -0.206 F 
ATOM     68  C   UNL A   1      42.043  28.535  36.418  1.00  0.00     0.059 A 
ATOM     69  C   UNL A   1      41.584  26.947  34.648  1.00  0.00     0.059 A 
ATOM     70  F   UNL A   1      41.692  27.624  32.416  1.00  0.00    -0.206 F 
ATOM     71  C   UNL A   1      41.758  27.236  35.999  1.00  0.00     0.060 A 
BRANCH  71  72
ATOM     72  S   UNL A   1      41.669  25.937  37.250  1.00  0.00     0.124 S 
ATOM     73  O   UNL A   1      42.730  26.333  38.171  1.00  0.00    -0.237 OA
ATOM     74  O   UNL A   1      40.308  26.085  37.758  1.00  0.00    -0.237 OA
ATOM     75  O   UNL A   1      41.923  24.711  36.499  1.00  0.00    -0.744 OA
ENDBRANCH  71  72
ENDBRANCH  39  64
ENDBRANCH  13  14
ENDBRANCH   6   8
ENDBRANCH   3   4
ENDBRANCH   2   3
ENDBRANCH   1   2
BRANCH   1  76
ATOM     76  C   UNL A   1      37.352  23.652  26.092  1.00  0.00     0.116 C 
BRANCH  76  77
ATOM     77  N   UNL A   1      37.143  23.667  24.653  1.00  0.00    -0.352 N 
ATOM     78  C   UNL A   1      36.113  23.117  23.929  1.00  0.00     0.254 C 
ATOM     79  H   UNL A   1      37.832  24.133  24.127  1.00  0.00     0.163 HD
ATOM     80  O   UNL A   1      36.097  23.193  22.703  1.00  0.00    -0.269 OA
BRANCH  78  81
ATOM     81  C   UNL A   1      35.046  22.366  24.612  1.00  0.00     0.076 A 
ATOM     82  C   UNL A   1      33.875  23.043  24.962  1.00  0.00     0.038 A 
ATOM     83  C   UNL A   1      35.184  21.016  24.927  1.00  0.00     0.136 A 
ATOM     84  C   UNL A   1      32.816  22.332  25.541  1.00  0.00     0.085 A 
ATOM     85  C   UNL A   1      34.115  20.301  25.462  1.00  0.00     0.041 A 
ATOM     86  F   UNL A   1      36.337  20.369  24.706  1.00  0.00    -0.206 F 
ATOM     87  C   UNL A   1      32.912  20.951  25.742  1.00  0.00     0.025 A 
BRANCH  84  88
ATOM     88  S   UNL A   1      31.440  23.283  26.134  1.00  0.00     0.257 S 
ATOM     89  O   UNL A   1      30.277  22.426  26.066  1.00  0.00    -0.205 OA
ATOM     90  O   UNL A   1      31.860  23.931  27.355  1.00  0.00    -0.205 OA
BRANCH  88  91
ATOM     91  N   UNL A   1      31.193  24.512  24.988  1.00  0.00    -0.123 NA
ATOM     92  H   UNL A   1      31.485  24.136  24.086  1.00  0.00     0.167 HD
BRANCH  91  93
ATOM     93  N   UNL A   1      29.876  25.074  24.800  1.00  0.00    -0.275 N 
ATOM     94  C   UNL A   1      29.551  26.080  23.930  1.00  0.00     0.265 C 
ATOM     95  H   UNL A   1      29.147  24.699  25.346  1.00  0.00     0.186 HD
ATOM     96  O   UNL A   1      28.349  26.295  23.725  1.00  0.00    -0.271 OA
BRANCH  94  97
ATOM     97  C   UNL A   1      30.604  27.045  23.391  1.00  0.00     0.244 C 
ATOM     98  C   UNL A   1      30.875  28.063  24.437  1.00  0.00     0.042 C 
ATOM     99  N   UNL A   1      31.941  26.424  23.187  1.00  0.00    -0.171 NA
ATOM    100  C   UNL A   1      32.169  27.931  24.726  1.00  0.00     0.091 C 
ATOM    101  N   UNL A   1      32.786  26.977  23.953  1.00  0.00    -0.155 NA
BRANCH 100 102
ATOM    102  C   UNL A   1      32.866  28.711  25.746  1.00  0.00     0.002 A 
ATOM    103  C   UNL A   1      34.056  28.235  26.309  1.00  0.00     0.010 A 
ATOM    104  C   UNL A   1      32.363  29.952  26.163  1.00  0.00     0.010 A 
ATOM    105  C   UNL A   1      34.741  28.996  27.260  1.00  0.00     0.001 A 
ATOM    106  C   UNL A   1      33.045  30.709  27.118  1.00  0.00     0.001 A 
ATOM    107  C   UNL A   1      34.237  30.233  27.663  1.00  0.00     0.000 A 
ENDBRANCH 100 102
ENDBRANCH  94  97
ENDBRANCH  91  93
ENDBRANCH  88  91
ENDBRANCH  84  88
ENDBRANCH  78  81
ENDBRANCH  76  77
ENDBRANCH   1  76
TORSDOF 19
ENDMDL
