MODEL 1
REMARK VINA RESULT:     -10.5      0.000      0.000
REMARK SMILES CC(=O)N[C@H](CC(=O)NCC(=O)NCCCCNC(=O)c1ccc(-c2c3nc(c(-c4c(F)cc(S(=O)(=O)[O-])cc4F)c4ccc([nH]4)c(-c4c(F)cc(S(=O)(=O)[O-])cc4F)c4nc(c(-c5c(F)cc(S(=O)(=O)[O-])cc5F)c5ccc2[nH]5)C=C4)C=C3)cc1)c1cccs1
REMARK SMILES IDX 15 1 14 2 13 3 11 4 12 5 10 7 9 8 7 9 8 10 6 12 5 13 4 14
REMARK SMILES IDX 1 15 2 16 3 17 87 19 88 20 91 21 89 22 90 23 16 24 17 25
REMARK SMILES IDX 18 26 19 27 20 29 21 30 22 31 86 32 23 33 85 34 24 35 25 36
REMARK SMILES IDX 26 37 79 38 27 39 84 40 78 41 80 42 28 43 83 44 77 45 76 46
REMARK SMILES IDX 29 48 63 49 42 50 62 51 43 52 46 53 61 54 81 55 44 56 45 57
REMARK SMILES IDX 60 59 82 60 47 61 30 62 31 63 40 64 32 65 33 66 39 67 41 68
REMARK SMILES IDX 34 69 35 70 36 71 37 72 38 73 64 74 65 75 74 76 66 77 67 78
REMARK SMILES IDX 73 79 75 80 68 81 69 82 70 83 71 84 72 85 48 86 49 87 58 88
REMARK SMILES IDX 50 89 51 90 57 91 59 92 52 93 53 94 54 95 55 96 56 97
REMARK H PARENT 13 6 9 11 4 18 18 28 80 47 46 58
REMARK Flexibility Score: inf
ROOT
ATOM      1  C   UNL A   1      33.000  29.331  24.745  1.00  0.00     0.023 C 
ENDROOT
BRANCH   1   2
ATOM      2  C   UNL A   1      33.176  28.955  23.279  1.00  0.00     0.116 C 
BRANCH   2   3
ATOM      3  N   UNL A   1      32.030  29.150  22.414  1.00  0.00    -0.355 N 
ATOM      4  C   UNL A   1      30.855  28.448  22.359  1.00  0.00     0.239 C 
ATOM      5  O   UNL A   1      29.893  29.003  21.815  1.00  0.00    -0.273 OA
ATOM      6  H   UNL A   1      32.106  29.893  21.774  1.00  0.00     0.163 HD
BRANCH   4   7
ATOM      7  C   UNL A   1      30.649  27.054  23.014  1.00  0.00     0.216 C 
BRANCH   7   8
ATOM      8  N   UNL A   1      30.362  27.021  24.432  1.00  0.00    -0.347 N 
ATOM      9  C   UNL A   1      30.875  26.269  25.438  1.00  0.00     0.222 C 
ATOM     10  O   UNL A   1      30.208  26.198  26.474  1.00  0.00    -0.275 OA
ATOM     11  H   UNL A   1      29.669  27.659  24.720  1.00  0.00     0.164 HD
BRANCH   9  12
ATOM     12  C   UNL A   1      32.228  25.589  25.368  1.00  0.00     0.130 C 
BRANCH  12  13
ATOM     13  C   UNL A   1      32.640  24.532  26.419  1.00  0.00     0.131 C 
BRANCH  13  14
ATOM     14  N   UNL A   1      31.658  23.500  26.659  1.00  0.00    -0.348 N 
ATOM     15  C   UNL A   1      31.363  22.647  24.335  1.00  0.00     0.114 C 
ATOM     16  C   UNL A   1      30.988  22.702  25.786  1.00  0.00     0.217 C 
ATOM     17  O   UNL A   1      30.074  22.013  26.231  1.00  0.00    -0.275 OA
ATOM     18  H   UNL A   1      31.440  23.349  27.607  1.00  0.00     0.164 HD
ENDBRANCH  13  14
BRANCH  13  19
ATOM     19  C   UNL A   1      34.025  23.989  26.104  1.00  0.00     0.027 A 
ATOM     20  C   UNL A   1      34.993  24.650  25.363  1.00  0.00     0.017 A 
ATOM     21  S   UNL A   1      34.607  22.456  26.625  1.00  0.00    -0.147 S 
ATOM     22  C   UNL A   1      36.177  23.884  25.190  1.00  0.00     0.012 A 
ATOM     23  C   UNL A   1      36.099  22.667  25.826  1.00  0.00     0.065 A 
ENDBRANCH  13  19
ENDBRANCH  12  13
ENDBRANCH   9  12
ENDBRANCH   7   8
ENDBRANCH   4   7
ENDBRANCH   2   3
ENDBRANCH   1   2
BRANCH   1  24
ATOM     24  C   UNL A   1      33.985  28.724  25.737  1.00  0.00     0.023 C 
BRANCH  24  25
ATOM     25  C   UNL A   1      33.605  28.722  27.220  1.00  0.00     0.116 C 
BRANCH  25  26
ATOM     26  N   UNL A   1      33.649  30.013  27.893  1.00  0.00    -0.352 N 
ATOM     27  C   UNL A   1      34.744  30.697  28.379  1.00  0.00     0.251 C 
ATOM     28  H   UNL A   1      32.780  30.457  28.020  1.00  0.00     0.163 HD
ATOM     29  O   UNL A   1      34.633  31.842  28.813  1.00  0.00    -0.269 OA
BRANCH  27  30
ATOM     30  C   UNL A   1      36.053  30.016  28.437  1.00  0.00     0.039 A 
ATOM     31  C   UNL A   1      36.897  30.105  27.328  1.00  0.00     0.014 A 
ATOM     32  C   UNL A   1      36.479  29.377  29.604  1.00  0.00     0.014 A 
ATOM     33  C   UNL A   1      38.219  29.671  27.435  1.00  0.00     0.010 A 
ATOM     34  C   UNL A   1      37.815  29.003  29.729  1.00  0.00     0.010 A 
ATOM     35  C   UNL A   1      38.706  29.184  28.658  1.00  0.00    -0.014 A 
BRANCH  35  36
ATOM     36  C   UNL A   1      40.159  28.945  28.861  1.00  0.00     0.031 A 
ATOM     37  C   UNL A   1      40.771  27.613  28.536  1.00  0.00     0.074 A 
ATOM     38  C   UNL A   1      40.911  29.913  29.426  1.00  0.00     0.049 A 
ATOM     39  N   UNL A   1      42.001  27.206  28.715  1.00  0.00    -0.248 NA
ATOM     40  C   UNL A   1      39.879  26.599  27.955  1.00  0.00     0.031 C 
ATOM     41  C   UNL A   1      40.420  31.228  29.847  1.00  0.00     0.029 A 
ATOM     42  N   UNL A   1      42.242  29.938  29.758  1.00  0.00    -0.354 N 
ATOM     43  C   UNL A   1      42.032  25.888  28.279  1.00  0.00     0.074 A 
ATOM     44  C   UNL A   1      40.683  25.550  27.870  1.00  0.00     0.031 C 
ATOM     45  C   UNL A   1      41.437  31.933  30.366  1.00  0.00     0.029 A 
ATOM     46  C   UNL A   1      42.644  31.114  30.346  1.00  0.00     0.049 A 
ATOM     47  H   UNL A   1      42.853  29.183  29.590  1.00  0.00     0.167 HD
ATOM     48  C   UNL A   1      43.089  25.044  28.206  1.00  0.00     0.037 A 
ATOM     49  C   UNL A   1      43.847  31.490  30.823  1.00  0.00     0.037 A 
ATOM     50  C   UNL A   1      44.431  25.390  28.601  1.00  0.00     0.049 A 
ATOM     51  C   UNL A   1      45.008  30.540  30.722  1.00  0.00     0.074 A 
ATOM     52  C   UNL A   1      45.577  24.620  28.517  1.00  0.00     0.029 A 
ATOM     53  N   UNL A   1      44.806  26.604  29.159  1.00  0.00    -0.354 N 
ATOM     54  N   UNL A   1      45.034  29.319  30.243  1.00  0.00    -0.248 NA
ATOM     55  C   UNL A   1      46.306  31.019  31.217  1.00  0.00     0.031 C 
ATOM     56  C   UNL A   1      46.640  25.355  29.054  1.00  0.00     0.029 A 
ATOM     57  C   UNL A   1      46.164  26.599  29.436  1.00  0.00     0.049 A 
ATOM     58  H   UNL A   1      44.197  27.357  29.332  1.00  0.00     0.167 HD
ATOM     59  C   UNL A   1      46.351  28.893  30.358  1.00  0.00     0.074 A 
ATOM     60  C   UNL A   1      47.096  29.990  30.942  1.00  0.00     0.031 C 
ATOM     61  C   UNL A   1      46.895  27.700  30.010  1.00  0.00     0.037 A 
BRANCH  48  62
ATOM     62  C   UNL A   1      42.834  23.664  27.668  1.00  0.00     0.058 A 
ATOM     63  C   UNL A   1      42.491  22.600  28.518  1.00  0.00     0.135 A 
ATOM     64  C   UNL A   1      42.908  23.405  26.290  1.00  0.00     0.135 A 
ATOM     65  F   UNL A   1      42.419  22.791  29.845  1.00  0.00    -0.206 F 
ATOM     66  C   UNL A   1      42.267  21.319  28.024  1.00  0.00     0.059 A 
ATOM     67  C   UNL A   1      42.661  22.137  25.772  1.00  0.00     0.059 A 
ATOM     68  F   UNL A   1      43.229  24.387  25.434  1.00  0.00    -0.206 F 
ATOM     69  C   UNL A   1      42.359  21.096  26.650  1.00  0.00     0.060 A 
BRANCH  69  70
ATOM     70  S   UNL A   1      42.072  19.427  26.026  1.00  0.00     0.124 S 
ATOM     71  O   UNL A   1      42.924  19.410  24.841  1.00  0.00    -0.237 OA
ATOM     72  O   UNL A   1      42.518  18.594  27.138  1.00  0.00    -0.237 OA
ATOM     73  O   UNL A   1      40.636  19.403  25.767  1.00  0.00    -0.744 OA
ENDBRANCH  69  70
ENDBRANCH  48  62
BRANCH  49  74
ATOM     74  C   UNL A   1      44.017  32.840  31.419  1.00  0.00     0.058 A 
ATOM     75  C   UNL A   1      43.843  33.046  32.796  1.00  0.00     0.135 A 
ATOM     76  C   UNL A   1      44.374  33.946  30.632  1.00  0.00     0.135 A 
ATOM     77  F   UNL A   1      43.496  32.021  33.588  1.00  0.00    -0.206 F 
ATOM     78  C   UNL A   1      44.004  34.303  33.372  1.00  0.00     0.059 A 
ATOM     79  C   UNL A   1      44.562  35.208  31.188  1.00  0.00     0.059 A 
ATOM     80  F   UNL A   1      44.568  33.798  29.313  1.00  0.00    -0.206 F 
ATOM     81  C   UNL A   1      44.366  35.379  32.558  1.00  0.00     0.060 A 
BRANCH  81  82
ATOM     82  S   UNL A   1      44.624  36.994  33.323  1.00  0.00     0.124 S 
ATOM     83  O   UNL A   1      45.652  36.691  34.312  1.00  0.00    -0.237 OA
ATOM     84  O   UNL A   1      45.049  37.808  32.188  1.00  0.00    -0.237 OA
ATOM     85  O   UNL A   1      43.307  37.324  33.860  1.00  0.00    -0.744 OA
ENDBRANCH  81  82
ENDBRANCH  49  74
BRANCH  61  86
ATOM     86  C   UNL A   1      48.372  27.526  30.223  1.00  0.00     0.058 A 
ATOM     87  C   UNL A   1      49.308  27.924  29.257  1.00  0.00     0.135 A 
ATOM     88  C   UNL A   1      48.859  27.002  31.431  1.00  0.00     0.135 A 
ATOM     89  F   UNL A   1      48.895  28.425  28.082  1.00  0.00    -0.206 F 
ATOM     90  C   UNL A   1      50.677  27.792  29.473  1.00  0.00     0.059 A 
ATOM     91  C   UNL A   1      50.223  26.881  31.679  1.00  0.00     0.059 A 
ATOM     92  F   UNL A   1      48.006  26.613  32.393  1.00  0.00    -0.206 F 
ATOM     93  C   UNL A   1      51.124  27.270  30.689  1.00  0.00     0.060 A 
BRANCH  93  94
ATOM     94  S   UNL A   1      52.903  27.138  30.974  1.00  0.00     0.124 S 
ATOM     95  O   UNL A   1      53.319  26.302  29.852  1.00  0.00    -0.237 OA
ATOM     96  O   UNL A   1      53.334  28.531  30.920  1.00  0.00    -0.237 OA
ATOM     97  O   UNL A   1      52.989  26.512  32.290  1.00  0.00    -0.744 OA
ENDBRANCH  93  94
ENDBRANCH  61  86
ENDBRANCH  35  36
ENDBRANCH  27  30
ENDBRANCH  25  26
ENDBRANCH  24  25
ENDBRANCH   1  24
TORSDOF 19
ENDMDL
MODEL 2
REMARK VINA RESULT:     -10.3      1.787      8.701
REMARK SMILES CC(=O)N[C@H](CC(=O)NCC(=O)NCCCCNC(=O)c1ccc(-c2c3nc(c(-c4c(F)cc(S(=O)(=O)[O-])cc4F)c4ccc([nH]4)c(-c4c(F)cc(S(=O)(=O)[O-])cc4F)c4nc(c(-c5c(F)cc(S(=O)(=O)[O-])cc5F)c5ccc2[nH]5)C=C4)C=C3)cc1)c1cccs1
REMARK SMILES IDX 15 1 14 2 13 3 11 4 12 5 10 7 9 8 7 9 8 10 6 12 5 13 4 14
REMARK SMILES IDX 1 15 2 16 3 17 87 19 88 20 91 21 89 22 90 23 16 24 17 25
REMARK SMILES IDX 18 26 19 27 20 29 21 30 22 31 86 32 23 33 85 34 24 35 25 36
REMARK SMILES IDX 26 37 79 38 27 39 84 40 78 41 80 42 28 43 83 44 77 45 76 46
REMARK SMILES IDX 29 48 63 49 42 50 62 51 43 52 46 53 61 54 81 55 44 56 45 57
REMARK SMILES IDX 60 59 82 60 47 61 30 62 31 63 40 64 32 65 33 66 39 67 41 68
REMARK SMILES IDX 34 69 35 70 36 71 37 72 38 73 64 74 65 75 74 76 66 77 67 78
REMARK SMILES IDX 73 79 75 80 68 81 69 82 70 83 71 84 72 85 48 86 49 87 58 88
REMARK SMILES IDX 50 89 51 90 57 91 59 92 52 93 53 94 54 95 55 96 56 97
REMARK H PARENT 13 6 9 11 4 18 18 28 80 47 46 58
REMARK Flexibility Score: inf
ROOT
ATOM      1  C   UNL A   1      31.298  27.502  26.675  1.00  0.00     0.023 C 
ENDROOT
BRANCH   1   2
ATOM      2  C   UNL A   1      31.772  26.305  25.860  1.00  0.00     0.116 C 
BRANCH   2   3
ATOM      3  N   UNL A   1      31.755  25.017  26.524  1.00  0.00    -0.355 N 
ATOM      4  C   UNL A   1      31.460  23.781  26.013  1.00  0.00     0.239 C 
ATOM      5  O   UNL A   1      31.858  22.799  26.652  1.00  0.00    -0.273 OA
ATOM      6  H   UNL A   1      31.988  25.033  27.480  1.00  0.00     0.163 HD
BRANCH   4   7
ATOM      7  C   UNL A   1      30.746  23.556  24.653  1.00  0.00     0.216 C 
BRANCH   7   8
ATOM      8  N   UNL A   1      31.578  23.450  23.473  1.00  0.00    -0.347 N 
ATOM      9  C   UNL A   1      32.423  22.477  23.050  1.00  0.00     0.222 C 
ATOM     10  O   UNL A   1      33.260  22.798  22.201  1.00  0.00    -0.275 OA
ATOM     11  H   UNL A   1      31.520  24.224  22.867  1.00  0.00     0.164 HD
BRANCH   9  12
ATOM     12  C   UNL A   1      32.339  21.036  23.513  1.00  0.00     0.130 C 
BRANCH  12  13
ATOM     13  C   UNL A   1      33.527  20.366  24.242  1.00  0.00     0.131 C 
BRANCH  13  14
ATOM     14  N   UNL A   1      34.005  21.079  25.404  1.00  0.00    -0.348 N 
ATOM     15  C   UNL A   1      36.024  22.170  24.431  1.00  0.00     0.114 C 
ATOM     16  C   UNL A   1      35.137  21.810  25.585  1.00  0.00     0.217 C 
ATOM     17  O   UNL A   1      35.399  22.180  26.726  1.00  0.00    -0.275 OA
ATOM     18  H   UNL A   1      33.416  21.029  26.191  1.00  0.00     0.164 HD
ENDBRANCH  13  14
BRANCH  13  19
ATOM     19  C   UNL A   1      33.218  18.902  24.515  1.00  0.00     0.027 A 
ATOM     20  C   UNL A   1      32.807  18.385  25.733  1.00  0.00     0.017 A 
ATOM     21  S   UNL A   1      33.332  17.652  23.337  1.00  0.00    -0.147 S 
ATOM     22  C   UNL A   1      32.635  16.975  25.708  1.00  0.00     0.012 A 
ATOM     23  C   UNL A   1      32.889  16.449  24.463  1.00  0.00     0.065 A 
ENDBRANCH  13  19
ENDBRANCH  12  13
ENDBRANCH   9  12
ENDBRANCH   7   8
ENDBRANCH   4   7
ENDBRANCH   2   3
ENDBRANCH   1   2
BRANCH   1  24
ATOM     24  C   UNL A   1      32.287  28.092  27.675  1.00  0.00     0.023 C 
BRANCH  24  25
ATOM     25  C   UNL A   1      33.369  29.036  27.148  1.00  0.00     0.116 C 
BRANCH  25  26
ATOM     26  N   UNL A   1      33.443  30.344  27.785  1.00  0.00    -0.352 N 
ATOM     27  C   UNL A   1      34.541  30.981  28.327  1.00  0.00     0.251 C 
ATOM     28  H   UNL A   1      32.595  30.840  27.838  1.00  0.00     0.163 HD
ATOM     29  O   UNL A   1      34.468  32.143  28.719  1.00  0.00    -0.269 OA
BRANCH  27  30
ATOM     30  C   UNL A   1      35.801  30.229  28.494  1.00  0.00     0.039 A 
ATOM     31  C   UNL A   1      36.694  30.184  27.422  1.00  0.00     0.014 A 
ATOM     32  C   UNL A   1      36.136  29.656  29.724  1.00  0.00     0.014 A 
ATOM     33  C   UNL A   1      37.980  29.681  27.622  1.00  0.00     0.010 A 
ATOM     34  C   UNL A   1      37.440  29.214  29.938  1.00  0.00     0.010 A 
ATOM     35  C   UNL A   1      38.385  29.259  28.899  1.00  0.00    -0.014 A 
BRANCH  35  36
ATOM     36  C   UNL A   1      39.810  28.951  29.186  1.00  0.00     0.031 A 
ATOM     37  C   UNL A   1      40.721  29.995  29.763  1.00  0.00     0.074 A 
ATOM     38  C   UNL A   1      40.303  27.743  28.839  1.00  0.00     0.049 A 
ATOM     39  N   UNL A   1      42.003  29.924  30.010  1.00  0.00    -0.248 NA
ATOM     40  C   UNL A   1      40.116  31.297  30.082  1.00  0.00     0.031 C 
ATOM     41  C   UNL A   1      39.535  26.665  28.211  1.00  0.00     0.029 A 
ATOM     42  N   UNL A   1      41.568  27.224  28.950  1.00  0.00    -0.354 N 
ATOM     43  C   UNL A   1      42.363  31.171  30.505  1.00  0.00     0.074 A 
ATOM     44  C   UNL A   1      41.171  31.994  30.479  1.00  0.00     0.031 C 
ATOM     45  C   UNL A   1      40.340  25.610  28.007  1.00  0.00     0.029 A 
ATOM     46  C   UNL A   1      41.687  25.945  28.458  1.00  0.00     0.049 A 
ATOM     47  H   UNL A   1      42.321  27.721  29.346  1.00  0.00     0.167 HD
ATOM     48  C   UNL A   1      43.570  31.585  30.960  1.00  0.00     0.037 A 
ATOM     49  C   UNL A   1      42.760  25.134  28.371  1.00  0.00     0.037 A 
ATOM     50  C   UNL A   1      44.750  30.759  30.997  1.00  0.00     0.049 A 
ATOM     51  C   UNL A   1      44.087  25.613  28.891  1.00  0.00     0.074 A 
ATOM     52  C   UNL A   1      46.005  31.073  31.487  1.00  0.00     0.029 A 
ATOM     53  N   UNL A   1      44.822  29.457  30.523  1.00  0.00    -0.354 N 
ATOM     54  N   UNL A   1      44.394  26.773  29.420  1.00  0.00    -0.248 NA
ATOM     55  C   UNL A   1      45.212  24.671  28.812  1.00  0.00     0.031 C 
ATOM     56  C   UNL A   1      46.846  29.974  31.279  1.00  0.00     0.029 A 
ATOM     57  C   UNL A   1      46.104  28.959  30.696  1.00  0.00     0.049 A 
ATOM     58  H   UNL A   1      44.073  28.960  30.122  1.00  0.00     0.167 HD
ATOM     59  C   UNL A   1      45.740  26.694  29.756  1.00  0.00     0.074 A 
ATOM     60  C   UNL A   1      46.187  25.367  29.383  1.00  0.00     0.031 C 
ATOM     61  C   UNL A   1      46.533  27.634  30.326  1.00  0.00     0.037 A 
BRANCH  48  62
ATOM     62  C   UNL A   1      43.669  32.998  31.463  1.00  0.00     0.058 A 
ATOM     63  C   UNL A   1      43.433  33.313  32.812  1.00  0.00     0.135 A 
ATOM     64  C   UNL A   1      44.027  34.045  30.599  1.00  0.00     0.135 A 
ATOM     65  F   UNL A   1      43.075  32.351  33.677  1.00  0.00    -0.206 F 
ATOM     66  C   UNL A   1      43.511  34.621  33.277  1.00  0.00     0.059 A 
ATOM     67  C   UNL A   1      44.138  35.357  31.050  1.00  0.00     0.059 A 
ATOM     68  F   UNL A   1      44.267  33.799  29.302  1.00  0.00    -0.206 F 
ATOM     69  C   UNL A   1      43.860  35.637  32.387  1.00  0.00     0.060 A 
BRANCH  69  70
ATOM     70  S   UNL A   1      43.951  37.331  33.005  1.00  0.00     0.124 S 
ATOM     71  O   UNL A   1      43.723  38.098  31.785  1.00  0.00    -0.237 OA
ATOM     72  O   UNL A   1      42.872  37.366  33.987  1.00  0.00    -0.237 OA
ATOM     73  O   UNL A   1      45.299  37.418  33.558  1.00  0.00    -0.744 OA
ENDBRANCH  69  70
ENDBRANCH  48  62
BRANCH  49  74
ATOM     74  C   UNL A   1      42.615  23.776  27.787  1.00  0.00     0.058 A 
ATOM     75  C   UNL A   1      42.694  23.577  26.400  1.00  0.00     0.135 A 
ATOM     76  C   UNL A   1      42.414  22.650  28.599  1.00  0.00     0.135 A 
ATOM     77  F   UNL A   1      42.879  24.623  25.583  1.00  0.00    -0.206 F 
ATOM     78  C   UNL A   1      42.566  22.311  25.837  1.00  0.00     0.059 A 
ATOM     79  C   UNL A   1      42.306  21.371  28.061  1.00  0.00     0.059 A 
ATOM     80  F   UNL A   1      42.348  22.785  29.933  1.00  0.00    -0.206 F 
ATOM     81  C   UNL A   1      42.374  21.212  26.678  1.00  0.00     0.060 A 
BRANCH  81  82
ATOM     82  S   UNL A   1      42.263  19.567  25.942  1.00  0.00     0.124 S 
ATOM     83  O   UNL A   1      40.843  19.484  25.623  1.00  0.00    -0.237 OA
ATOM     84  O   UNL A   1      43.169  19.675  24.803  1.00  0.00    -0.237 OA
ATOM     85  O   UNL A   1      42.722  18.689  27.015  1.00  0.00    -0.744 OA
ENDBRANCH  81  82
ENDBRANCH  49  74
BRANCH  61  86
ATOM     86  C   UNL A   1      47.961  27.256  30.607  1.00  0.00     0.058 A 
ATOM     87  C   UNL A   1      48.338  26.650  31.815  1.00  0.00     0.135 A 
ATOM     88  C   UNL A   1      48.953  27.455  29.635  1.00  0.00     0.135 A 
ATOM     89  F   UNL A   1      47.429  26.445  32.781  1.00  0.00    -0.206 F 
ATOM     90  C   UNL A   1      49.655  26.271  32.058  1.00  0.00     0.059 A 
ATOM     91  C   UNL A   1      50.272  27.063  29.846  1.00  0.00     0.059 A 
ATOM     92  F   UNL A   1      48.644  28.023  28.458  1.00  0.00    -0.206 F 
ATOM     93  C   UNL A   1      50.615  26.481  31.065  1.00  0.00     0.060 A 
BRANCH  93  94
ATOM     94  S   UNL A   1      52.313  25.951  31.375  1.00  0.00     0.124 S 
ATOM     95  O   UNL A   1      52.893  26.024  30.038  1.00  0.00    -0.237 OA
ATOM     96  O   UNL A   1      52.786  26.951  32.327  1.00  0.00    -0.237 OA
ATOM     97  O   UNL A   1      52.154  24.605  31.918  1.00  0.00    -0.744 OA
ENDBRANCH  93  94
ENDBRANCH  61  86
ENDBRANCH  35  36
ENDBRANCH  27  30
ENDBRANCH  25  26
ENDBRANCH  24  25
ENDBRANCH   1  24
TORSDOF 19
ENDMDL
MODEL 3
REMARK VINA RESULT:     -10.3      4.900      9.734
REMARK SMILES CC(=O)N[C@H](CC(=O)NCC(=O)NCCCCNC(=O)c1ccc(-c2c3nc(c(-c4c(F)cc(S(=O)(=O)[O-])cc4F)c4ccc([nH]4)c(-c4c(F)cc(S(=O)(=O)[O-])cc4F)c4nc(c(-c5c(F)cc(S(=O)(=O)[O-])cc5F)c5ccc2[nH]5)C=C4)C=C3)cc1)c1cccs1
REMARK SMILES IDX 15 1 14 2 13 3 11 4 12 5 10 7 9 8 7 9 8 10 6 12 5 13 4 14
REMARK SMILES IDX 1 15 2 16 3 17 87 19 88 20 91 21 89 22 90 23 16 24 17 25
REMARK SMILES IDX 18 26 19 27 20 29 21 30 22 31 86 32 23 33 85 34 24 35 25 36
REMARK SMILES IDX 26 37 79 38 27 39 84 40 78 41 80 42 28 43 83 44 77 45 76 46
REMARK SMILES IDX 29 48 63 49 42 50 62 51 43 52 46 53 61 54 81 55 44 56 45 57
REMARK SMILES IDX 60 59 82 60 47 61 30 62 31 63 40 64 32 65 33 66 39 67 41 68
REMARK SMILES IDX 34 69 35 70 36 71 37 72 38 73 64 74 65 75 74 76 66 77 67 78
REMARK SMILES IDX 73 79 75 80 68 81 69 82 70 83 71 84 72 85 48 86 49 87 58 88
REMARK SMILES IDX 50 89 51 90 57 91 59 92 52 93 53 94 54 95 55 96 56 97
REMARK H PARENT 13 6 9 11 4 18 18 28 80 47 46 58
REMARK Flexibility Score: inf
ROOT
ATOM      1  C   UNL A   1      37.025  22.333  24.943  1.00  0.00     0.023 C 
ENDROOT
BRANCH   1   2
ATOM      2  C   UNL A   1      35.583  22.303  24.454  1.00  0.00     0.116 C 
BRANCH   2   3
ATOM      3  N   UNL A   1      34.868  21.053  24.612  1.00  0.00    -0.355 N 
ATOM      4  C   UNL A   1      33.856  20.735  25.480  1.00  0.00     0.239 C 
ATOM      5  O   UNL A   1      33.161  19.752  25.197  1.00  0.00    -0.273 OA
ATOM      6  H   UNL A   1      35.150  20.327  24.011  1.00  0.00     0.163 HD
BRANCH   4   7
ATOM      7  C   UNL A   1      33.488  21.584  26.727  1.00  0.00     0.216 C 
BRANCH   7   8
ATOM      8  N   UNL A   1      32.178  22.200  26.750  1.00  0.00    -0.347 N 
ATOM      9  C   UNL A   1      31.795  23.496  26.870  1.00  0.00     0.222 C 
ATOM     10  O   UNL A   1      30.626  23.699  27.212  1.00  0.00    -0.275 OA
ATOM     11  H   UNL A   1      31.431  21.565  26.663  1.00  0.00     0.164 HD
BRANCH   9  12
ATOM     12  C   UNL A   1      32.696  24.670  26.544  1.00  0.00     0.130 C 
BRANCH  12  13
ATOM     13  C   UNL A   1      32.200  25.824  25.642  1.00  0.00     0.131 C 
BRANCH  13  14
ATOM     14  N   UNL A   1      30.783  25.811  25.366  1.00  0.00    -0.348 N 
ATOM     15  C   UNL A   1      30.803  26.587  22.997  1.00  0.00     0.114 C 
ATOM     16  C   UNL A   1      30.095  26.219  24.267  1.00  0.00     0.217 C 
ATOM     17  O   UNL A   1      28.870  26.260  24.344  1.00  0.00    -0.275 OA
ATOM     18  H   UNL A   1      30.224  25.447  26.090  1.00  0.00     0.164 HD
ENDBRANCH  13  14
BRANCH  13  19
ATOM     19  C   UNL A   1      32.702  27.158  26.173  1.00  0.00     0.027 A 
ATOM     20  C   UNL A   1      33.963  27.686  25.944  1.00  0.00     0.017 A 
ATOM     21  S   UNL A   1      31.769  28.227  27.147  1.00  0.00    -0.147 S 
ATOM     22  C   UNL A   1      34.172  28.929  26.601  1.00  0.00     0.012 A 
ATOM     23  C   UNL A   1      33.056  29.337  27.292  1.00  0.00     0.065 A 
ENDBRANCH  13  19
ENDBRANCH  12  13
ENDBRANCH   9  12
ENDBRANCH   7   8
ENDBRANCH   4   7
ENDBRANCH   2   3
ENDBRANCH   1   2
BRANCH   1  24
ATOM     24  C   UNL A   1      37.572  23.680  25.403  1.00  0.00     0.023 C 
BRANCH  24  25
ATOM     25  C   UNL A   1      38.560  23.696  26.572  1.00  0.00     0.116 C 
BRANCH  25  26
ATOM     26  N   UNL A   1      39.972  23.689  26.215  1.00  0.00    -0.352 N 
ATOM     27  C   UNL A   1      40.982  24.512  26.669  1.00  0.00     0.251 C 
ATOM     28  H   UNL A   1      40.243  23.005  25.561  1.00  0.00     0.163 HD
ATOM     29  O   UNL A   1      42.155  24.299  26.368  1.00  0.00    -0.269 OA
BRANCH  27  30
ATOM     30  C   UNL A   1      40.638  25.700  27.475  1.00  0.00     0.039 A 
ATOM     31  C   UNL A   1      39.612  25.590  28.416  1.00  0.00     0.014 A 
ATOM     32  C   UNL A   1      41.378  26.880  27.366  1.00  0.00     0.014 A 
ATOM     33  C   UNL A   1      39.417  26.615  29.342  1.00  0.00     0.010 A 
ATOM     34  C   UNL A   1      41.224  27.874  28.331  1.00  0.00     0.010 A 
ATOM     35  C   UNL A   1      40.269  27.732  29.351  1.00  0.00    -0.014 A 
BRANCH  35  36
ATOM     36  C   UNL A   1      40.234  28.711  30.468  1.00  0.00     0.031 A 
ATOM     37  C   UNL A   1      41.113  28.534  31.672  1.00  0.00     0.074 A 
ATOM     38  C   UNL A   1      39.336  29.718  30.431  1.00  0.00     0.049 A 
ATOM     39  N   UNL A   1      41.163  29.246  32.767  1.00  0.00    -0.248 NA
ATOM     40  C   UNL A   1      42.040  27.392  31.652  1.00  0.00     0.031 C 
ATOM     41  C   UNL A   1      38.381  29.961  29.346  1.00  0.00     0.029 A 
ATOM     42  N   UNL A   1      39.069  30.717  31.333  1.00  0.00    -0.354 N 
ATOM     43  C   UNL A   1      42.118  28.638  33.572  1.00  0.00     0.074 A 
ATOM     44  C   UNL A   1      42.588  27.470  32.856  1.00  0.00     0.031 C 
ATOM     45  C   UNL A   1      37.645  31.044  29.640  1.00  0.00     0.029 A 
ATOM     46  C   UNL A   1      38.051  31.555  30.945  1.00  0.00     0.049 A 
ATOM     47  H   UNL A   1      39.560  30.822  32.180  1.00  0.00     0.167 HD
ATOM     48  C   UNL A   1      42.577  29.029  34.785  1.00  0.00     0.037 A 
ATOM     49  C   UNL A   1      37.498  32.614  31.571  1.00  0.00     0.037 A 
ATOM     50  C   UNL A   1      42.116  30.200  35.487  1.00  0.00     0.049 A 
ATOM     51  C   UNL A   1      38.031  33.034  32.912  1.00  0.00     0.074 A 
ATOM     52  C   UNL A   1      42.556  30.706  36.698  1.00  0.00     0.029 A 
ATOM     53  N   UNL A   1      41.109  31.046  35.045  1.00  0.00    -0.354 N 
ATOM     54  N   UNL A   1      38.983  32.486  33.629  1.00  0.00    -0.248 NA
ATOM     55  C   UNL A   1      37.421  34.221  33.528  1.00  0.00     0.031 C 
ATOM     56  C   UNL A   1      41.793  31.838  37.004  1.00  0.00     0.029 A 
ATOM     57  C   UNL A   1      40.904  32.062  35.965  1.00  0.00     0.049 A 
ATOM     58  H   UNL A   1      40.612  30.939  34.202  1.00  0.00     0.167 HD
ATOM     59  C   UNL A   1      39.102  33.273  34.768  1.00  0.00     0.074 A 
ATOM     60  C   UNL A   1      38.133  34.343  34.641  1.00  0.00     0.031 C 
ATOM     61  C   UNL A   1      39.941  33.124  35.823  1.00  0.00     0.037 A 
BRANCH  48  62
ATOM     62  C   UNL A   1      43.640  28.183  35.426  1.00  0.00     0.058 A 
ATOM     63  C   UNL A   1      43.313  27.141  36.309  1.00  0.00     0.135 A 
ATOM     64  C   UNL A   1      44.998  28.395  35.138  1.00  0.00     0.135 A 
ATOM     65  F   UNL A   1      42.031  26.903  36.628  1.00  0.00    -0.206 F 
ATOM     66  C   UNL A   1      44.296  26.364  36.913  1.00  0.00     0.059 A 
ATOM     67  C   UNL A   1      45.996  27.613  35.710  1.00  0.00     0.059 A 
ATOM     68  F   UNL A   1      45.366  29.375  34.298  1.00  0.00    -0.206 F 
ATOM     69  C   UNL A   1      45.636  26.611  36.611  1.00  0.00     0.060 A 
BRANCH  69  70
ATOM     70  S   UNL A   1      46.900  25.598  37.408  1.00  0.00     0.124 S 
ATOM     71  O   UNL A   1      46.086  24.569  38.047  1.00  0.00    -0.237 OA
ATOM     72  O   UNL A   1      47.709  25.155  36.277  1.00  0.00    -0.237 OA
ATOM     73  O   UNL A   1      47.558  26.531  38.317  1.00  0.00    -0.744 OA
ENDBRANCH  69  70
ENDBRANCH  48  62
BRANCH  49  74
ATOM     74  C   UNL A   1      36.391  33.362  30.921  1.00  0.00     0.058 A 
ATOM     75  C   UNL A   1      35.082  33.286  31.419  1.00  0.00     0.135 A 
ATOM     76  C   UNL A   1      36.620  34.181  29.805  1.00  0.00     0.135 A 
ATOM     77  F   UNL A   1      34.813  32.512  32.480  1.00  0.00    -0.206 F 
ATOM     78  C   UNL A   1      34.035  33.985  30.826  1.00  0.00     0.059 A 
ATOM     79  C   UNL A   1      35.594  34.907  29.208  1.00  0.00     0.059 A 
ATOM     80  F   UNL A   1      37.858  34.300  29.301  1.00  0.00    -0.206 F 
ATOM     81  C   UNL A   1      34.302  34.796  29.721  1.00  0.00     0.060 A 
BRANCH  81  82
ATOM     82  S   UNL A   1      32.946  35.740  28.991  1.00  0.00     0.124 S 
ATOM     83  O   UNL A   1      33.665  36.824  28.332  1.00  0.00    -0.237 OA
ATOM     84  O   UNL A   1      32.324  34.757  28.110  1.00  0.00    -0.237 OA
ATOM     85  O   UNL A   1      32.146  36.125  30.150  1.00  0.00    -0.744 OA
ENDBRANCH  81  82
ENDBRANCH  49  74
BRANCH  61  86
ATOM     86  C   UNL A   1      39.870  34.156  36.913  1.00  0.00     0.058 A 
ATOM     87  C   UNL A   1      40.488  35.409  36.784  1.00  0.00     0.135 A 
ATOM     88  C   UNL A   1      39.130  33.907  38.080  1.00  0.00     0.135 A 
ATOM     89  F   UNL A   1      41.213  35.695  35.691  1.00  0.00    -0.206 F 
ATOM     90  C   UNL A   1      40.391  36.374  37.782  1.00  0.00     0.059 A 
ATOM     91  C   UNL A   1      39.000  34.865  39.082  1.00  0.00     0.059 A 
ATOM     92  F   UNL A   1      38.512  32.727  38.251  1.00  0.00    -0.206 F 
ATOM     93  C   UNL A   1      39.643  36.092  38.928  1.00  0.00     0.060 A 
BRANCH  93  94
ATOM     94  S   UNL A   1      39.492  37.365  40.200  1.00  0.00     0.124 S 
ATOM     95  O   UNL A   1      38.867  38.453  39.454  1.00  0.00    -0.237 OA
ATOM     96  O   UNL A   1      38.649  36.714  41.198  1.00  0.00    -0.237 OA
ATOM     97  O   UNL A   1      40.873  37.598  40.611  1.00  0.00    -0.744 OA
ENDBRANCH  93  94
ENDBRANCH  61  86
ENDBRANCH  35  36
ENDBRANCH  27  30
ENDBRANCH  25  26
ENDBRANCH  24  25
ENDBRANCH   1  24
TORSDOF 19
ENDMDL
