MODEL 1
REMARK VINA RESULT:     -11.8      0.000      0.000
REMARK SMILES CC(C)[C@H](NC(=O)[C@@H]1CC2=c3ccccc3=N[C@H]2[C@@H]2c3ccccc3C(=O)N12)C(=O)N[C@H](C)C(=O)NCCCCNC(=O)c1ccc(-c2c3nc(c(-c4c(F)cc(S(=O)(=O)[O-])cc4F)c4ccc([nH]4)c(-c4c(F)cc(S(=O)(=O)[O-])cc4F)c4nc(c(-c5c(F)cc(S(=O)(=O)[O-])cc5F)c5ccc2[nH]5)C=C4)C=C3)cc1
REMARK SMILES IDX 38 1 37 2 36 3 34 4 35 5 32 7 33 8 31 9 29 10 30 11 4 13
REMARK SMILES IDX 2 14 1 15 3 16 5 17 6 18 7 20 8 21 9 22 28 23 10 24 19 25
REMARK SMILES IDX 26 26 11 27 18 28 20 29 25 30 27 31 12 32 16 33 17 34 21 35
REMARK SMILES IDX 24 36 13 37 15 38 22 39 23 40 14 41 39 42 40 43 41 44 42 45
REMARK SMILES IDX 43 47 44 48 45 49 109 50 46 51 108 52 47 53 48 54 49 55
REMARK SMILES IDX 102 56 50 57 107 58 101 59 103 60 51 61 106 62 100 63 99 64
REMARK SMILES IDX 52 66 86 67 65 68 85 69 66 70 69 71 84 72 104 73 67 74 68 75
REMARK SMILES IDX 83 77 105 78 70 79 53 80 54 81 63 82 55 83 56 84 62 85 64 86
REMARK SMILES IDX 57 87 58 88 59 89 60 90 61 91 87 92 88 93 97 94 89 95 90 96
REMARK SMILES IDX 96 97 98 98 91 99 92 100 93 101 94 102 95 103 71 104 72 105
REMARK SMILES IDX 81 106 73 107 74 108 80 109 82 110 75 111 76 112 77 113
REMARK SMILES IDX 78 114 79 115
REMARK H PARENT 36 6 31 12 5 19 41 46 103 65 69 76
REMARK Flexibility Score: inf
ROOT
ATOM      1  C   UNL A   1      43.085  38.998  27.676  1.00  0.00     0.023 C 
ENDROOT
BRANCH   1   2
ATOM      2  C   UNL A   1      43.661  40.405  27.523  1.00  0.00     0.116 C 
BRANCH   2   3
ATOM      3  N   UNL A   1      44.709  40.757  28.447  1.00  0.00    -0.354 N 
ATOM      4  C   UNL A   1      45.005  41.955  29.024  1.00  0.00     0.242 C 
ATOM      5  O   UNL A   1      45.685  41.901  30.058  1.00  0.00    -0.273 OA
ATOM      6  H   UNL A   1      45.304  40.015  28.701  1.00  0.00     0.163 HD
BRANCH   4   7
ATOM      7  C   UNL A   1      44.783  43.348  28.360  1.00  0.00     0.168 C 
ATOM      8  C   UNL A   1      44.598  44.337  29.527  1.00  0.00     0.041 C 
BRANCH   7   9
ATOM      9  N   UNL A   1      45.631  44.030  27.372  1.00  0.00    -0.343 N 
ATOM     10  C   UNL A   1      45.390  44.272  26.052  1.00  0.00     0.243 C 
ATOM     11  O   UNL A   1      45.271  45.454  25.718  1.00  0.00    -0.273 OA
ATOM     12  H   UNL A   1      46.496  44.357  27.712  1.00  0.00     0.164 HD
BRANCH  10  13
ATOM     13  C   UNL A   1      45.251  43.129  25.053  1.00  0.00     0.174 C 
BRANCH  13  14
ATOM     14  C   UNL A   1      46.444  43.146  24.047  1.00  0.00     0.015 C 
ATOM     15  C   UNL A   1      47.727  43.668  24.719  1.00  0.00     0.010 C 
ATOM     16  C   UNL A   1      46.760  41.774  23.437  1.00  0.00     0.010 C 
ENDBRANCH  13  14
BRANCH  13  17
ATOM     17  N   UNL A   1      43.924  43.164  24.412  1.00  0.00    -0.342 N 
ATOM     18  C   UNL A   1      43.479  43.813  23.296  1.00  0.00     0.243 C 
ATOM     19  H   UNL A   1      43.239  42.626  24.870  1.00  0.00     0.164 HD
ATOM     20  O   UNL A   1      42.374  44.359  23.456  1.00  0.00    -0.273 OA
BRANCH  18  21
ATOM     21  C   UNL A   1      44.133  43.863  21.862  1.00  0.00     0.179 C 
ATOM     22  C   UNL A   1      44.809  45.149  21.287  1.00  0.00     0.069 C 
ATOM     23  N   UNL A   1      43.490  43.139  20.759  1.00  0.00    -0.317 N 
ATOM     24  C   UNL A   1      45.939  44.687  20.415  1.00  0.00    -0.031 C 
ATOM     25  C   UNL A   1      44.234  43.003  19.473  1.00  0.00     0.146 C 
ATOM     26  C   UNL A   1      42.154  43.437  20.520  1.00  0.00     0.255 C 
ATOM     27  C   UNL A   1      47.248  44.798  20.618  1.00  0.00     0.001 A 
ATOM     28  C   UNL A   1      45.670  43.597  19.429  1.00  0.00     0.160 C 
ATOM     29  C   UNL A   1      43.300  43.750  18.532  1.00  0.00    -0.010 A 
ATOM     30  C   UNL A   1      42.069  43.945  19.154  1.00  0.00     0.045 A 
ATOM     31  O   UNL A   1      41.234  43.460  21.315  1.00  0.00    -0.269 OA
ATOM     32  C   UNL A   1      48.097  45.674  21.354  1.00  0.00     0.010 A 
ATOM     33  C   UNL A   1      47.684  43.432  20.222  1.00  0.00     0.066 A 
ATOM     34  N   UNL A   1      46.802  42.655  19.649  1.00  0.00    -0.274 NA
ATOM     35  C   UNL A   1      43.538  44.349  17.302  1.00  0.00     0.007 A 
ATOM     36  C   UNL A   1      41.080  44.765  18.639  1.00  0.00     0.014 A 
ATOM     37  C   UNL A   1      49.339  45.272  21.662  1.00  0.00     0.001 A 
ATOM     38  C   UNL A   1      49.047  43.048  20.654  1.00  0.00     0.028 A 
ATOM     39  C   UNL A   1      42.560  45.196  16.765  1.00  0.00     0.000 A 
ATOM     40  C   UNL A   1      41.341  45.408  17.431  1.00  0.00     0.001 A 
ATOM     41  C   UNL A   1      49.798  43.935  21.331  1.00  0.00     0.002 A 
ENDBRANCH  18  21
ENDBRANCH  13  17
ENDBRANCH  10  13
ENDBRANCH   7   9
ENDBRANCH   4   7
ENDBRANCH   2   3
ENDBRANCH   1   2
BRANCH   1  42
ATOM     42  C   UNL A   1      43.653  38.193  28.852  1.00  0.00     0.023 C 
BRANCH  42  43
ATOM     43  C   UNL A   1      44.787  37.228  28.490  1.00  0.00     0.116 C 
BRANCH  43  44
ATOM     44  N   UNL A   1      46.130  37.720  28.777  1.00  0.00    -0.352 N 
ATOM     45  C   UNL A   1      47.347  37.068  28.774  1.00  0.00     0.251 C 
ATOM     46  H   UNL A   1      46.177  38.675  29.012  1.00  0.00     0.163 HD
ATOM     47  O   UNL A   1      48.376  37.670  29.074  1.00  0.00    -0.269 OA
BRANCH  45  48
ATOM     48  C   UNL A   1      47.410  35.617  28.500  1.00  0.00     0.039 A 
ATOM     49  C   UNL A   1      47.336  35.128  27.199  1.00  0.00     0.014 A 
ATOM     50  C   UNL A   1      47.453  34.729  29.579  1.00  0.00     0.014 A 
ATOM     51  C   UNL A   1      47.014  33.792  26.995  1.00  0.00     0.010 A 
ATOM     52  C   UNL A   1      47.246  33.365  29.362  1.00  0.00     0.010 A 
ATOM     53  C   UNL A   1      46.924  32.901  28.078  1.00  0.00    -0.014 A 
BRANCH  53  54
ATOM     54  C   UNL A   1      46.400  31.526  27.853  1.00  0.00     0.031 A 
ATOM     55  C   UNL A   1      47.338  30.408  27.459  1.00  0.00     0.074 A 
ATOM     56  C   UNL A   1      45.104  31.257  28.105  1.00  0.00     0.049 A 
ATOM     57  N   UNL A   1      47.071  29.146  27.233  1.00  0.00    -0.248 NA
ATOM     58  C   UNL A   1      48.762  30.749  27.293  1.00  0.00     0.031 C 
ATOM     59  C   UNL A   1      44.105  32.244  28.519  1.00  0.00     0.029 A 
ATOM     60  N   UNL A   1      44.415  30.072  28.094  1.00  0.00    -0.354 N 
ATOM     61  C   UNL A   1      48.276  28.556  26.867  1.00  0.00     0.074 A 
ATOM     62  C   UNL A   1      49.277  29.600  26.880  1.00  0.00     0.031 C 
ATOM     63  C   UNL A   1      42.955  31.613  28.800  1.00  0.00     0.029 A 
ATOM     64  C   UNL A   1      43.113  30.191  28.518  1.00  0.00     0.049 A 
ATOM     65  H   UNL A   1      44.814  29.218  27.810  1.00  0.00     0.167 HD
ATOM     66  C   UNL A   1      48.530  27.262  26.558  1.00  0.00     0.037 A 
ATOM     67  C   UNL A   1      42.149  29.261  28.657  1.00  0.00     0.037 A 
ATOM     68  C   UNL A   1      47.543  26.215  26.591  1.00  0.00     0.049 A 
ATOM     69  C   UNL A   1      42.451  27.835  28.297  1.00  0.00     0.074 A 
ATOM     70  C   UNL A   1      47.699  24.871  26.298  1.00  0.00     0.029 A 
ATOM     71  N   UNL A   1      46.216  26.392  26.957  1.00  0.00    -0.354 N 
ATOM     72  N   UNL A   1      43.584  27.311  27.899  1.00  0.00    -0.248 NA
ATOM     73  C   UNL A   1      41.337  26.883  28.379  1.00  0.00     0.031 C 
ATOM     74  C   UNL A   1      46.461  24.239  26.463  1.00  0.00     0.029 A 
ATOM     75  C   UNL A   1      45.541  25.185  26.888  1.00  0.00     0.049 A 
ATOM     76  H   UNL A   1      45.814  27.249  27.226  1.00  0.00     0.167 HD
ATOM     77  C   UNL A   1      43.319  25.968  27.668  1.00  0.00     0.074 A 
ATOM     78  C   UNL A   1      41.925  25.754  28.005  1.00  0.00     0.031 C 
ATOM     79  C   UNL A   1      44.148  25.000  27.206  1.00  0.00     0.037 A 
BRANCH  66  80
ATOM     80  C   UNL A   1      49.931  26.903  26.145  1.00  0.00     0.058 A 
ATOM     81  C   UNL A   1      50.339  26.944  24.802  1.00  0.00     0.135 A 
ATOM     82  C   UNL A   1      50.888  26.546  27.109  1.00  0.00     0.135 A 
ATOM     83  F   UNL A   1      49.461  27.260  23.838  1.00  0.00    -0.206 F 
ATOM     84  C   UNL A   1      51.642  26.625  24.429  1.00  0.00     0.059 A 
ATOM     85  C   UNL A   1      52.201  26.241  26.760  1.00  0.00     0.059 A 
ATOM     86  F   UNL A   1      50.550  26.487  28.407  1.00  0.00    -0.206 F 
ATOM     87  C   UNL A   1      52.565  26.272  25.415  1.00  0.00     0.060 A 
BRANCH  87  88
ATOM     88  S   UNL A   1      54.248  25.855  24.912  1.00  0.00     0.124 S 
ATOM     89  O   UNL A   1      54.302  26.433  23.572  1.00  0.00    -0.237 OA
ATOM     90  O   UNL A   1      55.055  26.530  25.925  1.00  0.00    -0.237 OA
ATOM     91  O   UNL A   1      54.270  24.397  24.966  1.00  0.00    -0.744 OA
ENDBRANCH  87  88
ENDBRANCH  66  80
BRANCH  67  92
ATOM     92  C   UNL A   1      40.808  29.665  29.151  1.00  0.00     0.058 A 
ATOM     93  C   UNL A   1      39.721  29.774  28.273  1.00  0.00     0.135 A 
ATOM     94  C   UNL A   1      40.578  29.898  30.515  1.00  0.00     0.135 A 
ATOM     95  F   UNL A   1      39.895  29.569  26.958  1.00  0.00    -0.206 F 
ATOM     96  C   UNL A   1      38.447  30.094  28.731  1.00  0.00     0.059 A 
ATOM     97  C   UNL A   1      39.310  30.197  31.000  1.00  0.00     0.059 A 
ATOM     98  F   UNL A   1      41.586  29.794  31.395  1.00  0.00    -0.206 F 
ATOM     99  C   UNL A   1      38.250  30.296  30.099  1.00  0.00     0.060 A 
BRANCH  99 100
ATOM    100  S   UNL A   1      36.579  30.627  30.699  1.00  0.00     0.124 S 
ATOM    101  O   UNL A   1      36.467  29.672  31.795  1.00  0.00    -0.237 OA
ATOM    102  O   UNL A   1      36.660  32.033  31.082  1.00  0.00    -0.237 OA
ATOM    103  O   UNL A   1      35.746  30.353  29.532  1.00  0.00    -0.744 OA
ENDBRANCH  99 100
ENDBRANCH  67  92
BRANCH  79 104
ATOM    104  C   UNL A   1      43.560  23.634  27.017  1.00  0.00     0.058 A 
ATOM    105  C   UNL A   1      43.389  22.764  28.105  1.00  0.00     0.135 A 
ATOM    106  C   UNL A   1      43.135  23.202  25.752  1.00  0.00     0.135 A 
ATOM    107  F   UNL A   1      43.786  23.132  29.333  1.00  0.00    -0.206 F 
ATOM    108  C   UNL A   1      42.834  21.500  27.940  1.00  0.00     0.059 A 
ATOM    109  C   UNL A   1      42.561  21.949  25.568  1.00  0.00     0.059 A 
ATOM    110  F   UNL A   1      43.269  24.004  24.684  1.00  0.00    -0.206 F 
ATOM    111  C   UNL A   1      42.426  21.100  26.666  1.00  0.00     0.060 A 
BRANCH 111 112
ATOM    112  S   UNL A   1      41.690  19.464  26.468  1.00  0.00     0.124 S 
ATOM    113  O   UNL A   1      41.921  18.878  27.784  1.00  0.00    -0.237 OA
ATOM    114  O   UNL A   1      40.302  19.779  26.149  1.00  0.00    -0.237 OA
ATOM    115  O   UNL A   1      42.460  18.877  25.375  1.00  0.00    -0.744 OA
ENDBRANCH 111 112
ENDBRANCH  79 104
ENDBRANCH  53  54
ENDBRANCH  45  48
ENDBRANCH  43  44
ENDBRANCH  42  43
ENDBRANCH   1  42
TORSDOF 19
ENDMDL
MODEL 2
REMARK VINA RESULT:     -11.3      9.284     15.262
REMARK SMILES CC(C)[C@H](NC(=O)[C@@H]1CC2=c3ccccc3=N[C@H]2[C@@H]2c3ccccc3C(=O)N12)C(=O)N[C@H](C)C(=O)NCCCCNC(=O)c1ccc(-c2c3nc(c(-c4c(F)cc(S(=O)(=O)[O-])cc4F)c4ccc([nH]4)c(-c4c(F)cc(S(=O)(=O)[O-])cc4F)c4nc(c(-c5c(F)cc(S(=O)(=O)[O-])cc5F)c5ccc2[nH]5)C=C4)C=C3)cc1
REMARK SMILES IDX 38 1 37 2 36 3 34 4 35 5 32 7 33 8 31 9 29 10 30 11 4 13
REMARK SMILES IDX 2 14 1 15 3 16 5 17 6 18 7 20 8 21 9 22 28 23 10 24 19 25
REMARK SMILES IDX 26 26 11 27 18 28 20 29 25 30 27 31 12 32 16 33 17 34 21 35
REMARK SMILES IDX 24 36 13 37 15 38 22 39 23 40 14 41 39 42 40 43 41 44 42 45
REMARK SMILES IDX 43 47 44 48 45 49 109 50 46 51 108 52 47 53 48 54 49 55
REMARK SMILES IDX 102 56 50 57 107 58 101 59 103 60 51 61 106 62 100 63 99 64
REMARK SMILES IDX 52 66 86 67 65 68 85 69 66 70 69 71 84 72 104 73 67 74 68 75
REMARK SMILES IDX 83 77 105 78 70 79 53 80 54 81 63 82 55 83 56 84 62 85 64 86
REMARK SMILES IDX 57 87 58 88 59 89 60 90 61 91 87 92 88 93 97 94 89 95 90 96
REMARK SMILES IDX 96 97 98 98 91 99 92 100 93 101 94 102 95 103 71 104 72 105
REMARK SMILES IDX 81 106 73 107 74 108 80 109 82 110 75 111 76 112 77 113
REMARK SMILES IDX 78 114 79 115
REMARK H PARENT 36 6 31 12 5 19 41 46 103 65 69 76
REMARK Flexibility Score: inf
ROOT
ATOM      1  C   UNL A   1      45.111  25.549  25.654  1.00  0.00     0.023 C 
ENDROOT
BRANCH   1   2
ATOM      2  C   UNL A   1      44.670  26.936  26.121  1.00  0.00     0.116 C 
BRANCH   2   3
ATOM      3  N   UNL A   1      45.261  28.049  25.424  1.00  0.00    -0.354 N 
ATOM      4  C   UNL A   1      45.745  29.229  25.904  1.00  0.00     0.242 C 
ATOM      5  O   UNL A   1      46.542  29.824  25.165  1.00  0.00    -0.273 OA
ATOM      6  H   UNL A   1      45.326  27.940  24.448  1.00  0.00     0.163 HD
BRANCH   4   7
ATOM      7  C   UNL A   1      45.189  29.985  27.150  1.00  0.00     0.168 C 
ATOM      8  C   UNL A   1      43.658  29.996  26.976  1.00  0.00     0.041 C 
BRANCH   7   9
ATOM      9  N   UNL A   1      45.441  29.704  28.570  1.00  0.00    -0.343 N 
ATOM     10  C   UNL A   1      46.454  30.148  29.368  1.00  0.00     0.243 C 
ATOM     11  O   UNL A   1      46.139  30.894  30.299  1.00  0.00    -0.273 OA
ATOM     12  H   UNL A   1      44.786  29.112  29.007  1.00  0.00     0.164 HD
BRANCH  10  13
ATOM     13  C   UNL A   1      47.902  29.755  29.097  1.00  0.00     0.174 C 
BRANCH  13  14
ATOM     14  C   UNL A   1      48.566  30.781  28.127  1.00  0.00     0.015 C 
ATOM     15  C   UNL A   1      49.450  31.778  28.897  1.00  0.00     0.010 C 
ATOM     16  C   UNL A   1      49.430  30.133  27.038  1.00  0.00     0.010 C 
ENDBRANCH  13  14
BRANCH  13  17
ATOM     17  N   UNL A   1      47.977  28.357  28.637  1.00  0.00    -0.342 N 
ATOM     18  C   UNL A   1      48.542  27.251  29.203  1.00  0.00     0.243 C 
ATOM     19  H   UNL A   1      47.545  28.192  27.768  1.00  0.00     0.164 HD
ATOM     20  O   UNL A   1      49.188  26.563  28.395  1.00  0.00    -0.273 OA
BRANCH  18  21
ATOM     21  C   UNL A   1      48.393  26.718  30.680  1.00  0.00     0.179 C 
ATOM     22  C   UNL A   1      49.010  25.363  31.155  1.00  0.00     0.069 C 
ATOM     23  N   UNL A   1      47.127  26.931  31.391  1.00  0.00    -0.317 N 
ATOM     24  C   UNL A   1      49.398  25.548  32.592  1.00  0.00    -0.031 C 
ATOM     25  C   UNL A   1      47.077  26.632  32.852  1.00  0.00     0.146 C 
ATOM     26  C   UNL A   1      45.978  26.470  30.760  1.00  0.00     0.255 C 
ATOM     27  C   UNL A   1      50.614  25.616  33.125  1.00  0.00     0.001 A 
ATOM     28  C   UNL A   1      48.404  26.171  33.518  1.00  0.00     0.160 C 
ATOM     29  C   UNL A   1      46.035  25.524  32.873  1.00  0.00    -0.010 A 
ATOM     30  C   UNL A   1      45.370  25.485  31.650  1.00  0.00     0.045 A 
ATOM     31  O   UNL A   1      45.612  26.678  29.619  1.00  0.00    -0.269 OA
ATOM     32  C   UNL A   1      51.911  25.141  32.776  1.00  0.00     0.010 A 
ATOM     33  C   UNL A   1      50.422  26.764  34.051  1.00  0.00     0.066 A 
ATOM     34  N   UNL A   1      49.204  27.206  34.227  1.00  0.00    -0.274 NA
ATOM     35  C   UNL A   1      45.785  24.529  33.809  1.00  0.00     0.007 A 
ATOM     36  C   UNL A   1      44.511  24.463  31.285  1.00  0.00     0.014 A 
ATOM     37  C   UNL A   1      52.988  25.718  33.329  1.00  0.00     0.001 A 
ATOM     38  C   UNL A   1      51.665  27.379  34.569  1.00  0.00     0.028 A 
ATOM     39  C   UNL A   1      44.931  23.475  33.461  1.00  0.00     0.000 A 
ATOM     40  C   UNL A   1      44.303  23.438  32.205  1.00  0.00     0.001 A 
ATOM     41  C   UNL A   1      52.855  26.865  34.209  1.00  0.00     0.002 A 
ENDBRANCH  18  21
ENDBRANCH  13  17
ENDBRANCH  10  13
ENDBRANCH   7   9
ENDBRANCH   4   7
ENDBRANCH   2   3
ENDBRANCH   1   2
BRANCH   1  42
ATOM     42  C   UNL A   1      43.995  24.685  25.054  1.00  0.00     0.023 C 
BRANCH  42  43
ATOM     43  C   UNL A   1      42.582  25.016  25.549  1.00  0.00     0.116 C 
BRANCH  43  44
ATOM     44  N   UNL A   1      41.938  23.961  26.325  1.00  0.00    -0.352 N 
ATOM     45  C   UNL A   1      41.134  24.031  27.445  1.00  0.00     0.251 C 
ATOM     46  H   UNL A   1      42.104  23.049  25.995  1.00  0.00     0.163 HD
ATOM     47  O   UNL A   1      40.706  23.006  27.969  1.00  0.00    -0.269 OA
BRANCH  45  48
ATOM     48  C   UNL A   1      40.859  25.338  28.079  1.00  0.00     0.039 A 
ATOM     49  C   UNL A   1      41.882  26.254  28.309  1.00  0.00     0.014 A 
ATOM     50  C   UNL A   1      39.563  25.608  28.529  1.00  0.00     0.014 A 
ATOM     51  C   UNL A   1      41.678  27.278  29.226  1.00  0.00     0.010 A 
ATOM     52  C   UNL A   1      39.334  26.709  29.358  1.00  0.00     0.010 A 
ATOM     53  C   UNL A   1      40.412  27.493  29.795  1.00  0.00    -0.014 A 
BRANCH  53  54
ATOM     54  C   UNL A   1      40.266  28.473  30.906  1.00  0.00     0.031 A 
ATOM     55  C   UNL A   1      41.242  28.467  32.060  1.00  0.00     0.074 A 
ATOM     56  C   UNL A   1      39.324  29.433  30.828  1.00  0.00     0.049 A 
ATOM     57  N   UNL A   1      41.284  29.248  33.111  1.00  0.00    -0.248 NA
ATOM     58  C   UNL A   1      42.308  27.450  32.038  1.00  0.00     0.031 C 
ATOM     59  C   UNL A   1      38.342  29.563  29.751  1.00  0.00     0.029 A 
ATOM     60  N   UNL A   1      39.068  30.506  31.643  1.00  0.00    -0.354 N 
ATOM     61  C   UNL A   1      42.350  28.797  33.884  1.00  0.00     0.074 A 
ATOM     62  C   UNL A   1      42.919  27.661  33.195  1.00  0.00     0.031 C 
ATOM     63  C   UNL A   1      37.644  30.696  29.927  1.00  0.00     0.029 A 
ATOM     64  C   UNL A   1      38.079  31.333  31.165  1.00  0.00     0.049 A 
ATOM     65  H   UNL A   1      39.545  30.669  32.488  1.00  0.00     0.167 HD
ATOM     66  C   UNL A   1      42.819  29.291  35.055  1.00  0.00     0.037 A 
ATOM     67  C   UNL A   1      37.571  32.472  31.671  1.00  0.00     0.037 A 
ATOM     68  C   UNL A   1      42.282  30.452  35.715  1.00  0.00     0.049 A 
ATOM     69  C   UNL A   1      38.098  32.993  32.975  1.00  0.00     0.074 A 
ATOM     70  C   UNL A   1      42.688  31.034  36.904  1.00  0.00     0.029 A 
ATOM     71  N   UNL A   1      41.231  31.219  35.233  1.00  0.00    -0.354 N 
ATOM     72  N   UNL A   1      39.070  32.518  33.716  1.00  0.00    -0.248 NA
ATOM     73  C   UNL A   1      37.445  34.187  33.524  1.00  0.00     0.031 C 
ATOM     74  C   UNL A   1      41.866  32.140  37.153  1.00  0.00     0.029 A 
ATOM     75  C   UNL A   1      40.969  32.263  36.104  1.00  0.00     0.049 A 
ATOM     76  H   UNL A   1      40.744  31.047  34.395  1.00  0.00     0.167 HD
ATOM     77  C   UNL A   1      39.135  33.347  34.829  1.00  0.00     0.074 A 
ATOM     78  C   UNL A   1      38.129  34.373  34.645  1.00  0.00     0.031 C 
ATOM     79  C   UNL A   1      39.946  33.259  35.912  1.00  0.00     0.037 A 
BRANCH  66  80
ATOM     80  C   UNL A   1      43.968  28.572  35.706  1.00  0.00     0.058 A 
ATOM     81  C   UNL A   1      43.764  27.489  36.576  1.00  0.00     0.135 A 
ATOM     82  C   UNL A   1      45.293  28.950  35.431  1.00  0.00     0.135 A 
ATOM     83  F   UNL A   1      42.519  27.100  36.889  1.00  0.00    -0.206 F 
ATOM     84  C   UNL A   1      44.832  26.819  37.165  1.00  0.00     0.059 A 
ATOM     85  C   UNL A   1      46.377  28.281  35.993  1.00  0.00     0.059 A 
ATOM     86  F   UNL A   1      45.544  29.981  34.609  1.00  0.00    -0.206 F 
ATOM     87  C   UNL A   1      46.135  27.224  36.869  1.00  0.00     0.060 A 
BRANCH  87  88
ATOM     88  S   UNL A   1      47.509  26.346  37.646  1.00  0.00     0.124 S 
ATOM     89  O   UNL A   1      47.799  25.320  36.649  1.00  0.00    -0.237 OA
ATOM     90  O   UNL A   1      48.514  27.396  37.785  1.00  0.00    -0.237 OA
ATOM     91  O   UNL A   1      46.938  25.860  38.898  1.00  0.00    -0.744 OA
ENDBRANCH  87  88
ENDBRANCH  66  80
BRANCH  67  92
ATOM     92  C   UNL A   1      36.493  33.183  30.935  1.00  0.00     0.058 A 
ATOM     93  C   UNL A   1      35.164  33.125  31.374  1.00  0.00     0.135 A 
ATOM     94  C   UNL A   1      36.782  33.973  29.812  1.00  0.00     0.135 A 
ATOM     95  F   UNL A   1      34.839  32.375  32.437  1.00  0.00    -0.206 F 
ATOM     96  C   UNL A   1      34.155  33.833  30.729  1.00  0.00     0.059 A 
ATOM     97  C   UNL A   1      35.796  34.708  29.165  1.00  0.00     0.059 A 
ATOM     98  F   UNL A   1      38.043  34.069  29.363  1.00  0.00    -0.206 F 
ATOM     99  C   UNL A   1      34.483  34.629  29.629  1.00  0.00     0.060 A 
BRANCH  99 100
ATOM    100  S   UNL A   1      33.185  35.613  28.848  1.00  0.00     0.124 S 
ATOM    101  O   UNL A   1      33.968  36.601  28.114  1.00  0.00    -0.237 OA
ATOM    102  O   UNL A   1      32.488  34.620  28.037  1.00  0.00    -0.237 OA
ATOM    103  O   UNL A   1      32.425  36.124  29.985  1.00  0.00    -0.744 OA
ENDBRANCH  99 100
ENDBRANCH  67  92
BRANCH  79 104
ATOM    104  C   UNL A   1      39.756  34.287  36.987  1.00  0.00     0.058 A 
ATOM    105  C   UNL A   1      38.941  34.028  38.100  1.00  0.00     0.135 A 
ATOM    106  C   UNL A   1      40.414  35.525  36.924  1.00  0.00     0.135 A 
ATOM    107  F   UNL A   1      38.286  32.861  38.200  1.00  0.00    -0.206 F 
ATOM    108  C   UNL A   1      38.767  34.972  39.106  1.00  0.00     0.059 A 
ATOM    109  C   UNL A   1      40.270  36.476  37.928  1.00  0.00     0.059 A 
ATOM    110  F   UNL A   1      41.212  35.814  35.884  1.00  0.00    -0.206 F 
ATOM    111  C   UNL A   1      39.434  36.195  39.009  1.00  0.00     0.060 A 
BRANCH 111 112
ATOM    112  S   UNL A   1      39.216  37.405  40.330  1.00  0.00     0.124 S 
ATOM    113  O   UNL A   1      38.219  38.297  39.749  1.00  0.00    -0.237 OA
ATOM    114  O   UNL A   1      38.757  36.579  41.442  1.00  0.00    -0.237 OA
ATOM    115  O   UNL A   1      40.551  37.974  40.491  1.00  0.00    -0.744 OA
ENDBRANCH 111 112
ENDBRANCH  79 104
ENDBRANCH  53  54
ENDBRANCH  45  48
ENDBRANCH  43  44
ENDBRANCH  42  43
ENDBRANCH   1  42
TORSDOF 19
ENDMDL
MODEL 3
REMARK VINA RESULT:     -11.2      1.869      4.019
REMARK SMILES CC(C)[C@H](NC(=O)[C@@H]1CC2=c3ccccc3=N[C@H]2[C@@H]2c3ccccc3C(=O)N12)C(=O)N[C@H](C)C(=O)NCCCCNC(=O)c1ccc(-c2c3nc(c(-c4c(F)cc(S(=O)(=O)[O-])cc4F)c4ccc([nH]4)c(-c4c(F)cc(S(=O)(=O)[O-])cc4F)c4nc(c(-c5c(F)cc(S(=O)(=O)[O-])cc5F)c5ccc2[nH]5)C=C4)C=C3)cc1
REMARK SMILES IDX 38 1 37 2 36 3 34 4 35 5 32 7 33 8 31 9 29 10 30 11 4 13
REMARK SMILES IDX 2 14 1 15 3 16 5 17 6 18 7 20 8 21 9 22 28 23 10 24 19 25
REMARK SMILES IDX 26 26 11 27 18 28 20 29 25 30 27 31 12 32 16 33 17 34 21 35
REMARK SMILES IDX 24 36 13 37 15 38 22 39 23 40 14 41 39 42 40 43 41 44 42 45
REMARK SMILES IDX 43 47 44 48 45 49 109 50 46 51 108 52 47 53 48 54 49 55
REMARK SMILES IDX 102 56 50 57 107 58 101 59 103 60 51 61 106 62 100 63 99 64
REMARK SMILES IDX 52 66 86 67 65 68 85 69 66 70 69 71 84 72 104 73 67 74 68 75
REMARK SMILES IDX 83 77 105 78 70 79 53 80 54 81 63 82 55 83 56 84 62 85 64 86
REMARK SMILES IDX 57 87 58 88 59 89 60 90 61 91 87 92 88 93 97 94 89 95 90 96
REMARK SMILES IDX 96 97 98 98 91 99 92 100 93 101 94 102 95 103 71 104 72 105
REMARK SMILES IDX 81 106 73 107 74 108 80 109 82 110 75 111 76 112 77 113
REMARK SMILES IDX 78 114 79 115
REMARK H PARENT 36 6 31 12 5 19 41 46 103 65 69 76
REMARK Flexibility Score: inf
ROOT
ATOM      1  C   UNL A   1      45.784  39.316  26.472  1.00  0.00     0.023 C 
ENDROOT
BRANCH   1   2
ATOM      2  C   UNL A   1      45.142  40.624  26.011  1.00  0.00     0.116 C 
BRANCH   2   3
ATOM      3  N   UNL A   1      45.730  41.235  24.848  1.00  0.00    -0.354 N 
ATOM      4  C   UNL A   1      45.499  42.453  24.283  1.00  0.00     0.242 C 
ATOM      5  O   UNL A   1      46.398  42.886  23.548  1.00  0.00    -0.273 OA
ATOM      6  H   UNL A   1      46.407  40.687  24.388  1.00  0.00     0.163 HD
BRANCH   4   7
ATOM      7  C   UNL A   1      44.127  43.195  24.284  1.00  0.00     0.168 C 
ATOM      8  C   UNL A   1      44.469  44.696  24.327  1.00  0.00     0.041 C 
BRANCH   7   9
ATOM      9  N   UNL A   1      43.016  43.052  23.332  1.00  0.00    -0.343 N 
ATOM     10  C   UNL A   1      43.046  42.649  22.030  1.00  0.00     0.243 C 
ATOM     11  O   UNL A   1      42.479  41.585  21.766  1.00  0.00    -0.273 OA
ATOM     12  H   UNL A   1      42.125  43.279  23.685  1.00  0.00     0.164 HD
BRANCH  10  13
ATOM     13  C   UNL A   1      43.770  43.468  20.967  1.00  0.00     0.174 C 
BRANCH  13  14
ATOM     14  C   UNL A   1      42.947  43.476  19.641  1.00  0.00     0.015 C 
ATOM     15  C   UNL A   1      41.437  43.555  19.928  1.00  0.00     0.010 C 
ATOM     16  C   UNL A   1      43.305  44.631  18.697  1.00  0.00     0.010 C 
ENDBRANCH  13  14
BRANCH  13  17
ATOM     17  N   UNL A   1      45.157  42.996  20.810  1.00  0.00    -0.342 N 
ATOM     18  C   UNL A   1      46.186  43.461  20.043  1.00  0.00     0.243 C 
ATOM     19  H   UNL A   1      45.381  42.207  21.354  1.00  0.00     0.164 HD
ATOM     20  O   UNL A   1      46.809  42.558  19.461  1.00  0.00    -0.273 OA
BRANCH  18  21
ATOM     21  C   UNL A   1      46.711  44.941  19.895  1.00  0.00     0.179 C 
ATOM     22  C   UNL A   1      47.104  45.564  18.517  1.00  0.00     0.069 C 
ATOM     23  N   UNL A   1      47.598  45.490  20.928  1.00  0.00    -0.317 N 
ATOM     24  C   UNL A   1      46.760  47.022  18.590  1.00  0.00    -0.031 C 
ATOM     25  C   UNL A   1      47.899  46.951  20.899  1.00  0.00     0.146 C 
ATOM     26  C   UNL A   1      48.748  44.762  21.206  1.00  0.00     0.255 C 
ATOM     27  C   UNL A   1      45.799  47.684  17.953  1.00  0.00     0.001 A 
ATOM     28  C   UNL A   1      47.190  47.790  19.798  1.00  0.00     0.160 C 
ATOM     29  C   UNL A   1      49.405  46.920  20.684  1.00  0.00    -0.010 A 
ATOM     30  C   UNL A   1      49.884  45.635  20.922  1.00  0.00     0.045 A 
ATOM     31  O   UNL A   1      48.845  43.576  21.460  1.00  0.00    -0.269 OA
ATOM     32  C   UNL A   1      45.071  47.514  16.741  1.00  0.00     0.010 A 
ATOM     33  C   UNL A   1      45.276  48.512  19.073  1.00  0.00     0.066 A 
ATOM     34  N   UNL A   1      45.955  48.522  20.191  1.00  0.00    -0.274 NA
ATOM     35  C   UNL A   1      50.270  47.881  20.176  1.00  0.00     0.007 A 
ATOM     36  C   UNL A   1      51.173  45.236  20.616  1.00  0.00     0.014 A 
ATOM     37  C   UNL A   1      43.900  48.150  16.588  1.00  0.00     0.001 A 
ATOM     38  C   UNL A   1      43.950  49.129  18.843  1.00  0.00     0.028 A 
ATOM     39  C   UNL A   1      51.577  47.501  19.844  1.00  0.00     0.000 A 
ATOM     40  C   UNL A   1      52.024  46.187  20.057  1.00  0.00     0.001 A 
ATOM     41  C   UNL A   1      43.329  48.938  17.665  1.00  0.00     0.002 A 
ENDBRANCH  18  21
ENDBRANCH  13  17
ENDBRANCH  10  13
ENDBRANCH   7   9
ENDBRANCH   4   7
ENDBRANCH   2   3
ENDBRANCH   1   2
BRANCH   1  42
ATOM     42  C   UNL A   1      47.175  39.467  27.101  1.00  0.00     0.023 C 
BRANCH  42  43
ATOM     43  C   UNL A   1      47.460  38.527  28.276  1.00  0.00     0.116 C 
BRANCH  43  44
ATOM     44  N   UNL A   1      48.795  37.937  28.284  1.00  0.00    -0.352 N 
ATOM     45  C   UNL A   1      49.197  36.617  28.233  1.00  0.00     0.251 C 
ATOM     46  H   UNL A   1      49.532  38.589  28.334  1.00  0.00     0.163 HD
ATOM     47  O   UNL A   1      50.390  36.328  28.276  1.00  0.00    -0.269 OA
BRANCH  45  48
ATOM     48  C   UNL A   1      48.188  35.536  28.219  1.00  0.00     0.039 A 
ATOM     49  C   UNL A   1      47.960  34.753  29.347  1.00  0.00     0.014 A 
ATOM     50  C   UNL A   1      47.525  35.249  27.022  1.00  0.00     0.014 A 
ATOM     51  C   UNL A   1      47.311  33.533  29.203  1.00  0.00     0.010 A 
ATOM     52  C   UNL A   1      46.773  34.077  26.912  1.00  0.00     0.010 A 
ATOM     53  C   UNL A   1      46.745  33.161  27.973  1.00  0.00    -0.014 A 
BRANCH  53  54
ATOM     54  C   UNL A   1      46.222  31.778  27.797  1.00  0.00     0.031 A 
ATOM     55  C   UNL A   1      47.139  30.669  27.332  1.00  0.00     0.074 A 
ATOM     56  C   UNL A   1      44.954  31.494  28.155  1.00  0.00     0.049 A 
ATOM     57  N   UNL A   1      46.870  29.404  27.132  1.00  0.00    -0.248 NA
ATOM     58  C   UNL A   1      48.540  31.027  27.048  1.00  0.00     0.031 C 
ATOM     59  C   UNL A   1      43.981  32.470  28.646  1.00  0.00     0.029 A 
ATOM     60  N   UNL A   1      44.282  30.300  28.205  1.00  0.00    -0.354 N 
ATOM     61  C   UNL A   1      48.049  28.827  26.670  1.00  0.00     0.074 A 
ATOM     62  C   UNL A   1      49.034  29.883  26.598  1.00  0.00     0.031 C 
ATOM     63  C   UNL A   1      42.865  31.827  29.023  1.00  0.00     0.029 A 
ATOM     64  C   UNL A   1      43.018  30.405  28.734  1.00  0.00     0.049 A 
ATOM     65  H   UNL A   1      44.667  29.450  27.893  1.00  0.00     0.167 HD
ATOM     66  C   UNL A   1      48.292  27.534  26.346  1.00  0.00     0.037 A 
ATOM     67  C   UNL A   1      42.081  29.464  28.955  1.00  0.00     0.037 A 
ATOM     68  C   UNL A   1      47.324  26.475  26.465  1.00  0.00     0.049 A 
ATOM     69  C   UNL A   1      42.369  28.041  28.577  1.00  0.00     0.074 A 
ATOM     70  C   UNL A   1      47.473  25.132  26.164  1.00  0.00     0.029 A 
ATOM     71  N   UNL A   1      46.030  26.637  26.937  1.00  0.00    -0.354 N 
ATOM     72  N   UNL A   1      43.473  27.529  28.089  1.00  0.00    -0.248 NA
ATOM     73  C   UNL A   1      41.279  27.075  28.754  1.00  0.00     0.031 C 
ATOM     74  C   UNL A   1      46.261  24.486  26.432  1.00  0.00     0.029 A 
ATOM     75  C   UNL A   1      45.367  25.422  26.928  1.00  0.00     0.049 A 
ATOM     76  H   UNL A   1      45.641  27.491  27.236  1.00  0.00     0.167 HD
ATOM     77  C   UNL A   1      43.206  26.181  27.885  1.00  0.00     0.074 A 
ATOM     78  C   UNL A   1      41.848  25.952  28.337  1.00  0.00     0.031 C 
ATOM     79  C   UNL A   1      44.007  25.222  27.360  1.00  0.00     0.037 A 
BRANCH  66  80
ATOM     80  C   UNL A   1      49.659  27.190  25.822  1.00  0.00     0.058 A 
ATOM     81  C   UNL A   1      50.706  26.812  26.677  1.00  0.00     0.135 A 
ATOM     82  C   UNL A   1      49.916  27.206  24.441  1.00  0.00     0.135 A 
ATOM     83  F   UNL A   1      50.521  26.799  28.007  1.00  0.00    -0.206 F 
ATOM     84  C   UNL A   1      51.965  26.481  26.184  1.00  0.00     0.059 A 
ATOM     85  C   UNL A   1      51.162  26.861  23.924  1.00  0.00     0.059 A 
ATOM     86  F   UNL A   1      48.952  27.564  23.578  1.00  0.00    -0.206 F 
ATOM     87  C   UNL A   1      52.183  26.511  24.805  1.00  0.00     0.060 A 
BRANCH  87  88
ATOM     88  S   UNL A   1      53.824  26.084  24.183  1.00  0.00     0.124 S 
ATOM     89  O   UNL A   1      54.018  24.758  24.762  1.00  0.00    -0.237 OA
ATOM     90  O   UNL A   1      53.630  26.120  22.736  1.00  0.00    -0.237 OA
ATOM     91  O   UNL A   1      54.679  27.136  24.724  1.00  0.00    -0.744 OA
ENDBRANCH  87  88
ENDBRANCH  66  80
BRANCH  67  92
ATOM     92  C   UNL A   1      40.779  29.854  29.556  1.00  0.00     0.058 A 
ATOM     93  C   UNL A   1      39.622  29.945  28.770  1.00  0.00     0.135 A 
ATOM     94  C   UNL A   1      40.660  30.093  30.933  1.00  0.00     0.135 A 
ATOM     95  F   UNL A   1      39.691  29.735  27.447  1.00  0.00    -0.206 F 
ATOM     96  C   UNL A   1      38.386  30.251  29.330  1.00  0.00     0.059 A 
ATOM     97  C   UNL A   1      39.432  30.378  31.520  1.00  0.00     0.059 A 
ATOM     98  F   UNL A   1      41.737  30.005  31.728  1.00  0.00    -0.206 F 
ATOM     99  C   UNL A   1      38.300  30.459  30.708  1.00  0.00     0.060 A 
BRANCH  99 100
ATOM    100  S   UNL A   1      36.680  30.771  31.442  1.00  0.00     0.124 S 
ATOM    101  O   UNL A   1      36.081  29.442  31.408  1.00  0.00    -0.237 OA
ATOM    102  O   UNL A   1      37.032  31.279  32.765  1.00  0.00    -0.237 OA
ATOM    103  O   UNL A   1      36.089  31.755  30.540  1.00  0.00    -0.744 OA
ENDBRANCH  99 100
ENDBRANCH  67  92
BRANCH  79 104
ATOM    104  C   UNL A   1      43.422  23.848  27.226  1.00  0.00     0.058 A 
ATOM    105  C   UNL A   1      43.004  23.359  25.979  1.00  0.00     0.135 A 
ATOM    106  C   UNL A   1      43.307  23.003  28.340  1.00  0.00     0.135 A 
ATOM    107  F   UNL A   1      43.090  24.134  24.886  1.00  0.00    -0.206 F 
ATOM    108  C   UNL A   1      42.470  22.082  25.844  1.00  0.00     0.059 A 
ATOM    109  C   UNL A   1      42.793  21.716  28.224  1.00  0.00     0.059 A 
ATOM    110  F   UNL A   1      43.702  23.424  29.552  1.00  0.00    -0.206 F 
ATOM    111  C   UNL A   1      42.366  21.269  26.974  1.00  0.00     0.060 A 
BRANCH 111 112
ATOM    112  S   UNL A   1      41.688  19.607  26.783  1.00  0.00     0.124 S 
ATOM    113  O   UNL A   1      40.384  19.747  27.423  1.00  0.00    -0.237 OA
ATOM    114  O   UNL A   1      41.669  19.438  25.334  1.00  0.00    -0.237 OA
ATOM    115  O   UNL A   1      42.649  18.767  27.493  1.00  0.00    -0.744 OA
ENDBRANCH 111 112
ENDBRANCH  79 104
ENDBRANCH  53  54
ENDBRANCH  45  48
ENDBRANCH  43  44
ENDBRANCH  42  43
ENDBRANCH   1  42
TORSDOF 19
ENDMDL
