MODEL 1
REMARK VINA RESULT:     -11.8      0.000      0.000
REMARK SMILES Cc1cc(F)c([C@H](O)[C@H]2CCCC[C@@H]2C(=O)NCCCCNC(=O)c2ccc(-c3c4nc(c(-c5c(F)cc(S(=O)(=O)[O-])cc5F)c5ccc([nH]5)c(-c5c(F)cc(S(=O)(=O)[O-])cc5F)c5nc(c(-c6c(F)cc(S(=O)(=O)[O-])cc6F)c6ccc3[nH]6)C=C5)C=C4)cc2)cc1F
REMARK SMILES IDX 20 1 19 2 18 3 17 4 15 5 16 6 14 8 9 9 10 10 11 11 13 12
REMARK SMILES IDX 12 13 7 14 6 15 1 16 2 17 3 18 92 19 4 20 91 21 93 22 5 23
REMARK SMILES IDX 8 24 21 26 22 27 23 28 24 30 25 31 26 32 90 33 27 34 89 35
REMARK SMILES IDX 28 36 29 37 30 38 83 39 31 40 88 41 82 42 84 43 32 44 87 45
REMARK SMILES IDX 81 46 80 47 33 49 67 50 46 51 66 52 47 53 50 54 65 55 85 56
REMARK SMILES IDX 48 57 49 58 64 60 86 61 51 62 34 63 35 64 44 65 36 66 37 67
REMARK SMILES IDX 43 68 45 69 38 70 39 71 40 72 41 73 42 74 68 75 69 76 78 77
REMARK SMILES IDX 70 78 71 79 77 80 79 81 72 82 73 83 74 84 75 85 76 86 52 87
REMARK SMILES IDX 53 88 62 89 54 90 55 91 61 92 63 93 56 94 57 95 58 96 59 97
REMARK SMILES IDX 60 98
REMARK H PARENT 17 7 8 25 22 29 84 48 50 59
REMARK Flexibility Score: inf
ROOT
ATOM      1  C   UNL A   1      33.008  28.208  27.404  1.00  0.00     0.023 C 
ENDROOT
BRANCH   1   2
ATOM      2  C   UNL A   1      31.602  27.923  26.890  1.00  0.00     0.023 C 
BRANCH   2   3
ATOM      3  C   UNL A   1      31.510  26.784  25.877  1.00  0.00     0.116 C 
BRANCH   3   4
ATOM      4  N   UNL A   1      30.845  25.610  26.377  1.00  0.00    -0.356 N 
ATOM      5  C   UNL A   1      31.230  24.315  26.456  1.00  0.00     0.223 C 
ATOM      6  O   UNL A   1      30.522  23.595  27.174  1.00  0.00    -0.275 OA
ATOM      7  H   UNL A   1      29.940  25.781  26.726  1.00  0.00     0.163 HD
BRANCH   5   8
ATOM      8  C   UNL A   1      32.364  23.657  25.636  1.00  0.00     0.084 C 
ATOM      9  C   UNL A   1      32.405  23.796  24.085  1.00  0.00     0.035 C 
ATOM     10  C   UNL A   1      31.903  22.526  23.318  1.00  0.00     0.007 C 
ATOM     11  C   UNL A   1      32.244  21.187  23.965  1.00  0.00     0.000 C 
ATOM     12  C   UNL A   1      32.684  22.263  26.178  1.00  0.00     0.014 C 
ATOM     13  C   UNL A   1      31.963  21.148  25.454  1.00  0.00     0.001 C 
BRANCH   9  14
ATOM     14  C   UNL A   1      33.843  24.094  23.526  1.00  0.00     0.151 C 
BRANCH  14  15
ATOM     15  C   UNL A   1      35.111  23.711  24.242  1.00  0.00     0.019 A 
ATOM     16  C   UNL A   1      38.715  22.284  26.179  1.00  0.00     0.047 C 
ATOM     17  C   UNL A   1      37.493  22.818  25.497  1.00  0.00    -0.012 A 
ATOM     18  C   UNL A   1      36.827  23.961  25.955  1.00  0.00     0.046 A 
ATOM     19  C   UNL A   1      36.986  22.160  24.379  1.00  0.00     0.126 A 
ATOM     20  C   UNL A   1      35.665  24.409  25.316  1.00  0.00     0.129 A 
ATOM     21  C   UNL A   1      35.819  22.592  23.758  1.00  0.00     0.049 A 
ATOM     22  F   UNL A   1      37.619  21.085  23.887  1.00  0.00    -0.207 F 
ATOM     23  F   UNL A   1      35.077  25.523  25.772  1.00  0.00    -0.207 F 
ENDBRANCH  14  15
BRANCH  14  24
ATOM     24  O   UNL A   1      33.981  25.507  23.319  1.00  0.00    -0.388 OA
ATOM     25  H   UNL A   1      34.102  25.949  24.173  1.00  0.00     0.211 HD
ENDBRANCH  14  24
ENDBRANCH   9  14
ENDBRANCH   5   8
ENDBRANCH   3   4
ENDBRANCH   2   3
ENDBRANCH   1   2
BRANCH   1  26
ATOM     26  C   UNL A   1      33.679  29.459  26.851  1.00  0.00     0.116 C 
BRANCH  26  27
ATOM     27  N   UNL A   1      33.726  30.592  27.767  1.00  0.00    -0.352 N 
ATOM     28  C   UNL A   1      34.776  30.976  28.587  1.00  0.00     0.251 C 
ATOM     29  H   UNL A   1      32.915  31.151  27.808  1.00  0.00     0.163 HD
ATOM     30  O   UNL A   1      34.688  31.934  29.326  1.00  0.00    -0.269 OA
BRANCH  28  31
ATOM     31  C   UNL A   1      35.991  30.127  28.573  1.00  0.00     0.039 A 
ATOM     32  C   UNL A   1      36.391  29.485  29.744  1.00  0.00     0.014 A 
ATOM     33  C   UNL A   1      36.828  30.167  27.455  1.00  0.00     0.014 A 
ATOM     34  C   UNL A   1      37.719  29.101  29.876  1.00  0.00     0.010 A 
ATOM     35  C   UNL A   1      38.133  29.677  27.561  1.00  0.00     0.010 A 
ATOM     36  C   UNL A   1      38.615  29.216  28.797  1.00  0.00    -0.014 A 
BRANCH  36  37
ATOM     37  C   UNL A   1      40.058  28.912  29.011  1.00  0.00     0.031 A 
ATOM     38  C   UNL A   1      40.637  27.574  28.608  1.00  0.00     0.074 A 
ATOM     39  C   UNL A   1      40.872  29.881  29.475  1.00  0.00     0.049 A 
ATOM     40  N   UNL A   1      41.862  27.132  28.747  1.00  0.00    -0.248 NA
ATOM     41  C   UNL A   1      39.729  26.607  27.969  1.00  0.00     0.031 C 
ATOM     42  C   UNL A   1      40.446  31.229  29.858  1.00  0.00     0.029 A 
ATOM     43  N   UNL A   1      42.231  29.899  29.662  1.00  0.00    -0.354 N 
ATOM     44  C   UNL A   1      41.865  25.834  28.245  1.00  0.00     0.074 A 
ATOM     45  C   UNL A   1      40.516  25.550  27.810  1.00  0.00     0.031 C 
ATOM     46  C   UNL A   1      41.526  31.966  30.150  1.00  0.00     0.029 A 
ATOM     47  C   UNL A   1      42.712  31.123  30.064  1.00  0.00     0.049 A 
ATOM     48  H   UNL A   1      42.806  29.113  29.521  1.00  0.00     0.167 HD
ATOM     49  C   UNL A   1      42.900  24.964  28.148  1.00  0.00     0.037 A 
ATOM     50  C   UNL A   1      43.965  31.521  30.352  1.00  0.00     0.037 A 
ATOM     51  C   UNL A   1      44.252  25.266  28.543  1.00  0.00     0.049 A 
ATOM     52  C   UNL A   1      45.084  30.524  30.274  1.00  0.00     0.074 A 
ATOM     53  C   UNL A   1      45.364  24.441  28.508  1.00  0.00     0.029 A 
ATOM     54  N   UNL A   1      44.683  26.495  29.018  1.00  0.00    -0.354 N 
ATOM     55  N   UNL A   1      45.047  29.275  29.877  1.00  0.00    -0.248 NA
ATOM     56  C   UNL A   1      46.410  30.982  30.711  1.00  0.00     0.031 C 
ATOM     57  C   UNL A   1      46.463  25.166  28.981  1.00  0.00     0.029 A 
ATOM     58  C   UNL A   1      46.042  26.450  29.281  1.00  0.00     0.049 A 
ATOM     59  H   UNL A   1      44.108  27.283  29.149  1.00  0.00     0.167 HD
ATOM     60  C   UNL A   1      46.343  28.798  30.018  1.00  0.00     0.074 A 
ATOM     61  C   UNL A   1      47.146  29.898  30.512  1.00  0.00     0.031 C 
ATOM     62  C   UNL A   1      46.824  27.555  29.771  1.00  0.00     0.037 A 
BRANCH  49  63
ATOM     63  C   UNL A   1      42.625  23.592  27.596  1.00  0.00     0.058 A 
ATOM     64  C   UNL A   1      42.672  23.333  26.218  1.00  0.00     0.135 A 
ATOM     65  C   UNL A   1      42.405  22.508  28.461  1.00  0.00     0.135 A 
ATOM     66  F   UNL A   1      42.861  24.337  25.347  1.00  0.00    -0.206 F 
ATOM     67  C   UNL A   1      42.507  22.045  25.715  1.00  0.00     0.059 A 
ATOM     68  C   UNL A   1      42.256  21.208  27.982  1.00  0.00     0.059 A 
ATOM     69  F   UNL A   1      42.351  22.702  29.787  1.00  0.00    -0.206 F 
ATOM     70  C   UNL A   1      42.304  20.987  26.605  1.00  0.00     0.060 A 
BRANCH  70  71
ATOM     71  S   UNL A   1      42.128  19.319  25.938  1.00  0.00     0.124 S 
ATOM     72  O   UNL A   1      40.687  19.245  25.717  1.00  0.00    -0.237 OA
ATOM     73  O   UNL A   1      42.951  19.376  24.735  1.00  0.00    -0.237 OA
ATOM     74  O   UNL A   1      42.643  18.469  27.007  1.00  0.00    -0.744 OA
ENDBRANCH  70  71
ENDBRANCH  49  63
BRANCH  50  75
ATOM     75  C   UNL A   1      44.222  32.925  30.762  1.00  0.00     0.058 A 
ATOM     76  C   UNL A   1      44.120  33.310  32.106  1.00  0.00     0.135 A 
ATOM     77  C   UNL A   1      44.591  33.901  29.824  1.00  0.00     0.135 A 
ATOM     78  F   UNL A   1      43.765  32.412  33.037  1.00  0.00    -0.206 F 
ATOM     79  C   UNL A   1      44.366  34.620  32.506  1.00  0.00     0.059 A 
ATOM     80  C   UNL A   1      44.866  35.209  30.203  1.00  0.00     0.059 A 
ATOM     81  F   UNL A   1      44.716  33.575  28.527  1.00  0.00    -0.206 F 
ATOM     82  C   UNL A   1      44.739  35.562  31.546  1.00  0.00     0.060 A 
BRANCH  82  83
ATOM     83  S   UNL A   1      45.103  37.249  32.075  1.00  0.00     0.124 S 
ATOM     84  O   UNL A   1      44.048  37.999  31.406  1.00  0.00    -0.237 OA
ATOM     85  O   UNL A   1      44.995  37.147  33.527  1.00  0.00    -0.237 OA
ATOM     86  O   UNL A   1      46.456  37.471  31.571  1.00  0.00    -0.744 OA
ENDBRANCH  82  83
ENDBRANCH  50  75
BRANCH  62  87
ATOM     87  C   UNL A   1      48.284  27.324  30.022  1.00  0.00     0.058 A 
ATOM     88  C   UNL A   1      49.239  27.553  29.021  1.00  0.00     0.135 A 
ATOM     89  C   UNL A   1      48.735  26.910  31.286  1.00  0.00     0.135 A 
ATOM     90  F   UNL A   1      48.854  27.940  27.795  1.00  0.00    -0.206 F 
ATOM     91  C   UNL A   1      50.596  27.363  29.259  1.00  0.00     0.059 A 
ATOM     92  C   UNL A   1      50.088  26.733  31.551  1.00  0.00     0.059 A 
ATOM     93  F   UNL A   1      47.857  26.685  32.276  1.00  0.00    -0.206 F 
ATOM     94  C   UNL A   1      51.011  26.953  30.529  1.00  0.00     0.060 A 
BRANCH  94  95
ATOM     95  S   UNL A   1      52.778  26.743  30.833  1.00  0.00     0.124 S 
ATOM     96  O   UNL A   1      53.294  26.600  29.477  1.00  0.00    -0.237 OA
ATOM     97  O   UNL A   1      53.128  27.984  31.518  1.00  0.00    -0.237 OA
ATOM     98  O   UNL A   1      52.837  25.540  31.659  1.00  0.00    -0.744 OA
ENDBRANCH  94  95
ENDBRANCH  62  87
ENDBRANCH  36  37
ENDBRANCH  28  31
ENDBRANCH  26  27
ENDBRANCH   1  26
TORSDOF 17
ENDMDL
MODEL 2
REMARK VINA RESULT:     -11.7      5.256     10.034
REMARK SMILES Cc1cc(F)c([C@H](O)[C@H]2CCCC[C@@H]2C(=O)NCCCCNC(=O)c2ccc(-c3c4nc(c(-c5c(F)cc(S(=O)(=O)[O-])cc5F)c5ccc([nH]5)c(-c5c(F)cc(S(=O)(=O)[O-])cc5F)c5nc(c(-c6c(F)cc(S(=O)(=O)[O-])cc6F)c6ccc3[nH]6)C=C5)C=C4)cc2)cc1F
REMARK SMILES IDX 20 1 19 2 18 3 17 4 15 5 16 6 14 8 9 9 10 10 11 11 13 12
REMARK SMILES IDX 12 13 7 14 6 15 1 16 2 17 3 18 92 19 4 20 91 21 93 22 5 23
REMARK SMILES IDX 8 24 21 26 22 27 23 28 24 30 25 31 26 32 90 33 27 34 89 35
REMARK SMILES IDX 28 36 29 37 30 38 83 39 31 40 88 41 82 42 84 43 32 44 87 45
REMARK SMILES IDX 81 46 80 47 33 49 67 50 46 51 66 52 47 53 50 54 65 55 85 56
REMARK SMILES IDX 48 57 49 58 64 60 86 61 51 62 34 63 35 64 44 65 36 66 37 67
REMARK SMILES IDX 43 68 45 69 38 70 39 71 40 72 41 73 42 74 68 75 69 76 78 77
REMARK SMILES IDX 70 78 71 79 77 80 79 81 72 82 73 83 74 84 75 85 76 86 52 87
REMARK SMILES IDX 53 88 62 89 54 90 55 91 61 92 63 93 56 94 57 95 58 96 59 97
REMARK SMILES IDX 60 98
REMARK H PARENT 17 7 8 25 22 29 84 48 50 59
REMARK Flexibility Score: inf
ROOT
ATOM      1  C   UNL A   1      39.923  22.191  26.692  1.00  0.00     0.023 C 
ENDROOT
BRANCH   1   2
ATOM      2  C   UNL A   1      38.628  22.913  26.340  1.00  0.00     0.023 C 
BRANCH   2   3
ATOM      3  C   UNL A   1      37.548  22.026  25.724  1.00  0.00     0.116 C 
BRANCH   3   4
ATOM      4  N   UNL A   1      37.382  22.209  24.306  1.00  0.00    -0.356 N 
ATOM      5  C   UNL A   1      36.362  22.713  23.572  1.00  0.00     0.223 C 
ATOM      6  O   UNL A   1      36.637  22.968  22.391  1.00  0.00    -0.275 OA
ATOM      7  H   UNL A   1      38.153  21.912  23.771  1.00  0.00     0.163 HD
BRANCH   5   8
ATOM      8  C   UNL A   1      34.896  22.860  24.039  1.00  0.00     0.084 C 
ATOM      9  C   UNL A   1      33.730  22.866  23.005  1.00  0.00     0.035 C 
ATOM     10  C   UNL A   1      33.163  24.292  22.694  1.00  0.00     0.007 C 
ATOM     11  C   UNL A   1      33.133  25.262  23.871  1.00  0.00     0.000 C 
ATOM     12  C   UNL A   1      34.786  23.898  25.157  1.00  0.00     0.014 C 
ATOM     13  C   UNL A   1      34.421  25.282  24.669  1.00  0.00     0.001 C 
BRANCH   9  14
ATOM     14  C   UNL A   1      32.497  22.003  23.454  1.00  0.00     0.151 C 
BRANCH  14  15
ATOM     15  C   UNL A   1      32.614  20.602  23.997  1.00  0.00     0.019 A 
ATOM     16  C   UNL A   1      32.777  16.466  25.275  1.00  0.00     0.047 C 
ATOM     17  C   UNL A   1      32.767  17.900  24.848  1.00  0.00    -0.012 A 
ATOM     18  C   UNL A   1      32.905  18.950  25.765  1.00  0.00     0.046 A 
ATOM     19  C   UNL A   1      32.606  18.216  23.501  1.00  0.00     0.126 A 
ATOM     20  C   UNL A   1      32.851  20.281  25.333  1.00  0.00     0.129 A 
ATOM     21  C   UNL A   1      32.530  19.539  23.076  1.00  0.00     0.049 A 
ATOM     22  F   UNL A   1      32.510  17.238  22.588  1.00  0.00    -0.207 F 
ATOM     23  F   UNL A   1      33.015  21.251  26.242  1.00  0.00    -0.207 F 
ENDBRANCH  14  15
BRANCH  14  24
ATOM     24  O   UNL A   1      31.594  21.865  22.347  1.00  0.00    -0.388 OA
ATOM     25  H   UNL A   1      30.997  22.629  22.320  1.00  0.00     0.211 HD
ENDBRANCH  14  24
ENDBRANCH   9  14
ENDBRANCH   5   8
ENDBRANCH   3   4
ENDBRANCH   2   3
ENDBRANCH   1   2
BRANCH   1  26
ATOM     26  C   UNL A   1      41.174  23.059  26.758  1.00  0.00     0.116 C 
BRANCH  26  27
ATOM     27  N   UNL A   1      41.224  24.145  25.787  1.00  0.00    -0.352 N 
ATOM     28  C   UNL A   1      41.293  25.506  26.042  1.00  0.00     0.251 C 
ATOM     29  H   UNL A   1      41.208  23.881  24.838  1.00  0.00     0.163 HD
ATOM     30  O   UNL A   1      41.310  26.321  25.143  1.00  0.00    -0.269 OA
BRANCH  28  31
ATOM     31  C   UNL A   1      41.278  25.931  27.462  1.00  0.00     0.039 A 
ATOM     32  C   UNL A   1      40.079  25.898  28.173  1.00  0.00     0.014 A 
ATOM     33  C   UNL A   1      42.407  26.561  27.988  1.00  0.00     0.014 A 
ATOM     34  C   UNL A   1      39.944  26.706  29.295  1.00  0.00     0.010 A 
ATOM     35  C   UNL A   1      42.292  27.284  29.180  1.00  0.00     0.010 A 
ATOM     36  C   UNL A   1      41.040  27.431  29.799  1.00  0.00    -0.014 A 
BRANCH  36  37
ATOM     37  C   UNL A   1      40.830  28.382  30.926  1.00  0.00     0.031 A 
ATOM     38  C   UNL A   1      41.779  28.411  32.103  1.00  0.00     0.074 A 
ATOM     39  C   UNL A   1      39.840  29.293  30.842  1.00  0.00     0.049 A 
ATOM     40  N   UNL A   1      41.730  29.154  33.181  1.00  0.00    -0.248 NA
ATOM     41  C   UNL A   1      42.929  27.492  32.071  1.00  0.00     0.031 C 
ATOM     42  C   UNL A   1      38.883  29.399  29.738  1.00  0.00     0.029 A 
ATOM     43  N   UNL A   1      39.500  30.329  31.674  1.00  0.00    -0.354 N 
ATOM     44  C   UNL A   1      42.817  28.773  33.964  1.00  0.00     0.074 A 
ATOM     45  C   UNL A   1      43.502  27.721  33.246  1.00  0.00     0.031 C 
ATOM     46  C   UNL A   1      38.123  30.488  29.916  1.00  0.00     0.029 A 
ATOM     47  C   UNL A   1      38.475  31.107  31.189  1.00  0.00     0.049 A 
ATOM     48  H   UNL A   1      39.946  30.499  32.534  1.00  0.00     0.167 HD
ATOM     49  C   UNL A   1      43.211  29.261  35.165  1.00  0.00     0.037 A 
ATOM     50  C   UNL A   1      37.870  32.188  31.715  1.00  0.00     0.037 A 
ATOM     51  C   UNL A   1      42.550  30.338  35.857  1.00  0.00     0.049 A 
ATOM     52  C   UNL A   1      38.301  32.681  33.065  1.00  0.00     0.074 A 
ATOM     53  C   UNL A   1      42.858  30.885  37.091  1.00  0.00     0.029 A 
ATOM     54  N   UNL A   1      41.467  31.051  35.365  1.00  0.00    -0.354 N 
ATOM     55  N   UNL A   1      39.278  32.249  33.825  1.00  0.00    -0.248 NA
ATOM     56  C   UNL A   1      37.529  33.790  33.643  1.00  0.00     0.031 C 
ATOM     57  C   UNL A   1      41.949  31.916  37.355  1.00  0.00     0.029 A 
ATOM     58  C   UNL A   1      41.095  32.030  36.271  1.00  0.00     0.049 A 
ATOM     59  H   UNL A   1      41.028  30.884  34.500  1.00  0.00     0.167 HD
ATOM     60  C   UNL A   1      39.237  33.032  34.971  1.00  0.00     0.074 A 
ATOM     61  C   UNL A   1      38.156  33.981  34.795  1.00  0.00     0.031 C 
ATOM     62  C   UNL A   1      40.017  32.965  36.077  1.00  0.00     0.037 A 
BRANCH  49  63
ATOM     63  C   UNL A   1      44.412  28.642  35.825  1.00  0.00     0.058 A 
ATOM     64  C   UNL A   1      45.704  29.148  35.619  1.00  0.00     0.135 A 
ATOM     65  C   UNL A   1      44.257  27.591  36.744  1.00  0.00     0.135 A 
ATOM     66  F   UNL A   1      45.909  30.139  34.738  1.00  0.00    -0.206 F 
ATOM     67  C   UNL A   1      46.803  28.631  36.301  1.00  0.00     0.059 A 
ATOM     68  C   UNL A   1      45.339  27.071  37.450  1.00  0.00     0.059 A 
ATOM     69  F   UNL A   1      43.042  27.071  36.977  1.00  0.00    -0.206 F 
ATOM     70  C   UNL A   1      46.610  27.596  37.218  1.00  0.00     0.060 A 
BRANCH  70  71
ATOM     71  S   UNL A   1      48.041  26.963  38.119  1.00  0.00     0.124 S 
ATOM     72  O   UNL A   1      47.417  25.990  39.010  1.00  0.00    -0.237 OA
ATOM     73  O   UNL A   1      48.863  26.406  37.049  1.00  0.00    -0.237 OA
ATOM     74  O   UNL A   1      48.586  28.150  38.770  1.00  0.00    -0.744 OA
ENDBRANCH  70  71
ENDBRANCH  49  63
BRANCH  50  75
ATOM     75  C   UNL A   1      36.776  32.861  30.972  1.00  0.00     0.058 A 
ATOM     76  C   UNL A   1      35.433  32.564  31.244  1.00  0.00     0.135 A 
ATOM     77  C   UNL A   1      37.050  33.826  29.990  1.00  0.00     0.135 A 
ATOM     78  F   UNL A   1      35.124  31.644  32.170  1.00  0.00    -0.206 F 
ATOM     79  C   UNL A   1      34.398  33.193  30.560  1.00  0.00     0.059 A 
ATOM     80  C   UNL A   1      36.032  34.486  29.312  1.00  0.00     0.059 A 
ATOM     81  F   UNL A   1      38.320  34.155  29.706  1.00  0.00    -0.206 F 
ATOM     82  C   UNL A   1      34.708  34.154  29.597  1.00  0.00     0.060 A 
BRANCH  82  83
ATOM     83  S   UNL A   1      33.361  35.002  28.746  1.00  0.00     0.124 S 
ATOM     84  O   UNL A   1      32.806  33.927  27.932  1.00  0.00    -0.237 OA
ATOM     85  O   UNL A   1      32.531  35.457  29.857  1.00  0.00    -0.237 OA
ATOM     86  O   UNL A   1      34.046  36.063  28.013  1.00  0.00    -0.744 OA
ENDBRANCH  82  83
ENDBRANCH  50  75
BRANCH  62  87
ATOM     87  C   UNL A   1      39.736  33.948  37.174  1.00  0.00     0.058 A 
ATOM     88  C   UNL A   1      38.960  33.593  38.288  1.00  0.00     0.135 A 
ATOM     89  C   UNL A   1      40.281  35.241  37.132  1.00  0.00     0.135 A 
ATOM     90  F   UNL A   1      38.412  32.370  38.367  1.00  0.00    -0.206 F 
ATOM     91  C   UNL A   1      38.720  34.494  39.318  1.00  0.00     0.059 A 
ATOM     92  C   UNL A   1      40.069  36.151  38.161  1.00  0.00     0.059 A 
ATOM     93  F   UNL A   1      41.034  35.622  36.089  1.00  0.00    -0.206 F 
ATOM     94  C   UNL A   1      39.279  35.772  39.246  1.00  0.00     0.060 A 
BRANCH  94  95
ATOM     95  S   UNL A   1      38.986  36.922  40.606  1.00  0.00     0.124 S 
ATOM     96  O   UNL A   1      38.309  36.065  41.573  1.00  0.00    -0.237 OA
ATOM     97  O   UNL A   1      40.339  37.336  40.964  1.00  0.00    -0.237 OA
ATOM     98  O   UNL A   1      38.159  37.961  39.999  1.00  0.00    -0.744 OA
ENDBRANCH  94  95
ENDBRANCH  62  87
ENDBRANCH  36  37
ENDBRANCH  28  31
ENDBRANCH  26  27
ENDBRANCH   1  26
TORSDOF 17
ENDMDL
MODEL 3
REMARK VINA RESULT:     -11.6      1.437      8.500
REMARK SMILES Cc1cc(F)c([C@H](O)[C@H]2CCCC[C@@H]2C(=O)NCCCCNC(=O)c2ccc(-c3c4nc(c(-c5c(F)cc(S(=O)(=O)[O-])cc5F)c5ccc([nH]5)c(-c5c(F)cc(S(=O)(=O)[O-])cc5F)c5nc(c(-c6c(F)cc(S(=O)(=O)[O-])cc6F)c6ccc3[nH]6)C=C5)C=C4)cc2)cc1F
REMARK SMILES IDX 20 1 19 2 18 3 17 4 15 5 16 6 14 8 9 9 10 10 11 11 13 12
REMARK SMILES IDX 12 13 7 14 6 15 1 16 2 17 3 18 92 19 4 20 91 21 93 22 5 23
REMARK SMILES IDX 8 24 21 26 22 27 23 28 24 30 25 31 26 32 90 33 27 34 89 35
REMARK SMILES IDX 28 36 29 37 30 38 83 39 31 40 88 41 82 42 84 43 32 44 87 45
REMARK SMILES IDX 81 46 80 47 33 49 67 50 46 51 66 52 47 53 50 54 65 55 85 56
REMARK SMILES IDX 48 57 49 58 64 60 86 61 51 62 34 63 35 64 44 65 36 66 37 67
REMARK SMILES IDX 43 68 45 69 38 70 39 71 40 72 41 73 42 74 68 75 69 76 78 77
REMARK SMILES IDX 70 78 71 79 77 80 79 81 72 82 73 83 74 84 75 85 76 86 52 87
REMARK SMILES IDX 53 88 62 89 54 90 55 91 61 92 63 93 56 94 57 95 58 96 59 97
REMARK SMILES IDX 60 98
REMARK H PARENT 17 7 8 25 22 29 84 48 50 59
REMARK Flexibility Score: inf
ROOT
ATOM      1  C   UNL A   1      32.458  29.392  25.818  1.00  0.00     0.023 C 
ENDROOT
BRANCH   1   2
ATOM      2  C   UNL A   1      33.094  29.227  24.442  1.00  0.00     0.023 C 
BRANCH   2   3
ATOM      3  C   UNL A   1      33.956  27.977  24.282  1.00  0.00     0.116 C 
BRANCH   3   4
ATOM      4  N   UNL A   1      33.963  27.440  22.946  1.00  0.00    -0.356 N 
ATOM      5  C   UNL A   1      33.506  26.272  22.437  1.00  0.00     0.223 C 
ATOM      6  O   UNL A   1      33.436  26.226  21.201  1.00  0.00    -0.275 OA
ATOM      7  H   UNL A   1      34.378  28.034  22.278  1.00  0.00     0.163 HD
BRANCH   5   8
ATOM      8  C   UNL A   1      33.208  24.988  23.245  1.00  0.00     0.084 C 
ATOM      9  C   UNL A   1      32.219  25.020  24.448  1.00  0.00     0.035 C 
ATOM     10  C   UNL A   1      32.921  25.041  25.849  1.00  0.00     0.007 C 
ATOM     11  C   UNL A   1      34.210  24.233  25.953  1.00  0.00     0.000 C 
ATOM     12  C   UNL A   1      34.488  24.181  23.469  1.00  0.00     0.014 C 
ATOM     13  C   UNL A   1      35.160  24.462  24.794  1.00  0.00     0.001 C 
BRANCH   9  14
ATOM     14  C   UNL A   1      31.238  23.793  24.479  1.00  0.00     0.151 C 
BRANCH  14  15
ATOM     15  C   UNL A   1      31.662  22.380  24.176  1.00  0.00     0.019 A 
ATOM     16  C   UNL A   1      32.702  18.339  23.009  1.00  0.00     0.047 C 
ATOM     17  C   UNL A   1      32.388  19.742  23.428  1.00  0.00    -0.012 A 
ATOM     18  C   UNL A   1      32.427  20.143  24.769  1.00  0.00     0.046 A 
ATOM     19  C   UNL A   1      32.034  20.685  22.466  1.00  0.00     0.126 A 
ATOM     20  C   UNL A   1      32.090  21.453  25.128  1.00  0.00     0.129 A 
ATOM     21  C   UNL A   1      31.677  21.980  22.825  1.00  0.00     0.049 A 
ATOM     22  F   UNL A   1      32.023  20.349  21.167  1.00  0.00    -0.207 F 
ATOM     23  F   UNL A   1      32.168  21.799  26.419  1.00  0.00    -0.207 F 
ENDBRANCH  14  15
BRANCH  14  24
ATOM     24  O   UNL A   1      30.162  24.031  23.559  1.00  0.00    -0.388 OA
ATOM     25  H   UNL A   1      29.922  24.970  23.578  1.00  0.00     0.211 HD
ENDBRANCH  14  24
ENDBRANCH   9  14
ENDBRANCH   5   8
ENDBRANCH   3   4
ENDBRANCH   2   3
ENDBRANCH   1   2
BRANCH   1  26
ATOM     26  C   UNL A   1      33.406  29.284  27.006  1.00  0.00     0.116 C 
BRANCH  26  27
ATOM     27  N   UNL A   1      33.490  30.478  27.839  1.00  0.00    -0.352 N 
ATOM     28  C   UNL A   1      34.589  30.943  28.544  1.00  0.00     0.251 C 
ATOM     29  H   UNL A   1      32.669  31.018  27.909  1.00  0.00     0.163 HD
ATOM     30  O   UNL A   1      34.530  31.946  29.224  1.00  0.00    -0.269 OA
BRANCH  28  31
ATOM     31  C   UNL A   1      35.825  30.126  28.487  1.00  0.00     0.039 A 
ATOM     32  C   UNL A   1      36.303  29.526  29.651  1.00  0.00     0.014 A 
ATOM     33  C   UNL A   1      36.601  30.159  27.326  1.00  0.00     0.014 A 
ATOM     34  C   UNL A   1      37.646  29.180  29.723  1.00  0.00     0.010 A 
ATOM     35  C   UNL A   1      37.923  29.706  27.376  1.00  0.00     0.010 A 
ATOM     36  C   UNL A   1      38.482  29.290  28.595  1.00  0.00    -0.014 A 
BRANCH  36  37
ATOM     37  C   UNL A   1      39.942  29.031  28.740  1.00  0.00     0.031 A 
ATOM     38  C   UNL A   1      40.848  30.047  29.398  1.00  0.00     0.074 A 
ATOM     39  C   UNL A   1      40.437  27.833  28.371  1.00  0.00     0.049 A 
ATOM     40  N   UNL A   1      42.144  29.997  29.581  1.00  0.00    -0.248 NA
ATOM     41  C   UNL A   1      40.226  31.277  29.915  1.00  0.00     0.031 C 
ATOM     42  C   UNL A   1      39.658  26.749  27.765  1.00  0.00     0.029 A 
ATOM     43  N   UNL A   1      41.697  27.306  28.490  1.00  0.00    -0.354 N 
ATOM     44  C   UNL A   1      42.494  31.192  30.203  1.00  0.00     0.074 A 
ATOM     45  C   UNL A   1      41.278  31.958  30.354  1.00  0.00     0.031 C 
ATOM     46  C   UNL A   1      40.434  25.663  27.646  1.00  0.00     0.029 A 
ATOM     47  C   UNL A   1      41.785  25.997  28.081  1.00  0.00     0.049 A 
ATOM     48  H   UNL A   1      42.465  27.817  28.836  1.00  0.00     0.167 HD
ATOM     49  C   UNL A   1      43.716  31.607  30.617  1.00  0.00     0.037 A 
ATOM     50  C   UNL A   1      42.838  25.160  28.039  1.00  0.00     0.037 A 
ATOM     51  C   UNL A   1      44.920  30.823  30.504  1.00  0.00     0.049 A 
ATOM     52  C   UNL A   1      44.186  25.660  28.467  1.00  0.00     0.074 A 
ATOM     53  C   UNL A   1      46.210  31.168  30.870  1.00  0.00     0.029 A 
ATOM     54  N   UNL A   1      44.978  29.528  30.012  1.00  0.00    -0.354 N 
ATOM     55  N   UNL A   1      44.508  26.826  28.972  1.00  0.00    -0.248 NA
ATOM     56  C   UNL A   1      45.320  24.743  28.290  1.00  0.00     0.031 C 
ATOM     57  C   UNL A   1      47.052  30.088  30.582  1.00  0.00     0.029 A 
ATOM     58  C   UNL A   1      46.281  29.061  30.064  1.00  0.00     0.049 A 
ATOM     59  H   UNL A   1      44.208  29.016  29.676  1.00  0.00     0.167 HD
ATOM     60  C   UNL A   1      45.882  26.782  29.173  1.00  0.00     0.074 A 
ATOM     61  C   UNL A   1      46.326  25.467  28.760  1.00  0.00     0.031 C 
ATOM     62  C   UNL A   1      46.704  27.749  29.648  1.00  0.00     0.037 A 
BRANCH  49  63
ATOM     63  C   UNL A   1      43.831  32.974  31.233  1.00  0.00     0.058 A 
ATOM     64  C   UNL A   1      44.048  34.116  30.448  1.00  0.00     0.135 A 
ATOM     65  C   UNL A   1      43.630  33.154  32.611  1.00  0.00     0.135 A 
ATOM     66  F   UNL A   1      44.264  33.998  29.128  1.00  0.00    -0.206 F 
ATOM     67  C   UNL A   1      44.064  35.391  31.008  1.00  0.00     0.059 A 
ATOM     68  C   UNL A   1      43.623  34.421  33.191  1.00  0.00     0.059 A 
ATOM     69  F   UNL A   1      43.418  32.095  33.407  1.00  0.00    -0.206 F 
ATOM     70  C   UNL A   1      43.846  35.534  32.380  1.00  0.00     0.060 A 
BRANCH  70  71
ATOM     71  S   UNL A   1      43.835  37.197  33.083  1.00  0.00     0.124 S 
ATOM     72  O   UNL A   1      43.730  38.020  31.882  1.00  0.00    -0.237 OA
ATOM     73  O   UNL A   1      42.652  37.168  33.936  1.00  0.00    -0.237 OA
ATOM     74  O   UNL A   1      45.111  37.277  33.788  1.00  0.00    -0.744 OA
ENDBRANCH  70  71
ENDBRANCH  49  63
BRANCH  50  75
ATOM     75  C   UNL A   1      42.661  23.768  27.553  1.00  0.00     0.058 A 
ATOM     76  C   UNL A   1      42.705  23.474  26.183  1.00  0.00     0.135 A 
ATOM     77  C   UNL A   1      42.464  22.705  28.448  1.00  0.00     0.135 A 
ATOM     78  F   UNL A   1      42.886  24.460  25.291  1.00  0.00    -0.206 F 
ATOM     79  C   UNL A   1      42.548  22.174  25.715  1.00  0.00     0.059 A 
ATOM     80  C   UNL A   1      42.330  21.395  28.005  1.00  0.00     0.059 A 
ATOM     81  F   UNL A   1      42.430  22.935  29.770  1.00  0.00    -0.206 F 
ATOM     82  C   UNL A   1      42.363  21.141  26.634  1.00  0.00     0.060 A 
BRANCH  82  83
ATOM     83  S   UNL A   1      42.208  19.448  26.025  1.00  0.00     0.124 S 
ATOM     84  O   UNL A   1      40.768  19.341  25.823  1.00  0.00    -0.237 OA
ATOM     85  O   UNL A   1      43.023  19.480  24.815  1.00  0.00    -0.237 OA
ATOM     86  O   UNL A   1      42.756  18.650  27.118  1.00  0.00    -0.744 OA
ENDBRANCH  82  83
ENDBRANCH  50  75
BRANCH  62  87
ATOM     87  C   UNL A   1      48.162  27.417  29.753  1.00  0.00     0.058 A 
ATOM     88  C   UNL A   1      49.077  27.840  28.778  1.00  0.00     0.135 A 
ATOM     89  C   UNL A   1      48.655  26.706  30.859  1.00  0.00     0.135 A 
ATOM     90  F   UNL A   1      48.650  28.514  27.699  1.00  0.00    -0.206 F 
ATOM     91  C   UNL A   1      50.433  27.555  28.886  1.00  0.00     0.059 A 
ATOM     92  C   UNL A   1      50.010  26.427  30.997  1.00  0.00     0.059 A 
ATOM     93  F   UNL A   1      47.817  26.286  31.820  1.00  0.00    -0.206 F 
ATOM     94  C   UNL A   1      50.891  26.847  30.000  1.00  0.00     0.060 A 
BRANCH  94  95
ATOM     95  S   UNL A   1      52.659  26.512  30.144  1.00  0.00     0.124 S 
ATOM     96  O   UNL A   1      52.683  25.519  31.212  1.00  0.00    -0.237 OA
ATOM     97  O   UNL A   1      52.994  26.019  28.811  1.00  0.00    -0.237 OA
ATOM     98  O   UNL A   1      53.223  27.816  30.483  1.00  0.00    -0.744 OA
ENDBRANCH  94  95
ENDBRANCH  62  87
ENDBRANCH  36  37
ENDBRANCH  28  31
ENDBRANCH  26  27
ENDBRANCH   1  26
TORSDOF 17
ENDMDL
