MODEL 1
REMARK VINA RESULT:     -12.1      0.000      0.000
REMARK SMILES O=C(NCCCCNC(=O)c1ccc(OC[C@H]2C[C@H]3CC[C@@H]2C3)c(Cl)c1)c1ccc(-c2c3nc(c(-c4c(F)cc(S(=O)(=O)[O-])cc4F)c4ccc([nH]4)c(-c4c(F)cc(S(=O)(=O)[O-])cc4F)c4nc(c(-c5c(F)cc(S(=O)(=O)[O-])cc5F)c5ccc2[nH]5)C=C4)C=C3)cc1
REMARK SMILES IDX 5 1 4 2 3 3 1 4 2 5 27 7 28 8 92 9 29 10 91 11 30 12 31 13
REMARK SMILES IDX 32 14 85 15 33 16 90 17 84 18 86 19 34 20 89 21 83 22 82 23
REMARK SMILES IDX 35 25 69 26 48 27 68 28 49 29 52 30 67 31 87 32 50 33 51 34
REMARK SMILES IDX 66 36 88 37 53 38 36 39 37 40 46 41 38 42 39 43 45 44 47 45
REMARK SMILES IDX 40 46 41 47 42 48 43 49 44 50 70 51 71 52 80 53 72 54 73 55
REMARK SMILES IDX 79 56 81 57 74 58 75 59 76 60 77 61 78 62 54 63 55 64 64 65
REMARK SMILES IDX 56 66 57 67 63 68 65 69 58 70 59 71 60 72 61 73 62 74 6 75
REMARK SMILES IDX 7 76 8 77 9 78 10 80 11 81 12 82 26 83 13 84 24 85 14 86
REMARK SMILES IDX 25 87 15 88 16 89 17 90 18 91 22 92 19 93 21 94 23 95 20 96
REMARK H PARENT 3 6 86 24 52 35 8 79
REMARK Flexibility Score: inf
ROOT
ATOM      1  C   UNL A   1      37.190  23.719  25.500  1.00  0.00     0.023 C 
ENDROOT
BRANCH   1   2
ATOM      2  C   UNL A   1      38.221  24.090  26.561  1.00  0.00     0.116 C 
BRANCH   2   3
ATOM      3  N   UNL A   1      39.589  24.037  26.071  1.00  0.00    -0.352 N 
ATOM      4  O   UNL A   1      41.726  24.712  25.819  1.00  0.00    -0.269 OA
ATOM      5  C   UNL A   1      40.660  24.826  26.418  1.00  0.00     0.251 C 
ATOM      6  H   UNL A   1      39.774  23.339  25.401  1.00  0.00     0.163 HD
BRANCH   5   7
ATOM      7  C   UNL A   1      40.512  25.836  27.490  1.00  0.00     0.039 A 
ATOM      8  C   UNL A   1      41.356  26.948  27.548  1.00  0.00     0.014 A 
ATOM      9  C   UNL A   1      39.516  25.657  28.455  1.00  0.00     0.014 A 
ATOM     10  C   UNL A   1      41.286  27.810  28.638  1.00  0.00     0.010 A 
ATOM     11  C   UNL A   1      39.404  26.563  29.513  1.00  0.00     0.010 A 
ATOM     12  C   UNL A   1      40.308  27.629  29.629  1.00  0.00    -0.014 A 
BRANCH  12  13
ATOM     13  C   UNL A   1      40.215  28.599  30.748  1.00  0.00     0.031 A 
ATOM     14  C   UNL A   1      41.114  28.492  31.948  1.00  0.00     0.074 A 
ATOM     15  C   UNL A   1      39.312  29.596  30.665  1.00  0.00     0.049 A 
ATOM     16  N   UNL A   1      41.172  29.264  33.004  1.00  0.00    -0.248 NA
ATOM     17  C   UNL A   1      42.065  27.371  31.973  1.00  0.00     0.031 C 
ATOM     18  C   UNL A   1      38.368  29.786  29.560  1.00  0.00     0.029 A 
ATOM     19  N   UNL A   1      39.045  30.639  31.513  1.00  0.00    -0.354 N 
ATOM     20  C   UNL A   1      42.146  28.714  33.827  1.00  0.00     0.074 A 
ATOM     21  C   UNL A   1      42.644  27.531  33.156  1.00  0.00     0.031 C 
ATOM     22  C   UNL A   1      37.648  30.894  29.784  1.00  0.00     0.029 A 
ATOM     23  C   UNL A   1      38.046  31.469  31.064  1.00  0.00     0.049 A 
ATOM     24  H   UNL A   1      39.524  30.781  32.361  1.00  0.00     0.167 HD
ATOM     25  C   UNL A   1      42.589  29.159  35.028  1.00  0.00     0.037 A 
ATOM     26  C   UNL A   1      37.500  32.563  31.625  1.00  0.00     0.037 A 
ATOM     27  C   UNL A   1      42.105  30.349  35.680  1.00  0.00     0.049 A 
ATOM     28  C   UNL A   1      38.017  33.044  32.947  1.00  0.00     0.074 A 
ATOM     29  C   UNL A   1      42.525  30.910  36.875  1.00  0.00     0.029 A 
ATOM     30  N   UNL A   1      41.090  31.162  35.195  1.00  0.00    -0.354 N 
ATOM     31  N   UNL A   1      38.968  32.533  33.692  1.00  0.00    -0.248 NA
ATOM     32  C   UNL A   1      37.389  34.247  33.508  1.00  0.00     0.031 C 
ATOM     33  C   UNL A   1      41.744  32.043  37.127  1.00  0.00     0.029 A 
ATOM     34  C   UNL A   1      40.857  32.207  36.074  1.00  0.00     0.049 A 
ATOM     35  H   UNL A   1      40.605  31.017  34.350  1.00  0.00     0.167 HD
ATOM     36  C   UNL A   1      39.054  33.353  34.810  1.00  0.00     0.074 A 
ATOM     37  C   UNL A   1      38.073  34.406  34.633  1.00  0.00     0.031 C 
ATOM     38  C   UNL A   1      39.869  33.240  35.887  1.00  0.00     0.037 A 
BRANCH  25  39
ATOM     39  C   UNL A   1      43.641  28.344  35.726  1.00  0.00     0.058 A 
ATOM     40  C   UNL A   1      43.305  27.312  36.616  1.00  0.00     0.135 A 
ATOM     41  C   UNL A   1      45.004  28.577  35.477  1.00  0.00     0.135 A 
ATOM     42  F   UNL A   1      42.018  27.056  36.898  1.00  0.00    -0.206 F 
ATOM     43  C   UNL A   1      44.282  26.558  37.257  1.00  0.00     0.059 A 
ATOM     44  C   UNL A   1      45.998  27.823  36.093  1.00  0.00     0.059 A 
ATOM     45  F   UNL A   1      45.379  29.552  34.634  1.00  0.00    -0.206 F 
ATOM     46  C   UNL A   1      45.628  26.825  36.995  1.00  0.00     0.060 A 
BRANCH  46  47
ATOM     47  S   UNL A   1      46.889  25.850  37.842  1.00  0.00     0.124 S 
ATOM     48  O   UNL A   1      47.407  26.820  38.802  1.00  0.00    -0.237 OA
ATOM     49  O   UNL A   1      46.112  24.752  38.408  1.00  0.00    -0.237 OA
ATOM     50  O   UNL A   1      47.806  25.477  36.770  1.00  0.00    -0.744 OA
ENDBRANCH  46  47
ENDBRANCH  25  39
BRANCH  26  51
ATOM     51  C   UNL A   1      36.397  33.265  30.920  1.00  0.00     0.058 A 
ATOM     52  C   UNL A   1      35.087  33.230  31.414  1.00  0.00     0.135 A 
ATOM     53  C   UNL A   1      36.651  34.037  29.777  1.00  0.00     0.135 A 
ATOM     54  F   UNL A   1      34.800  32.502  32.504  1.00  0.00    -0.206 F 
ATOM     55  C   UNL A   1      34.061  33.941  30.801  1.00  0.00     0.059 A 
ATOM     56  C   UNL A   1      35.647  34.773  29.158  1.00  0.00     0.059 A 
ATOM     57  F   UNL A   1      37.895  34.115  29.280  1.00  0.00    -0.206 F 
ATOM     58  C   UNL A   1      34.353  34.716  29.675  1.00  0.00     0.060 A 
BRANCH  58  59
ATOM     59  S   UNL A   1      33.039  35.708  28.934  1.00  0.00     0.124 S 
ATOM     60  O   UNL A   1      32.246  36.062  30.104  1.00  0.00    -0.237 OA
ATOM     61  O   UNL A   1      33.784  36.799  28.313  1.00  0.00    -0.237 OA
ATOM     62  O   UNL A   1      32.410  34.780  27.999  1.00  0.00    -0.744 OA
ENDBRANCH  58  59
ENDBRANCH  26  51
BRANCH  38  63
ATOM     63  C   UNL A   1      39.732  34.284  36.956  1.00  0.00     0.058 A 
ATOM     64  C   UNL A   1      39.009  34.032  38.132  1.00  0.00     0.135 A 
ATOM     65  C   UNL A   1      40.355  35.534  36.819  1.00  0.00     0.135 A 
ATOM     66  F   UNL A   1      38.387  32.855  38.304  1.00  0.00    -0.206 F 
ATOM     67  C   UNL A   1      38.892  34.994  39.130  1.00  0.00     0.059 A 
ATOM     68  C   UNL A   1      40.267  36.503  37.813  1.00  0.00     0.059 A 
ATOM     69  F   UNL A   1      41.063  35.819  35.715  1.00  0.00    -0.206 F 
ATOM     70  C   UNL A   1      39.523  36.228  38.961  1.00  0.00     0.060 A 
BRANCH  70  71
ATOM     71  S   UNL A   1      39.390  37.462  40.272  1.00  0.00     0.124 S 
ATOM     72  O   UNL A   1      40.792  37.782  40.515  1.00  0.00    -0.237 OA
ATOM     73  O   UNL A   1      38.601  38.513  39.638  1.00  0.00    -0.237 OA
ATOM     74  O   UNL A   1      38.713  36.740  41.346  1.00  0.00    -0.744 OA
ENDBRANCH  70  71
ENDBRANCH  38  63
ENDBRANCH  12  13
ENDBRANCH   5   7
ENDBRANCH   2   3
ENDBRANCH   1   2
BRANCH   1  75
ATOM     75  C   UNL A   1      36.749  22.254  25.492  1.00  0.00     0.023 C 
BRANCH  75  76
ATOM     76  C   UNL A   1      35.411  21.983  26.173  1.00  0.00     0.116 C 
BRANCH  76  77
ATOM     77  N   UNL A   1      34.932  20.632  25.929  1.00  0.00    -0.352 N 
ATOM     78  C   UNL A   1      33.776  20.242  25.306  1.00  0.00     0.251 C 
ATOM     79  H   UNL A   1      35.513  19.905  26.252  1.00  0.00     0.163 HD
ATOM     80  O   UNL A   1      33.509  19.063  25.106  1.00  0.00    -0.269 OA
BRANCH  78  81
ATOM     81  C   UNL A   1      32.850  21.285  24.850  1.00  0.00     0.041 A 
ATOM     82  C   UNL A   1      32.992  21.796  23.562  1.00  0.00     0.018 A 
ATOM     83  C   UNL A   1      31.915  21.813  25.740  1.00  0.00     0.038 A 
ATOM     84  C   UNL A   1      32.179  22.855  23.165  1.00  0.00     0.049 A 
ATOM     85  C   UNL A   1      31.126  22.899  25.347  1.00  0.00     0.083 A 
ATOM     86  C   UNL A   1      31.226  23.398  24.040  1.00  0.00     0.137 A 
ATOM     87  Cl  UNL A   1      30.167  23.637  26.577  1.00  0.00    -0.080 Cl
BRANCH  86  88
ATOM     88  O   UNL A   1      30.572  24.479  23.525  1.00  0.00    -0.492 OA
BRANCH  88  89
ATOM     89  C   UNL A   1      31.331  25.488  22.852  1.00  0.00     0.233 C 
BRANCH  89  90
ATOM     90  C   UNL A   1      31.366  26.854  23.552  1.00  0.00     0.030 C 
ATOM     91  C   UNL A   1      30.598  26.897  24.896  1.00  0.00     0.011 C 
ATOM     92  C   UNL A   1      32.793  27.294  23.991  1.00  0.00    -0.004 C 
ATOM     93  C   UNL A   1      31.671  27.335  25.908  1.00  0.00    -0.010 C 
ATOM     94  C   UNL A   1      33.487  26.196  24.815  1.00  0.00     0.004 C 
ATOM     95  C   UNL A   1      32.486  28.324  25.080  1.00  0.00     0.007 C 
ATOM     96  C   UNL A   1      32.665  26.176  26.111  1.00  0.00     0.004 C 
ENDBRANCH  89  90
ENDBRANCH  88  89
ENDBRANCH  86  88
ENDBRANCH  78  81
ENDBRANCH  76  77
ENDBRANCH  75  76
ENDBRANCH   1  75
TORSDOF 17
ENDMDL
MODEL 2
REMARK VINA RESULT:     -12.1      4.826     10.354
REMARK SMILES O=C(NCCCCNC(=O)c1ccc(OC[C@H]2C[C@H]3CC[C@@H]2C3)c(Cl)c1)c1ccc(-c2c3nc(c(-c4c(F)cc(S(=O)(=O)[O-])cc4F)c4ccc([nH]4)c(-c4c(F)cc(S(=O)(=O)[O-])cc4F)c4nc(c(-c5c(F)cc(S(=O)(=O)[O-])cc5F)c5ccc2[nH]5)C=C4)C=C3)cc1
REMARK SMILES IDX 5 1 4 2 3 3 1 4 2 5 27 7 28 8 92 9 29 10 91 11 30 12 31 13
REMARK SMILES IDX 32 14 85 15 33 16 90 17 84 18 86 19 34 20 89 21 83 22 82 23
REMARK SMILES IDX 35 25 69 26 48 27 68 28 49 29 52 30 67 31 87 32 50 33 51 34
REMARK SMILES IDX 66 36 88 37 53 38 36 39 37 40 46 41 38 42 39 43 45 44 47 45
REMARK SMILES IDX 40 46 41 47 42 48 43 49 44 50 70 51 71 52 80 53 72 54 73 55
REMARK SMILES IDX 79 56 81 57 74 58 75 59 76 60 77 61 78 62 54 63 55 64 64 65
REMARK SMILES IDX 56 66 57 67 63 68 65 69 58 70 59 71 60 72 61 73 62 74 6 75
REMARK SMILES IDX 7 76 8 77 9 78 10 80 11 81 12 82 26 83 13 84 24 85 14 86
REMARK SMILES IDX 25 87 15 88 16 89 17 90 18 91 22 92 19 93 21 94 23 95 20 96
REMARK H PARENT 3 6 86 24 52 35 8 79
REMARK Flexibility Score: inf
ROOT
ATOM      1  C   UNL A   1      33.844  27.994  25.413  1.00  0.00     0.023 C 
ENDROOT
BRANCH   1   2
ATOM      2  C   UNL A   1      33.748  28.154  26.927  1.00  0.00     0.116 C 
BRANCH   2   3
ATOM      3  N   UNL A   1      33.494  29.524  27.342  1.00  0.00    -0.352 N 
ATOM      4  O   UNL A   1      33.917  31.492  28.357  1.00  0.00    -0.269 OA
ATOM      5  C   UNL A   1      34.338  30.402  27.980  1.00  0.00     0.251 C 
ATOM      6  H   UNL A   1      32.595  29.870  27.138  1.00  0.00     0.163 HD
BRANCH   5   7
ATOM      7  C   UNL A   1      35.742  30.013  28.240  1.00  0.00     0.039 A 
ATOM      8  C   UNL A   1      36.134  29.542  29.496  1.00  0.00     0.014 A 
ATOM      9  C   UNL A   1      36.679  30.132  27.209  1.00  0.00     0.014 A 
ATOM     10  C   UNL A   1      37.481  29.311  29.756  1.00  0.00     0.010 A 
ATOM     11  C   UNL A   1      38.022  29.834  27.455  1.00  0.00     0.010 A 
ATOM     12  C   UNL A   1      38.438  29.451  28.738  1.00  0.00    -0.014 A 
BRANCH  12  13
ATOM     13  C   UNL A   1      39.860  29.139  29.025  1.00  0.00     0.031 A 
ATOM     14  C   UNL A   1      40.758  30.142  29.694  1.00  0.00     0.074 A 
ATOM     15  C   UNL A   1      40.335  27.924  28.687  1.00  0.00     0.049 A 
ATOM     16  N   UNL A   1      42.018  30.023  30.029  1.00  0.00    -0.248 NA
ATOM     17  C   UNL A   1      40.171  31.449  30.023  1.00  0.00     0.031 C 
ATOM     18  C   UNL A   1      39.563  26.878  28.010  1.00  0.00     0.029 A 
ATOM     19  N   UNL A   1      41.570  27.359  28.872  1.00  0.00    -0.354 N 
ATOM     20  C   UNL A   1      42.382  31.241  30.587  1.00  0.00     0.074 A 
ATOM     21  C   UNL A   1      41.213  32.095  30.531  1.00  0.00     0.031 C 
ATOM     22  C   UNL A   1      40.333  25.790  27.864  1.00  0.00     0.029 A 
ATOM     23  C   UNL A   1      41.662  26.073  28.395  1.00  0.00     0.049 A 
ATOM     24  H   UNL A   1      42.318  27.828  29.305  1.00  0.00     0.167 HD
ATOM     25  C   UNL A   1      43.580  31.611  31.103  1.00  0.00     0.037 A 
ATOM     26  C   UNL A   1      42.702  25.220  28.375  1.00  0.00     0.037 A 
ATOM     27  C   UNL A   1      44.732  30.750  31.176  1.00  0.00     0.049 A 
ATOM     28  C   UNL A   1      44.011  25.647  28.966  1.00  0.00     0.074 A 
ATOM     29  C   UNL A   1      45.975  31.017  31.726  1.00  0.00     0.029 A 
ATOM     30  N   UNL A   1      44.786  29.456  30.680  1.00  0.00    -0.354 N 
ATOM     31  N   UNL A   1      44.325  26.791  29.526  1.00  0.00    -0.248 NA
ATOM     32  C   UNL A   1      45.109  24.673  28.923  1.00  0.00     0.031 C 
ATOM     33  C   UNL A   1      46.789  29.895  31.535  1.00  0.00     0.029 A 
ATOM     34  C   UNL A   1      46.045  28.917  30.893  1.00  0.00     0.049 A 
ATOM     35  H   UNL A   1      44.040  28.987  30.240  1.00  0.00     0.167 HD
ATOM     36  C   UNL A   1      45.657  26.674  29.903  1.00  0.00     0.074 A 
ATOM     37  C   UNL A   1      46.083  25.341  29.527  1.00  0.00     0.031 C 
ATOM     38  C   UNL A   1      46.455  27.592  30.503  1.00  0.00     0.037 A 
BRANCH  25  39
ATOM     39  C   UNL A   1      43.709  33.018  31.617  1.00  0.00     0.058 A 
ATOM     40  C   UNL A   1      43.438  33.342  32.956  1.00  0.00     0.135 A 
ATOM     41  C   UNL A   1      44.139  34.050  30.767  1.00  0.00     0.135 A 
ATOM     42  F   UNL A   1      43.011  32.396  33.806  1.00  0.00    -0.206 F 
ATOM     43  C   UNL A   1      43.562  34.645  33.428  1.00  0.00     0.059 A 
ATOM     44  C   UNL A   1      44.288  35.357  31.222  1.00  0.00     0.059 A 
ATOM     45  F   UNL A   1      44.413  33.794  29.478  1.00  0.00    -0.206 F 
ATOM     46  C   UNL A   1      43.981  35.648  32.551  1.00  0.00     0.060 A 
BRANCH  46  47
ATOM     47  S   UNL A   1      44.126  37.338  33.170  1.00  0.00     0.124 S 
ATOM     48  O   UNL A   1      44.070  38.105  31.929  1.00  0.00    -0.237 OA
ATOM     49  O   UNL A   1      42.960  37.457  34.040  1.00  0.00    -0.237 OA
ATOM     50  O   UNL A   1      45.415  37.339  33.852  1.00  0.00    -0.744 OA
ENDBRANCH  46  47
ENDBRANCH  25  39
BRANCH  26  51
ATOM     51  C   UNL A   1      42.526  23.878  27.765  1.00  0.00     0.058 A 
ATOM     52  C   UNL A   1      42.579  23.703  26.377  1.00  0.00     0.135 A 
ATOM     53  C   UNL A   1      42.369  22.738  28.568  1.00  0.00     0.135 A 
ATOM     54  F   UNL A   1      42.725  24.766  25.571  1.00  0.00    -0.206 F 
ATOM     55  C   UNL A   1      42.485  22.441  25.800  1.00  0.00     0.059 A 
ATOM     56  C   UNL A   1      42.294  21.464  28.017  1.00  0.00     0.059 A 
ATOM     57  F   UNL A   1      42.332  22.856  29.904  1.00  0.00    -0.206 F 
ATOM     58  C   UNL A   1      42.349  21.325  26.631  1.00  0.00     0.060 A 
BRANCH  58  59
ATOM     59  S   UNL A   1      42.317  19.681  25.885  1.00  0.00     0.124 S 
ATOM     60  O   UNL A   1      43.313  19.820  24.829  1.00  0.00    -0.237 OA
ATOM     61  O   UNL A   1      42.690  18.823  27.005  1.00  0.00    -0.237 OA
ATOM     62  O   UNL A   1      40.934  19.546  25.438  1.00  0.00    -0.744 OA
ENDBRANCH  58  59
ENDBRANCH  26  51
BRANCH  38  63
ATOM     63  C   UNL A   1      47.869  27.180  30.789  1.00  0.00     0.058 A 
ATOM     64  C   UNL A   1      48.190  26.410  31.917  1.00  0.00     0.135 A 
ATOM     65  C   UNL A   1      48.907  27.530  29.911  1.00  0.00     0.135 A 
ATOM     66  F   UNL A   1      47.233  26.059  32.790  1.00  0.00    -0.206 F 
ATOM     67  C   UNL A   1      49.498  26.015  32.176  1.00  0.00     0.059 A 
ATOM     68  C   UNL A   1      50.219  27.130  30.141  1.00  0.00     0.059 A 
ATOM     69  F   UNL A   1      48.649  28.260  28.816  1.00  0.00    -0.206 F 
ATOM     70  C   UNL A   1      50.507  26.382  31.284  1.00  0.00     0.060 A 
BRANCH  70  71
ATOM     71  S   UNL A   1      52.199  25.844  31.612  1.00  0.00     0.124 S 
ATOM     72  O   UNL A   1      51.985  24.481  32.087  1.00  0.00    -0.237 OA
ATOM     73  O   UNL A   1      52.830  25.966  30.302  1.00  0.00    -0.237 OA
ATOM     74  O   UNL A   1      52.666  26.794  32.617  1.00  0.00    -0.744 OA
ENDBRANCH  70  71
ENDBRANCH  38  63
ENDBRANCH  12  13
ENDBRANCH   5   7
ENDBRANCH   2   3
ENDBRANCH   1   2
BRANCH   1  75
ATOM     75  C   UNL A   1      33.307  29.167  24.591  1.00  0.00     0.023 C 
BRANCH  75  76
ATOM     76  C   UNL A   1      33.346  28.961  23.079  1.00  0.00     0.116 C 
BRANCH  76  77
ATOM     77  N   UNL A   1      32.080  29.291  22.445  1.00  0.00    -0.352 N 
ATOM     78  C   UNL A   1      30.947  28.524  22.363  1.00  0.00     0.251 C 
ATOM     79  H   UNL A   1      32.029  30.179  22.021  1.00  0.00     0.163 HD
ATOM     80  O   UNL A   1      29.914  28.939  21.850  1.00  0.00    -0.269 OA
BRANCH  78  81
ATOM     81  C   UNL A   1      30.985  27.173  22.934  1.00  0.00     0.041 A 
ATOM     82  C   UNL A   1      31.461  26.124  22.151  1.00  0.00     0.018 A 
ATOM     83  C   UNL A   1      30.456  26.947  24.205  1.00  0.00     0.038 A 
ATOM     84  C   UNL A   1      31.404  24.827  22.657  1.00  0.00     0.049 A 
ATOM     85  C   UNL A   1      30.370  25.639  24.693  1.00  0.00     0.083 A 
ATOM     86  C   UNL A   1      30.883  24.576  23.935  1.00  0.00     0.137 A 
ATOM     87  Cl  UNL A   1      29.496  25.424  26.165  1.00  0.00    -0.080 Cl
BRANCH  86  88
ATOM     88  O   UNL A   1      30.824  23.248  24.244  1.00  0.00    -0.492 OA
BRANCH  88  89
ATOM     89  C   UNL A   1      32.046  22.512  24.360  1.00  0.00     0.233 C 
BRANCH  89  90
ATOM     90  C   UNL A   1      32.344  21.956  25.760  1.00  0.00     0.030 C 
ATOM     91  C   UNL A   1      33.651  21.130  25.847  1.00  0.00     0.011 C 
ATOM     92  C   UNL A   1      32.595  23.058  26.829  1.00  0.00    -0.004 C 
ATOM     93  C   UNL A   1      34.466  21.865  26.926  1.00  0.00    -0.010 C 
ATOM     94  C   UNL A   1      33.663  24.060  26.359  1.00  0.00     0.004 C 
ATOM     95  C   UNL A   1      33.372  22.289  27.900  1.00  0.00     0.007 C 
ATOM     96  C   UNL A   1      34.943  23.213  26.357  1.00  0.00     0.004 C 
ENDBRANCH  89  90
ENDBRANCH  88  89
ENDBRANCH  86  88
ENDBRANCH  78  81
ENDBRANCH  76  77
ENDBRANCH  75  76
ENDBRANCH   1  75
TORSDOF 17
ENDMDL
MODEL 3
REMARK VINA RESULT:     -12.0      6.792     12.214
REMARK SMILES O=C(NCCCCNC(=O)c1ccc(OC[C@H]2C[C@H]3CC[C@@H]2C3)c(Cl)c1)c1ccc(-c2c3nc(c(-c4c(F)cc(S(=O)(=O)[O-])cc4F)c4ccc([nH]4)c(-c4c(F)cc(S(=O)(=O)[O-])cc4F)c4nc(c(-c5c(F)cc(S(=O)(=O)[O-])cc5F)c5ccc2[nH]5)C=C4)C=C3)cc1
REMARK SMILES IDX 5 1 4 2 3 3 1 4 2 5 27 7 28 8 92 9 29 10 91 11 30 12 31 13
REMARK SMILES IDX 32 14 85 15 33 16 90 17 84 18 86 19 34 20 89 21 83 22 82 23
REMARK SMILES IDX 35 25 69 26 48 27 68 28 49 29 52 30 67 31 87 32 50 33 51 34
REMARK SMILES IDX 66 36 88 37 53 38 36 39 37 40 46 41 38 42 39 43 45 44 47 45
REMARK SMILES IDX 40 46 41 47 42 48 43 49 44 50 70 51 71 52 80 53 72 54 73 55
REMARK SMILES IDX 79 56 81 57 74 58 75 59 76 60 77 61 78 62 54 63 55 64 64 65
REMARK SMILES IDX 56 66 57 67 63 68 65 69 58 70 59 71 60 72 61 73 62 74 6 75
REMARK SMILES IDX 7 76 8 77 9 78 10 80 11 81 12 82 26 83 13 84 24 85 14 86
REMARK SMILES IDX 25 87 15 88 16 89 17 90 18 91 22 92 19 93 21 94 23 95 20 96
REMARK H PARENT 3 6 86 24 52 35 8 79
REMARK Flexibility Score: inf
ROOT
ATOM      1  C   UNL A   1      33.883  28.639  27.258  1.00  0.00     0.023 C 
ENDROOT
BRANCH   1   2
ATOM      2  C   UNL A   1      35.212  29.318  27.571  1.00  0.00     0.116 C 
BRANCH   2   3
ATOM      3  N   UNL A   1      35.202  30.040  28.832  1.00  0.00    -0.352 N 
ATOM      4  O   UNL A   1      36.024  30.803  30.788  1.00  0.00    -0.269 OA
ATOM      5  C   UNL A   1      36.240  30.262  29.707  1.00  0.00     0.251 C 
ATOM      6  H   UNL A   1      34.334  30.424  29.095  1.00  0.00     0.163 HD
BRANCH   5   7
ATOM      7  C   UNL A   1      37.605  29.815  29.354  1.00  0.00     0.039 A 
ATOM      8  C   UNL A   1      38.510  29.427  30.346  1.00  0.00     0.014 A 
ATOM      9  C   UNL A   1      37.984  29.793  28.009  1.00  0.00     0.014 A 
ATOM     10  C   UNL A   1      39.828  29.140  30.004  1.00  0.00     0.010 A 
ATOM     11  C   UNL A   1      39.291  29.439  27.661  1.00  0.00     0.010 A 
ATOM     12  C   UNL A   1      40.231  29.140  28.658  1.00  0.00    -0.014 A 
BRANCH  12  13
ATOM     13  C   UNL A   1      41.626  28.770  28.314  1.00  0.00     0.031 A 
ATOM     14  C   UNL A   1      42.731  29.788  28.342  1.00  0.00     0.074 A 
ATOM     15  C   UNL A   1      41.893  27.490  27.988  1.00  0.00     0.049 A 
ATOM     16  N   UNL A   1      44.004  29.628  28.084  1.00  0.00    -0.248 NA
ATOM     17  C   UNL A   1      42.361  31.167  28.696  1.00  0.00     0.031 C 
ATOM     18  C   UNL A   1      40.896  26.419  27.902  1.00  0.00     0.029 A 
ATOM     19  N   UNL A   1      43.074  26.869  27.677  1.00  0.00    -0.354 N 
ATOM     20  C   UNL A   1      44.584  30.882  28.223  1.00  0.00     0.074 A 
ATOM     21  C   UNL A   1      43.520  31.800  28.572  1.00  0.00     0.031 C 
ATOM     22  C   UNL A   1      41.512  25.270  27.592  1.00  0.00     0.029 A 
ATOM     23  C   UNL A   1      42.937  25.528  27.413  1.00  0.00     0.049 A 
ATOM     24  H   UNL A   1      43.938  27.340  27.647  1.00  0.00     0.167 HD
ATOM     25  C   UNL A   1      45.885  31.233  28.078  1.00  0.00     0.037 A 
ATOM     26  C   UNL A   1      43.852  24.609  27.055  1.00  0.00     0.037 A 
ATOM     27  C   UNL A   1      46.942  30.311  27.751  1.00  0.00     0.049 A 
ATOM     28  C   UNL A   1      45.287  25.019  26.916  1.00  0.00     0.074 A 
ATOM     29  C   UNL A   1      48.299  30.561  27.631  1.00  0.00     0.029 A 
ATOM     30  N   UNL A   1      46.763  28.960  27.489  1.00  0.00    -0.354 N 
ATOM     31  N   UNL A   1      45.823  26.203  27.091  1.00  0.00    -0.248 NA
ATOM     32  C   UNL A   1      46.242  23.973  26.530  1.00  0.00     0.031 C 
ATOM     33  C   UNL A   1      48.935  29.369  27.266  1.00  0.00     0.029 A 
ATOM     34  C   UNL A   1      47.979  28.368  27.189  1.00  0.00     0.049 A 
ATOM     35  H   UNL A   1      45.898  28.490  27.511  1.00  0.00     0.167 HD
ATOM     36  C   UNL A   1      47.179  26.045  26.838  1.00  0.00     0.074 A 
ATOM     37  C   UNL A   1      47.385  24.646  26.518  1.00  0.00     0.031 C 
ATOM     38  C   UNL A   1      48.164  26.977  26.863  1.00  0.00     0.037 A 
BRANCH  25  39
ATOM     39  C   UNL A   1      46.236  32.684  28.255  1.00  0.00     0.058 A 
ATOM     40  C   UNL A   1      46.145  33.600  27.195  1.00  0.00     0.135 A 
ATOM     41  C   UNL A   1      46.640  33.170  29.509  1.00  0.00     0.135 A 
ATOM     42  F   UNL A   1      45.777  33.185  25.974  1.00  0.00    -0.206 F 
ATOM     43  C   UNL A   1      46.469  34.942  27.365  1.00  0.00     0.059 A 
ATOM     44  C   UNL A   1      46.950  34.513  29.707  1.00  0.00     0.059 A 
ATOM     45  F   UNL A   1      46.743  32.337  30.556  1.00  0.00    -0.206 F 
ATOM     46  C   UNL A   1      46.877  35.389  28.624  1.00  0.00     0.060 A 
BRANCH  46  47
ATOM     47  S   UNL A   1      47.307  37.130  28.831  1.00  0.00     0.124 S 
ATOM     48  O   UNL A   1      48.698  37.034  29.264  1.00  0.00    -0.237 OA
ATOM     49  O   UNL A   1      47.098  37.669  27.491  1.00  0.00    -0.237 OA
ATOM     50  O   UNL A   1      46.365  37.594  29.843  1.00  0.00    -0.744 OA
ENDBRANCH  46  47
ENDBRANCH  25  39
BRANCH  26  51
ATOM     51  C   UNL A   1      43.415  23.212  26.804  1.00  0.00     0.058 A 
ATOM     52  C   UNL A   1      43.390  22.685  25.507  1.00  0.00     0.135 A 
ATOM     53  C   UNL A   1      43.080  22.361  27.868  1.00  0.00     0.135 A 
ATOM     54  F   UNL A   1      43.700  23.465  24.459  1.00  0.00    -0.206 F 
ATOM     55  C   UNL A   1      43.050  21.358  25.269  1.00  0.00     0.059 A 
ATOM     56  C   UNL A   1      42.757  21.025  27.658  1.00  0.00     0.059 A 
ATOM     57  F   UNL A   1      43.110  22.817  29.130  1.00  0.00    -0.206 F 
ATOM     58  C   UNL A   1      42.741  20.533  26.353  1.00  0.00     0.060 A 
BRANCH  58  59
ATOM     59  S   UNL A   1      42.387  18.789  26.050  1.00  0.00     0.124 S 
ATOM     60  O   UNL A   1      43.328  18.482  24.979  1.00  0.00    -0.237 OA
ATOM     61  O   UNL A   1      42.675  18.182  27.346  1.00  0.00    -0.237 OA
ATOM     62  O   UNL A   1      40.977  18.797  25.672  1.00  0.00    -0.744 OA
ENDBRANCH  58  59
ENDBRANCH  26  51
BRANCH  38  63
ATOM     63  C   UNL A   1      49.552  26.509  26.536  1.00  0.00     0.058 A 
ATOM     64  C   UNL A   1      50.064  26.601  25.233  1.00  0.00     0.135 A 
ATOM     65  C   UNL A   1      50.387  25.993  27.539  1.00  0.00     0.135 A 
ATOM     66  F   UNL A   1      49.299  27.077  24.238  1.00  0.00    -0.206 F 
ATOM     67  C   UNL A   1      51.355  26.180  24.931  1.00  0.00     0.059 A 
ATOM     68  C   UNL A   1      51.687  25.585  27.263  1.00  0.00     0.059 A 
ATOM     69  F   UNL A   1      49.943  25.891  28.802  1.00  0.00    -0.206 F 
ATOM     70  C   UNL A   1      52.158  25.671  25.953  1.00  0.00     0.060 A 
BRANCH  70  71
ATOM     71  S   UNL A   1      53.843  25.151  25.559  1.00  0.00     0.124 S 
ATOM     72  O   UNL A   1      54.364  26.336  24.886  1.00  0.00    -0.237 OA
ATOM     73  O   UNL A   1      54.404  24.873  26.878  1.00  0.00    -0.237 OA
ATOM     74  O   UNL A   1      53.645  23.980  24.710  1.00  0.00    -0.744 OA
ENDBRANCH  70  71
ENDBRANCH  38  63
ENDBRANCH  12  13
ENDBRANCH   5   7
ENDBRANCH   2   3
ENDBRANCH   1   2
BRANCH   1  75
ATOM     75  C   UNL A   1      32.831  29.525  26.587  1.00  0.00     0.023 C 
BRANCH  75  76
ATOM     76  C   UNL A   1      32.789  29.431  25.064  1.00  0.00     0.116 C 
BRANCH  76  77
ATOM     77  N   UNL A   1      31.547  29.950  24.514  1.00  0.00    -0.352 N 
ATOM     78  C   UNL A   1      30.557  29.263  23.862  1.00  0.00     0.251 C 
ATOM     79  H   UNL A   1      31.398  30.917  24.625  1.00  0.00     0.163 HD
ATOM     80  O   UNL A   1      29.521  29.804  23.493  1.00  0.00    -0.269 OA
BRANCH  78  81
ATOM     81  C   UNL A   1      30.752  27.828  23.625  1.00  0.00     0.041 A 
ATOM     82  C   UNL A   1      30.441  26.928  24.642  1.00  0.00     0.018 A 
ATOM     83  C   UNL A   1      31.333  27.399  22.431  1.00  0.00     0.038 A 
ATOM     84  C   UNL A   1      30.720  25.577  24.454  1.00  0.00     0.049 A 
ATOM     85  C   UNL A   1      31.642  26.046  22.262  1.00  0.00     0.083 A 
ATOM     86  C   UNL A   1      31.297  25.121  23.259  1.00  0.00     0.137 A 
ATOM     87  Cl  UNL A   1      32.566  25.638  20.863  1.00  0.00    -0.080 Cl
BRANCH  86  88
ATOM     88  O   UNL A   1      31.579  23.786  23.269  1.00  0.00    -0.492 OA
BRANCH  88  89
ATOM     89  C   UNL A   1      32.933  23.369  23.470  1.00  0.00     0.233 C 
BRANCH  89  90
ATOM     90  C   UNL A   1      33.237  22.778  24.855  1.00  0.00     0.030 C 
ATOM     91  C   UNL A   1      34.544  21.950  24.916  1.00  0.00     0.011 C 
ATOM     92  C   UNL A   1      33.493  23.854  25.949  1.00  0.00    -0.004 C 
ATOM     93  C   UNL A   1      35.364  22.658  26.009  1.00  0.00    -0.010 C 
ATOM     94  C   UNL A   1      34.560  24.867  25.499  1.00  0.00     0.004 C 
ATOM     95  C   UNL A   1      34.274  23.058  26.998  1.00  0.00     0.007 C 
ATOM     96  C   UNL A   1      35.839  24.019  25.471  1.00  0.00     0.004 C 
ENDBRANCH  89  90
ENDBRANCH  88  89
ENDBRANCH  86  88
ENDBRANCH  78  81
ENDBRANCH  76  77
ENDBRANCH  75  76
ENDBRANCH   1  75
TORSDOF 17
ENDMDL
