MODEL 1
REMARK VINA RESULT:     -10.9      0.000      0.000
REMARK SMILES COC(=O)c1ccc(C[N@@H+](CC(=O)NCCCCNC(=O)c2ccc(-c3c4nc(c(-c5c(F)cc(S(=O)(=O)[O-])cc5F)c5ccc([nH]5)c(-c5c(F)cc(S(=O)(=O)[O-])cc5F)c5nc(c(-c6c(F)cc(S(=O)(=O)[O-])cc6F)c6ccc3[nH]6)C=C5)C=C4)cc2)C(C)(C)C)cc1
REMARK SMILES IDX 15 1 14 2 12 3 13 4 11 6 10 7 9 9 8 10 5 11 6 12 93 13 7 14
REMARK SMILES IDX 92 15 3 16 4 17 2 18 1 19 88 20 89 21 90 22 91 23 16 24
REMARK SMILES IDX 17 25 18 26 19 27 20 28 21 30 22 31 23 32 87 33 24 34 86 35
REMARK SMILES IDX 25 36 26 37 27 38 80 39 28 40 85 41 79 42 81 43 29 44 84 45
REMARK SMILES IDX 78 46 77 47 30 49 64 50 43 51 63 52 44 53 47 54 62 55 82 56
REMARK SMILES IDX 45 57 46 58 61 60 83 61 48 62 31 63 32 64 41 65 33 66 34 67
REMARK SMILES IDX 40 68 42 69 35 70 36 71 37 72 38 73 39 74 65 75 66 76 75 77
REMARK SMILES IDX 67 78 68 79 74 80 76 81 69 82 70 83 71 84 72 85 73 86 49 87
REMARK SMILES IDX 50 88 59 89 51 90 52 91 58 92 60 93 53 94 54 95 55 96 56 97
REMARK SMILES IDX 57 98
REMARK H PARENT 14 5 10 8 19 29 81 48 47 59
REMARK Flexibility Score: inf
ROOT
ATOM      1  C   UNL A   1      32.159  28.207  23.913  1.00  0.00     0.116 C 
ENDROOT
BRANCH   1   2
ATOM      2  N   UNL A   1      32.994  27.478  22.978  1.00  0.00    -0.351 N 
ATOM      3  C   UNL A   1      33.103  26.146  22.700  1.00  0.00     0.275 C 
ATOM      4  O   UNL A   1      33.851  25.845  21.761  1.00  0.00    -0.269 OA
ATOM      5  H   UNL A   1      33.592  28.048  22.445  1.00  0.00     0.163 HD
BRANCH   3   6
ATOM      6  C   UNL A   1      32.308  25.049  23.434  1.00  0.00     0.364 C 
BRANCH   6   7
ATOM      7  N   UNL A   1      32.917  24.422  24.656  1.00  0.00    -0.319 N 
ATOM      8  H   UNL A   1      33.495  25.083  25.174  1.00  0.00     0.349 HD
BRANCH   7   9
ATOM      9  C   UNL A   1      33.864  23.395  24.225  1.00  0.00     0.299 C 
BRANCH   9  10
ATOM     10  C   UNL A   1      33.549  21.925  24.184  1.00  0.00     0.006 A 
ATOM     11  C   UNL A   1      33.043  19.174  23.905  1.00  0.00     0.060 A 
ATOM     12  C   UNL A   1      34.089  19.625  24.721  1.00  0.00     0.016 A 
ATOM     13  C   UNL A   1      32.250  20.101  23.222  1.00  0.00     0.016 A 
ATOM     14  C   UNL A   1      34.343  20.993  24.858  1.00  0.00     0.010 A 
ATOM     15  C   UNL A   1      32.507  21.462  23.358  1.00  0.00     0.010 A 
BRANCH  11  16
ATOM     16  C   UNL A   1      32.784  17.717  23.808  1.00  0.00     0.337 C 
ATOM     17  O   UNL A   1      33.221  17.010  22.907  1.00  0.00    -0.246 OA
BRANCH  16  18
ATOM     18  O   UNL A   1      32.009  17.309  24.840  1.00  0.00    -0.465 OA
ATOM     19  C   UNL A   1      32.651  16.435  25.766  1.00  0.00     0.282 C 
ENDBRANCH  16  18
ENDBRANCH  11  16
ENDBRANCH   9  10
ENDBRANCH   7   9
BRANCH   7  20
ATOM     20  C   UNL A   1      32.023  24.238  25.836  1.00  0.00     0.090 C 
ATOM     21  C   UNL A   1      30.714  23.466  25.569  1.00  0.00     0.078 C 
ATOM     22  C   UNL A   1      32.725  23.508  27.009  1.00  0.00     0.078 C 
ATOM     23  C   UNL A   1      31.658  25.631  26.414  1.00  0.00     0.078 C 
ENDBRANCH   7  20
ENDBRANCH   6   7
ENDBRANCH   3   6
ENDBRANCH   1   2
BRANCH   1  24
ATOM     24  C   UNL A   1      32.990  29.127  24.818  1.00  0.00     0.023 C 
BRANCH  24  25
ATOM     25  C   UNL A   1      33.918  28.466  25.813  1.00  0.00     0.023 C 
BRANCH  25  26
ATOM     26  C   UNL A   1      33.539  28.673  27.262  1.00  0.00     0.116 C 
BRANCH  26  27
ATOM     27  N   UNL A   1      33.549  30.068  27.693  1.00  0.00    -0.352 N 
ATOM     28  C   UNL A   1      34.599  30.788  28.221  1.00  0.00     0.251 C 
ATOM     29  H   UNL A   1      32.699  30.556  27.594  1.00  0.00     0.163 HD
ATOM     30  O   UNL A   1      34.439  31.941  28.606  1.00  0.00    -0.269 OA
BRANCH  28  31
ATOM     31  C   UNL A   1      35.907  30.116  28.361  1.00  0.00     0.039 A 
ATOM     32  C   UNL A   1      36.840  30.212  27.327  1.00  0.00     0.014 A 
ATOM     33  C   UNL A   1      36.249  29.518  29.575  1.00  0.00     0.014 A 
ATOM     34  C   UNL A   1      38.151  29.791  27.551  1.00  0.00     0.010 A 
ATOM     35  C   UNL A   1      37.579  29.228  29.837  1.00  0.00     0.010 A 
ATOM     36  C   UNL A   1      38.543  29.347  28.826  1.00  0.00    -0.014 A 
BRANCH  36  37
ATOM     37  C   UNL A   1      39.947  28.973  29.128  1.00  0.00     0.031 A 
ATOM     38  C   UNL A   1      40.857  29.983  29.775  1.00  0.00     0.074 A 
ATOM     39  C   UNL A   1      40.426  27.771  28.747  1.00  0.00     0.049 A 
ATOM     40  N   UNL A   1      42.136  29.899  30.034  1.00  0.00    -0.248 NA
ATOM     41  C   UNL A   1      40.261  31.281  30.132  1.00  0.00     0.031 C 
ATOM     42  C   UNL A   1      39.662  26.737  28.042  1.00  0.00     0.029 A 
ATOM     43  N   UNL A   1      41.675  27.221  28.887  1.00  0.00    -0.354 N 
ATOM     44  C   UNL A   1      42.496  31.136  30.555  1.00  0.00     0.074 A 
ATOM     45  C   UNL A   1      41.323  31.977  30.500  1.00  0.00     0.031 C 
ATOM     46  C   UNL A   1      40.450  25.667  27.844  1.00  0.00     0.029 A 
ATOM     47  C   UNL A   1      41.781  25.951  28.371  1.00  0.00     0.049 A 
ATOM     48  H   UNL A   1      42.425  27.692  29.316  1.00  0.00     0.167 HD
ATOM     49  C   UNL A   1      43.686  31.526  31.067  1.00  0.00     0.037 A 
ATOM     50  C   UNL A   1      42.833  25.111  28.327  1.00  0.00     0.037 A 
ATOM     51  C   UNL A   1      44.834  30.666  31.159  1.00  0.00     0.049 A 
ATOM     52  C   UNL A   1      44.138  25.548  28.935  1.00  0.00     0.074 A 
ATOM     53  C   UNL A   1      46.065  30.931  31.730  1.00  0.00     0.029 A 
ATOM     54  N   UNL A   1      44.888  29.369  30.669  1.00  0.00    -0.354 N 
ATOM     55  N   UNL A   1      44.441  26.696  29.495  1.00  0.00    -0.248 NA
ATOM     56  C   UNL A   1      45.240  24.576  28.918  1.00  0.00     0.031 C 
ATOM     57  C   UNL A   1      46.878  29.807  31.549  1.00  0.00     0.029 A 
ATOM     58  C   UNL A   1      46.138  28.825  30.908  1.00  0.00     0.049 A 
ATOM     59  H   UNL A   1      44.147  28.904  30.217  1.00  0.00     0.167 HD
ATOM     60  C   UNL A   1      45.761  26.577  29.916  1.00  0.00     0.074 A 
ATOM     61  C   UNL A   1      46.194  25.241  29.557  1.00  0.00     0.031 C 
ATOM     62  C   UNL A   1      46.545  27.490  30.543  1.00  0.00     0.037 A 
BRANCH  49  63
ATOM     63  C   UNL A   1      43.787  32.939  31.574  1.00  0.00     0.058 A 
ATOM     64  C   UNL A   1      44.107  34.009  30.721  1.00  0.00     0.135 A 
ATOM     65  C   UNL A   1      43.578  33.229  32.932  1.00  0.00     0.135 A 
ATOM     66  F   UNL A   1      44.337  33.788  29.416  1.00  0.00    -0.206 F 
ATOM     67  C   UNL A   1      44.266  35.304  31.203  1.00  0.00     0.059 A 
ATOM     68  C   UNL A   1      43.697  34.522  33.430  1.00  0.00     0.059 A 
ATOM     69  F   UNL A   1      43.269  32.246  33.793  1.00  0.00    -0.206 F 
ATOM     70  C   UNL A   1      44.065  35.549  32.561  1.00  0.00     0.060 A 
BRANCH  70  71
ATOM     71  S   UNL A   1      44.300  37.229  33.177  1.00  0.00     0.124 S 
ATOM     72  O   UNL A   1      42.957  37.553  33.649  1.00  0.00    -0.237 OA
ATOM     73  O   UNL A   1      45.308  37.044  34.216  1.00  0.00    -0.237 OA
ATOM     74  O   UNL A   1      44.746  37.964  31.999  1.00  0.00    -0.744 OA
ENDBRANCH  70  71
ENDBRANCH  49  63
BRANCH  50  75
ATOM     75  C   UNL A   1      42.676  23.761  27.724  1.00  0.00     0.058 A 
ATOM     76  C   UNL A   1      42.782  23.574  26.338  1.00  0.00     0.135 A 
ATOM     77  C   UNL A   1      42.462  22.625  28.521  1.00  0.00     0.135 A 
ATOM     78  F   UNL A   1      42.981  24.629  25.533  1.00  0.00    -0.206 F 
ATOM     79  C   UNL A   1      42.680  22.312  25.761  1.00  0.00     0.059 A 
ATOM     80  C   UNL A   1      42.378  21.349  27.970  1.00  0.00     0.059 A 
ATOM     81  F   UNL A   1      42.370  22.748  29.854  1.00  0.00    -0.206 F 
ATOM     82  C   UNL A   1      42.486  21.204  26.587  1.00  0.00     0.060 A 
BRANCH  82  83
ATOM     83  S   UNL A   1      42.434  19.562  25.835  1.00  0.00     0.124 S 
ATOM     84  O   UNL A   1      41.043  19.477  25.408  1.00  0.00    -0.237 OA
ATOM     85  O   UNL A   1      43.425  19.683  24.769  1.00  0.00    -0.237 OA
ATOM     86  O   UNL A   1      42.813  18.678  26.933  1.00  0.00    -0.744 OA
ENDBRANCH  82  83
ENDBRANCH  50  75
BRANCH  62  87
ATOM     87  C   UNL A   1      47.941  27.069  30.907  1.00  0.00     0.058 A 
ATOM     88  C   UNL A   1      48.212  26.353  32.083  1.00  0.00     0.135 A 
ATOM     89  C   UNL A   1      49.010  27.330  30.035  1.00  0.00     0.135 A 
ATOM     90  F   UNL A   1      47.225  26.082  32.952  1.00  0.00    -0.206 F 
ATOM     91  C   UNL A   1      49.499  25.928  32.393  1.00  0.00     0.059 A 
ATOM     92  C   UNL A   1      50.300  26.891  30.311  1.00  0.00     0.059 A 
ATOM     93  F   UNL A   1      48.802  28.001  28.891  1.00  0.00    -0.206 F 
ATOM     94  C   UNL A   1      50.537  26.200  31.498  1.00  0.00     0.060 A 
BRANCH  94  95
ATOM     95  S   UNL A   1      52.196  25.610  31.894  1.00  0.00     0.124 S 
ATOM     96  O   UNL A   1      52.915  25.906  30.660  1.00  0.00    -0.237 OA
ATOM     97  O   UNL A   1      52.552  26.429  33.048  1.00  0.00    -0.237 OA
ATOM     98  O   UNL A   1      51.993  24.192  32.178  1.00  0.00    -0.744 OA
ENDBRANCH  94  95
ENDBRANCH  62  87
ENDBRANCH  36  37
ENDBRANCH  28  31
ENDBRANCH  26  27
ENDBRANCH  25  26
ENDBRANCH  24  25
ENDBRANCH   1  24
TORSDOF 20
ENDMDL
MODEL 2
REMARK VINA RESULT:     -10.6      4.704      6.880
REMARK SMILES COC(=O)c1ccc(C[N@@H+](CC(=O)NCCCCNC(=O)c2ccc(-c3c4nc(c(-c5c(F)cc(S(=O)(=O)[O-])cc5F)c5ccc([nH]5)c(-c5c(F)cc(S(=O)(=O)[O-])cc5F)c5nc(c(-c6c(F)cc(S(=O)(=O)[O-])cc6F)c6ccc3[nH]6)C=C5)C=C4)cc2)C(C)(C)C)cc1
REMARK SMILES IDX 15 1 14 2 12 3 13 4 11 6 10 7 9 9 8 10 5 11 6 12 93 13 7 14
REMARK SMILES IDX 92 15 3 16 4 17 2 18 1 19 88 20 89 21 90 22 91 23 16 24
REMARK SMILES IDX 17 25 18 26 19 27 20 28 21 30 22 31 23 32 87 33 24 34 86 35
REMARK SMILES IDX 25 36 26 37 27 38 80 39 28 40 85 41 79 42 81 43 29 44 84 45
REMARK SMILES IDX 78 46 77 47 30 49 64 50 43 51 63 52 44 53 47 54 62 55 82 56
REMARK SMILES IDX 45 57 46 58 61 60 83 61 48 62 31 63 32 64 41 65 33 66 34 67
REMARK SMILES IDX 40 68 42 69 35 70 36 71 37 72 38 73 39 74 65 75 66 76 75 77
REMARK SMILES IDX 67 78 68 79 74 80 76 81 69 82 70 83 71 84 72 85 73 86 49 87
REMARK SMILES IDX 50 88 59 89 51 90 52 91 58 92 60 93 53 94 54 95 55 96 56 97
REMARK SMILES IDX 57 98
REMARK H PARENT 14 5 10 8 19 29 81 48 47 59
REMARK Flexibility Score: inf
ROOT
ATOM      1  C   UNL A   1      32.681  30.411  26.775  1.00  0.00     0.116 C 
ENDROOT
BRANCH   1   2
ATOM      2  N   UNL A   1      33.259  29.801  25.592  1.00  0.00    -0.351 N 
ATOM      3  C   UNL A   1      32.783  28.857  24.730  1.00  0.00     0.275 C 
ATOM      4  O   UNL A   1      33.491  28.615  23.743  1.00  0.00    -0.269 OA
ATOM      5  H   UNL A   1      34.160  30.128  25.371  1.00  0.00     0.163 HD
BRANCH   3   6
ATOM      6  C   UNL A   1      31.420  28.157  24.890  1.00  0.00     0.364 C 
BRANCH   6   7
ATOM      7  N   UNL A   1      31.233  26.803  24.265  1.00  0.00    -0.319 N 
ATOM      8  H   UNL A   1      32.064  26.504  23.755  1.00  0.00     0.349 HD
BRANCH   7   9
ATOM      9  C   UNL A   1      30.207  26.911  23.230  1.00  0.00     0.299 C 
BRANCH   9  10
ATOM     10  C   UNL A   1      29.640  28.214  22.739  1.00  0.00     0.006 A 
ATOM     11  C   UNL A   1      28.600  30.726  22.028  1.00  0.00     0.060 A 
ATOM     12  C   UNL A   1      29.899  30.362  21.648  1.00  0.00     0.016 A 
ATOM     13  C   UNL A   1      27.820  29.835  22.770  1.00  0.00     0.016 A 
ATOM     14  C   UNL A   1      30.418  29.114  22.004  1.00  0.00     0.010 A 
ATOM     15  C   UNL A   1      28.341  28.593  23.125  1.00  0.00     0.010 A 
BRANCH  11  16
ATOM     16  C   UNL A   1      28.072  32.046  21.605  1.00  0.00     0.337 C 
ATOM     17  O   UNL A   1      27.808  32.329  20.442  1.00  0.00    -0.246 OA
BRANCH  16  18
ATOM     18  O   UNL A   1      27.940  32.863  22.676  1.00  0.00    -0.465 OA
ATOM     19  C   UNL A   1      29.152  33.466  23.126  1.00  0.00     0.282 C 
ENDBRANCH  16  18
ENDBRANCH  11  16
ENDBRANCH   9  10
ENDBRANCH   7   9
BRANCH   7  20
ATOM     20  C   UNL A   1      31.332  25.624  25.172  1.00  0.00     0.090 C 
ATOM     21  C   UNL A   1      32.648  25.500  25.968  1.00  0.00     0.078 C 
ATOM     22  C   UNL A   1      30.187  25.576  26.216  1.00  0.00     0.078 C 
ATOM     23  C   UNL A   1      31.144  24.329  24.337  1.00  0.00     0.078 C 
ENDBRANCH   7  20
ENDBRANCH   6   7
ENDBRANCH   3   6
ENDBRANCH   1   2
BRANCH   1  24
ATOM     24  C   UNL A   1      31.437  31.242  26.435  1.00  0.00     0.023 C 
BRANCH  24  25
ATOM     25  C   UNL A   1      31.452  32.705  26.821  1.00  0.00     0.023 C 
BRANCH  25  26
ATOM     26  C   UNL A   1      32.791  33.215  27.304  1.00  0.00     0.116 C 
BRANCH  26  27
ATOM     27  N   UNL A   1      32.730  34.495  28.002  1.00  0.00    -0.352 N 
ATOM     28  C   UNL A   1      33.544  34.949  29.017  1.00  0.00     0.251 C 
ATOM     29  H   UNL A   1      32.019  35.111  27.712  1.00  0.00     0.163 HD
ATOM     30  O   UNL A   1      33.327  36.028  29.560  1.00  0.00    -0.269 OA
BRANCH  28  31
ATOM     31  C   UNL A   1      34.649  34.080  29.471  1.00  0.00     0.039 A 
ATOM     32  C   UNL A   1      35.957  34.381  29.088  1.00  0.00     0.014 A 
ATOM     33  C   UNL A   1      34.392  33.059  30.387  1.00  0.00     0.014 A 
ATOM     34  C   UNL A   1      37.017  33.715  29.704  1.00  0.00     0.010 A 
ATOM     35  C   UNL A   1      35.446  32.499  31.091  1.00  0.00     0.010 A 
ATOM     36  C   UNL A   1      36.770  32.808  30.750  1.00  0.00    -0.014 A 
BRANCH  36  37
ATOM     37  C   UNL A   1      37.873  32.145  31.489  1.00  0.00     0.031 A 
ATOM     38  C   UNL A   1      38.274  32.668  32.843  1.00  0.00     0.074 A 
ATOM     39  C   UNL A   1      38.567  31.142  30.914  1.00  0.00     0.049 A 
ATOM     40  N   UNL A   1      39.267  32.303  33.611  1.00  0.00    -0.248 NA
ATOM     41  C   UNL A   1      37.482  33.786  33.383  1.00  0.00     0.031 C 
ATOM     42  C   UNL A   1      38.324  30.598  29.575  1.00  0.00     0.029 A 
ATOM     43  N   UNL A   1      39.627  30.407  31.381  1.00  0.00    -0.354 N 
ATOM     44  C   UNL A   1      39.233  33.161  34.703  1.00  0.00     0.074 A 
ATOM     45  C   UNL A   1      38.175  34.114  34.461  1.00  0.00     0.031 C 
ATOM     46  C   UNL A   1      39.187  29.596  29.343  1.00  0.00     0.029 A 
ATOM     47  C   UNL A   1      40.068  29.448  30.498  1.00  0.00     0.049 A 
ATOM     48  H   UNL A   1      40.035  30.551  32.264  1.00  0.00     0.167 HD
ATOM     49  C   UNL A   1      39.989  33.136  35.825  1.00  0.00     0.037 A 
ATOM     50  C   UNL A   1      41.068  28.554  30.608  1.00  0.00     0.037 A 
ATOM     51  C   UNL A   1      41.009  32.155  36.076  1.00  0.00     0.049 A 
ATOM     52  C   UNL A   1      41.875  28.516  31.877  1.00  0.00     0.074 A 
ATOM     53  C   UNL A   1      41.782  31.987  37.210  1.00  0.00     0.029 A 
ATOM     54  N   UNL A   1      41.394  31.170  35.177  1.00  0.00    -0.354 N 
ATOM     55  N   UNL A   1      41.779  29.286  32.935  1.00  0.00    -0.248 NA
ATOM     56  C   UNL A   1      42.915  27.484  31.975  1.00  0.00     0.031 C 
ATOM     57  C   UNL A   1      42.663  30.925  36.981  1.00  0.00     0.029 A 
ATOM     58  C   UNL A   1      42.406  30.401  35.723  1.00  0.00     0.049 A 
ATOM     59  H   UNL A   1      41.003  31.037  34.283  1.00  0.00     0.167 HD
ATOM     60  C   UNL A   1      42.732  28.819  33.834  1.00  0.00     0.074 A 
ATOM     61  C   UNL A   1      43.384  27.691  33.199  1.00  0.00     0.031 C 
ATOM     62  C   UNL A   1      43.039  29.280  35.072  1.00  0.00     0.037 A 
BRANCH  49  63
ATOM     63  C   UNL A   1      39.723  34.197  36.858  1.00  0.00     0.058 A 
ATOM     64  C   UNL A   1      40.251  35.494  36.739  1.00  0.00     0.135 A 
ATOM     65  C   UNL A   1      38.944  33.913  37.991  1.00  0.00     0.135 A 
ATOM     66  F   UNL A   1      41.020  35.817  35.685  1.00  0.00    -0.206 F 
ATOM     67  C   UNL A   1      40.060  36.453  37.727  1.00  0.00     0.059 A 
ATOM     68  C   UNL A   1      38.710  34.867  38.976  1.00  0.00     0.059 A 
ATOM     69  F   UNL A   1      38.414  32.691  38.157  1.00  0.00    -0.206 F 
ATOM     70  C   UNL A   1      39.294  36.127  38.846  1.00  0.00     0.060 A 
BRANCH  70  71
ATOM     71  S   UNL A   1      39.075  37.373  40.133  1.00  0.00     0.124 S 
ATOM     72  O   UNL A   1      38.528  36.571  41.223  1.00  0.00    -0.237 OA
ATOM     73  O   UNL A   1      40.436  37.863  40.329  1.00  0.00    -0.237 OA
ATOM     74  O   UNL A   1      38.150  38.327  39.530  1.00  0.00    -0.744 OA
ENDBRANCH  70  71
ENDBRANCH  49  63
BRANCH  50  75
ATOM     75  C   UNL A   1      41.328  27.596  29.499  1.00  0.00     0.058 A 
ATOM     76  C   UNL A   1      42.486  27.699  28.715  1.00  0.00     0.135 A 
ATOM     77  C   UNL A   1      40.450  26.535  29.230  1.00  0.00     0.135 A 
ATOM     78  F   UNL A   1      43.353  28.700  28.929  1.00  0.00    -0.206 F 
ATOM     79  C   UNL A   1      42.765  26.787  27.701  1.00  0.00     0.059 A 
ATOM     80  C   UNL A   1      40.717  25.596  28.237  1.00  0.00     0.059 A 
ATOM     81  F   UNL A   1      39.335  26.382  29.963  1.00  0.00    -0.206 F 
ATOM     82  C   UNL A   1      41.877  25.734  27.476  1.00  0.00     0.060 A 
BRANCH  82  83
ATOM     83  S   UNL A   1      42.289  24.510  26.212  1.00  0.00     0.124 S 
ATOM     84  O   UNL A   1      42.285  25.324  25.002  1.00  0.00    -0.237 OA
ATOM     85  O   UNL A   1      43.596  24.037  26.660  1.00  0.00    -0.237 OA
ATOM     86  O   UNL A   1      41.209  23.536  26.322  1.00  0.00    -0.744 OA
ENDBRANCH  82  83
ENDBRANCH  50  75
BRANCH  62  87
ATOM     87  C   UNL A   1      44.109  28.551  35.836  1.00  0.00     0.058 A 
ATOM     88  C   UNL A   1      43.807  27.463  36.670  1.00  0.00     0.135 A 
ATOM     89  C   UNL A   1      45.458  28.905  35.679  1.00  0.00     0.135 A 
ATOM     90  F   UNL A   1      42.532  27.088  36.857  1.00  0.00    -0.206 F 
ATOM     91  C   UNL A   1      44.806  26.765  37.340  1.00  0.00     0.059 A 
ATOM     92  C   UNL A   1      46.475  28.204  36.317  1.00  0.00     0.059 A 
ATOM     93  F   UNL A   1      45.800  29.930  34.882  1.00  0.00    -0.206 F 
ATOM     94  C   UNL A   1      46.138  27.142  37.154  1.00  0.00     0.060 A 
BRANCH  94  95
ATOM     95  S   UNL A   1      47.428  26.203  37.999  1.00  0.00     0.124 S 
ATOM     96  O   UNL A   1      47.230  24.868  37.446  1.00  0.00    -0.237 OA
ATOM     97  O   UNL A   1      48.643  26.891  37.576  1.00  0.00    -0.237 OA
ATOM     98  O   UNL A   1      47.088  26.355  39.411  1.00  0.00    -0.744 OA
ENDBRANCH  94  95
ENDBRANCH  62  87
ENDBRANCH  36  37
ENDBRANCH  28  31
ENDBRANCH  26  27
ENDBRANCH  25  26
ENDBRANCH  24  25
ENDBRANCH   1  24
TORSDOF 20
ENDMDL
MODEL 3
REMARK VINA RESULT:      -9.9      5.244      8.846
REMARK SMILES COC(=O)c1ccc(C[N@@H+](CC(=O)NCCCCNC(=O)c2ccc(-c3c4nc(c(-c5c(F)cc(S(=O)(=O)[O-])cc5F)c5ccc([nH]5)c(-c5c(F)cc(S(=O)(=O)[O-])cc5F)c5nc(c(-c6c(F)cc(S(=O)(=O)[O-])cc6F)c6ccc3[nH]6)C=C5)C=C4)cc2)C(C)(C)C)cc1
REMARK SMILES IDX 15 1 14 2 12 3 13 4 11 6 10 7 9 9 8 10 5 11 6 12 93 13 7 14
REMARK SMILES IDX 92 15 3 16 4 17 2 18 1 19 88 20 89 21 90 22 91 23 16 24
REMARK SMILES IDX 17 25 18 26 19 27 20 28 21 30 22 31 23 32 87 33 24 34 86 35
REMARK SMILES IDX 25 36 26 37 27 38 80 39 28 40 85 41 79 42 81 43 29 44 84 45
REMARK SMILES IDX 78 46 77 47 30 49 64 50 43 51 63 52 44 53 47 54 62 55 82 56
REMARK SMILES IDX 45 57 46 58 61 60 83 61 48 62 31 63 32 64 41 65 33 66 34 67
REMARK SMILES IDX 40 68 42 69 35 70 36 71 37 72 38 73 39 74 65 75 66 76 75 77
REMARK SMILES IDX 67 78 68 79 74 80 76 81 69 82 70 83 71 84 72 85 73 86 49 87
REMARK SMILES IDX 50 88 59 89 51 90 52 91 58 92 60 93 53 94 54 95 55 96 56 97
REMARK SMILES IDX 57 98
REMARK H PARENT 14 5 10 8 19 29 81 48 47 59
REMARK Flexibility Score: inf
ROOT
ATOM      1  C   UNL A   1      40.498  34.224  31.581  1.00  0.00     0.116 C 
ENDROOT
BRANCH   1   2
ATOM      2  N   UNL A   1      41.282  33.500  32.564  1.00  0.00    -0.351 N 
ATOM      3  C   UNL A   1      41.118  33.318  33.906  1.00  0.00     0.275 C 
ATOM      4  O   UNL A   1      41.921  32.551  34.454  1.00  0.00    -0.269 OA
ATOM      5  H   UNL A   1      42.079  33.058  32.194  1.00  0.00     0.163 HD
BRANCH   3   6
ATOM      6  C   UNL A   1      39.974  33.948  34.723  1.00  0.00     0.364 C 
BRANCH   6   7
ATOM      7  N   UNL A   1      39.685  33.398  36.092  1.00  0.00    -0.319 N 
ATOM      8  H   UNL A   1      40.437  32.794  36.424  1.00  0.00     0.349 HD
BRANCH   7   9
ATOM      9  C   UNL A   1      38.534  32.501  35.995  1.00  0.00     0.299 C 
BRANCH   9  10
ATOM     10  C   UNL A   1      37.372  32.723  35.068  1.00  0.00     0.006 A 
ATOM     11  C   UNL A   1      35.304  33.313  33.258  1.00  0.00     0.060 A 
ATOM     12  C   UNL A   1      36.165  32.232  33.026  1.00  0.00     0.016 A 
ATOM     13  C   UNL A   1      35.480  34.105  34.396  1.00  0.00     0.016 A 
ATOM     14  C   UNL A   1      37.195  31.939  33.924  1.00  0.00     0.010 A 
ATOM     15  C   UNL A   1      36.508  33.813  35.288  1.00  0.00     0.010 A 
BRANCH  11  16
ATOM     16  C   UNL A   1      34.204  33.573  32.299  1.00  0.00     0.337 C 
ATOM     17  O   UNL A   1      34.170  33.108  31.164  1.00  0.00    -0.246 OA
BRANCH  16  18
ATOM     18  O   UNL A   1      33.276  34.385  32.857  1.00  0.00    -0.465 OA
ATOM     19  C   UNL A   1      33.009  35.584  32.131  1.00  0.00     0.282 C 
ENDBRANCH  16  18
ENDBRANCH  11  16
ENDBRANCH   9  10
ENDBRANCH   7   9
BRANCH   7  20
ATOM     20  C   UNL A   1      39.883  34.322  37.245  1.00  0.00     0.090 C 
ATOM     21  C   UNL A   1      39.984  35.821  36.892  1.00  0.00     0.078 C 
ATOM     22  C   UNL A   1      38.758  34.202  38.305  1.00  0.00     0.078 C 
ATOM     23  C   UNL A   1      41.172  33.912  38.005  1.00  0.00     0.078 C 
ENDBRANCH   7  20
ENDBRANCH   6   7
ENDBRANCH   3   6
ENDBRANCH   1   2
BRANCH   1  24
ATOM     24  C   UNL A   1      39.239  33.446  31.175  1.00  0.00     0.023 C 
BRANCH  24  25
ATOM     25  C   UNL A   1      38.309  34.103  30.179  1.00  0.00     0.023 C 
BRANCH  25  26
ATOM     26  C   UNL A   1      37.769  33.175  29.114  1.00  0.00     0.116 C 
BRANCH  26  27
ATOM     27  N   UNL A   1      36.655  32.340  29.552  1.00  0.00    -0.352 N 
ATOM     28  C   UNL A   1      36.615  30.966  29.663  1.00  0.00     0.251 C 
ATOM     29  H   UNL A   1      35.830  32.816  29.798  1.00  0.00     0.163 HD
ATOM     30  O   UNL A   1      35.578  30.393  29.980  1.00  0.00    -0.269 OA
BRANCH  28  31
ATOM     31  C   UNL A   1      37.835  30.201  29.338  1.00  0.00     0.039 A 
ATOM     32  C   UNL A   1      38.129  29.917  28.004  1.00  0.00     0.014 A 
ATOM     33  C   UNL A   1      38.749  29.897  30.348  1.00  0.00     0.014 A 
ATOM     34  C   UNL A   1      39.388  29.413  27.676  1.00  0.00     0.010 A 
ATOM     35  C   UNL A   1      40.039  29.527  30.007  1.00  0.00     0.010 A 
ATOM     36  C   UNL A   1      40.371  29.266  28.670  1.00  0.00    -0.014 A 
BRANCH  36  37
ATOM     37  C   UNL A   1      41.749  28.817  28.349  1.00  0.00     0.031 A 
ATOM     38  C   UNL A   1      42.865  29.826  28.311  1.00  0.00     0.074 A 
ATOM     39  C   UNL A   1      41.981  27.532  28.008  1.00  0.00     0.049 A 
ATOM     40  N   UNL A   1      44.114  29.666  27.959  1.00  0.00    -0.248 NA
ATOM     41  C   UNL A   1      42.519  31.212  28.667  1.00  0.00     0.031 C 
ATOM     42  C   UNL A   1      40.967  26.477  27.933  1.00  0.00     0.029 A 
ATOM     43  N   UNL A   1      43.143  26.899  27.649  1.00  0.00    -0.354 N 
ATOM     44  C   UNL A   1      44.689  30.930  28.026  1.00  0.00     0.074 A 
ATOM     45  C   UNL A   1      43.636  31.857  28.373  1.00  0.00     0.031 C 
ATOM     46  C   UNL A   1      41.558  25.322  27.585  1.00  0.00     0.029 A 
ATOM     47  C   UNL A   1      42.983  25.560  27.377  1.00  0.00     0.049 A 
ATOM     48  H   UNL A   1      44.011  27.359  27.592  1.00  0.00     0.167 HD
ATOM     49  C   UNL A   1      45.983  31.284  27.852  1.00  0.00     0.037 A 
ATOM     50  C   UNL A   1      43.883  24.632  27.000  1.00  0.00     0.037 A 
ATOM     51  C   UNL A   1      47.031  30.347  27.552  1.00  0.00     0.049 A 
ATOM     52  C   UNL A   1      45.325  25.035  26.848  1.00  0.00     0.074 A 
ATOM     53  C   UNL A   1      48.388  30.583  27.432  1.00  0.00     0.029 A 
ATOM     54  N   UNL A   1      46.836  28.991  27.331  1.00  0.00    -0.354 N 
ATOM     55  N   UNL A   1      45.866  26.222  26.991  1.00  0.00    -0.248 NA
ATOM     56  C   UNL A   1      46.279  23.976  26.495  1.00  0.00     0.031 C 
ATOM     57  C   UNL A   1      49.010  29.375  27.097  1.00  0.00     0.029 A 
ATOM     58  C   UNL A   1      48.046  28.378  27.056  1.00  0.00     0.049 A 
ATOM     59  H   UNL A   1      45.965  28.532  27.364  1.00  0.00     0.167 HD
ATOM     60  C   UNL A   1      47.227  26.050  26.766  1.00  0.00     0.074 A 
ATOM     61  C   UNL A   1      47.427  24.640  26.491  1.00  0.00     0.031 C 
ATOM     62  C   UNL A   1      48.222  26.972  26.787  1.00  0.00     0.037 A 
BRANCH  49  63
ATOM     63  C   UNL A   1      46.323  32.743  27.995  1.00  0.00     0.058 A 
ATOM     64  C   UNL A   1      46.804  33.275  29.204  1.00  0.00     0.135 A 
ATOM     65  C   UNL A   1      46.154  33.625  26.916  1.00  0.00     0.135 A 
ATOM     66  F   UNL A   1      46.968  32.480  30.274  1.00  0.00    -0.206 F 
ATOM     67  C   UNL A   1      47.054  34.634  29.354  1.00  0.00     0.059 A 
ATOM     68  C   UNL A   1      46.431  34.984  27.033  1.00  0.00     0.059 A 
ATOM     69  F   UNL A   1      45.699  33.173  25.738  1.00  0.00    -0.206 F 
ATOM     70  C   UNL A   1      46.857  35.482  28.264  1.00  0.00     0.060 A 
BRANCH  70  71
ATOM     71  S   UNL A   1      47.161  37.248  28.481  1.00  0.00     0.124 S 
ATOM     72  O   UNL A   1      47.598  37.632  27.142  1.00  0.00    -0.237 OA
ATOM     73  O   UNL A   1      45.850  37.744  28.886  1.00  0.00    -0.237 OA
ATOM     74  O   UNL A   1      48.191  37.291  29.513  1.00  0.00    -0.744 OA
ENDBRANCH  70  71
ENDBRANCH  49  63
BRANCH  50  75
ATOM     75  C   UNL A   1      43.448  23.225  26.788  1.00  0.00     0.058 A 
ATOM     76  C   UNL A   1      43.394  22.675  25.499  1.00  0.00     0.135 A 
ATOM     77  C   UNL A   1      43.123  22.390  27.868  1.00  0.00     0.135 A 
ATOM     78  F   UNL A   1      43.690  23.434  24.433  1.00  0.00    -0.206 F 
ATOM     79  C   UNL A   1      43.030  21.349  25.286  1.00  0.00     0.059 A 
ATOM     80  C   UNL A   1      42.777  21.054  27.683  1.00  0.00     0.059 A 
ATOM     81  F   UNL A   1      43.176  22.864  29.123  1.00  0.00    -0.206 F 
ATOM     82  C   UNL A   1      42.731  20.544  26.386  1.00  0.00     0.060 A 
BRANCH  82  83
ATOM     83  S   UNL A   1      42.338  18.803  26.104  1.00  0.00     0.124 S 
ATOM     84  O   UNL A   1      42.648  18.216  27.402  1.00  0.00    -0.237 OA
ATOM     85  O   UNL A   1      40.922  18.864  25.751  1.00  0.00    -0.237 OA
ATOM     86  O   UNL A   1      43.231  18.430  25.012  1.00  0.00    -0.744 OA
ENDBRANCH  82  83
ENDBRANCH  50  75
BRANCH  62  87
ATOM     87  C   UNL A   1      49.621  26.486  26.532  1.00  0.00     0.058 A 
ATOM     88  C   UNL A   1      50.125  26.342  25.231  1.00  0.00     0.135 A 
ATOM     89  C   UNL A   1      50.487  26.223  27.606  1.00  0.00     0.135 A 
ATOM     90  F   UNL A   1      49.336  26.576  24.170  1.00  0.00    -0.206 F 
ATOM     91  C   UNL A   1      51.434  25.934  25.001  1.00  0.00     0.059 A 
ATOM     92  C   UNL A   1      51.808  25.841  27.401  1.00  0.00     0.059 A 
ATOM     93  F   UNL A   1      50.057  26.357  28.871  1.00  0.00    -0.206 F 
ATOM     94  C   UNL A   1      52.269  25.688  26.094  1.00  0.00     0.060 A 
BRANCH  94  95
ATOM     95  S   UNL A   1      53.978  25.196  25.783  1.00  0.00     0.124 S 
ATOM     96  O   UNL A   1      54.428  26.253  24.884  1.00  0.00    -0.237 OA
ATOM     97  O   UNL A   1      54.557  25.213  27.123  1.00  0.00    -0.237 OA
ATOM     98  O   UNL A   1      53.846  23.873  25.181  1.00  0.00    -0.744 OA
ENDBRANCH  94  95
ENDBRANCH  62  87
ENDBRANCH  36  37
ENDBRANCH  28  31
ENDBRANCH  26  27
ENDBRANCH  25  26
ENDBRANCH  24  25
ENDBRANCH   1  24
TORSDOF 20
ENDMDL
