MODEL 1
REMARK VINA RESULT:     -12.2      0.000      0.000
REMARK SMILES Cc1ccc2c(c1)OCCN2c1sc(C(=O)NCCCCNC(=O)c2ccc(-c3c4nc(c(-c5c(F)cc(S(=O)(=O)[O-])cc5F)c5ccc([nH]5)c(-c5c(F)cc(S(=O)(=O)[O-])cc5F)c5nc(c(-c6c(F)cc(S(=O)(=O)[O-])cc6F)c6ccc3[nH]6)C=C5)C=C4)cc2)cc1C
REMARK SMILES IDX 20 1 19 2 18 3 17 4 15 5 16 6 14 8 12 9 13 10 92 11 91 12
REMARK SMILES IDX 93 13 11 14 1 15 2 16 3 17 7 18 4 19 6 20 5 21 8 22 9 23
REMARK SMILES IDX 10 24 21 25 22 26 23 27 24 29 25 30 26 31 90 32 27 33 89 34
REMARK SMILES IDX 28 35 29 36 30 37 83 38 31 39 88 40 82 41 84 42 32 43 87 44
REMARK SMILES IDX 81 45 80 46 33 48 67 49 46 50 66 51 47 52 50 53 65 54 85 55
REMARK SMILES IDX 48 56 49 57 64 59 86 60 51 61 34 62 35 63 44 64 36 65 37 66
REMARK SMILES IDX 43 67 45 68 38 69 39 70 40 71 41 72 42 73 68 74 69 75 78 76
REMARK SMILES IDX 70 77 71 78 77 79 79 80 72 81 73 82 74 83 75 84 76 85 52 86
REMARK SMILES IDX 53 87 62 88 54 89 55 90 61 91 63 92 56 93 57 94 58 95 59 96
REMARK SMILES IDX 60 97
REMARK H PARENT 17 7 22 28 84 47 50 58
REMARK Flexibility Score: inf
ROOT
ATOM      1  C   UNL A   1      33.819  28.408  25.793  1.00  0.00     0.023 C 
ENDROOT
BRANCH   1   2
ATOM      2  C   UNL A   1      33.159  29.342  24.772  1.00  0.00     0.023 C 
BRANCH   2   3
ATOM      3  C   UNL A   1      33.418  28.967  23.313  1.00  0.00     0.116 C 
BRANCH   3   4
ATOM      4  N   UNL A   1      32.179  28.707  22.605  1.00  0.00    -0.351 N 
ATOM      5  C   UNL A   1      31.360  27.606  22.534  1.00  0.00     0.261 C 
ATOM      6  O   UNL A   1      30.321  27.773  21.886  1.00  0.00    -0.268 OA
ATOM      7  H   UNL A   1      31.861  29.471  22.071  1.00  0.00     0.163 HD
BRANCH   5   8
ATOM      8  C   UNL A   1      31.627  26.343  23.210  1.00  0.00     0.094 A 
ATOM      9  C   UNL A   1      32.471  24.157  24.048  1.00  0.00     0.099 A 
ATOM     10  S   UNL A   1      32.520  25.039  22.577  1.00  0.00    -0.112 S 
ATOM     11  C   UNL A   1      31.569  24.727  24.933  1.00  0.00    -0.015 A 
ATOM     12  C   UNL A   1      31.093  25.985  24.438  1.00  0.00     0.031 A 
ATOM     13  C   UNL A   1      31.164  24.169  26.257  1.00  0.00     0.047 C 
BRANCH   9  14
ATOM     14  N   UNL A   1      33.199  23.022  24.247  1.00  0.00    -0.327 N 
ATOM     15  C   UNL A   1      38.626  22.703  26.163  1.00  0.00     0.044 C 
ATOM     16  C   UNL A   1      37.204  22.793  25.694  1.00  0.00    -0.047 A 
ATOM     17  C   UNL A   1      36.587  24.033  25.514  1.00  0.00     0.006 A 
ATOM     18  C   UNL A   1      36.484  21.634  25.394  1.00  0.00     0.052 A 
ATOM     19  C   UNL A   1      35.266  24.111  25.056  1.00  0.00     0.030 A 
ATOM     20  C   UNL A   1      35.164  21.715  24.937  1.00  0.00     0.143 A 
ATOM     21  C   UNL A   1      34.530  22.960  24.731  1.00  0.00     0.085 A 
ATOM     22  O   UNL A   1      34.550  20.502  24.704  1.00  0.00    -0.490 OA
ATOM     23  C   UNL A   1      33.125  20.624  24.638  1.00  0.00     0.251 C 
ATOM     24  C   UNL A   1      32.705  21.756  23.709  1.00  0.00     0.165 C 
ENDBRANCH   9  14
ENDBRANCH   5   8
ENDBRANCH   3   4
ENDBRANCH   2   3
ENDBRANCH   1   2
BRANCH   1  25
ATOM     25  C   UNL A   1      33.385  28.613  27.242  1.00  0.00     0.116 C 
BRANCH  25  26
ATOM     26  N   UNL A   1      33.389  30.006  27.667  1.00  0.00    -0.352 N 
ATOM     27  C   UNL A   1      34.430  30.723  28.215  1.00  0.00     0.251 C 
ATOM     28  H   UNL A   1      32.544  30.496  27.547  1.00  0.00     0.163 HD
ATOM     29  O   UNL A   1      34.256  31.873  28.607  1.00  0.00    -0.269 OA
BRANCH  27  30
ATOM     30  C   UNL A   1      35.746  30.068  28.377  1.00  0.00     0.039 A 
ATOM     31  C   UNL A   1      36.125  29.539  29.611  1.00  0.00     0.014 A 
ATOM     32  C   UNL A   1      36.638  30.056  27.301  1.00  0.00     0.014 A 
ATOM     33  C   UNL A   1      37.449  29.168  29.819  1.00  0.00     0.010 A 
ATOM     34  C   UNL A   1      37.951  29.612  27.494  1.00  0.00     0.010 A 
ATOM     35  C   UNL A   1      38.384  29.226  28.772  1.00  0.00    -0.014 A 
BRANCH  35  36
ATOM     36  C   UNL A   1      39.813  28.941  29.067  1.00  0.00     0.031 A 
ATOM     37  C   UNL A   1      40.416  27.608  28.699  1.00  0.00     0.074 A 
ATOM     38  C   UNL A   1      40.594  29.922  29.562  1.00  0.00     0.049 A 
ATOM     39  N   UNL A   1      41.662  27.215  28.796  1.00  0.00    -0.248 NA
ATOM     40  C   UNL A   1      39.511  26.585  28.148  1.00  0.00     0.031 C 
ATOM     41  C   UNL A   1      40.130  31.259  29.940  1.00  0.00     0.029 A 
ATOM     42  N   UNL A   1      41.947  29.965  29.789  1.00  0.00    -0.354 N 
ATOM     43  C   UNL A   1      41.688  25.906  28.327  1.00  0.00     0.074 A 
ATOM     44  C   UNL A   1      40.330  25.555  27.976  1.00  0.00     0.031 C 
ATOM     45  C   UNL A   1      41.187  32.011  30.285  1.00  0.00     0.029 A 
ATOM     46  C   UNL A   1      42.397  31.198  30.200  1.00  0.00     0.049 A 
ATOM     47  H   UNL A   1      42.538  29.187  29.671  1.00  0.00     0.167 HD
ATOM     48  C   UNL A   1      42.749  25.079  28.179  1.00  0.00     0.037 A 
ATOM     49  C   UNL A   1      43.644  31.628  30.473  1.00  0.00     0.037 A 
ATOM     50  C   UNL A   1      44.107  25.440  28.491  1.00  0.00     0.049 A 
ATOM     51  C   UNL A   1      44.796  30.671  30.351  1.00  0.00     0.074 A 
ATOM     52  C   UNL A   1      45.251  24.672  28.354  1.00  0.00     0.029 A 
ATOM     53  N   UNL A   1      44.505  26.669  28.990  1.00  0.00    -0.354 N 
ATOM     54  N   UNL A   1      44.795  29.437  29.909  1.00  0.00    -0.248 NA
ATOM     55  C   UNL A   1      46.113  31.157  30.784  1.00  0.00     0.031 C 
ATOM     56  C   UNL A   1      46.340  25.429  28.797  1.00  0.00     0.029 A 
ATOM     57  C   UNL A   1      45.877  26.675  29.185  1.00  0.00     0.049 A 
ATOM     58  H   UNL A   1      43.904  27.425  29.178  1.00  0.00     0.167 HD
ATOM     59  C   UNL A   1      46.111  28.999  30.011  1.00  0.00     0.074 A 
ATOM     60  C   UNL A   1      46.884  30.106  30.534  1.00  0.00     0.031 C 
ATOM     61  C   UNL A   1      46.629  27.785  29.709  1.00  0.00     0.037 A 
BRANCH  48  62
ATOM     62  C   UNL A   1      42.504  23.700  27.639  1.00  0.00     0.058 A 
ATOM     63  C   UNL A   1      42.494  23.451  26.258  1.00  0.00     0.135 A 
ATOM     64  C   UNL A   1      42.376  22.603  28.506  1.00  0.00     0.135 A 
ATOM     65  F   UNL A   1      42.595  24.468  25.388  1.00  0.00    -0.206 F 
ATOM     66  C   UNL A   1      42.368  22.160  25.755  1.00  0.00     0.059 A 
ATOM     67  C   UNL A   1      42.266  21.301  28.025  1.00  0.00     0.059 A 
ATOM     68  F   UNL A   1      42.378  22.790  29.835  1.00  0.00    -0.206 F 
ATOM     69  C   UNL A   1      42.261  21.092  26.647  1.00  0.00     0.060 A 
BRANCH  69  70
ATOM     70  S   UNL A   1      42.143  19.420  25.974  1.00  0.00     0.124 S 
ATOM     71  O   UNL A   1      42.965  19.530  24.773  1.00  0.00    -0.237 OA
ATOM     72  O   UNL A   1      42.702  18.610  27.051  1.00  0.00    -0.237 OA
ATOM     73  O   UNL A   1      40.712  19.247  25.741  1.00  0.00    -0.744 OA
ENDBRANCH  69  70
ENDBRANCH  48  62
BRANCH  49  74
ATOM     74  C   UNL A   1      43.872  33.033  30.898  1.00  0.00     0.058 A 
ATOM     75  C   UNL A   1      43.890  33.381  32.256  1.00  0.00     0.135 A 
ATOM     76  C   UNL A   1      44.070  34.054  29.956  1.00  0.00     0.135 A 
ATOM     77  F   UNL A   1      43.700  32.438  33.192  1.00  0.00    -0.206 F 
ATOM     78  C   UNL A   1      44.079  34.695  32.667  1.00  0.00     0.059 A 
ATOM     79  C   UNL A   1      44.281  35.372  30.343  1.00  0.00     0.059 A 
ATOM     80  F   UNL A   1      44.073  33.768  28.644  1.00  0.00    -0.206 F 
ATOM     81  C   UNL A   1      44.271  35.686  31.703  1.00  0.00     0.060 A 
BRANCH  81  82
ATOM     82  S   UNL A   1      44.545  37.386  32.243  1.00  0.00     0.124 S 
ATOM     83  O   UNL A   1      43.526  37.531  33.275  1.00  0.00    -0.237 OA
ATOM     84  O   UNL A   1      45.927  37.345  32.710  1.00  0.00    -0.237 OA
ATOM     85  O   UNL A   1      44.327  38.161  31.025  1.00  0.00    -0.744 OA
ENDBRANCH  81  82
ENDBRANCH  49  74
BRANCH  61  86
ATOM     86  C   UNL A   1      48.094  27.575  29.946  1.00  0.00     0.058 A 
ATOM     87  C   UNL A   1      48.558  27.044  31.159  1.00  0.00     0.135 A 
ATOM     88  C   UNL A   1      49.029  27.808  28.925  1.00  0.00     0.135 A 
ATOM     89  F   UNL A   1      47.702  26.811  32.166  1.00  0.00    -0.206 F 
ATOM     90  C   UNL A   1      49.903  26.749  31.351  1.00  0.00     0.059 A 
ATOM     91  C   UNL A   1      50.375  27.504  29.090  1.00  0.00     0.059 A 
ATOM     92  F   UNL A   1      48.629  28.310  27.746  1.00  0.00    -0.206 F 
ATOM     93  C   UNL A   1      50.803  26.973  30.308  1.00  0.00     0.060 A 
BRANCH  93  94
ATOM     94  S   UNL A   1      52.532  26.512  30.547  1.00  0.00     0.124 S 
ATOM     95  O   UNL A   1      52.962  26.259  29.176  1.00  0.00    -0.237 OA
ATOM     96  O   UNL A   1      53.089  27.706  31.176  1.00  0.00    -0.237 OA
ATOM     97  O   UNL A   1      52.454  25.336  31.409  1.00  0.00    -0.744 OA
ENDBRANCH  93  94
ENDBRANCH  61  86
ENDBRANCH  35  36
ENDBRANCH  27  30
ENDBRANCH  25  26
ENDBRANCH   1  25
TORSDOF 15
ENDMDL
MODEL 2
REMARK VINA RESULT:     -12.0      3.115      9.444
REMARK SMILES Cc1ccc2c(c1)OCCN2c1sc(C(=O)NCCCCNC(=O)c2ccc(-c3c4nc(c(-c5c(F)cc(S(=O)(=O)[O-])cc5F)c5ccc([nH]5)c(-c5c(F)cc(S(=O)(=O)[O-])cc5F)c5nc(c(-c6c(F)cc(S(=O)(=O)[O-])cc6F)c6ccc3[nH]6)C=C5)C=C4)cc2)cc1C
REMARK SMILES IDX 20 1 19 2 18 3 17 4 15 5 16 6 14 8 12 9 13 10 92 11 91 12
REMARK SMILES IDX 93 13 11 14 1 15 2 16 3 17 7 18 4 19 6 20 5 21 8 22 9 23
REMARK SMILES IDX 10 24 21 25 22 26 23 27 24 29 25 30 26 31 90 32 27 33 89 34
REMARK SMILES IDX 28 35 29 36 30 37 83 38 31 39 88 40 82 41 84 42 32 43 87 44
REMARK SMILES IDX 81 45 80 46 33 48 67 49 46 50 66 51 47 52 50 53 65 54 85 55
REMARK SMILES IDX 48 56 49 57 64 59 86 60 51 61 34 62 35 63 44 64 36 65 37 66
REMARK SMILES IDX 43 67 45 68 38 69 39 70 40 71 41 72 42 73 68 74 69 75 78 76
REMARK SMILES IDX 70 77 71 78 77 79 79 80 72 81 73 82 74 83 75 84 76 85 52 86
REMARK SMILES IDX 53 87 62 88 54 89 55 90 61 91 63 92 56 93 57 94 58 95 59 96
REMARK SMILES IDX 60 97
REMARK H PARENT 17 7 22 28 84 47 50 58
REMARK Flexibility Score: inf
ROOT
ATOM      1  C   UNL A   1      35.850  23.358  25.878  1.00  0.00     0.023 C 
ENDROOT
BRANCH   1   2
ATOM      2  C   UNL A   1      35.546  21.909  26.275  1.00  0.00     0.023 C 
BRANCH   2   3
ATOM      3  C   UNL A   1      34.291  21.739  27.132  1.00  0.00     0.116 C 
BRANCH   3   4
ATOM      4  N   UNL A   1      33.279  20.964  26.439  1.00  0.00    -0.351 N 
ATOM      5  C   UNL A   1      32.374  21.282  25.456  1.00  0.00     0.261 C 
ATOM      6  O   UNL A   1      31.708  20.329  25.036  1.00  0.00    -0.268 OA
ATOM      7  H   UNL A   1      33.232  20.025  26.732  1.00  0.00     0.163 HD
BRANCH   5   8
ATOM      8  C   UNL A   1      32.227  22.612  24.878  1.00  0.00     0.094 A 
ATOM      9  C   UNL A   1      31.833  25.012  24.355  1.00  0.00     0.099 A 
ATOM     10  S   UNL A   1      31.249  23.864  25.489  1.00  0.00    -0.112 S 
ATOM     11  C   UNL A   1      32.569  24.389  23.360  1.00  0.00    -0.015 A 
ATOM     12  C   UNL A   1      32.790  23.009  23.676  1.00  0.00     0.031 A 
ATOM     13  C   UNL A   1      33.126  25.042  22.139  1.00  0.00     0.047 C 
BRANCH   9  14
ATOM     14  N   UNL A   1      31.535  26.339  24.437  1.00  0.00    -0.327 N 
ATOM     15  C   UNL A   1      34.435  30.345  27.398  1.00  0.00     0.044 C 
ATOM     16  C   UNL A   1      33.703  29.303  26.605  1.00  0.00    -0.047 A 
ATOM     17  C   UNL A   1      34.112  27.968  26.631  1.00  0.00     0.006 A 
ATOM     18  C   UNL A   1      32.576  29.647  25.855  1.00  0.00     0.052 A 
ATOM     19  C   UNL A   1      33.412  26.994  25.906  1.00  0.00     0.030 A 
ATOM     20  C   UNL A   1      31.880  28.674  25.130  1.00  0.00     0.143 A 
ATOM     21  C   UNL A   1      32.266  27.315  25.159  1.00  0.00     0.085 A 
ATOM     22  O   UNL A   1      30.804  29.141  24.406  1.00  0.00    -0.490 OA
ATOM     23  C   UNL A   1      30.391  28.215  23.395  1.00  0.00     0.251 C 
ATOM     24  C   UNL A   1      30.235  26.808  23.958  1.00  0.00     0.165 C 
ENDBRANCH   9  14
ENDBRANCH   5   8
ENDBRANCH   3   4
ENDBRANCH   2   3
ENDBRANCH   1   2
BRANCH   1  25
ATOM     25  C   UNL A   1      37.058  23.544  24.963  1.00  0.00     0.116 C 
BRANCH  25  26
ATOM     26  N   UNL A   1      38.163  22.641  25.254  1.00  0.00    -0.352 N 
ATOM     27  C   UNL A   1      39.283  22.889  26.017  1.00  0.00     0.251 C 
ATOM     28  H   UNL A   1      38.102  21.743  24.856  1.00  0.00     0.163 HD
ATOM     29  O   UNL A   1      40.178  22.053  26.100  1.00  0.00    -0.269 OA
BRANCH  27  30
ATOM     30  C   UNL A   1      39.418  24.200  26.689  1.00  0.00     0.039 A 
ATOM     31  C   UNL A   1      40.189  25.211  26.115  1.00  0.00     0.014 A 
ATOM     32  C   UNL A   1      38.830  24.386  27.943  1.00  0.00     0.014 A 
ATOM     33  C   UNL A   1      40.522  26.329  26.872  1.00  0.00     0.010 A 
ATOM     34  C   UNL A   1      39.107  25.548  28.672  1.00  0.00     0.010 A 
ATOM     35  C   UNL A   1      40.008  26.498  28.169  1.00  0.00    -0.014 A 
BRANCH  35  36
ATOM     36  C   UNL A   1      40.487  27.643  28.989  1.00  0.00     0.031 A 
ATOM     37  C   UNL A   1      39.605  28.848  29.204  1.00  0.00     0.074 A 
ATOM     38  C   UNL A   1      41.668  27.547  29.630  1.00  0.00     0.049 A 
ATOM     39  N   UNL A   1      39.816  29.896  29.960  1.00  0.00    -0.248 NA
ATOM     40  C   UNL A   1      38.320  28.883  28.485  1.00  0.00     0.031 C 
ATOM     41  C   UNL A   1      42.601  26.424  29.516  1.00  0.00     0.029 A 
ATOM     42  N   UNL A   1      42.266  28.382  30.541  1.00  0.00    -0.354 N 
ATOM     43  C   UNL A   1      38.701  30.713  29.803  1.00  0.00     0.074 A 
ATOM     44  C   UNL A   1      37.828  30.058  28.855  1.00  0.00     0.031 C 
ATOM     45  C   UNL A   1      43.616  26.606  30.376  1.00  0.00     0.029 A 
ATOM     46  C   UNL A   1      43.433  27.879  31.066  1.00  0.00     0.049 A 
ATOM     47  H   UNL A   1      41.895  29.258  30.794  1.00  0.00     0.167 HD
ATOM     48  C   UNL A   1      38.419  31.888  30.412  1.00  0.00     0.037 A 
ATOM     49  C   UNL A   1      44.262  28.384  32.000  1.00  0.00     0.037 A 
ATOM     50  C   UNL A   1      39.269  32.522  31.385  1.00  0.00     0.049 A 
ATOM     51  C   UNL A   1      43.949  29.717  32.619  1.00  0.00     0.074 A 
ATOM     52  C   UNL A   1      39.054  33.705  32.070  1.00  0.00     0.029 A 
ATOM     53  N   UNL A   1      40.485  32.022  31.819  1.00  0.00    -0.354 N 
ATOM     54  N   UNL A   1      42.891  30.471  32.452  1.00  0.00    -0.248 NA
ATOM     55  C   UNL A   1      44.952  30.276  33.536  1.00  0.00     0.031 C 
ATOM     56  C   UNL A   1      40.156  33.936  32.899  1.00  0.00     0.029 A 
ATOM     57  C   UNL A   1      41.043  32.883  32.749  1.00  0.00     0.049 A 
ATOM     58  H   UNL A   1      40.893  31.180  31.512  1.00  0.00     0.167 HD
ATOM     59  C   UNL A   1      43.101  31.595  33.244  1.00  0.00     0.074 A 
ATOM     60  C   UNL A   1      44.375  31.412  33.907  1.00  0.00     0.031 C 
ATOM     61  C   UNL A   1      42.313  32.686  33.397  1.00  0.00     0.037 A 
BRANCH  48  62
ATOM     62  C   UNL A   1      37.129  32.574  30.066  1.00  0.00     0.058 A 
ATOM     63  C   UNL A   1      35.955  32.325  30.795  1.00  0.00     0.135 A 
ATOM     64  C   UNL A   1      37.086  33.558  29.065  1.00  0.00     0.135 A 
ATOM     65  F   UNL A   1      35.941  31.382  31.750  1.00  0.00    -0.206 F 
ATOM     66  C   UNL A   1      34.784  33.031  30.544  1.00  0.00     0.059 A 
ATOM     67  C   UNL A   1      35.928  34.288  28.809  1.00  0.00     0.059 A 
ATOM     68  F   UNL A   1      38.181  33.830  28.339  1.00  0.00    -0.206 F 
ATOM     69  C   UNL A   1      34.782  34.015  29.553  1.00  0.00     0.060 A 
BRANCH  69  70
ATOM     70  S   UNL A   1      33.263  34.950  29.274  1.00  0.00     0.124 S 
ATOM     71  O   UNL A   1      33.788  36.213  28.763  1.00  0.00    -0.237 OA
ATOM     72  O   UNL A   1      32.559  34.120  28.302  1.00  0.00    -0.237 OA
ATOM     73  O   UNL A   1      32.653  35.014  30.598  1.00  0.00    -0.744 OA
ENDBRANCH  69  70
ENDBRANCH  48  62
BRANCH  49  74
ATOM     74  C   UNL A   1      45.476  27.630  32.407  1.00  0.00     0.058 A 
ATOM     75  C   UNL A   1      46.692  27.804  31.730  1.00  0.00     0.135 A 
ATOM     76  C   UNL A   1      45.442  26.717  33.471  1.00  0.00     0.135 A 
ATOM     77  F   UNL A   1      46.770  28.663  30.702  1.00  0.00    -0.206 F 
ATOM     78  C   UNL A   1      47.829  27.088  32.084  1.00  0.00     0.059 A 
ATOM     79  C   UNL A   1      46.571  26.004  33.857  1.00  0.00     0.059 A 
ATOM     80  F   UNL A   1      44.304  26.524  34.156  1.00  0.00    -0.206 F 
ATOM     81  C   UNL A   1      47.759  26.187  33.148  1.00  0.00     0.060 A 
BRANCH  81  82
ATOM     82  S   UNL A   1      49.247  25.281  33.623  1.00  0.00     0.124 S 
ATOM     83  O   UNL A   1      48.688  24.215  34.445  1.00  0.00    -0.237 OA
ATOM     84  O   UNL A   1      49.789  24.875  32.330  1.00  0.00    -0.237 OA
ATOM     85  O   UNL A   1      50.033  26.284  34.335  1.00  0.00    -0.744 OA
ENDBRANCH  81  82
ENDBRANCH  49  74
BRANCH  61  86
ATOM     86  C   UNL A   1      42.802  33.776  34.302  1.00  0.00     0.058 A 
ATOM     87  C   UNL A   1      43.430  34.917  33.780  1.00  0.00     0.135 A 
ATOM     88  C   UNL A   1      42.556  33.730  35.683  1.00  0.00     0.135 A 
ATOM     89  F   UNL A   1      43.694  35.003  32.467  1.00  0.00    -0.206 F 
ATOM     90  C   UNL A   1      43.795  35.980  34.599  1.00  0.00     0.059 A 
ATOM     91  C   UNL A   1      42.896  34.789  36.517  1.00  0.00     0.059 A 
ATOM     92  F   UNL A   1      41.952  32.660  36.226  1.00  0.00    -0.206 F 
ATOM     93  C   UNL A   1      43.516  35.911  35.965  1.00  0.00     0.060 A 
BRANCH  93  94
ATOM     94  S   UNL A   1      43.926  37.331  37.002  1.00  0.00     0.124 S 
ATOM     95  O   UNL A   1      43.983  38.407  36.019  1.00  0.00    -0.237 OA
ATOM     96  O   UNL A   1      42.799  37.377  37.928  1.00  0.00    -0.237 OA
ATOM     97  O   UNL A   1      45.205  36.957  37.600  1.00  0.00    -0.744 OA
ENDBRANCH  93  94
ENDBRANCH  61  86
ENDBRANCH  35  36
ENDBRANCH  27  30
ENDBRANCH  25  26
ENDBRANCH   1  25
TORSDOF 15
ENDMDL
MODEL 3
REMARK VINA RESULT:     -11.7      0.714      8.231
REMARK SMILES Cc1ccc2c(c1)OCCN2c1sc(C(=O)NCCCCNC(=O)c2ccc(-c3c4nc(c(-c5c(F)cc(S(=O)(=O)[O-])cc5F)c5ccc([nH]5)c(-c5c(F)cc(S(=O)(=O)[O-])cc5F)c5nc(c(-c6c(F)cc(S(=O)(=O)[O-])cc6F)c6ccc3[nH]6)C=C5)C=C4)cc2)cc1C
REMARK SMILES IDX 20 1 19 2 18 3 17 4 15 5 16 6 14 8 12 9 13 10 92 11 91 12
REMARK SMILES IDX 93 13 11 14 1 15 2 16 3 17 7 18 4 19 6 20 5 21 8 22 9 23
REMARK SMILES IDX 10 24 21 25 22 26 23 27 24 29 25 30 26 31 90 32 27 33 89 34
REMARK SMILES IDX 28 35 29 36 30 37 83 38 31 39 88 40 82 41 84 42 32 43 87 44
REMARK SMILES IDX 81 45 80 46 33 48 67 49 46 50 66 51 47 52 50 53 65 54 85 55
REMARK SMILES IDX 48 56 49 57 64 59 86 60 51 61 34 62 35 63 44 64 36 65 37 66
REMARK SMILES IDX 43 67 45 68 38 69 39 70 40 71 41 72 42 73 68 74 69 75 78 76
REMARK SMILES IDX 70 77 71 78 77 79 79 80 72 81 73 82 74 83 75 84 76 85 52 86
REMARK SMILES IDX 53 87 62 88 54 89 55 90 61 91 63 92 56 93 57 94 58 95 59 96
REMARK SMILES IDX 60 97
REMARK H PARENT 17 7 22 28 84 47 50 58
REMARK Flexibility Score: inf
ROOT
ATOM      1  C   UNL A   1      32.187  28.308  26.870  1.00  0.00     0.023 C 
ENDROOT
BRANCH   1   2
ATOM      2  C   UNL A   1      31.710  29.032  25.606  1.00  0.00     0.023 C 
BRANCH   2   3
ATOM      3  C   UNL A   1      32.633  28.868  24.398  1.00  0.00     0.116 C 
BRANCH   3   4
ATOM      4  N   UNL A   1      31.892  28.470  23.216  1.00  0.00    -0.351 N 
ATOM      5  C   UNL A   1      31.489  27.247  22.738  1.00  0.00     0.261 C 
ATOM      6  O   UNL A   1      30.788  27.292  21.721  1.00  0.00    -0.268 OA
ATOM      7  H   UNL A   1      31.625  29.226  22.644  1.00  0.00     0.163 HD
BRANCH   5   8
ATOM      8  C   UNL A   1      31.785  25.976  23.387  1.00  0.00     0.094 A 
ATOM      9  C   UNL A   1      32.690  23.801  24.190  1.00  0.00     0.099 A 
ATOM     10  S   UNL A   1      32.747  24.726  22.746  1.00  0.00    -0.112 S 
ATOM     11  C   UNL A   1      31.741  24.310  25.062  1.00  0.00    -0.015 A 
ATOM     12  C   UNL A   1      31.231  25.563  24.589  1.00  0.00     0.031 A 
ATOM     13  C   UNL A   1      31.320  23.699  26.357  1.00  0.00     0.047 C 
BRANCH   9  14
ATOM     14  N   UNL A   1      33.456  22.691  24.379  1.00  0.00    -0.327 N 
ATOM     15  C   UNL A   1      38.940  22.549  26.150  1.00  0.00     0.044 C 
ATOM     16  C   UNL A   1      37.504  22.593  25.719  1.00  0.00    -0.047 A 
ATOM     17  C   UNL A   1      36.846  23.812  25.545  1.00  0.00     0.006 A 
ATOM     18  C   UNL A   1      36.811  21.410  25.449  1.00  0.00     0.052 A 
ATOM     19  C   UNL A   1      35.511  23.848  25.122  1.00  0.00     0.030 A 
ATOM     20  C   UNL A   1      35.477  21.448  25.028  1.00  0.00     0.143 A 
ATOM     21  C   UNL A   1      34.801  22.672  24.828  1.00  0.00     0.085 A 
ATOM     22  O   UNL A   1      34.893  20.216  24.823  1.00  0.00    -0.490 OA
ATOM     23  C   UNL A   1      33.463  20.295  24.793  1.00  0.00     0.251 C 
ATOM     24  C   UNL A   1      32.985  21.405  23.866  1.00  0.00     0.165 C 
ENDBRANCH   9  14
ENDBRANCH   5   8
ENDBRANCH   3   4
ENDBRANCH   2   3
ENDBRANCH   1   2
BRANCH   1  25
ATOM     25  C   UNL A   1      33.558  28.733  27.389  1.00  0.00     0.116 C 
BRANCH  25  26
ATOM     26  N   UNL A   1      33.590  30.086  27.929  1.00  0.00    -0.352 N 
ATOM     27  C   UNL A   1      34.665  30.759  28.468  1.00  0.00     0.251 C 
ATOM     28  H   UNL A   1      32.740  30.580  27.905  1.00  0.00     0.163 HD
ATOM     29  O   UNL A   1      34.518  31.871  28.966  1.00  0.00    -0.269 OA
BRANCH  27  30
ATOM     30  C   UNL A   1      35.988  30.098  28.488  1.00  0.00     0.039 A 
ATOM     31  C   UNL A   1      36.456  29.491  29.655  1.00  0.00     0.014 A 
ATOM     32  C   UNL A   1      36.798  30.159  27.351  1.00  0.00     0.014 A 
ATOM     33  C   UNL A   1      37.791  29.111  29.740  1.00  0.00     0.010 A 
ATOM     34  C   UNL A   1      38.121  29.707  27.418  1.00  0.00     0.010 A 
ATOM     35  C   UNL A   1      38.646  29.240  28.632  1.00  0.00    -0.014 A 
BRANCH  35  36
ATOM     36  C   UNL A   1      40.093  28.941  28.803  1.00  0.00     0.031 A 
ATOM     37  C   UNL A   1      40.992  29.914  29.523  1.00  0.00     0.074 A 
ATOM     38  C   UNL A   1      40.571  27.744  28.409  1.00  0.00     0.049 A 
ATOM     39  N   UNL A   1      42.255  29.782  29.845  1.00  0.00    -0.248 NA
ATOM     40  C   UNL A   1      40.404  31.199  29.940  1.00  0.00     0.031 C 
ATOM     41  C   UNL A   1      39.794  26.712  27.719  1.00  0.00     0.029 A 
ATOM     42  N   UNL A   1      41.808  27.173  28.574  1.00  0.00    -0.354 N 
ATOM     43  C   UNL A   1      42.610  30.961  30.492  1.00  0.00     0.074 A 
ATOM     44  C   UNL A   1      41.442  31.813  30.490  1.00  0.00     0.031 C 
ATOM     45  C   UNL A   1      40.549  25.610  27.582  1.00  0.00     0.029 A 
ATOM     46  C   UNL A   1      41.877  25.873  28.129  1.00  0.00     0.049 A 
ATOM     47  H   UNL A   1      42.573  27.648  28.971  1.00  0.00     0.167 HD
ATOM     48  C   UNL A   1      43.794  31.294  31.059  1.00  0.00     0.037 A 
ATOM     49  C   UNL A   1      42.894  24.990  28.161  1.00  0.00     0.037 A 
ATOM     50  C   UNL A   1      44.945  30.431  31.097  1.00  0.00     0.049 A 
ATOM     51  C   UNL A   1      44.213  25.407  28.749  1.00  0.00     0.074 A 
ATOM     52  C   UNL A   1      46.182  30.677  31.668  1.00  0.00     0.029 A 
ATOM     53  N   UNL A   1      44.999  29.158  30.554  1.00  0.00    -0.354 N 
ATOM     54  N   UNL A   1      44.526  26.527  29.352  1.00  0.00    -0.248 NA
ATOM     55  C   UNL A   1      45.321  24.448  28.641  1.00  0.00     0.031 C 
ATOM     56  C   UNL A   1      46.995  29.562  31.445  1.00  0.00     0.029 A 
ATOM     57  C   UNL A   1      46.255  28.613  30.759  1.00  0.00     0.049 A 
ATOM     58  H   UNL A   1      44.256  28.709  30.091  1.00  0.00     0.167 HD
ATOM     59  C   UNL A   1      45.867  26.408  29.696  1.00  0.00     0.074 A 
ATOM     60  C   UNL A   1      46.301  25.099  29.254  1.00  0.00     0.031 C 
ATOM     61  C   UNL A   1      46.670  27.309  30.311  1.00  0.00     0.037 A 
BRANCH  48  62
ATOM     62  C   UNL A   1      43.915  32.643  31.707  1.00  0.00     0.058 A 
ATOM     63  C   UNL A   1      43.656  32.818  33.075  1.00  0.00     0.135 A 
ATOM     64  C   UNL A   1      44.389  33.747  30.981  1.00  0.00     0.135 A 
ATOM     65  F   UNL A   1      43.185  31.798  33.809  1.00  0.00    -0.206 F 
ATOM     66  C   UNL A   1      43.864  34.043  33.701  1.00  0.00     0.059 A 
ATOM     67  C   UNL A   1      44.621  34.977  31.590  1.00  0.00     0.059 A 
ATOM     68  F   UNL A   1      44.650  33.630  29.669  1.00  0.00    -0.206 F 
ATOM     69  C   UNL A   1      44.353  35.114  32.951  1.00  0.00     0.060 A 
BRANCH  69  70
ATOM     70  S   UNL A   1      44.658  36.683  33.792  1.00  0.00     0.124 S 
ATOM     71  O   UNL A   1      45.918  36.407  34.476  1.00  0.00    -0.237 OA
ATOM     72  O   UNL A   1      44.736  37.623  32.679  1.00  0.00    -0.237 OA
ATOM     73  O   UNL A   1      43.494  36.837  34.660  1.00  0.00    -0.744 OA
ENDBRANCH  69  70
ENDBRANCH  48  62
BRANCH  49  74
ATOM     74  C   UNL A   1      42.711  23.621  27.613  1.00  0.00     0.058 A 
ATOM     75  C   UNL A   1      42.436  22.538  28.461  1.00  0.00     0.135 A 
ATOM     76  C   UNL A   1      42.815  23.368  26.238  1.00  0.00     0.135 A 
ATOM     77  F   UNL A   1      42.333  22.732  29.785  1.00  0.00    -0.206 F 
ATOM     78  C   UNL A   1      42.285  21.248  27.966  1.00  0.00     0.059 A 
ATOM     79  C   UNL A   1      42.648  22.090  25.716  1.00  0.00     0.059 A 
ATOM     80  F   UNL A   1      43.066  24.375  25.385  1.00  0.00    -0.206 F 
ATOM     81  C   UNL A   1      42.396  21.033  26.591  1.00  0.00     0.060 A 
BRANCH  81  82
ATOM     82  S   UNL A   1      42.171  19.360  25.950  1.00  0.00     0.124 S 
ATOM     83  O   UNL A   1      40.726  19.310  25.768  1.00  0.00    -0.237 OA
ATOM     84  O   UNL A   1      42.970  19.385  24.729  1.00  0.00    -0.237 OA
ATOM     85  O   UNL A   1      42.704  18.520  27.019  1.00  0.00    -0.744 OA
ENDBRANCH  81  82
ENDBRANCH  49  74
BRANCH  61  86
ATOM     86  C   UNL A   1      48.102  26.926  30.536  1.00  0.00     0.058 A 
ATOM     87  C   UNL A   1      49.101  27.307  29.627  1.00  0.00     0.135 A 
ATOM     88  C   UNL A   1      48.494  26.263  31.709  1.00  0.00     0.135 A 
ATOM     89  F   UNL A   1      48.773  27.936  28.487  1.00  0.00    -0.206 F 
ATOM     90  C   UNL A   1      50.443  27.047  29.877  1.00  0.00     0.059 A 
ATOM     91  C   UNL A   1      49.832  26.009  31.988  1.00  0.00     0.059 A 
ATOM     92  F   UNL A   1      47.573  25.884  32.610  1.00  0.00    -0.206 F 
ATOM     93  C   UNL A   1      50.800  26.405  31.064  1.00  0.00     0.060 A 
BRANCH  93  94
ATOM     94  S   UNL A   1      52.553  26.144  31.410  1.00  0.00     0.124 S 
ATOM     95  O   UNL A   1      52.847  27.260  32.302  1.00  0.00    -0.237 OA
ATOM     96  O   UNL A   1      52.556  24.821  32.026  1.00  0.00    -0.237 OA
ATOM     97  O   UNL A   1      53.174  26.215  30.089  1.00  0.00    -0.744 OA
ENDBRANCH  93  94
ENDBRANCH  61  86
ENDBRANCH  35  36
ENDBRANCH  27  30
ENDBRANCH  25  26
ENDBRANCH   1  25
TORSDOF 15
ENDMDL
