MODEL 1
REMARK VINA RESULT:     -13.8      0.000      0.000
REMARK SMILES Cc1cnn(C2(C(=O)NCCCCNC(=O)c3ccc(-c4c5nc(c(-c6c(F)cc(S(=O)(=O)[O-])cc6F)c6ccc([nH]6)c(-c6c(F)cc(S(=O)(=O)[O-])cc6F)c6nc(c(-c7c(F)cc(S(=O)(=O)[O-])cc7F)c7ccc4[nH]7)C=C6)C=C5)cc3)CCN(C(=O)c3cc4ccccc4[nH]3)CC2)c1
REMARK SMILES IDX 12 1 11 2 10 3 9 4 7 5 8 6 6 8 83 9 98 10 84 11 97 12 85 13
REMARK SMILES IDX 86 14 87 15 5 16 1 17 2 18 3 19 99 20 4 21 88 22 89 23 96 24
REMARK SMILES IDX 90 25 95 26 91 28 94 29 92 30 93 31 13 32 14 33 15 34 16 36
REMARK SMILES IDX 17 37 18 38 82 39 19 40 81 41 20 42 21 43 22 44 75 45 23 46
REMARK SMILES IDX 80 47 74 48 76 49 24 50 79 51 73 52 72 53 25 55 59 56 38 57
REMARK SMILES IDX 58 58 39 59 42 60 57 61 77 62 40 63 41 64 56 66 78 67 43 68
REMARK SMILES IDX 26 69 27 70 36 71 28 72 29 73 35 74 37 75 30 76 31 77 32 78
REMARK SMILES IDX 33 79 34 80 60 81 61 82 70 83 62 84 63 85 69 86 71 87 64 88
REMARK SMILES IDX 65 89 66 90 67 91 68 92 44 93 45 94 54 95 46 96 47 97 53 98
REMARK SMILES IDX 55 99 48 100 49 101 50 102 51 103 52 104
REMARK H PARENT 9 7 96 27 14 35 76 54 42 65
REMARK Flexibility Score: inf
ROOT
ATOM      1  C   UNL A   1      32.323  30.338  26.905  1.00  0.00     0.023 C 
ENDROOT
BRANCH   1   2
ATOM      2  C   UNL A   1      32.170  28.944  26.281  1.00  0.00     0.023 C 
BRANCH   2   3
ATOM      3  C   UNL A   1      32.158  27.761  27.256  1.00  0.00     0.116 C 
BRANCH   3   4
ATOM      4  N   UNL A   1      31.061  26.836  27.007  1.00  0.00    -0.354 N 
ATOM      5  C   UNL A   1      30.908  25.726  26.205  1.00  0.00     0.248 C 
ATOM      6  O   UNL A   1      29.782  25.232  26.290  1.00  0.00    -0.272 OA
ATOM      7  H   UNL A   1      30.251  27.052  27.524  1.00  0.00     0.163 HD
BRANCH   5   8
ATOM      8  C   UNL A   1      32.077  25.177  25.309  1.00  0.00     0.144 C 
ATOM      9  C   UNL A   1      33.373  25.266  26.155  1.00  0.00     0.062 C 
ATOM     10  C   UNL A   1      31.652  23.748  24.872  1.00  0.00     0.062 C 
ATOM     11  C   UNL A   1      34.404  24.184  25.884  1.00  0.00     0.123 C 
ATOM     12  C   UNL A   1      32.797  22.776  24.625  1.00  0.00     0.123 C 
ATOM     13  N   UNL A   1      33.819  22.874  25.664  1.00  0.00    -0.337 N 
ATOM     14  C   UNL A   1      34.303  21.784  26.374  1.00  0.00     0.270 C 
ATOM     15  O   UNL A   1      34.902  21.926  27.456  1.00  0.00    -0.267 OA
BRANCH   8  16
ATOM     16  N   UNL A   1      32.330  25.956  24.048  1.00  0.00    -0.257 N 
ATOM     17  C   UNL A   1      34.119  28.301  21.865  1.00  0.00     0.048 C 
ATOM     18  C   UNL A   1      33.246  27.324  22.549  1.00  0.00    -0.013 A 
ATOM     19  C   UNL A   1      32.176  26.582  22.021  1.00  0.00     0.138 A 
ATOM     20  C   UNL A   1      33.301  26.920  23.863  1.00  0.00     0.113 A 
ATOM     21  N   UNL A   1      31.601  25.797  22.931  1.00  0.00    -0.180 NA
ENDBRANCH   8  16
BRANCH  14  22
ATOM     22  C   UNL A   1      34.083  20.477  25.818  1.00  0.00     0.105 A 
ATOM     23  C   UNL A   1      34.704  19.858  24.743  1.00  0.00     0.042 A 
ATOM     24  N   UNL A   1      33.192  19.569  26.337  1.00  0.00    -0.351 N 
ATOM     25  C   UNL A   1      34.124  18.573  24.574  1.00  0.00     0.000 A 
ATOM     26  C   UNL A   1      33.148  18.434  25.561  1.00  0.00     0.046 A 
ATOM     27  H   UNL A   1      32.659  19.711  27.152  1.00  0.00     0.167 HD
ATOM     28  C   UNL A   1      34.329  17.516  23.668  1.00  0.00     0.010 A 
ATOM     29  C   UNL A   1      32.333  17.303  25.662  1.00  0.00     0.026 A 
ATOM     30  C   UNL A   1      33.533  16.370  23.764  1.00  0.00     0.001 A 
ATOM     31  C   UNL A   1      32.543  16.273  24.740  1.00  0.00     0.002 A 
ENDBRANCH  14  22
ENDBRANCH   5   8
ENDBRANCH   3   4
ENDBRANCH   2   3
ENDBRANCH   1   2
BRANCH   1  32
ATOM     32  C   UNL A   1      33.722  30.662  27.414  1.00  0.00     0.116 C 
BRANCH  32  33
ATOM     33  N   UNL A   1      33.720  31.688  28.455  1.00  0.00    -0.352 N 
ATOM     34  C   UNL A   1      34.654  31.889  29.450  1.00  0.00     0.251 C 
ATOM     35  H   UNL A   1      32.958  32.311  28.446  1.00  0.00     0.163 HD
ATOM     36  O   UNL A   1      34.365  32.529  30.458  1.00  0.00    -0.269 OA
BRANCH  34  37
ATOM     37  C   UNL A   1      36.005  31.322  29.288  1.00  0.00     0.039 A 
ATOM     38  C   UNL A   1      37.105  32.149  29.040  1.00  0.00     0.014 A 
ATOM     39  C   UNL A   1      36.165  29.944  29.419  1.00  0.00     0.014 A 
ATOM     40  C   UNL A   1      38.380  31.586  29.018  1.00  0.00     0.010 A 
ATOM     41  C   UNL A   1      37.429  29.409  29.513  1.00  0.00     0.010 A 
ATOM     42  C   UNL A   1      38.541  30.217  29.284  1.00  0.00    -0.014 A 
BRANCH  42  43
ATOM     43  C   UNL A   1      39.880  29.649  29.452  1.00  0.00     0.031 A 
ATOM     44  C   UNL A   1      40.290  29.410  30.869  1.00  0.00     0.074 A 
ATOM     45  C   UNL A   1      40.600  29.140  28.429  1.00  0.00     0.049 A 
ATOM     46  N   UNL A   1      41.257  29.960  31.527  1.00  0.00    -0.248 NA
ATOM     47  C   UNL A   1      39.440  28.534  31.693  1.00  0.00     0.031 C 
ATOM     48  C   UNL A   1      40.193  28.979  27.028  1.00  0.00     0.029 A 
ATOM     49  N   UNL A   1      41.817  28.532  28.454  1.00  0.00    -0.354 N 
ATOM     50  C   UNL A   1      41.277  29.343  32.779  1.00  0.00     0.074 A 
ATOM     51  C   UNL A   1      40.036  28.623  32.884  1.00  0.00     0.031 C 
ATOM     52  C   UNL A   1      41.026  28.113  26.412  1.00  0.00     0.029 A 
ATOM     53  C   UNL A   1      42.117  27.791  27.314  1.00  0.00     0.049 A 
ATOM     54  H   UNL A   1      42.435  28.610  29.216  1.00  0.00     0.167 HD
ATOM     55  C   UNL A   1      42.413  29.293  33.534  1.00  0.00     0.037 A 
ATOM     56  C   UNL A   1      43.164  26.944  27.143  1.00  0.00     0.037 A 
ATOM     57  C   UNL A   1      43.394  30.234  33.049  1.00  0.00     0.049 A 
ATOM     58  C   UNL A   1      44.175  27.289  28.175  1.00  0.00     0.074 A 
ATOM     59  C   UNL A   1      43.424  31.602  32.861  1.00  0.00     0.029 A 
ATOM     60  N   UNL A   1      44.446  29.737  32.319  1.00  0.00    -0.354 N 
ATOM     61  N   UNL A   1      44.850  28.405  28.193  1.00  0.00    -0.248 NA
ATOM     62  C   UNL A   1      44.128  26.572  29.440  1.00  0.00     0.031 C 
ATOM     63  C   UNL A   1      44.159  31.791  31.653  1.00  0.00     0.029 A 
ATOM     64  C   UNL A   1      44.593  30.538  31.218  1.00  0.00     0.049 A 
ATOM     65  H   UNL A   1      44.994  28.950  32.546  1.00  0.00     0.167 HD
ATOM     66  C   UNL A   1      44.933  28.748  29.533  1.00  0.00     0.074 A 
ATOM     67  C   UNL A   1      44.564  27.534  30.257  1.00  0.00     0.031 C 
ATOM     68  C   UNL A   1      45.016  30.054  29.923  1.00  0.00     0.037 A 
BRANCH  55  69
ATOM     69  C   UNL A   1      42.794  28.165  34.475  1.00  0.00     0.058 A 
ATOM     70  C   UNL A   1      43.029  28.455  35.839  1.00  0.00     0.135 A 
ATOM     71  C   UNL A   1      43.218  26.885  34.054  1.00  0.00     0.135 A 
ATOM     72  F   UNL A   1      42.660  29.637  36.361  1.00  0.00    -0.206 F 
ATOM     73  C   UNL A   1      43.719  27.587  36.686  1.00  0.00     0.059 A 
ATOM     74  C   UNL A   1      43.858  25.981  34.898  1.00  0.00     0.059 A 
ATOM     75  F   UNL A   1      43.122  26.476  32.784  1.00  0.00    -0.206 F 
ATOM     76  C   UNL A   1      44.149  26.359  36.198  1.00  0.00     0.060 A 
BRANCH  76  77
ATOM     77  S   UNL A   1      45.142  25.286  37.250  1.00  0.00     0.124 S 
ATOM     78  O   UNL A   1      45.106  24.034  36.501  1.00  0.00    -0.237 OA
ATOM     79  O   UNL A   1      46.424  25.983  37.270  1.00  0.00    -0.237 OA
ATOM     80  O   UNL A   1      44.413  25.289  38.514  1.00  0.00    -0.744 OA
ENDBRANCH  76  77
ENDBRANCH  55  69
BRANCH  56  81
ATOM     81  C   UNL A   1      43.242  25.686  26.357  1.00  0.00     0.058 A 
ATOM     82  C   UNL A   1      44.230  25.521  25.367  1.00  0.00     0.135 A 
ATOM     83  C   UNL A   1      42.567  24.517  26.760  1.00  0.00     0.135 A 
ATOM     84  F   UNL A   1      44.925  26.579  24.924  1.00  0.00    -0.206 F 
ATOM     85  C   UNL A   1      44.585  24.264  24.869  1.00  0.00     0.059 A 
ATOM     86  C   UNL A   1      42.895  23.254  26.267  1.00  0.00     0.059 A 
ATOM     87  F   UNL A   1      41.632  24.554  27.722  1.00  0.00    -0.206 F 
ATOM     88  C   UNL A   1      43.930  23.131  25.348  1.00  0.00     0.060 A 
BRANCH  88  89
ATOM     89  S   UNL A   1      44.537  21.494  24.876  1.00  0.00     0.124 S 
ATOM     90  O   UNL A   1      44.616  21.608  23.424  1.00  0.00    -0.237 OA
ATOM     91  O   UNL A   1      45.814  21.424  25.580  1.00  0.00    -0.237 OA
ATOM     92  O   UNL A   1      43.503  20.593  25.377  1.00  0.00    -0.744 OA
ENDBRANCH  88  89
ENDBRANCH  56  81
BRANCH  68  93
ATOM     93  C   UNL A   1      45.364  31.090  28.885  1.00  0.00     0.058 A 
ATOM     94  C   UNL A   1      44.449  31.679  27.993  1.00  0.00     0.135 A 
ATOM     95  C   UNL A   1      46.674  31.592  28.878  1.00  0.00     0.135 A 
ATOM     96  F   UNL A   1      43.151  31.344  28.009  1.00  0.00    -0.206 F 
ATOM     97  C   UNL A   1      44.837  32.674  27.094  1.00  0.00     0.059 A 
ATOM     98  C   UNL A   1      47.074  32.608  28.016  1.00  0.00     0.059 A 
ATOM     99  F   UNL A   1      47.581  31.119  29.749  1.00  0.00    -0.206 F 
ATOM    100  C   UNL A   1      46.155  33.129  27.110  1.00  0.00     0.060 A 
BRANCH 100 101
ATOM    101  S   UNL A   1      46.649  34.443  25.974  1.00  0.00     0.124 S 
ATOM    102  O   UNL A   1      45.648  34.329  24.920  1.00  0.00    -0.237 OA
ATOM    103  O   UNL A   1      46.557  35.638  26.809  1.00  0.00    -0.237 OA
ATOM    104  O   UNL A   1      48.007  34.068  25.589  1.00  0.00    -0.744 OA
ENDBRANCH 100 101
ENDBRANCH  68  93
ENDBRANCH  42  43
ENDBRANCH  34  37
ENDBRANCH  32  33
ENDBRANCH   1  32
TORSDOF 16
ENDMDL
MODEL 2
REMARK VINA RESULT:     -13.3      2.584      9.482
REMARK SMILES Cc1cnn(C2(C(=O)NCCCCNC(=O)c3ccc(-c4c5nc(c(-c6c(F)cc(S(=O)(=O)[O-])cc6F)c6ccc([nH]6)c(-c6c(F)cc(S(=O)(=O)[O-])cc6F)c6nc(c(-c7c(F)cc(S(=O)(=O)[O-])cc7F)c7ccc4[nH]7)C=C6)C=C5)cc3)CCN(C(=O)c3cc4ccccc4[nH]3)CC2)c1
REMARK SMILES IDX 12 1 11 2 10 3 9 4 7 5 8 6 6 8 83 9 98 10 84 11 97 12 85 13
REMARK SMILES IDX 86 14 87 15 5 16 1 17 2 18 3 19 99 20 4 21 88 22 89 23 96 24
REMARK SMILES IDX 90 25 95 26 91 28 94 29 92 30 93 31 13 32 14 33 15 34 16 36
REMARK SMILES IDX 17 37 18 38 82 39 19 40 81 41 20 42 21 43 22 44 75 45 23 46
REMARK SMILES IDX 80 47 74 48 76 49 24 50 79 51 73 52 72 53 25 55 59 56 38 57
REMARK SMILES IDX 58 58 39 59 42 60 57 61 77 62 40 63 41 64 56 66 78 67 43 68
REMARK SMILES IDX 26 69 27 70 36 71 28 72 29 73 35 74 37 75 30 76 31 77 32 78
REMARK SMILES IDX 33 79 34 80 60 81 61 82 70 83 62 84 63 85 69 86 71 87 64 88
REMARK SMILES IDX 65 89 66 90 67 91 68 92 44 93 45 94 54 95 46 96 47 97 53 98
REMARK SMILES IDX 55 99 48 100 49 101 50 102 51 103 52 104
REMARK H PARENT 9 7 96 27 14 35 76 54 42 65
REMARK Flexibility Score: inf
ROOT
ATOM      1  C   UNL A   1      38.434  21.103  25.507  1.00  0.00     0.023 C 
ENDROOT
BRANCH   1   2
ATOM      2  C   UNL A   1      37.534  22.108  24.774  1.00  0.00     0.023 C 
BRANCH   2   3
ATOM      3  C   UNL A   1      36.028  21.821  24.804  1.00  0.00     0.116 C 
BRANCH   3   4
ATOM      4  N   UNL A   1      35.457  21.952  26.138  1.00  0.00    -0.354 N 
ATOM      5  C   UNL A   1      34.172  22.083  26.620  1.00  0.00     0.248 C 
ATOM      6  O   UNL A   1      34.135  22.175  27.849  1.00  0.00    -0.272 OA
ATOM      7  H   UNL A   1      36.136  21.945  26.850  1.00  0.00     0.163 HD
BRANCH   5   8
ATOM      8  C   UNL A   1      32.921  22.091  25.669  1.00  0.00     0.144 C 
ATOM      9  C   UNL A   1      31.665  22.014  26.575  1.00  0.00     0.062 C 
ATOM     10  C   UNL A   1      33.048  23.370  24.798  1.00  0.00     0.062 C 
ATOM     11  C   UNL A   1      30.437  22.737  26.051  1.00  0.00     0.123 C 
ATOM     12  C   UNL A   1      31.731  23.976  24.336  1.00  0.00     0.123 C 
ATOM     13  N   UNL A   1      30.744  24.004  25.413  1.00  0.00    -0.337 N 
ATOM     14  C   UNL A   1      30.045  25.143  25.788  1.00  0.00     0.270 C 
ATOM     15  O   UNL A   1      29.481  25.225  26.894  1.00  0.00    -0.267 OA
BRANCH   8  16
ATOM     16  N   UNL A   1      32.838  20.928  24.718  1.00  0.00    -0.257 N 
ATOM     17  C   UNL A   1      32.924  17.394  23.738  1.00  0.00     0.048 C 
ATOM     18  C   UNL A   1      32.835  18.861  23.893  1.00  0.00    -0.013 A 
ATOM     19  C   UNL A   1      32.442  19.822  22.945  1.00  0.00     0.138 A 
ATOM     20  C   UNL A   1      33.111  19.608  25.015  1.00  0.00     0.113 A 
ATOM     21  N   UNL A   1      32.488  21.062  23.428  1.00  0.00    -0.180 NA
ENDBRANCH   8  16
BRANCH  14  22
ATOM     22  C   UNL A   1      29.997  26.233  24.852  1.00  0.00     0.105 A 
ATOM     23  C   UNL A   1      31.028  27.025  24.366  1.00  0.00     0.042 A 
ATOM     24  N   UNL A   1      28.848  26.650  24.226  1.00  0.00    -0.351 N 
ATOM     25  C   UNL A   1      30.470  27.981  23.476  1.00  0.00     0.000 A 
ATOM     26  C   UNL A   1      29.095  27.751  23.439  1.00  0.00     0.046 A 
ATOM     27  H   UNL A   1      27.969  26.219  24.326  1.00  0.00     0.167 HD
ATOM     28  C   UNL A   1      31.004  29.030  22.704  1.00  0.00     0.010 A 
ATOM     29  C   UNL A   1      28.216  28.547  22.699  1.00  0.00     0.026 A 
ATOM     30  C   UNL A   1      30.141  29.827  21.944  1.00  0.00     0.001 A 
ATOM     31  C   UNL A   1      28.767  29.594  21.954  1.00  0.00     0.002 A 
ENDBRANCH  14  22
ENDBRANCH   5   8
ENDBRANCH   3   4
ENDBRANCH   2   3
ENDBRANCH   1   2
BRANCH   1  32
ATOM     32  C   UNL A   1      39.558  21.727  26.325  1.00  0.00     0.116 C 
BRANCH  32  33
ATOM     33  N   UNL A   1      40.830  21.028  26.160  1.00  0.00    -0.352 N 
ATOM     34  C   UNL A   1      42.097  21.571  26.119  1.00  0.00     0.251 C 
ATOM     35  H   UNL A   1      40.777  20.049  26.066  1.00  0.00     0.163 HD
ATOM     36  O   UNL A   1      43.029  20.944  25.621  1.00  0.00    -0.269 OA
BRANCH  34  37
ATOM     37  C   UNL A   1      42.317  22.916  26.678  1.00  0.00     0.039 A 
ATOM     38  C   UNL A   1      42.059  24.060  25.918  1.00  0.00     0.014 A 
ATOM     39  C   UNL A   1      42.760  23.022  27.996  1.00  0.00     0.014 A 
ATOM     40  C   UNL A   1      42.161  25.311  26.526  1.00  0.00     0.010 A 
ATOM     41  C   UNL A   1      42.747  24.245  28.625  1.00  0.00     0.010 A 
ATOM     42  C   UNL A   1      42.478  25.398  27.890  1.00  0.00    -0.014 A 
BRANCH  42  43
ATOM     43  C   UNL A   1      42.403  26.684  28.585  1.00  0.00     0.031 A 
ATOM     44  C   UNL A   1      43.525  27.627  28.290  1.00  0.00     0.074 A 
ATOM     45  C   UNL A   1      41.300  27.106  29.240  1.00  0.00     0.049 A 
ATOM     46  N   UNL A   1      44.417  28.090  29.103  1.00  0.00    -0.248 NA
ATOM     47  C   UNL A   1      43.752  28.008  26.886  1.00  0.00     0.031 C 
ATOM     48  C   UNL A   1      39.991  26.448  29.325  1.00  0.00     0.029 A 
ATOM     49  N   UNL A   1      41.075  28.293  29.869  1.00  0.00    -0.354 N 
ATOM     50  C   UNL A   1      45.186  28.991  28.364  1.00  0.00     0.074 A 
ATOM     51  C   UNL A   1      44.853  28.757  26.984  1.00  0.00     0.031 C 
ATOM     52  C   UNL A   1      39.064  27.338  29.742  1.00  0.00     0.029 A 
ATOM     53  C   UNL A   1      39.734  28.571  30.115  1.00  0.00     0.049 A 
ATOM     54  H   UNL A   1      41.802  28.903  30.127  1.00  0.00     0.167 HD
ATOM     55  C   UNL A   1      45.868  30.010  28.965  1.00  0.00     0.037 A 
ATOM     56  C   UNL A   1      39.211  29.744  30.555  1.00  0.00     0.037 A 
ATOM     57  C   UNL A   1      45.973  29.790  30.386  1.00  0.00     0.049 A 
ATOM     58  C   UNL A   1      40.324  30.514  31.166  1.00  0.00     0.074 A 
ATOM     59  C   UNL A   1      46.502  28.793  31.184  1.00  0.00     0.029 A 
ATOM     60  N   UNL A   1      45.144  30.519  31.205  1.00  0.00    -0.354 N 
ATOM     61  N   UNL A   1      40.935  30.169  32.265  1.00  0.00    -0.248 NA
ATOM     62  C   UNL A   1      41.051  31.447  30.318  1.00  0.00     0.031 C 
ATOM     63  C   UNL A   1      45.592  28.675  32.276  1.00  0.00     0.029 A 
ATOM     64  C   UNL A   1      44.606  29.649  32.117  1.00  0.00     0.049 A 
ATOM     65  H   UNL A   1      44.971  31.487  31.148  1.00  0.00     0.167 HD
ATOM     66  C   UNL A   1      42.268  30.477  32.042  1.00  0.00     0.074 A 
ATOM     67  C   UNL A   1      42.261  31.354  30.873  1.00  0.00     0.031 C 
ATOM     68  C   UNL A   1      43.266  29.770  32.647  1.00  0.00     0.037 A 
BRANCH  55  69
ATOM     69  C   UNL A   1      46.129  31.373  28.351  1.00  0.00     0.058 A 
ATOM     70  C   UNL A   1      45.035  32.140  27.886  1.00  0.00     0.135 A 
ATOM     71  C   UNL A   1      47.399  31.832  27.937  1.00  0.00     0.135 A 
ATOM     72  F   UNL A   1      43.777  31.810  28.222  1.00  0.00    -0.206 F 
ATOM     73  C   UNL A   1      45.185  33.209  27.002  1.00  0.00     0.059 A 
ATOM     74  C   UNL A   1      47.574  32.931  27.101  1.00  0.00     0.059 A 
ATOM     75  F   UNL A   1      48.531  31.188  28.241  1.00  0.00    -0.206 F 
ATOM     76  C   UNL A   1      46.461  33.583  26.598  1.00  0.00     0.060 A 
BRANCH  76  77
ATOM     77  S   UNL A   1      46.655  34.883  25.367  1.00  0.00     0.124 S 
ATOM     78  O   UNL A   1      45.634  34.514  24.393  1.00  0.00    -0.237 OA
ATOM     79  O   UNL A   1      46.388  36.085  26.150  1.00  0.00    -0.237 OA
ATOM     80  O   UNL A   1      48.038  34.723  24.926  1.00  0.00    -0.744 OA
ENDBRANCH  76  77
ENDBRANCH  55  69
BRANCH  56  81
ATOM     81  C   UNL A   1      37.902  30.373  30.238  1.00  0.00     0.058 A 
ATOM     82  C   UNL A   1      37.131  30.971  31.253  1.00  0.00     0.135 A 
ATOM     83  C   UNL A   1      37.527  30.675  28.914  1.00  0.00     0.135 A 
ATOM     84  F   UNL A   1      37.419  30.741  32.543  1.00  0.00    -0.206 F 
ATOM     85  C   UNL A   1      36.105  31.878  30.974  1.00  0.00     0.059 A 
ATOM     86  C   UNL A   1      36.499  31.568  28.612  1.00  0.00     0.059 A 
ATOM     87  F   UNL A   1      38.215  30.188  27.870  1.00  0.00    -0.206 F 
ATOM     88  C   UNL A   1      35.816  32.194  29.648  1.00  0.00     0.060 A 
BRANCH  88  89
ATOM     89  S   UNL A   1      34.650  33.529  29.291  1.00  0.00     0.124 S 
ATOM     90  O   UNL A   1      34.007  33.723  30.586  1.00  0.00    -0.237 OA
ATOM     91  O   UNL A   1      35.536  34.603  28.853  1.00  0.00    -0.237 OA
ATOM     92  O   UNL A   1      33.797  32.965  28.248  1.00  0.00    -0.744 OA
ENDBRANCH  88  89
ENDBRANCH  56  81
BRANCH  68  93
ATOM     93  C   UNL A   1      42.911  28.887  33.816  1.00  0.00     0.058 A 
ATOM     94  C   UNL A   1      42.749  29.329  35.141  1.00  0.00     0.135 A 
ATOM     95  C   UNL A   1      42.607  27.543  33.550  1.00  0.00     0.135 A 
ATOM     96  F   UNL A   1      42.905  30.620  35.467  1.00  0.00    -0.206 F 
ATOM     97  C   UNL A   1      42.365  28.458  36.164  1.00  0.00     0.059 A 
ATOM     98  C   UNL A   1      42.188  26.668  34.546  1.00  0.00     0.059 A 
ATOM     99  F   UNL A   1      42.679  27.073  32.293  1.00  0.00    -0.206 F 
ATOM    100  C   UNL A   1      42.091  27.126  35.856  1.00  0.00     0.060 A 
BRANCH 100 101
ATOM    101  S   UNL A   1      41.557  26.008  37.170  1.00  0.00     0.124 S 
ATOM    102  O   UNL A   1      41.473  24.731  36.470  1.00  0.00    -0.237 OA
ATOM    103  O   UNL A   1      42.637  26.126  38.146  1.00  0.00    -0.237 OA
ATOM    104  O   UNL A   1      40.279  26.571  37.598  1.00  0.00    -0.744 OA
ENDBRANCH 100 101
ENDBRANCH  68  93
ENDBRANCH  42  43
ENDBRANCH  34  37
ENDBRANCH  32  33
ENDBRANCH   1  32
TORSDOF 16
ENDMDL
MODEL 3
REMARK VINA RESULT:     -12.8      2.766      9.515
REMARK SMILES Cc1cnn(C2(C(=O)NCCCCNC(=O)c3ccc(-c4c5nc(c(-c6c(F)cc(S(=O)(=O)[O-])cc6F)c6ccc([nH]6)c(-c6c(F)cc(S(=O)(=O)[O-])cc6F)c6nc(c(-c7c(F)cc(S(=O)(=O)[O-])cc7F)c7ccc4[nH]7)C=C6)C=C5)cc3)CCN(C(=O)c3cc4ccccc4[nH]3)CC2)c1
REMARK SMILES IDX 12 1 11 2 10 3 9 4 7 5 8 6 6 8 83 9 98 10 84 11 97 12 85 13
REMARK SMILES IDX 86 14 87 15 5 16 1 17 2 18 3 19 99 20 4 21 88 22 89 23 96 24
REMARK SMILES IDX 90 25 95 26 91 28 94 29 92 30 93 31 13 32 14 33 15 34 16 36
REMARK SMILES IDX 17 37 18 38 82 39 19 40 81 41 20 42 21 43 22 44 75 45 23 46
REMARK SMILES IDX 80 47 74 48 76 49 24 50 79 51 73 52 72 53 25 55 59 56 38 57
REMARK SMILES IDX 58 58 39 59 42 60 57 61 77 62 40 63 41 64 56 66 78 67 43 68
REMARK SMILES IDX 26 69 27 70 36 71 28 72 29 73 35 74 37 75 30 76 31 77 32 78
REMARK SMILES IDX 33 79 34 80 60 81 61 82 70 83 62 84 63 85 69 86 71 87 64 88
REMARK SMILES IDX 65 89 66 90 67 91 68 92 44 93 45 94 54 95 46 96 47 97 53 98
REMARK SMILES IDX 55 99 48 100 49 101 50 102 51 103 52 104
REMARK H PARENT 9 7 96 27 14 35 76 54 42 65
REMARK Flexibility Score: inf
ROOT
ATOM      1  C   UNL A   1      36.661  23.026  24.699  1.00  0.00     0.023 C 
ENDROOT
BRANCH   1   2
ATOM      2  C   UNL A   1      36.728  21.542  24.311  1.00  0.00     0.023 C 
BRANCH   2   3
ATOM      3  C   UNL A   1      35.679  20.624  24.949  1.00  0.00     0.116 C 
BRANCH   3   4
ATOM      4  N   UNL A   1      35.213  21.112  26.240  1.00  0.00    -0.354 N 
ATOM      5  C   UNL A   1      34.014  21.612  26.699  1.00  0.00     0.248 C 
ATOM      6  O   UNL A   1      34.055  21.925  27.890  1.00  0.00    -0.272 OA
ATOM      7  H   UNL A   1      35.908  21.078  26.938  1.00  0.00     0.163 HD
BRANCH   5   8
ATOM      8  C   UNL A   1      32.751  21.735  25.770  1.00  0.00     0.144 C 
ATOM      9  C   UNL A   1      31.510  21.773  26.698  1.00  0.00     0.062 C 
ATOM     10  C   UNL A   1      32.980  22.998  24.896  1.00  0.00     0.062 C 
ATOM     11  C   UNL A   1      30.344  22.606  26.195  1.00  0.00     0.123 C 
ATOM     12  C   UNL A   1      31.715  23.722  24.456  1.00  0.00     0.123 C 
ATOM     13  N   UNL A   1      30.755  23.840  25.550  1.00  0.00    -0.337 N 
ATOM     14  C   UNL A   1      30.169  25.037  25.936  1.00  0.00     0.270 C 
ATOM     15  O   UNL A   1      29.635  25.170  27.052  1.00  0.00    -0.267 OA
BRANCH   8  16
ATOM     16  N   UNL A   1      32.546  20.585  24.822  1.00  0.00    -0.257 N 
ATOM     17  C   UNL A   1      32.199  18.968  21.548  1.00  0.00     0.048 C 
ATOM     18  C   UNL A   1      32.316  19.388  22.960  1.00  0.00    -0.013 A 
ATOM     19  C   UNL A   1      32.381  18.587  24.112  1.00  0.00     0.138 A 
ATOM     20  C   UNL A   1      32.395  20.671  23.454  1.00  0.00     0.113 A 
ATOM     21  N   UNL A   1      32.475  19.307  25.229  1.00  0.00    -0.180 NA
ENDBRANCH   8  16
BRANCH  14  22
ATOM     22  C   UNL A   1      30.205  26.128  25.000  1.00  0.00     0.105 A 
ATOM     23  C   UNL A   1      29.205  26.609  24.167  1.00  0.00     0.042 A 
ATOM     24  N   UNL A   1      31.299  26.937  24.815  1.00  0.00    -0.351 N 
ATOM     25  C   UNL A   1      29.736  27.692  23.417  1.00  0.00     0.000 A 
ATOM     26  C   UNL A   1      31.064  27.849  23.813  1.00  0.00     0.046 A 
ATOM     27  H   UNL A   1      32.136  26.873  25.330  1.00  0.00     0.167 HD
ATOM     28  C   UNL A   1      29.215  28.549  22.430  1.00  0.00     0.010 A 
ATOM     29  C   UNL A   1      31.916  28.797  23.238  1.00  0.00     0.026 A 
ATOM     30  C   UNL A   1      30.049  29.515  21.855  1.00  0.00     0.001 A 
ATOM     31  C   UNL A   1      31.382  29.626  22.246  1.00  0.00     0.002 A 
ENDBRANCH  14  22
ENDBRANCH   5   8
ENDBRANCH   3   4
ENDBRANCH   2   3
ENDBRANCH   1   2
BRANCH   1  32
ATOM     32  C   UNL A   1      37.624  23.443  25.804  1.00  0.00     0.116 C 
BRANCH  32  33
ATOM     33  N   UNL A   1      38.672  22.453  26.042  1.00  0.00    -0.352 N 
ATOM     34  C   UNL A   1      39.997  22.678  26.352  1.00  0.00     0.251 C 
ATOM     35  H   UNL A   1      38.399  21.510  25.973  1.00  0.00     0.163 HD
ATOM     36  O   UNL A   1      40.838  21.801  26.170  1.00  0.00    -0.269 OA
BRANCH  34  37
ATOM     37  C   UNL A   1      40.391  23.987  26.900  1.00  0.00     0.039 A 
ATOM     38  C   UNL A   1      39.743  25.159  26.498  1.00  0.00     0.014 A 
ATOM     39  C   UNL A   1      41.406  24.028  27.855  1.00  0.00     0.014 A 
ATOM     40  C   UNL A   1      40.062  26.358  27.133  1.00  0.00     0.010 A 
ATOM     41  C   UNL A   1      41.636  25.187  28.560  1.00  0.00     0.010 A 
ATOM     42  C   UNL A   1      40.991  26.363  28.185  1.00  0.00    -0.014 A 
BRANCH  42  43
ATOM     43  C   UNL A   1      41.195  27.572  28.985  1.00  0.00     0.031 A 
ATOM     44  C   UNL A   1      42.266  28.486  28.484  1.00  0.00     0.074 A 
ATOM     45  C   UNL A   1      40.335  27.977  29.945  1.00  0.00     0.049 A 
ATOM     46  N   UNL A   1      43.372  28.819  29.066  1.00  0.00    -0.248 NA
ATOM     47  C   UNL A   1      42.147  28.999  27.109  1.00  0.00     0.031 C 
ATOM     48  C   UNL A   1      39.049  27.377  30.318  1.00  0.00     0.029 A 
ATOM     49  N   UNL A   1      40.370  29.101  30.711  1.00  0.00    -0.354 N 
ATOM     50  C   UNL A   1      43.985  29.754  28.231  1.00  0.00     0.074 A 
ATOM     51  C   UNL A   1      43.287  29.680  26.975  1.00  0.00     0.031 C 
ATOM     52  C   UNL A   1      38.331  28.262  31.044  1.00  0.00     0.029 A 
ATOM     53  C   UNL A   1      39.164  29.416  31.330  1.00  0.00     0.049 A 
ATOM     54  H   UNL A   1      41.182  29.646  30.819  1.00  0.00     0.167 HD
ATOM     55  C   UNL A   1      44.874  30.671  28.713  1.00  0.00     0.037 A 
ATOM     56  C   UNL A   1      38.862  30.561  31.994  1.00  0.00     0.037 A 
ATOM     57  C   UNL A   1      45.329  30.301  30.031  1.00  0.00     0.049 A 
ATOM     58  C   UNL A   1      40.149  31.210  32.350  1.00  0.00     0.074 A 
ATOM     59  C   UNL A   1      45.973  29.202  30.568  1.00  0.00     0.029 A 
ATOM     60  N   UNL A   1      44.800  30.979  31.102  1.00  0.00    -0.354 N 
ATOM     61  N   UNL A   1      40.999  30.723  33.212  1.00  0.00    -0.248 NA
ATOM     62  C   UNL A   1      40.696  32.189  31.424  1.00  0.00     0.031 C 
ATOM     63  C   UNL A   1      45.374  29.015  31.849  1.00  0.00     0.029 A 
ATOM     64  C   UNL A   1      44.455  30.047  32.045  1.00  0.00     0.049 A 
ATOM     65  H   UNL A   1      44.688  31.955  31.178  1.00  0.00     0.167 HD
ATOM     66  C   UNL A   1      42.246  30.989  32.669  1.00  0.00     0.074 A 
ATOM     67  C   UNL A   1      41.999  31.982  31.626  1.00  0.00     0.031 C 
ATOM     68  C   UNL A   1      43.313  30.176  32.922  1.00  0.00     0.037 A 
BRANCH  55  69
ATOM     69  C   UNL A   1      45.065  32.077  28.174  1.00  0.00     0.058 A 
ATOM     70  C   UNL A   1      46.351  32.481  27.748  1.00  0.00     0.135 A 
ATOM     71  C   UNL A   1      44.129  33.123  28.325  1.00  0.00     0.135 A 
ATOM     72  F   UNL A   1      47.326  31.576  27.557  1.00  0.00    -0.206 F 
ATOM     73  C   UNL A   1      46.705  33.822  27.585  1.00  0.00     0.059 A 
ATOM     74  C   UNL A   1      44.445  34.462  28.112  1.00  0.00     0.059 A 
ATOM     75  F   UNL A   1      42.887  32.918  28.776  1.00  0.00    -0.206 F 
ATOM     76  C   UNL A   1      45.747  34.807  27.792  1.00  0.00     0.060 A 
BRANCH  76  77
ATOM     77  S   UNL A   1      46.225  36.541  27.700  1.00  0.00     0.124 S 
ATOM     78  O   UNL A   1      47.473  36.537  28.454  1.00  0.00    -0.237 OA
ATOM     79  O   UNL A   1      46.347  36.746  26.260  1.00  0.00    -0.237 OA
ATOM     80  O   UNL A   1      45.105  37.231  28.332  1.00  0.00    -0.744 OA
ENDBRANCH  76  77
ENDBRANCH  55  69
BRANCH  56  81
ATOM     81  C   UNL A   1      37.565  31.281  32.094  1.00  0.00     0.058 A 
ATOM     82  C   UNL A   1      37.076  31.702  33.345  1.00  0.00     0.135 A 
ATOM     83  C   UNL A   1      36.939  31.840  30.963  1.00  0.00     0.135 A 
ATOM     84  F   UNL A   1      37.615  31.224  34.477  1.00  0.00    -0.206 F 
ATOM     85  C   UNL A   1      36.084  32.680  33.468  1.00  0.00     0.059 A 
ATOM     86  C   UNL A   1      35.939  32.807  31.061  1.00  0.00     0.059 A 
ATOM     87  F   UNL A   1      37.351  31.535  29.722  1.00  0.00    -0.206 F 
ATOM     88  C   UNL A   1      35.542  33.249  32.317  1.00  0.00     0.060 A 
BRANCH  88  89
ATOM     89  S   UNL A   1      34.428  34.666  32.472  1.00  0.00     0.124 S 
ATOM     90  O   UNL A   1      33.235  34.051  33.044  1.00  0.00    -0.237 OA
ATOM     91  O   UNL A   1      35.177  35.550  33.359  1.00  0.00    -0.237 OA
ATOM     92  O   UNL A   1      34.290  35.139  31.097  1.00  0.00    -0.744 OA
ENDBRANCH  88  89
ENDBRANCH  56  81
BRANCH  68  93
ATOM     93  C   UNL A   1      43.211  29.195  34.061  1.00  0.00     0.058 A 
ATOM     94  C   UNL A   1      42.685  27.894  33.963  1.00  0.00     0.135 A 
ATOM     95  C   UNL A   1      43.786  29.559  35.289  1.00  0.00     0.135 A 
ATOM     96  F   UNL A   1      42.221  27.420  32.798  1.00  0.00    -0.206 F 
ATOM     97  C   UNL A   1      42.673  27.022  35.053  1.00  0.00     0.059 A 
ATOM     98  C   UNL A   1      43.818  28.693  36.377  1.00  0.00     0.059 A 
ATOM     99  F   UNL A   1      44.364  30.764  35.431  1.00  0.00    -0.206 F 
ATOM    100  C   UNL A   1      43.240  27.433  36.260  1.00  0.00     0.060 A 
BRANCH 100 101
ATOM    101  S   UNL A   1      43.260  26.293  37.659  1.00  0.00     0.124 S 
ATOM    102  O   UNL A   1      41.846  26.211  38.008  1.00  0.00    -0.237 OA
ATOM    103  O   UNL A   1      43.841  25.086  37.078  1.00  0.00    -0.237 OA
ATOM    104  O   UNL A   1      44.106  26.970  38.639  1.00  0.00    -0.744 OA
ENDBRANCH 100 101
ENDBRANCH  68  93
ENDBRANCH  42  43
ENDBRANCH  34  37
ENDBRANCH  32  33
ENDBRANCH   1  32
TORSDOF 16
ENDMDL
