MODEL 1
REMARK VINA RESULT:     -13.5      0.000      0.000
REMARK SMILES O=C(NCCCCNC(=O)c1cc(N2C(=O)[C@H]3[C@@H]4C=C[C@@H]([C@@H]5C[C@H]45)[C@@H]3C2=O)ccc1Cl)c1ccc(-c2c3nc(c(-c4c(F)cc(S(=O)(=O)[O-])cc4F)c4ccc([nH]4)c(-c4c(F)cc(S(=O)(=O)[O-])cc4F)c4nc(c(-c5c(F)cc(S(=O)(=O)[O-])cc5F)c5ccc2[nH]5)C=C4)C=C3)cc1
REMARK SMILES IDX 4 1 3 2 1 3 2 4 32 6 33 7 97 8 34 9 96 10 35 11 36 12 37 13
REMARK SMILES IDX 90 14 38 15 95 16 89 17 91 18 39 19 94 20 88 21 87 22 40 24
REMARK SMILES IDX 74 25 53 26 73 27 54 28 57 29 72 30 92 31 55 32 56 33 71 35
REMARK SMILES IDX 93 36 58 37 41 38 42 39 51 40 43 41 44 42 50 43 52 44 45 45
REMARK SMILES IDX 46 46 47 47 48 48 49 49 75 50 76 51 85 52 77 53 78 54 84 55
REMARK SMILES IDX 86 56 79 57 80 58 81 59 82 60 83 61 59 62 60 63 69 64 61 65
REMARK SMILES IDX 62 66 68 67 70 68 63 69 64 70 65 71 66 72 67 73 5 74 6 75
REMARK SMILES IDX 7 76 8 77 9 78 10 80 11 81 12 82 30 83 13 84 29 85 31 86
REMARK SMILES IDX 28 87 14 88 15 89 26 90 16 91 17 92 25 93 27 94 18 95 21 96
REMARK SMILES IDX 19 97 24 98 20 99 22 100 23 101
REMARK H PARENT 3 5 91 23 57 34 8 79
REMARK Flexibility Score: inf
ROOT
ATOM      1  C   UNL A   1      35.523  29.650  27.538  1.00  0.00     0.116 C 
ENDROOT
BRANCH   1   2
ATOM      2  N   UNL A   1      35.375  29.770  28.982  1.00  0.00    -0.352 N 
ATOM      3  O   UNL A   1      36.009  29.726  31.149  1.00  0.00    -0.269 OA
ATOM      4  C   UNL A   1      36.337  29.732  29.968  1.00  0.00     0.251 C 
ATOM      5  H   UNL A   1      34.452  29.897  29.302  1.00  0.00     0.163 HD
BRANCH   4   6
ATOM      6  C   UNL A   1      37.765  29.655  29.586  1.00  0.00     0.039 A 
ATOM      7  C   UNL A   1      38.151  29.846  28.261  1.00  0.00     0.014 A 
ATOM      8  C   UNL A   1      38.717  29.331  30.555  1.00  0.00     0.014 A 
ATOM      9  C   UNL A   1      39.438  29.501  27.867  1.00  0.00     0.010 A 
ATOM     10  C   UNL A   1      40.043  29.099  30.171  1.00  0.00     0.010 A 
ATOM     11  C   UNL A   1      40.403  29.124  28.815  1.00  0.00    -0.014 A 
BRANCH  11  12
ATOM     12  C   UNL A   1      41.776  28.780  28.356  1.00  0.00     0.031 A 
ATOM     13  C   UNL A   1      42.880  29.807  28.353  1.00  0.00     0.074 A 
ATOM     14  C   UNL A   1      42.037  27.510  27.987  1.00  0.00     0.049 A 
ATOM     15  N   UNL A   1      44.139  29.661  28.024  1.00  0.00    -0.248 NA
ATOM     16  C   UNL A   1      42.528  31.176  28.759  1.00  0.00     0.031 C 
ATOM     17  C   UNL A   1      41.050  26.427  27.944  1.00  0.00     0.029 A 
ATOM     18  N   UNL A   1      43.205  26.905  27.603  1.00  0.00    -0.354 N 
ATOM     19  C   UNL A   1      44.722  30.917  28.156  1.00  0.00     0.074 A 
ATOM     20  C   UNL A   1      43.671  31.822  28.568  1.00  0.00     0.031 C 
ATOM     21  C   UNL A   1      41.664  25.282  27.616  1.00  0.00     0.029 A 
ATOM     22  C   UNL A   1      43.072  25.560  27.353  1.00  0.00     0.049 A 
ATOM     23  H   UNL A   1      44.059  27.388  27.516  1.00  0.00     0.167 HD
ATOM     24  C   UNL A   1      46.014  31.280  27.958  1.00  0.00     0.037 A 
ATOM     25  C   UNL A   1      43.974  24.648  26.944  1.00  0.00     0.037 A 
ATOM     26  C   UNL A   1      47.058  30.365  27.566  1.00  0.00     0.049 A 
ATOM     27  C   UNL A   1      45.393  25.082  26.714  1.00  0.00     0.074 A 
ATOM     28  C   UNL A   1      48.406  30.627  27.381  1.00  0.00     0.029 A 
ATOM     29  N   UNL A   1      46.875  29.017  27.292  1.00  0.00    -0.354 N 
ATOM     30  N   UNL A   1      45.930  26.267  26.876  1.00  0.00    -0.248 NA
ATOM     31  C   UNL A   1      46.331  24.052  26.248  1.00  0.00     0.031 C 
ATOM     32  C   UNL A   1      49.023  29.452  26.938  1.00  0.00     0.029 A 
ATOM     33  C   UNL A   1      48.078  28.441  26.914  1.00  0.00     0.049 A 
ATOM     34  H   UNL A   1      46.016  28.540  27.356  1.00  0.00     0.167 HD
ATOM     35  C   UNL A   1      47.278  26.119  26.567  1.00  0.00     0.074 A 
ATOM     36  C   UNL A   1      47.472  24.726  26.217  1.00  0.00     0.031 C 
ATOM     37  C   UNL A   1      48.263  27.050  26.577  1.00  0.00     0.037 A 
BRANCH  24  38
ATOM     38  C   UNL A   1      46.373  32.734  28.130  1.00  0.00     0.058 A 
ATOM     39  C   UNL A   1      46.263  33.662  27.081  1.00  0.00     0.135 A 
ATOM     40  C   UNL A   1      46.797  33.216  29.382  1.00  0.00     0.135 A 
ATOM     41  F   UNL A   1      45.875  33.259  25.861  1.00  0.00    -0.206 F 
ATOM     42  C   UNL A   1      46.590  35.004  27.257  1.00  0.00     0.059 A 
ATOM     43  C   UNL A   1      47.099  34.560  29.587  1.00  0.00     0.059 A 
ATOM     44  F   UNL A   1      46.918  32.378  30.422  1.00  0.00    -0.206 F 
ATOM     45  C   UNL A   1      47.009  35.443  28.514  1.00  0.00     0.060 A 
BRANCH  45  46
ATOM     46  S   UNL A   1      47.434  37.186  28.723  1.00  0.00     0.124 S 
ATOM     47  O   UNL A   1      48.870  37.168  28.462  1.00  0.00    -0.237 OA
ATOM     48  O   UNL A   1      46.613  37.832  27.704  1.00  0.00    -0.237 OA
ATOM     49  O   UNL A   1      47.051  37.468  30.103  1.00  0.00    -0.744 OA
ENDBRANCH  45  46
ENDBRANCH  24  38
BRANCH  25  50
ATOM     50  C   UNL A   1      43.556  23.236  26.735  1.00  0.00     0.058 A 
ATOM     51  C   UNL A   1      43.439  22.701  25.444  1.00  0.00     0.135 A 
ATOM     52  C   UNL A   1      43.286  22.389  27.821  1.00  0.00     0.135 A 
ATOM     53  F   UNL A   1      43.684  23.471  24.372  1.00  0.00    -0.206 F 
ATOM     54  C   UNL A   1      43.049  21.382  25.235  1.00  0.00     0.059 A 
ATOM     55  C   UNL A   1      42.927  21.058  27.638  1.00  0.00     0.059 A 
ATOM     56  F   UNL A   1      43.403  22.846  29.077  1.00  0.00    -0.206 F 
ATOM     57  C   UNL A   1      42.798  20.568  26.341  1.00  0.00     0.060 A 
BRANCH  57  58
ATOM     58  S   UNL A   1      42.334  18.846  26.059  1.00  0.00     0.124 S 
ATOM     59  O   UNL A   1      42.607  18.252  27.362  1.00  0.00    -0.237 OA
ATOM     60  O   UNL A   1      40.926  18.965  25.694  1.00  0.00    -0.237 OA
ATOM     61  O   UNL A   1      43.221  18.431  24.977  1.00  0.00    -0.744 OA
ENDBRANCH  57  58
ENDBRANCH  25  50
BRANCH  37  62
ATOM     62  C   UNL A   1      49.657  26.580  26.257  1.00  0.00     0.058 A 
ATOM     63  C   UNL A   1      50.473  25.953  27.211  1.00  0.00     0.135 A 
ATOM     64  C   UNL A   1      50.174  26.743  24.961  1.00  0.00     0.135 A 
ATOM     65  F   UNL A   1      50.033  25.777  28.467  1.00  0.00    -0.206 F 
ATOM     66  C   UNL A   1      51.765  25.539  26.903  1.00  0.00     0.059 A 
ATOM     67  C   UNL A   1      51.450  26.306  24.622  1.00  0.00     0.059 A 
ATOM     68  F   UNL A   1      49.433  27.327  24.005  1.00  0.00    -0.206 F 
ATOM     69  C   UNL A   1      52.245  25.721  25.605  1.00  0.00     0.060 A 
BRANCH  69  70
ATOM     70  S   UNL A   1      53.919  25.169  25.213  1.00  0.00     0.124 S 
ATOM     71  O   UNL A   1      54.207  25.940  24.008  1.00  0.00    -0.237 OA
ATOM     72  O   UNL A   1      54.662  25.558  26.407  1.00  0.00    -0.237 OA
ATOM     73  O   UNL A   1      53.767  23.731  25.017  1.00  0.00    -0.744 OA
ENDBRANCH  69  70
ENDBRANCH  37  62
ENDBRANCH  11  12
ENDBRANCH   4   6
ENDBRANCH   1   2
BRANCH   1  74
ATOM     74  C   UNL A   1      34.420  28.828  26.885  1.00  0.00     0.023 C 
BRANCH  74  75
ATOM     75  C   UNL A   1      33.001  29.187  27.315  1.00  0.00     0.023 C 
BRANCH  75  76
ATOM     76  C   UNL A   1      32.178  29.920  26.264  1.00  0.00     0.116 C 
BRANCH  76  77
ATOM     77  N   UNL A   1      32.823  29.954  24.962  1.00  0.00    -0.352 N 
ATOM     78  C   UNL A   1      32.626  29.121  23.893  1.00  0.00     0.252 C 
ATOM     79  H   UNL A   1      33.488  30.668  24.833  1.00  0.00     0.163 HD
ATOM     80  O   UNL A   1      33.278  29.241  22.862  1.00  0.00    -0.269 OA
BRANCH  78  81
ATOM     81  C   UNL A   1      31.657  28.021  24.001  1.00  0.00     0.060 A 
ATOM     82  C   UNL A   1      32.164  26.765  24.372  1.00  0.00     0.042 A 
ATOM     83  C   UNL A   1      30.295  28.192  23.722  1.00  0.00     0.053 A 
ATOM     84  C   UNL A   1      31.303  25.671  24.441  1.00  0.00     0.053 A 
ATOM     85  C   UNL A   1      29.427  27.115  23.879  1.00  0.00     0.023 A 
ATOM     86  Cl  UNL A   1      29.619  29.678  23.160  1.00  0.00    -0.083 Cl
ATOM     87  C   UNL A   1      29.931  25.860  24.216  1.00  0.00     0.028 A 
BRANCH  84  88
ATOM     88  N   UNL A   1      31.763  24.392  24.806  1.00  0.00    -0.250 N 
ATOM     89  C   UNL A   1      32.381  23.514  23.898  1.00  0.00     0.238 C 
ATOM     90  C   UNL A   1      32.006  24.030  26.147  1.00  0.00     0.238 C 
ATOM     91  O   UNL A   1      32.555  23.622  22.697  1.00  0.00    -0.274 OA
ATOM     92  C   UNL A   1      32.834  22.377  24.759  1.00  0.00     0.100 C 
ATOM     93  C   UNL A   1      33.211  23.176  26.010  1.00  0.00     0.100 C 
ATOM     94  O   UNL A   1      31.522  24.450  27.179  1.00  0.00    -0.274 OA
ATOM     95  C   UNL A   1      33.911  21.307  24.507  1.00  0.00     0.028 C 
ATOM     96  C   UNL A   1      34.068  22.320  26.926  1.00  0.00     0.028 C 
ATOM     97  C   UNL A   1      33.568  20.312  25.645  1.00  0.00    -0.026 C 
ATOM     98  C   UNL A   1      35.360  21.737  24.807  1.00  0.00     0.001 C 
ATOM     99  C   UNL A   1      33.594  20.859  26.883  1.00  0.00    -0.026 C 
ATOM    100  C   UNL A   1      35.476  22.323  26.223  1.00  0.00     0.001 C 
ATOM    101  C   UNL A   1      35.892  23.128  24.988  1.00  0.00     0.009 C 
ENDBRANCH  84  88
ENDBRANCH  78  81
ENDBRANCH  76  77
ENDBRANCH  75  76
ENDBRANCH  74  75
ENDBRANCH   1  74
TORSDOF 15
ENDMDL
MODEL 2
REMARK VINA RESULT:     -13.4      2.032      8.331
REMARK SMILES O=C(NCCCCNC(=O)c1cc(N2C(=O)[C@H]3[C@@H]4C=C[C@@H]([C@@H]5C[C@H]45)[C@@H]3C2=O)ccc1Cl)c1ccc(-c2c3nc(c(-c4c(F)cc(S(=O)(=O)[O-])cc4F)c4ccc([nH]4)c(-c4c(F)cc(S(=O)(=O)[O-])cc4F)c4nc(c(-c5c(F)cc(S(=O)(=O)[O-])cc5F)c5ccc2[nH]5)C=C4)C=C3)cc1
REMARK SMILES IDX 4 1 3 2 1 3 2 4 32 6 33 7 97 8 34 9 96 10 35 11 36 12 37 13
REMARK SMILES IDX 90 14 38 15 95 16 89 17 91 18 39 19 94 20 88 21 87 22 40 24
REMARK SMILES IDX 74 25 53 26 73 27 54 28 57 29 72 30 92 31 55 32 56 33 71 35
REMARK SMILES IDX 93 36 58 37 41 38 42 39 51 40 43 41 44 42 50 43 52 44 45 45
REMARK SMILES IDX 46 46 47 47 48 48 49 49 75 50 76 51 85 52 77 53 78 54 84 55
REMARK SMILES IDX 86 56 79 57 80 58 81 59 82 60 83 61 59 62 60 63 69 64 61 65
REMARK SMILES IDX 62 66 68 67 70 68 63 69 64 70 65 71 66 72 67 73 5 74 6 75
REMARK SMILES IDX 7 76 8 77 9 78 10 80 11 81 12 82 30 83 13 84 29 85 31 86
REMARK SMILES IDX 28 87 14 88 15 89 26 90 16 91 17 92 25 93 27 94 18 95 21 96
REMARK SMILES IDX 19 97 24 98 20 99 22 100 23 101
REMARK H PARENT 3 5 91 23 57 34 8 79
REMARK Flexibility Score: inf
ROOT
ATOM      1  C   UNL A   1      34.095  28.876  27.251  1.00  0.00     0.116 C 
ENDROOT
BRANCH   1   2
ATOM      2  N   UNL A   1      34.062  30.125  28.001  1.00  0.00    -0.352 N 
ATOM      3  O   UNL A   1      34.802  31.721  29.417  1.00  0.00    -0.269 OA
ATOM      4  C   UNL A   1      35.053  30.725  28.747  1.00  0.00     0.251 C 
ATOM      5  H   UNL A   1      33.207  30.612  27.971  1.00  0.00     0.163 HD
BRANCH   4   6
ATOM      6  C   UNL A   1      36.408  30.131  28.767  1.00  0.00     0.039 A 
ATOM      7  C   UNL A   1      36.943  29.636  29.956  1.00  0.00     0.014 A 
ATOM      8  C   UNL A   1      37.171  30.123  27.598  1.00  0.00     0.014 A 
ATOM      9  C   UNL A   1      38.298  29.341  30.025  1.00  0.00     0.010 A 
ATOM     10  C   UNL A   1      38.507  29.711  27.646  1.00  0.00     0.010 A 
ATOM     11  C   UNL A   1      39.101  29.372  28.872  1.00  0.00    -0.014 A 
BRANCH  11  12
ATOM     12  C   UNL A   1      40.545  29.031  28.983  1.00  0.00     0.031 A 
ATOM     13  C   UNL A   1      41.066  27.683  28.556  1.00  0.00     0.074 A 
ATOM     14  C   UNL A   1      41.401  29.973  29.429  1.00  0.00     0.049 A 
ATOM     15  N   UNL A   1      42.299  27.241  28.548  1.00  0.00    -0.248 NA
ATOM     16  C   UNL A   1      40.079  26.697  28.087  1.00  0.00     0.031 C 
ATOM     17  C   UNL A   1      41.017  31.315  29.876  1.00  0.00     0.029 A 
ATOM     18  N   UNL A   1      42.765  29.962  29.556  1.00  0.00    -0.354 N 
ATOM     19  C   UNL A   1      42.234  25.924  28.102  1.00  0.00     0.074 A 
ATOM     20  C   UNL A   1      40.836  25.629  27.877  1.00  0.00     0.031 C 
ATOM     21  C   UNL A   1      42.120  32.016  30.171  1.00  0.00     0.029 A 
ATOM     22  C   UNL A   1      43.285  31.154  30.005  1.00  0.00     0.049 A 
ATOM     23  H   UNL A   1      43.321  29.176  29.347  1.00  0.00     0.167 HD
ATOM     24  C   UNL A   1      43.248  25.047  27.895  1.00  0.00     0.037 A 
ATOM     25  C   UNL A   1      44.555  31.515  30.269  1.00  0.00     0.037 A 
ATOM     26  C   UNL A   1      44.641  25.359  28.104  1.00  0.00     0.049 A 
ATOM     27  C   UNL A   1      45.655  30.517  30.049  1.00  0.00     0.074 A 
ATOM     28  C   UNL A   1      45.746  24.553  27.883  1.00  0.00     0.029 A 
ATOM     29  N   UNL A   1      45.122  26.567  28.589  1.00  0.00    -0.354 N 
ATOM     30  N   UNL A   1      45.577  29.289  29.596  1.00  0.00    -0.248 NA
ATOM     31  C   UNL A   1      47.018  30.956  30.372  1.00  0.00     0.031 C 
ATOM     32  C   UNL A   1      46.887  25.253  28.290  1.00  0.00     0.029 A 
ATOM     33  C   UNL A   1      46.504  26.519  28.699  1.00  0.00     0.049 A 
ATOM     34  H   UNL A   1      44.565  27.344  28.822  1.00  0.00     0.167 HD
ATOM     35  C   UNL A   1      46.884  28.819  29.546  1.00  0.00     0.074 A 
ATOM     36  C   UNL A   1      47.732  29.900  30.007  1.00  0.00     0.031 C 
ATOM     37  C   UNL A   1      47.340  27.604  29.149  1.00  0.00     0.037 A 
BRANCH  24  38
ATOM     38  C   UNL A   1      42.894  23.652  27.446  1.00  0.00     0.058 A 
ATOM     39  C   UNL A   1      42.869  23.286  26.090  1.00  0.00     0.135 A 
ATOM     40  C   UNL A   1      42.615  22.652  28.394  1.00  0.00     0.135 A 
ATOM     41  F   UNL A   1      43.117  24.199  25.138  1.00  0.00    -0.206 F 
ATOM     42  C   UNL A   1      42.550  21.990  25.690  1.00  0.00     0.059 A 
ATOM     43  C   UNL A   1      42.323  21.343  28.018  1.00  0.00     0.059 A 
ATOM     44  F   UNL A   1      42.627  22.941  29.704  1.00  0.00    -0.206 F 
ATOM     45  C   UNL A   1      42.277  21.026  26.662  1.00  0.00     0.060 A 
BRANCH  45  46
ATOM     46  S   UNL A   1      41.859  19.353  26.126  1.00  0.00     0.124 S 
ATOM     47  O   UNL A   1      42.711  19.203  24.950  1.00  0.00    -0.237 OA
ATOM     48  O   UNL A   1      42.234  18.551  27.286  1.00  0.00    -0.237 OA
ATOM     49  O   UNL A   1      40.427  19.429  25.856  1.00  0.00    -0.744 OA
ENDBRANCH  45  46
ENDBRANCH  24  38
BRANCH  25  50
ATOM     50  C   UNL A   1      44.846  32.887  30.763  1.00  0.00     0.058 A 
ATOM     51  C   UNL A   1      45.136  33.929  29.872  1.00  0.00     0.135 A 
ATOM     52  C   UNL A   1      44.822  33.187  32.135  1.00  0.00     0.135 A 
ATOM     53  F   UNL A   1      45.175  33.693  28.551  1.00  0.00    -0.206 F 
ATOM     54  C   UNL A   1      45.411  35.217  30.322  1.00  0.00     0.059 A 
ATOM     55  C   UNL A   1      45.060  34.473  32.607  1.00  0.00     0.059 A 
ATOM     56  F   UNL A   1      44.530  32.229  33.029  1.00  0.00    -0.206 F 
ATOM     57  C   UNL A   1      45.367  35.479  31.692  1.00  0.00     0.060 A 
BRANCH  57  58
ATOM     58  S   UNL A   1      45.684  37.162  32.262  1.00  0.00     0.124 S 
ATOM     59  O   UNL A   1      47.140  37.215  32.223  1.00  0.00    -0.237 OA
ATOM     60  O   UNL A   1      44.987  37.960  31.258  1.00  0.00    -0.237 OA
ATOM     61  O   UNL A   1      45.087  37.184  33.594  1.00  0.00    -0.744 OA
ENDBRANCH  57  58
ENDBRANCH  25  50
BRANCH  37  62
ATOM     62  C   UNL A   1      48.832  27.400  29.138  1.00  0.00     0.058 A 
ATOM     63  C   UNL A   1      49.517  26.831  30.222  1.00  0.00     0.135 A 
ATOM     64  C   UNL A   1      49.582  27.761  28.007  1.00  0.00     0.135 A 
ATOM     65  F   UNL A   1      48.851  26.473  31.331  1.00  0.00    -0.206 F 
ATOM     66  C   UNL A   1      50.899  26.663  30.202  1.00  0.00     0.059 A 
ATOM     67  C   UNL A   1      50.959  27.572  27.951  1.00  0.00     0.059 A 
ATOM     68  F   UNL A   1      48.977  28.300  26.936  1.00  0.00    -0.206 F 
ATOM     69  C   UNL A   1      51.610  27.038  29.061  1.00  0.00     0.060 A 
BRANCH  69  70
ATOM     70  S   UNL A   1      53.401  26.805  29.041  1.00  0.00     0.124 S 
ATOM     71  O   UNL A   1      53.576  25.978  27.851  1.00  0.00    -0.237 OA
ATOM     72  O   UNL A   1      53.892  28.175  28.939  1.00  0.00    -0.237 OA
ATOM     73  O   UNL A   1      53.673  26.141  30.312  1.00  0.00    -0.744 OA
ENDBRANCH  69  70
ENDBRANCH  37  62
ENDBRANCH  11  12
ENDBRANCH   4   6
ENDBRANCH   1   2
BRANCH   1  74
ATOM     74  C   UNL A   1      32.881  28.680  26.352  1.00  0.00     0.023 C 
BRANCH  74  75
ATOM     75  C   UNL A   1      32.519  29.877  25.479  1.00  0.00     0.023 C 
BRANCH  75  76
ATOM     76  C   UNL A   1      31.028  30.063  25.232  1.00  0.00     0.116 C 
BRANCH  76  77
ATOM     77  N   UNL A   1      30.693  30.126  23.818  1.00  0.00    -0.352 N 
ATOM     78  C   UNL A   1      30.449  29.091  22.956  1.00  0.00     0.252 C 
ATOM     79  H   UNL A   1      30.634  31.030  23.433  1.00  0.00     0.163 HD
ATOM     80  O   UNL A   1      30.219  29.291  21.768  1.00  0.00    -0.269 OA
BRANCH  78  81
ATOM     81  C   UNL A   1      30.524  27.707  23.444  1.00  0.00     0.060 A 
ATOM     82  C   UNL A   1      31.808  27.151  23.577  1.00  0.00     0.042 A 
ATOM     83  C   UNL A   1      29.381  26.954  23.739  1.00  0.00     0.053 A 
ATOM     84  C   UNL A   1      31.942  25.826  23.987  1.00  0.00     0.053 A 
ATOM     85  C   UNL A   1      29.527  25.659  24.233  1.00  0.00     0.023 A 
ATOM     86  Cl  UNL A   1      27.773  27.533  23.501  1.00  0.00    -0.083 Cl
ATOM     87  C   UNL A   1      30.796  25.095  24.336  1.00  0.00     0.028 A 
BRANCH  84  88
ATOM     88  N   UNL A   1      33.205  25.223  24.133  1.00  0.00    -0.250 N 
ATOM     89  C   UNL A   1      33.803  24.995  25.386  1.00  0.00     0.238 C 
ATOM     90  C   UNL A   1      33.798  24.452  23.112  1.00  0.00     0.238 C 
ATOM     91  O   UNL A   1      33.437  25.320  26.501  1.00  0.00    -0.274 OA
ATOM     92  C   UNL A   1      35.028  24.203  25.052  1.00  0.00     0.100 C 
ATOM     93  C   UNL A   1      34.458  23.380  23.894  1.00  0.00     0.100 C 
ATOM     94  O   UNL A   1      33.653  24.495  21.905  1.00  0.00    -0.274 OA
ATOM     95  C   UNL A   1      35.891  23.287  25.938  1.00  0.00     0.028 C 
ATOM     96  C   UNL A   1      35.373  22.203  23.601  1.00  0.00     0.028 C 
ATOM     97  C   UNL A   1      37.128  23.117  25.019  1.00  0.00    -0.026 C 
ATOM     98  C   UNL A   1      35.362  21.852  26.126  1.00  0.00     0.001 C 
ATOM     99  C   UNL A   1      36.841  22.612  23.796  1.00  0.00    -0.026 C 
ATOM    100  C   UNL A   1      35.062  21.196  24.770  1.00  0.00     0.001 C 
ATOM    101  C   UNL A   1      33.982  21.332  25.848  1.00  0.00     0.009 C 
ENDBRANCH  84  88
ENDBRANCH  78  81
ENDBRANCH  76  77
ENDBRANCH  75  76
ENDBRANCH  74  75
ENDBRANCH   1  74
TORSDOF 15
ENDMDL
MODEL 3
REMARK VINA RESULT:     -13.4      6.702     12.113
REMARK SMILES O=C(NCCCCNC(=O)c1cc(N2C(=O)[C@H]3[C@@H]4C=C[C@@H]([C@@H]5C[C@H]45)[C@@H]3C2=O)ccc1Cl)c1ccc(-c2c3nc(c(-c4c(F)cc(S(=O)(=O)[O-])cc4F)c4ccc([nH]4)c(-c4c(F)cc(S(=O)(=O)[O-])cc4F)c4nc(c(-c5c(F)cc(S(=O)(=O)[O-])cc5F)c5ccc2[nH]5)C=C4)C=C3)cc1
REMARK SMILES IDX 4 1 3 2 1 3 2 4 32 6 33 7 97 8 34 9 96 10 35 11 36 12 37 13
REMARK SMILES IDX 90 14 38 15 95 16 89 17 91 18 39 19 94 20 88 21 87 22 40 24
REMARK SMILES IDX 74 25 53 26 73 27 54 28 57 29 72 30 92 31 55 32 56 33 71 35
REMARK SMILES IDX 93 36 58 37 41 38 42 39 51 40 43 41 44 42 50 43 52 44 45 45
REMARK SMILES IDX 46 46 47 47 48 48 49 49 75 50 76 51 85 52 77 53 78 54 84 55
REMARK SMILES IDX 86 56 79 57 80 58 81 59 82 60 83 61 59 62 60 63 69 64 61 65
REMARK SMILES IDX 62 66 68 67 70 68 63 69 64 70 65 71 66 72 67 73 5 74 6 75
REMARK SMILES IDX 7 76 8 77 9 78 10 80 11 81 12 82 30 83 13 84 29 85 31 86
REMARK SMILES IDX 28 87 14 88 15 89 26 90 16 91 17 92 25 93 27 94 18 95 21 96
REMARK SMILES IDX 19 97 24 98 20 99 22 100 23 101
REMARK H PARENT 3 5 91 23 57 34 8 79
REMARK Flexibility Score: inf
ROOT
ATOM      1  C   UNL A   1      40.142  23.199  27.049  1.00  0.00     0.116 C 
ENDROOT
BRANCH   1   2
ATOM      2  N   UNL A   1      40.743  24.045  26.026  1.00  0.00    -0.352 N 
ATOM      3  O   UNL A   1      41.519  25.950  25.095  1.00  0.00    -0.269 OA
ATOM      4  C   UNL A   1      41.145  25.360  26.103  1.00  0.00     0.251 C 
ATOM      5  H   UNL A   1      40.883  23.614  25.152  1.00  0.00     0.163 HD
BRANCH   4   6
ATOM      6  C   UNL A   1      41.080  26.065  27.402  1.00  0.00     0.039 A 
ATOM      7  C   UNL A   1      39.929  25.993  28.186  1.00  0.00     0.014 A 
ATOM      8  C   UNL A   1      42.159  26.852  27.812  1.00  0.00     0.014 A 
ATOM      9  C   UNL A   1      39.772  26.869  29.253  1.00  0.00     0.010 A 
ATOM     10  C   UNL A   1      42.041  27.645  28.957  1.00  0.00     0.010 A 
ATOM     11  C   UNL A   1      40.825  27.707  29.656  1.00  0.00    -0.014 A 
BRANCH  11  12
ATOM     12  C   UNL A   1      40.625  28.618  30.815  1.00  0.00     0.031 A 
ATOM     13  C   UNL A   1      41.509  28.539  32.034  1.00  0.00     0.074 A 
ATOM     14  C   UNL A   1      39.664  29.561  30.740  1.00  0.00     0.049 A 
ATOM     15  N   UNL A   1      41.496  29.285  33.110  1.00  0.00    -0.248 NA
ATOM     16  C   UNL A   1      42.533  27.483  32.056  1.00  0.00     0.031 C 
ATOM     17  C   UNL A   1      38.742  29.735  29.615  1.00  0.00     0.029 A 
ATOM     18  N   UNL A   1      39.317  30.564  31.608  1.00  0.00    -0.354 N 
ATOM     19  C   UNL A   1      42.484  28.774  33.946  1.00  0.00     0.074 A 
ATOM     20  C   UNL A   1      43.060  27.636  33.263  1.00  0.00     0.031 C 
ATOM     21  C   UNL A   1      37.977  30.814  29.832  1.00  0.00     0.029 A 
ATOM     22  C   UNL A   1      38.301  31.365  31.143  1.00  0.00     0.049 A 
ATOM     23  H   UNL A   1      39.752  30.697  32.481  1.00  0.00     0.167 HD
ATOM     24  C   UNL A   1      42.879  29.218  35.166  1.00  0.00     0.037 A 
ATOM     25  C   UNL A   1      37.685  32.420  31.708  1.00  0.00     0.037 A 
ATOM     26  C   UNL A   1      42.311  30.367  35.828  1.00  0.00     0.049 A 
ATOM     27  C   UNL A   1      38.129  32.878  33.068  1.00  0.00     0.074 A 
ATOM     28  C   UNL A   1      42.669  30.922  37.046  1.00  0.00     0.029 A 
ATOM     29  N   UNL A   1      41.262  31.133  35.337  1.00  0.00    -0.354 N 
ATOM     30  N   UNL A   1      39.087  32.403  33.827  1.00  0.00    -0.248 NA
ATOM     31  C   UNL A   1      37.410  34.020  33.647  1.00  0.00     0.031 C 
ATOM     32  C   UNL A   1      41.800  31.984  37.317  1.00  0.00     0.029 A 
ATOM     33  C   UNL A   1      40.944  32.137  36.239  1.00  0.00     0.049 A 
ATOM     34  H   UNL A   1      40.810  30.984  34.476  1.00  0.00     0.167 HD
ATOM     35  C   UNL A   1      39.110  33.210  34.959  1.00  0.00     0.074 A 
ATOM     36  C   UNL A   1      38.075  34.207  34.778  1.00  0.00     0.031 C 
ATOM     37  C   UNL A   1      39.918  33.133  36.045  1.00  0.00     0.037 A 
BRANCH  24  38
ATOM     38  C   UNL A   1      43.956  28.446  35.884  1.00  0.00     0.058 A 
ATOM     39  C   UNL A   1      43.661  27.383  36.753  1.00  0.00     0.135 A 
ATOM     40  C   UNL A   1      45.311  28.751  35.666  1.00  0.00     0.135 A 
ATOM     41  F   UNL A   1      42.386  27.052  37.009  1.00  0.00    -0.206 F 
ATOM     42  C   UNL A   1      44.668  26.672  37.403  1.00  0.00     0.059 A 
ATOM     43  C   UNL A   1      46.334  28.034  36.282  1.00  0.00     0.059 A 
ATOM     44  F   UNL A   1      45.654  29.754  34.844  1.00  0.00    -0.206 F 
ATOM     45  C   UNL A   1      46.001  27.006  37.162  1.00  0.00     0.060 A 
BRANCH  45  46
ATOM     46  S   UNL A   1      47.293  26.078  38.017  1.00  0.00     0.124 S 
ATOM     47  O   UNL A   1      47.589  26.961  39.142  1.00  0.00    -0.237 OA
ATOM     48  O   UNL A   1      46.612  24.832  38.353  1.00  0.00    -0.237 OA
ATOM     49  O   UNL A   1      48.349  25.962  37.017  1.00  0.00    -0.744 OA
ENDBRANCH  45  46
ENDBRANCH  24  38
BRANCH  25  50
ATOM     50  C   UNL A   1      36.589  33.114  30.982  1.00  0.00     0.058 A 
ATOM     51  C   UNL A   1      35.255  32.989  31.396  1.00  0.00     0.135 A 
ATOM     52  C   UNL A   1      36.855  33.931  29.871  1.00  0.00     0.135 A 
ATOM     53  F   UNL A   1      34.948  32.218  32.450  1.00  0.00    -0.206 F 
ATOM     54  C   UNL A   1      34.221  33.633  30.724  1.00  0.00     0.059 A 
ATOM     55  C   UNL A   1      35.842  34.611  29.204  1.00  0.00     0.059 A 
ATOM     56  F   UNL A   1      38.117  34.100  29.447  1.00  0.00    -0.206 F 
ATOM     57  C   UNL A   1      34.526  34.445  29.630  1.00  0.00     0.060 A 
BRANCH  57  58
ATOM     58  S   UNL A   1      33.182  35.310  28.792  1.00  0.00     0.124 S 
ATOM     59  O   UNL A   1      32.382  35.772  29.920  1.00  0.00    -0.237 OA
ATOM     60  O   UNL A   1      33.899  36.343  28.050  1.00  0.00    -0.237 OA
ATOM     61  O   UNL A   1      32.573  34.269  27.970  1.00  0.00    -0.744 OA
ENDBRANCH  57  58
ENDBRANCH  25  50
BRANCH  37  62
ATOM     62  C   UNL A   1      39.757  34.196  37.099  1.00  0.00     0.058 A 
ATOM     63  C   UNL A   1      38.974  33.999  38.247  1.00  0.00     0.135 A 
ATOM     64  C   UNL A   1      40.421  35.426  36.964  1.00  0.00     0.135 A 
ATOM     65  F   UNL A   1      38.312  32.845  38.424  1.00  0.00    -0.206 F 
ATOM     66  C   UNL A   1      38.822  34.998  39.203  1.00  0.00     0.059 A 
ATOM     67  C   UNL A   1      40.311  36.426  37.924  1.00  0.00     0.059 A 
ATOM     68  F   UNL A   1      41.193  35.665  35.891  1.00  0.00    -0.206 F 
ATOM     69  C   UNL A   1      39.495  36.209  39.032  1.00  0.00     0.060 A 
BRANCH  69  70
ATOM     70  S   UNL A   1      39.301  37.494  40.286  1.00  0.00     0.124 S 
ATOM     71  O   UNL A   1      38.913  36.708  41.454  1.00  0.00    -0.237 OA
ATOM     72  O   UNL A   1      40.633  38.087  40.334  1.00  0.00    -0.237 OA
ATOM     73  O   UNL A   1      38.258  38.354  39.734  1.00  0.00    -0.744 OA
ENDBRANCH  69  70
ENDBRANCH  37  62
ENDBRANCH  11  12
ENDBRANCH   4   6
ENDBRANCH   1   2
BRANCH   1  74
ATOM     74  C   UNL A   1      39.067  22.267  26.505  1.00  0.00     0.023 C 
BRANCH  74  75
ATOM     75  C   UNL A   1      37.967  22.947  25.696  1.00  0.00     0.023 C 
BRANCH  75  76
ATOM     76  C   UNL A   1      36.787  22.053  25.338  1.00  0.00     0.116 C 
BRANCH  76  77
ATOM     77  N   UNL A   1      35.951  21.733  26.484  1.00  0.00    -0.352 N 
ATOM     78  C   UNL A   1      34.587  21.624  26.537  1.00  0.00     0.252 C 
ATOM     79  H   UNL A   1      36.428  21.575  27.331  1.00  0.00     0.163 HD
ATOM     80  O   UNL A   1      34.006  21.389  27.591  1.00  0.00    -0.269 OA
BRANCH  78  81
ATOM     81  C   UNL A   1      33.794  21.852  25.321  1.00  0.00     0.060 A 
ATOM     82  C   UNL A   1      33.410  23.177  25.055  1.00  0.00     0.042 A 
ATOM     83  C   UNL A   1      33.405  20.807  24.473  1.00  0.00     0.053 A 
ATOM     84  C   UNL A   1      32.614  23.450  23.944  1.00  0.00     0.053 A 
ATOM     85  C   UNL A   1      32.684  21.099  23.318  1.00  0.00     0.023 A 
ATOM     86  Cl  UNL A   1      33.750  19.146  24.792  1.00  0.00    -0.083 Cl
ATOM     87  C   UNL A   1      32.275  22.408  23.067  1.00  0.00     0.028 A 
BRANCH  84  88
ATOM     88  N   UNL A   1      32.201  24.759  23.635  1.00  0.00    -0.250 N 
ATOM     89  C   UNL A   1      31.242  25.457  24.391  1.00  0.00     0.238 C 
ATOM     90  C   UNL A   1      32.962  25.619  22.817  1.00  0.00     0.238 C 
ATOM     91  O   UNL A   1      30.560  25.084  25.330  1.00  0.00    -0.274 OA
ATOM     92  C   UNL A   1      31.254  26.829  23.796  1.00  0.00     0.100 C 
ATOM     93  C   UNL A   1      32.749  26.927  23.482  1.00  0.00     0.100 C 
ATOM     94  O   UNL A   1      33.759  25.369  21.934  1.00  0.00    -0.274 OA
ATOM     95  C   UNL A   1      30.779  28.170  24.382  1.00  0.00     0.028 C 
ATOM     96  C   UNL A   1      33.125  28.375  23.216  1.00  0.00     0.028 C 
ATOM     97  C   UNL A   1      30.786  29.039  23.098  1.00  0.00    -0.026 C 
ATOM     98  C   UNL A   1      31.776  28.878  25.320  1.00  0.00     0.001 C 
ATOM     99  C   UNL A   1      31.986  29.089  22.473  1.00  0.00    -0.026 C 
ATOM    100  C   UNL A   1      33.153  29.017  24.653  1.00  0.00     0.001 C 
ATOM    101  C   UNL A   1      32.983  28.295  25.993  1.00  0.00     0.009 C 
ENDBRANCH  84  88
ENDBRANCH  78  81
ENDBRANCH  76  77
ENDBRANCH  75  76
ENDBRANCH  74  75
ENDBRANCH   1  74
TORSDOF 15
ENDMDL
