MODEL 1
REMARK VINA RESULT:     -10.4      0.000      0.000
REMARK SMILES CC[C@@H](C)[C@@H](C(=O)NCCCCNC(=O)c1ccc(-c2c3nc(c(-c4c(F)cc(S(=O)(=O)[O-])cc4F)c4ccc([nH]4)c(-c4c(F)cc(S(=O)(=O)[O-])cc4F)c4nc(c(-c5c(F)cc(S(=O)(=O)[O-])cc5F)c5ccc2[nH]5)C=C4)C=C3)cc1)S(=O)(=O)c1ccc(OC)cc1
REMARK SMILES IDX 10 1 9 2 8 3 6 4 7 5 5 7 3 8 4 9 2 10 1 11 82 12 83 13 84 14
REMARK SMILES IDX 85 15 86 16 92 17 87 18 91 19 88 20 89 21 90 22 11 23 12 24
REMARK SMILES IDX 13 25 14 26 15 28 16 29 17 30 81 31 18 32 80 33 19 34 20 35
REMARK SMILES IDX 21 36 74 37 22 38 79 39 73 40 75 41 23 42 78 43 72 44 71 45
REMARK SMILES IDX 24 47 58 48 37 49 57 50 38 51 41 52 56 53 76 54 39 55 40 56
REMARK SMILES IDX 55 58 77 59 42 60 25 61 26 62 35 63 27 64 28 65 34 66 36 67
REMARK SMILES IDX 29 68 30 69 31 70 32 71 33 72 59 73 60 74 69 75 61 76 62 77
REMARK SMILES IDX 68 78 70 79 63 80 64 81 65 82 66 83 67 84 43 85 44 86 53 87
REMARK SMILES IDX 45 88 46 89 52 90 54 91 47 92 48 93 49 94 50 95 51 96
REMARK H PARENT 8 6 13 27 75 46 41 57
REMARK Flexibility Score: inf
ROOT
ATOM      1  C   UNL A   1      35.744  21.531  25.654  1.00  0.00     0.023 C 
ENDROOT
BRANCH   1   2
ATOM      2  C   UNL A   1      34.288  21.054  25.527  1.00  0.00     0.116 C 
BRANCH   2   3
ATOM      3  N   UNL A   1      33.824  21.295  24.173  1.00  0.00    -0.355 N 
ATOM      4  C   UNL A   1      32.838  22.127  23.725  1.00  0.00     0.239 C 
ATOM      5  O   UNL A   1      32.230  21.735  22.729  1.00  0.00    -0.274 OA
ATOM      6  H   UNL A   1      34.289  20.782  23.474  1.00  0.00     0.163 HD
BRANCH   4   7
ATOM      7  C   UNL A   1      32.517  23.463  24.405  1.00  0.00     0.205 C 
BRANCH   7   8
ATOM      8  C   UNL A   1      31.021  23.617  24.844  1.00  0.00     0.014 C 
ATOM      9  C   UNL A   1      30.705  24.933  25.569  1.00  0.00     0.009 C 
BRANCH   8  10
ATOM     10  C   UNL A   1      30.571  22.480  25.780  1.00  0.00     0.002 C 
ATOM     11  C   UNL A   1      29.883  22.932  27.062  1.00  0.00     0.004 C 
ENDBRANCH   8  10
ENDBRANCH   7   8
BRANCH   7  12
ATOM     12  S   UNL A   1      33.132  24.730  23.246  1.00  0.00     0.190 S 
ATOM     13  O   UNL A   1      34.425  24.331  22.715  1.00  0.00    -0.223 OA
ATOM     14  O   UNL A   1      32.064  24.982  22.290  1.00  0.00    -0.223 OA
BRANCH  12  15
ATOM     15  C   UNL A   1      33.420  26.263  24.126  1.00  0.00     0.068 A 
ATOM     16  C   UNL A   1      33.086  27.474  23.514  1.00  0.00     0.024 A 
ATOM     17  C   UNL A   1      33.925  26.265  25.428  1.00  0.00     0.024 A 
ATOM     18  C   UNL A   1      33.194  28.668  24.236  1.00  0.00     0.048 A 
ATOM     19  C   UNL A   1      33.987  27.456  26.159  1.00  0.00     0.048 A 
ATOM     20  C   UNL A   1      33.599  28.659  25.573  1.00  0.00     0.118 A 
BRANCH  20  21
ATOM     21  O   UNL A   1      33.615  29.875  26.199  1.00  0.00    -0.497 OA
ATOM     22  C   UNL A   1      32.334  30.440  26.470  1.00  0.00     0.278 C 
ENDBRANCH  20  21
ENDBRANCH  12  15
ENDBRANCH   7  12
ENDBRANCH   4   7
ENDBRANCH   2   3
ENDBRANCH   1   2
BRANCH   1  23
ATOM     23  C   UNL A   1      35.930  23.030  25.832  1.00  0.00     0.023 C 
BRANCH  23  24
ATOM     24  C   UNL A   1      37.203  23.581  25.216  1.00  0.00     0.116 C 
BRANCH  24  25
ATOM     25  N   UNL A   1      38.370  22.736  25.447  1.00  0.00    -0.352 N 
ATOM     26  C   UNL A   1      39.526  23.032  26.132  1.00  0.00     0.251 C 
ATOM     27  H   UNL A   1      38.322  21.831  25.062  1.00  0.00     0.163 HD
ATOM     28  O   UNL A   1      40.459  22.236  26.148  1.00  0.00    -0.269 OA
BRANCH  26  29
ATOM     29  C   UNL A   1      39.637  24.340  26.806  1.00  0.00     0.039 A 
ATOM     30  C   UNL A   1      39.090  24.500  28.080  1.00  0.00     0.014 A 
ATOM     31  C   UNL A   1      40.371  25.369  26.212  1.00  0.00     0.014 A 
ATOM     32  C   UNL A   1      39.367  25.662  28.802  1.00  0.00     0.010 A 
ATOM     33  C   UNL A   1      40.730  26.474  26.971  1.00  0.00     0.010 A 
ATOM     34  C   UNL A   1      40.233  26.632  28.273  1.00  0.00    -0.014 A 
BRANCH  34  35
ATOM     35  C   UNL A   1      40.637  27.830  29.049  1.00  0.00     0.031 A 
ATOM     36  C   UNL A   1      41.958  27.834  29.770  1.00  0.00     0.074 A 
ATOM     37  C   UNL A   1      39.780  28.861  29.192  1.00  0.00     0.049 A 
ATOM     38  N   UNL A   1      42.437  28.709  30.614  1.00  0.00    -0.248 NA
ATOM     39  C   UNL A   1      42.837  26.673  29.546  1.00  0.00     0.031 C 
ATOM     40  C   UNL A   1      38.442  28.945  28.599  1.00  0.00     0.029 A 
ATOM     41  N   UNL A   1      39.901  30.033  29.896  1.00  0.00    -0.354 N 
ATOM     42  C   UNL A   1      43.651  28.190  31.047  1.00  0.00     0.074 A 
ATOM     43  C   UNL A   1      43.811  26.899  30.414  1.00  0.00     0.031 C 
ATOM     44  C   UNL A   1      37.877  30.114  28.946  1.00  0.00     0.029 A 
ATOM     45  C   UNL A   1      38.794  30.846  29.812  1.00  0.00     0.049 A 
ATOM     46  H   UNL A   1      40.704  30.269  30.414  1.00  0.00     0.167 HD
ATOM     47  C   UNL A   1      44.562  28.749  31.875  1.00  0.00     0.037 A 
ATOM     48  C   UNL A   1      38.547  32.044  30.378  1.00  0.00     0.037 A 
ATOM     49  C   UNL A   1      44.425  30.060  32.449  1.00  0.00     0.049 A 
ATOM     50  C   UNL A   1      39.598  32.671  31.251  1.00  0.00     0.074 A 
ATOM     51  C   UNL A   1      45.329  30.756  33.232  1.00  0.00     0.029 A 
ATOM     52  N   UNL A   1      43.316  30.877  32.291  1.00  0.00    -0.354 N 
ATOM     53  N   UNL A   1      40.769  32.192  31.600  1.00  0.00    -0.248 NA
ATOM     54  C   UNL A   1      39.301  33.999  31.804  1.00  0.00     0.031 C 
ATOM     55  C   UNL A   1      44.755  31.987  33.568  1.00  0.00     0.029 A 
ATOM     56  C   UNL A   1      43.508  32.068  32.968  1.00  0.00     0.049 A 
ATOM     57  H   UNL A   1      42.512  30.645  31.774  1.00  0.00     0.167 HD
ATOM     58  C   UNL A   1      41.356  33.168  32.396  1.00  0.00     0.074 A 
ATOM     59  C   UNL A   1      40.417  34.270  32.467  1.00  0.00     0.031 C 
ATOM     60  C   UNL A   1      42.563  33.155  33.014  1.00  0.00     0.037 A 
BRANCH  47  61
ATOM     61  C   UNL A   1      45.796  27.951  32.187  1.00  0.00     0.058 A 
ATOM     62  C   UNL A   1      45.824  27.025  33.242  1.00  0.00     0.135 A 
ATOM     63  C   UNL A   1      46.959  28.101  31.415  1.00  0.00     0.135 A 
ATOM     64  F   UNL A   1      44.745  26.857  34.023  1.00  0.00    -0.206 F 
ATOM     65  C   UNL A   1      46.972  26.302  33.544  1.00  0.00     0.059 A 
ATOM     66  C   UNL A   1      48.112  27.368  31.683  1.00  0.00     0.059 A 
ATOM     67  F   UNL A   1      46.987  28.974  30.396  1.00  0.00    -0.206 F 
ATOM     68  C   UNL A   1      48.113  26.483  32.761  1.00  0.00     0.060 A 
BRANCH  68  69
ATOM     69  S   UNL A   1      49.597  25.540  33.168  1.00  0.00     0.124 S 
ATOM     70  O   UNL A   1      49.144  24.769  34.321  1.00  0.00    -0.237 OA
ATOM     71  O   UNL A   1      49.829  24.775  31.947  1.00  0.00    -0.237 OA
ATOM     72  O   UNL A   1      50.587  26.574  33.453  1.00  0.00    -0.744 OA
ENDBRANCH  68  69
ENDBRANCH  47  61
BRANCH  48  73
ATOM     73  C   UNL A   1      37.263  32.742  30.109  1.00  0.00     0.058 A 
ATOM     74  C   UNL A   1      36.131  32.491  30.899  1.00  0.00     0.135 A 
ATOM     75  C   UNL A   1      37.142  33.682  29.074  1.00  0.00     0.135 A 
ATOM     76  F   UNL A   1      36.196  31.596  31.896  1.00  0.00    -0.206 F 
ATOM     77  C   UNL A   1      34.921  33.135  30.665  1.00  0.00     0.059 A 
ATOM     78  C   UNL A   1      35.947  34.355  28.833  1.00  0.00     0.059 A 
ATOM     79  F   UNL A   1      38.201  33.972  28.302  1.00  0.00    -0.206 F 
ATOM     80  C   UNL A   1      34.839  34.066  29.629  1.00  0.00     0.060 A 
BRANCH  80  81
ATOM     81  S   UNL A   1      33.278  34.937  29.366  1.00  0.00     0.124 S 
ATOM     82  O   UNL A   1      32.613  34.065  28.406  1.00  0.00    -0.237 OA
ATOM     83  O   UNL A   1      32.708  34.962  30.711  1.00  0.00    -0.237 OA
ATOM     84  O   UNL A   1      33.704  36.236  28.853  1.00  0.00    -0.744 OA
ENDBRANCH  80  81
ENDBRANCH  48  73
BRANCH  60  85
ATOM     85  C   UNL A   1      42.951  34.376  33.795  1.00  0.00     0.058 A 
ATOM     86  C   UNL A   1      42.598  34.524  35.144  1.00  0.00     0.135 A 
ATOM     87  C   UNL A   1      43.746  35.373  33.208  1.00  0.00     0.135 A 
ATOM     88  F   UNL A   1      41.833  33.599  35.749  1.00  0.00    -0.206 F 
ATOM     89  C   UNL A   1      43.010  35.627  35.884  1.00  0.00     0.059 A 
ATOM     90  C   UNL A   1      44.186  36.474  33.933  1.00  0.00     0.059 A 
ATOM     91  F   UNL A   1      44.117  35.271  31.921  1.00  0.00    -0.206 F 
ATOM     92  C   UNL A   1      43.807  36.596  35.270  1.00  0.00     0.060 A 
BRANCH  92  93
ATOM     93  S   UNL A   1      44.379  37.998  36.253  1.00  0.00     0.124 S 
ATOM     94  O   UNL A   1      43.604  37.833  37.478  1.00  0.00    -0.237 OA
ATOM     95  O   UNL A   1      45.811  37.738  36.368  1.00  0.00    -0.237 OA
ATOM     96  O   UNL A   1      44.023  39.152  35.433  1.00  0.00    -0.744 OA
ENDBRANCH  92  93
ENDBRANCH  60  85
ENDBRANCH  34  35
ENDBRANCH  26  29
ENDBRANCH  24  25
ENDBRANCH  23  24
ENDBRANCH   1  23
TORSDOF 19
ENDMDL
MODEL 2
REMARK VINA RESULT:     -10.4      2.636      3.333
REMARK SMILES CC[C@@H](C)[C@@H](C(=O)NCCCCNC(=O)c1ccc(-c2c3nc(c(-c4c(F)cc(S(=O)(=O)[O-])cc4F)c4ccc([nH]4)c(-c4c(F)cc(S(=O)(=O)[O-])cc4F)c4nc(c(-c5c(F)cc(S(=O)(=O)[O-])cc5F)c5ccc2[nH]5)C=C4)C=C3)cc1)S(=O)(=O)c1ccc(OC)cc1
REMARK SMILES IDX 10 1 9 2 8 3 6 4 7 5 5 7 3 8 4 9 2 10 1 11 82 12 83 13 84 14
REMARK SMILES IDX 85 15 86 16 92 17 87 18 91 19 88 20 89 21 90 22 11 23 12 24
REMARK SMILES IDX 13 25 14 26 15 28 16 29 17 30 81 31 18 32 80 33 19 34 20 35
REMARK SMILES IDX 21 36 74 37 22 38 79 39 73 40 75 41 23 42 78 43 72 44 71 45
REMARK SMILES IDX 24 47 58 48 37 49 57 50 38 51 41 52 56 53 76 54 39 55 40 56
REMARK SMILES IDX 55 58 77 59 42 60 25 61 26 62 35 63 27 64 28 65 34 66 36 67
REMARK SMILES IDX 29 68 30 69 31 70 32 71 33 72 59 73 60 74 69 75 61 76 62 77
REMARK SMILES IDX 68 78 70 79 63 80 64 81 65 82 66 83 67 84 43 85 44 86 53 87
REMARK SMILES IDX 45 88 46 89 52 90 54 91 47 92 48 93 49 94 50 95 51 96
REMARK H PARENT 8 6 13 27 75 46 41 57
REMARK Flexibility Score: inf
ROOT
ATOM      1  C   UNL A   1      36.916  22.927  24.565  1.00  0.00     0.023 C 
ENDROOT
BRANCH   1   2
ATOM      2  C   UNL A   1      35.379  22.924  24.494  1.00  0.00     0.116 C 
BRANCH   2   3
ATOM      3  N   UNL A   1      34.963  23.277  23.149  1.00  0.00    -0.355 N 
ATOM      4  C   UNL A   1      33.762  23.750  22.705  1.00  0.00     0.239 C 
ATOM      5  O   UNL A   1      33.444  23.398  21.568  1.00  0.00    -0.274 OA
ATOM      6  H   UNL A   1      35.649  23.157  22.454  1.00  0.00     0.163 HD
BRANCH   4   7
ATOM      7  C   UNL A   1      32.873  24.666  23.555  1.00  0.00     0.205 C 
BRANCH   7   8
ATOM      8  C   UNL A   1      31.491  24.038  23.944  1.00  0.00     0.014 C 
ATOM      9  C   UNL A   1      30.705  24.837  24.994  1.00  0.00     0.009 C 
BRANCH   8  10
ATOM     10  C   UNL A   1      31.639  22.609  24.499  1.00  0.00     0.002 C 
ATOM     11  C   UNL A   1      31.003  22.377  25.864  1.00  0.00     0.004 C 
ENDBRANCH   8  10
ENDBRANCH   7   8
BRANCH   7  12
ATOM     12  S   UNL A   1      32.792  26.228  22.618  1.00  0.00     0.190 S 
ATOM     13  O   UNL A   1      34.015  26.414  21.856  1.00  0.00    -0.223 OA
ATOM     14  O   UNL A   1      31.538  26.214  21.880  1.00  0.00    -0.223 OA
BRANCH  12  15
ATOM     15  C   UNL A   1      32.714  27.609  23.756  1.00  0.00     0.068 A 
ATOM     16  C   UNL A   1      31.536  28.357  23.843  1.00  0.00     0.024 A 
ATOM     17  C   UNL A   1      33.790  27.920  24.590  1.00  0.00     0.024 A 
ATOM     18  C   UNL A   1      31.421  29.360  24.811  1.00  0.00     0.048 A 
ATOM     19  C   UNL A   1      33.653  28.893  25.586  1.00  0.00     0.048 A 
ATOM     20  C   UNL A   1      32.460  29.600  25.715  1.00  0.00     0.118 A 
BRANCH  20  21
ATOM     21  O   UNL A   1      32.219  30.564  26.655  1.00  0.00    -0.497 OA
ATOM     22  C   UNL A   1      33.372  31.062  27.330  1.00  0.00     0.278 C 
ENDBRANCH  20  21
ENDBRANCH  12  15
ENDBRANCH   7  12
ENDBRANCH   4   7
ENDBRANCH   2   3
ENDBRANCH   1   2
BRANCH   1  23
ATOM     23  C   UNL A   1      37.508  22.973  25.964  1.00  0.00     0.023 C 
BRANCH  23  24
ATOM     24  C   UNL A   1      38.385  24.182  26.233  1.00  0.00     0.116 C 
BRANCH  24  25
ATOM     25  N   UNL A   1      39.812  23.889  26.154  1.00  0.00    -0.352 N 
ATOM     26  C   UNL A   1      40.864  24.569  26.722  1.00  0.00     0.251 C 
ATOM     27  H   UNL A   1      40.055  23.095  25.623  1.00  0.00     0.163 HD
ATOM     28  O   UNL A   1      42.021  24.246  26.473  1.00  0.00    -0.269 OA
BRANCH  26  29
ATOM     29  C   UNL A   1      40.575  25.722  27.598  1.00  0.00     0.039 A 
ATOM     30  C   UNL A   1      39.594  25.600  28.583  1.00  0.00     0.014 A 
ATOM     31  C   UNL A   1      41.348  26.881  27.502  1.00  0.00     0.014 A 
ATOM     32  C   UNL A   1      39.458  26.608  29.540  1.00  0.00     0.010 A 
ATOM     33  C   UNL A   1      41.281  27.829  28.513  1.00  0.00     0.010 A 
ATOM     34  C   UNL A   1      40.337  27.702  29.542  1.00  0.00    -0.014 A 
BRANCH  34  35
ATOM     35  C   UNL A   1      40.294  28.740  30.602  1.00  0.00     0.031 A 
ATOM     36  C   UNL A   1      41.198  28.613  31.798  1.00  0.00     0.074 A 
ATOM     37  C   UNL A   1      39.379  29.728  30.541  1.00  0.00     0.049 A 
ATOM     38  N   UNL A   1      41.221  29.321  32.896  1.00  0.00    -0.248 NA
ATOM     39  C   UNL A   1      42.177  27.512  31.774  1.00  0.00     0.031 C 
ATOM     40  C   UNL A   1      38.400  29.918  29.466  1.00  0.00     0.029 A 
ATOM     41  N   UNL A   1      39.111  30.753  31.414  1.00  0.00    -0.354 N 
ATOM     42  C   UNL A   1      42.185  28.732  33.704  1.00  0.00     0.074 A 
ATOM     43  C   UNL A   1      42.689  27.577  32.993  1.00  0.00     0.031 C 
ATOM     44  C   UNL A   1      37.656  31.004  29.733  1.00  0.00     0.029 A 
ATOM     45  C   UNL A   1      38.078  31.567  31.011  1.00  0.00     0.049 A 
ATOM     46  H   UNL A   1      39.611  30.892  32.251  1.00  0.00     0.167 HD
ATOM     47  C   UNL A   1      42.632  29.132  34.917  1.00  0.00     0.037 A 
ATOM     48  C   UNL A   1      37.530  32.643  31.610  1.00  0.00     0.037 A 
ATOM     49  C   UNL A   1      42.172  30.317  35.589  1.00  0.00     0.049 A 
ATOM     50  C   UNL A   1      38.080  33.101  32.933  1.00  0.00     0.074 A 
ATOM     51  C   UNL A   1      42.619  30.859  36.781  1.00  0.00     0.029 A 
ATOM     52  N   UNL A   1      41.167  31.149  35.119  1.00  0.00    -0.354 N 
ATOM     53  N   UNL A   1      39.037  32.567  33.655  1.00  0.00    -0.248 NA
ATOM     54  C   UNL A   1      37.482  34.307  33.522  1.00  0.00     0.031 C 
ATOM     55  C   UNL A   1      41.867  32.009  37.044  1.00  0.00     0.029 A 
ATOM     56  C   UNL A   1      40.974  32.198  36.000  1.00  0.00     0.049 A 
ATOM     57  H   UNL A   1      40.666  31.014  34.283  1.00  0.00     0.167 HD
ATOM     58  C   UNL A   1      39.169  33.383  34.772  1.00  0.00     0.074 A 
ATOM     59  C   UNL A   1      38.203  34.454  34.625  1.00  0.00     0.031 C 
ATOM     60  C   UNL A   1      40.014  33.259  35.826  1.00  0.00     0.037 A 
BRANCH  47  61
ATOM     61  C   UNL A   1      43.685  28.290  35.579  1.00  0.00     0.058 A 
ATOM     62  C   UNL A   1      45.050  28.481  35.316  1.00  0.00     0.135 A 
ATOM     63  C   UNL A   1      43.327  27.290  36.498  1.00  0.00     0.135 A 
ATOM     64  F   UNL A   1      45.445  29.410  34.431  1.00  0.00    -0.206 F 
ATOM     65  C   UNL A   1      46.023  27.687  35.912  1.00  0.00     0.059 A 
ATOM     66  C   UNL A   1      44.287  26.502  37.127  1.00  0.00     0.059 A 
ATOM     67  F   UNL A   1      42.035  27.064  36.784  1.00  0.00    -0.206 F 
ATOM     68  C   UNL A   1      45.631  26.697  36.814  1.00  0.00     0.060 A 
BRANCH  68  69
ATOM     69  S   UNL A   1      46.906  25.672  37.578  1.00  0.00     0.124 S 
ATOM     70  O   UNL A   1      46.405  25.556  38.944  1.00  0.00    -0.237 OA
ATOM     71  O   UNL A   1      46.851  24.453  36.778  1.00  0.00    -0.237 OA
ATOM     72  O   UNL A   1      48.119  26.468  37.418  1.00  0.00    -0.744 OA
ENDBRANCH  68  69
ENDBRANCH  47  61
BRANCH  48  73
ATOM     73  C   UNL A   1      36.421  33.378  30.949  1.00  0.00     0.058 A 
ATOM     74  C   UNL A   1      35.119  33.328  31.467  1.00  0.00     0.135 A 
ATOM     75  C   UNL A   1      36.639  34.156  29.801  1.00  0.00     0.135 A 
ATOM     76  F   UNL A   1      34.861  32.594  32.560  1.00  0.00    -0.206 F 
ATOM     77  C   UNL A   1      34.067  34.010  30.864  1.00  0.00     0.059 A 
ATOM     78  C   UNL A   1      35.607  34.864  29.192  1.00  0.00     0.059 A 
ATOM     79  F   UNL A   1      37.871  34.251  29.278  1.00  0.00    -0.206 F 
ATOM     80  C   UNL A   1      34.321  34.777  29.726  1.00  0.00     0.060 A 
BRANCH  80  81
ATOM     81  S   UNL A   1      32.961  35.702  28.981  1.00  0.00     0.124 S 
ATOM     82  O   UNL A   1      33.673  36.785  28.313  1.00  0.00    -0.237 OA
ATOM     83  O   UNL A   1      32.350  34.704  28.108  1.00  0.00    -0.237 OA
ATOM     84  O   UNL A   1      32.152  36.092  30.133  1.00  0.00    -0.744 OA
ENDBRANCH  80  81
ENDBRANCH  48  73
BRANCH  60  85
ATOM     85  C   UNL A   1      39.953  34.317  36.887  1.00  0.00     0.058 A 
ATOM     86  C   UNL A   1      39.122  34.182  38.009  1.00  0.00     0.135 A 
ATOM     87  C   UNL A   1      40.789  35.444  36.816  1.00  0.00     0.135 A 
ATOM     88  F   UNL A   1      38.300  33.125  38.118  1.00  0.00    -0.206 F 
ATOM     89  C   UNL A   1      39.112  35.135  39.022  1.00  0.00     0.059 A 
ATOM     90  C   UNL A   1      40.810  36.398  37.827  1.00  0.00     0.059 A 
ATOM     91  F   UNL A   1      41.608  35.612  35.766  1.00  0.00    -0.206 F 
ATOM     92  C   UNL A   1      39.963  36.239  38.923  1.00  0.00     0.060 A 
BRANCH  92  93
ATOM     93  S   UNL A   1      39.979  37.444  40.267  1.00  0.00     0.124 S 
ATOM     94  O   UNL A   1      40.972  38.401  39.790  1.00  0.00    -0.237 OA
ATOM     95  O   UNL A   1      38.598  37.917  40.281  1.00  0.00    -0.237 OA
ATOM     96  O   UNL A   1      40.375  36.652  41.427  1.00  0.00    -0.744 OA
ENDBRANCH  92  93
ENDBRANCH  60  85
ENDBRANCH  34  35
ENDBRANCH  26  29
ENDBRANCH  24  25
ENDBRANCH  23  24
ENDBRANCH   1  23
TORSDOF 19
ENDMDL
MODEL 3
REMARK VINA RESULT:     -10.4      2.995      9.430
REMARK SMILES CC[C@@H](C)[C@@H](C(=O)NCCCCNC(=O)c1ccc(-c2c3nc(c(-c4c(F)cc(S(=O)(=O)[O-])cc4F)c4ccc([nH]4)c(-c4c(F)cc(S(=O)(=O)[O-])cc4F)c4nc(c(-c5c(F)cc(S(=O)(=O)[O-])cc5F)c5ccc2[nH]5)C=C4)C=C3)cc1)S(=O)(=O)c1ccc(OC)cc1
REMARK SMILES IDX 10 1 9 2 8 3 6 4 7 5 5 7 3 8 4 9 2 10 1 11 82 12 83 13 84 14
REMARK SMILES IDX 85 15 86 16 92 17 87 18 91 19 88 20 89 21 90 22 11 23 12 24
REMARK SMILES IDX 13 25 14 26 15 28 16 29 17 30 81 31 18 32 80 33 19 34 20 35
REMARK SMILES IDX 21 36 74 37 22 38 79 39 73 40 75 41 23 42 78 43 72 44 71 45
REMARK SMILES IDX 24 47 58 48 37 49 57 50 38 51 41 52 56 53 76 54 39 55 40 56
REMARK SMILES IDX 55 58 77 59 42 60 25 61 26 62 35 63 27 64 28 65 34 66 36 67
REMARK SMILES IDX 29 68 30 69 31 70 32 71 33 72 59 73 60 74 69 75 61 76 62 77
REMARK SMILES IDX 68 78 70 79 63 80 64 81 65 82 66 83 67 84 43 85 44 86 53 87
REMARK SMILES IDX 45 88 46 89 52 90 54 91 47 92 48 93 49 94 50 95 51 96
REMARK H PARENT 8 6 13 27 75 46 41 57
REMARK Flexibility Score: inf
ROOT
ATOM      1  C   UNL A   1      31.541  27.935  25.845  1.00  0.00     0.023 C 
ENDROOT
BRANCH   1   2
ATOM      2  C   UNL A   1      31.327  26.986  27.036  1.00  0.00     0.116 C 
BRANCH   2   3
ATOM      3  N   UNL A   1      30.823  25.715  26.549  1.00  0.00    -0.355 N 
ATOM      4  C   UNL A   1      31.400  24.818  25.697  1.00  0.00     0.239 C 
ATOM      5  O   UNL A   1      30.618  24.193  24.979  1.00  0.00    -0.274 OA
ATOM      6  H   UNL A   1      29.932  25.462  26.884  1.00  0.00     0.163 HD
BRANCH   4   7
ATOM      7  C   UNL A   1      32.916  24.592  25.643  1.00  0.00     0.205 C 
BRANCH   7   8
ATOM      8  C   UNL A   1      33.500  24.500  24.192  1.00  0.00     0.014 C 
ATOM      9  C   UNL A   1      35.030  24.383  24.131  1.00  0.00     0.009 C 
BRANCH   8  10
ATOM     10  C   UNL A   1      33.117  25.720  23.335  1.00  0.00     0.002 C 
ATOM     11  C   UNL A   1      33.214  25.508  21.829  1.00  0.00     0.004 C 
ENDBRANCH   8  10
ENDBRANCH   7   8
BRANCH   7  12
ATOM     12  S   UNL A   1      33.203  23.134  26.701  1.00  0.00     0.190 S 
ATOM     13  O   UNL A   1      34.494  23.245  27.359  1.00  0.00    -0.223 OA
ATOM     14  O   UNL A   1      32.029  22.989  27.549  1.00  0.00    -0.223 OA
BRANCH  12  15
ATOM     15  C   UNL A   1      33.301  21.662  25.685  1.00  0.00     0.068 A 
ATOM     16  C   UNL A   1      34.527  21.005  25.553  1.00  0.00     0.024 A 
ATOM     17  C   UNL A   1      32.167  21.134  25.066  1.00  0.00     0.024 A 
ATOM     18  C   UNL A   1      34.592  19.790  24.862  1.00  0.00     0.048 A 
ATOM     19  C   UNL A   1      32.228  19.897  24.416  1.00  0.00     0.048 A 
ATOM     20  C   UNL A   1      33.437  19.210  24.332  1.00  0.00     0.118 A 
BRANCH  20  21
ATOM     21  O   UNL A   1      33.606  17.994  23.727  1.00  0.00    -0.497 OA
ATOM     22  C   UNL A   1      34.565  17.134  24.338  1.00  0.00     0.278 C 
ENDBRANCH  20  21
ENDBRANCH  12  15
ENDBRANCH   7  12
ENDBRANCH   4   7
ENDBRANCH   2   3
ENDBRANCH   1   2
BRANCH   1  23
ATOM     23  C   UNL A   1      32.910  28.591  25.767  1.00  0.00     0.023 C 
BRANCH  23  24
ATOM     24  C   UNL A   1      33.613  28.733  27.104  1.00  0.00     0.116 C 
BRANCH  24  25
ATOM     25  N   UNL A   1      33.590  30.094  27.629  1.00  0.00    -0.352 N 
ATOM     26  C   UNL A   1      34.583  30.780  28.289  1.00  0.00     0.251 C 
ATOM     27  H   UNL A   1      32.750  30.589  27.490  1.00  0.00     0.163 HD
ATOM     28  O   UNL A   1      34.364  31.893  28.756  1.00  0.00    -0.269 OA
BRANCH  26  29
ATOM     29  C   UNL A   1      35.898  30.133  28.463  1.00  0.00     0.039 A 
ATOM     30  C   UNL A   1      36.835  30.203  27.430  1.00  0.00     0.014 A 
ATOM     31  C   UNL A   1      36.230  29.549  29.687  1.00  0.00     0.014 A 
ATOM     32  C   UNL A   1      38.143  29.774  27.664  1.00  0.00     0.010 A 
ATOM     33  C   UNL A   1      37.553  29.222  29.948  1.00  0.00     0.010 A 
ATOM     34  C   UNL A   1      38.523  29.331  28.941  1.00  0.00    -0.014 A 
BRANCH  34  35
ATOM     35  C   UNL A   1      39.926  28.967  29.259  1.00  0.00     0.031 A 
ATOM     36  C   UNL A   1      40.828  29.986  29.901  1.00  0.00     0.074 A 
ATOM     37  C   UNL A   1      40.413  27.769  28.880  1.00  0.00     0.049 A 
ATOM     38  N   UNL A   1      42.112  29.926  30.129  1.00  0.00    -0.248 NA
ATOM     39  C   UNL A   1      40.207  31.263  30.296  1.00  0.00     0.031 C 
ATOM     40  C   UNL A   1      39.656  26.721  28.187  1.00  0.00     0.029 A 
ATOM     41  N   UNL A   1      41.671  27.234  29.007  1.00  0.00    -0.354 N 
ATOM     42  C   UNL A   1      42.459  31.163  30.658  1.00  0.00     0.074 A 
ATOM     43  C   UNL A   1      41.261  31.973  30.668  1.00  0.00     0.031 C 
ATOM     44  C   UNL A   1      40.458  25.665  27.973  1.00  0.00     0.029 A 
ATOM     45  C   UNL A   1      41.792  25.970  28.479  1.00  0.00     0.049 A 
ATOM     46  H   UNL A   1      42.417  27.711  29.438  1.00  0.00     0.167 HD
ATOM     47  C   UNL A   1      43.661  31.578  31.120  1.00  0.00     0.037 A 
ATOM     48  C   UNL A   1      42.862  25.153  28.405  1.00  0.00     0.037 A 
ATOM     49  C   UNL A   1      44.833  30.746  31.166  1.00  0.00     0.049 A 
ATOM     50  C   UNL A   1      44.174  25.617  28.974  1.00  0.00     0.074 A 
ATOM     51  C   UNL A   1      46.078  31.041  31.692  1.00  0.00     0.029 A 
ATOM     52  N   UNL A   1      44.899  29.451  30.676  1.00  0.00    -0.354 N 
ATOM     53  N   UNL A   1      44.469  26.769  29.528  1.00  0.00    -0.248 NA
ATOM     54  C   UNL A   1      45.298  24.671  28.913  1.00  0.00     0.031 C 
ATOM     55  C   UNL A   1      46.905  29.929  31.499  1.00  0.00     0.029 A 
ATOM     56  C   UNL A   1      46.165  28.933  30.880  1.00  0.00     0.049 A 
ATOM     57  H   UNL A   1      44.155  28.970  30.246  1.00  0.00     0.167 HD
ATOM     58  C   UNL A   1      45.805  26.680  29.900  1.00  0.00     0.074 A 
ATOM     59  C   UNL A   1      46.258  25.356  29.520  1.00  0.00     0.031 C 
ATOM     60  C   UNL A   1      46.588  27.608  30.503  1.00  0.00     0.037 A 
BRANCH  47  61
ATOM     61  C   UNL A   1      43.757  32.987  31.631  1.00  0.00     0.058 A 
ATOM     62  C   UNL A   1      43.688  33.277  33.003  1.00  0.00     0.135 A 
ATOM     63  C   UNL A   1      43.933  34.060  30.742  1.00  0.00     0.135 A 
ATOM     64  F   UNL A   1      43.500  32.290  33.894  1.00  0.00    -0.206 F 
ATOM     65  C   UNL A   1      43.755  34.584  33.474  1.00  0.00     0.059 A 
ATOM     66  C   UNL A   1      44.030  35.373  31.194  1.00  0.00     0.059 A 
ATOM     67  F   UNL A   1      44.003  33.839  29.420  1.00  0.00    -0.206 F 
ATOM     68  C   UNL A   1      43.922  35.626  32.561  1.00  0.00     0.060 A 
BRANCH  68  69
ATOM     69  S   UNL A   1      44.004  37.316  33.188  1.00  0.00     0.124 S 
ATOM     70  O   UNL A   1      45.204  37.261  34.017  1.00  0.00    -0.237 OA
ATOM     71  O   UNL A   1      44.117  38.101  31.962  1.00  0.00    -0.237 OA
ATOM     72  O   UNL A   1      42.746  37.469  33.912  1.00  0.00    -0.744 OA
ENDBRANCH  68  69
ENDBRANCH  47  61
BRANCH  48  73
ATOM     73  C   UNL A   1      42.727  23.804  27.796  1.00  0.00     0.058 A 
ATOM     74  C   UNL A   1      42.811  23.633  26.407  1.00  0.00     0.135 A 
ATOM     75  C   UNL A   1      42.528  22.662  28.586  1.00  0.00     0.135 A 
ATOM     76  F   UNL A   1      42.994  24.697  25.611  1.00  0.00    -0.206 F 
ATOM     77  C   UNL A   1      42.689  22.379  25.818  1.00  0.00     0.059 A 
ATOM     78  C   UNL A   1      42.424  21.393  28.021  1.00  0.00     0.059 A 
ATOM     79  F   UNL A   1      42.460  22.770  29.921  1.00  0.00    -0.206 F 
ATOM     80  C   UNL A   1      42.496  21.264  26.634  1.00  0.00     0.060 A 
BRANCH  80  81
ATOM     81  S   UNL A   1      42.393  19.632  25.865  1.00  0.00     0.124 S 
ATOM     82  O   UNL A   1      42.735  18.760  26.981  1.00  0.00    -0.237 OA
ATOM     83  O   UNL A   1      41.002  19.588  25.421  1.00  0.00    -0.237 OA
ATOM     84  O   UNL A   1      43.381  19.706  24.793  1.00  0.00    -0.744 OA
ENDBRANCH  80  81
ENDBRANCH  48  73
BRANCH  60  85
ATOM     85  C   UNL A   1      48.004  27.220  30.814  1.00  0.00     0.058 A 
ATOM     86  C   UNL A   1      48.327  26.497  31.972  1.00  0.00     0.135 A 
ATOM     87  C   UNL A   1      49.036  27.512  29.908  1.00  0.00     0.135 A 
ATOM     88  F   UNL A   1      47.375  26.200  32.871  1.00  0.00    -0.206 F 
ATOM     89  C   UNL A   1      49.630  26.085  32.228  1.00  0.00     0.059 A 
ATOM     90  C   UNL A   1      50.342  27.092  30.134  1.00  0.00     0.059 A 
ATOM     91  F   UNL A   1      48.774  28.193  28.781  1.00  0.00    -0.206 F 
ATOM     92  C   UNL A   1      50.631  26.385  31.301  1.00  0.00     0.060 A 
BRANCH  92  93
ATOM     93  S   UNL A   1      52.310  25.803  31.618  1.00  0.00     0.124 S 
ATOM     94  O   UNL A   1      52.922  25.942  30.301  1.00  0.00    -0.237 OA
ATOM     95  O   UNL A   1      52.779  26.737  32.638  1.00  0.00    -0.237 OA
ATOM     96  O   UNL A   1      52.111  24.432  32.078  1.00  0.00    -0.744 OA
ENDBRANCH  92  93
ENDBRANCH  60  85
ENDBRANCH  34  35
ENDBRANCH  26  29
ENDBRANCH  24  25
ENDBRANCH  23  24
ENDBRANCH   1  23
TORSDOF 19
ENDMDL
