MODEL 1
REMARK VINA RESULT:     -11.5      0.000      0.000
REMARK SMILES Cc1nsc(N[C@H](C)c2cccs2)c1C(=O)NCCCCNC(=O)c1ccc(-c2c3nc(c(-c4c(F)cc(S(=O)(=O)[O-])cc4F)c4ccc([nH]4)c(-c4c(F)cc(S(=O)(=O)[O-])cc4F)c4nc(c(-c5c(F)cc(S(=O)(=O)[O-])cc5F)c5ccc2[nH]5)C=C4)C=C3)cc1
REMARK SMILES IDX 19 1 18 2 17 3 15 4 16 5 14 7 1 8 2 9 3 10 4 11 5 12 6 13
REMARK SMILES IDX 7 15 8 16 9 17 10 18 13 19 11 20 12 21 20 22 21 23 22 24
REMARK SMILES IDX 23 25 24 27 25 28 26 29 90 30 27 31 89 32 28 33 29 34 30 35
REMARK SMILES IDX 83 36 31 37 88 38 82 39 84 40 32 41 87 42 81 43 80 44 33 46
REMARK SMILES IDX 67 47 46 48 66 49 47 50 50 51 65 52 85 53 48 54 49 55 64 57
REMARK SMILES IDX 86 58 51 59 34 60 35 61 44 62 36 63 37 64 43 65 45 66 38 67
REMARK SMILES IDX 39 68 40 69 41 70 42 71 68 72 69 73 78 74 70 75 71 76 77 77
REMARK SMILES IDX 79 78 72 79 73 80 74 81 75 82 76 83 52 84 53 85 62 86 54 87
REMARK SMILES IDX 55 88 61 89 63 90 56 91 57 92 58 93 59 94 60 95
REMARK H PARENT 17 6 6 14 22 26 84 45 50 56
REMARK Flexibility Score: inf
ROOT
ATOM      1  C   UNL A   1      36.979  21.109  24.580  1.00  0.00     0.023 C 
ENDROOT
BRANCH   1   2
ATOM      2  C   UNL A   1      36.717  21.990  25.805  1.00  0.00     0.116 C 
BRANCH   2   3
ATOM      3  N   UNL A   1      35.569  21.544  26.552  1.00  0.00    -0.352 N 
ATOM      4  C   UNL A   1      34.209  21.669  26.490  1.00  0.00     0.256 C 
ATOM      5  O   UNL A   1      33.664  21.050  27.419  1.00  0.00    -0.269 OA
ATOM      6  H   UNL A   1      35.839  20.997  27.325  1.00  0.00     0.163 HD
BRANCH   4   7
ATOM      7  C   UNL A   1      33.389  22.416  25.504  1.00  0.00     0.097 A 
ATOM      8  C   UNL A   1      33.775  25.062  25.777  1.00  0.00     0.069 C 
ATOM      9  C   UNL A   1      33.194  23.830  25.182  1.00  0.00     0.066 A 
ATOM     10  N   UNL A   1      32.344  24.104  24.189  1.00  0.00    -0.195 NA
ATOM     11  S   UNL A   1      31.748  22.722  23.568  1.00  0.00    -0.018 S 
ATOM     12  C   UNL A   1      32.557  21.664  24.639  1.00  0.00     0.123 A 
BRANCH  12  13
ATOM     13  N   UNL A   1      32.401  20.308  24.635  1.00  0.00    -0.368 N 
ATOM     14  H   UNL A   1      31.773  19.930  25.292  1.00  0.00     0.162 HD
BRANCH  13  15
ATOM     15  C   UNL A   1      33.072  19.368  23.750  1.00  0.00     0.117 C 
ATOM     16  C   UNL A   1      32.129  19.055  22.579  1.00  0.00     0.037 C 
BRANCH  15  17
ATOM     17  C   UNL A   1      33.547  18.085  24.396  1.00  0.00     0.027 A 
ATOM     18  C   UNL A   1      34.799  17.506  24.296  1.00  0.00     0.017 A 
ATOM     19  S   UNL A   1      32.501  17.136  25.371  1.00  0.00    -0.147 S 
ATOM     20  C   UNL A   1      34.899  16.288  25.028  1.00  0.00     0.012 A 
ATOM     21  C   UNL A   1      33.721  15.977  25.669  1.00  0.00     0.065 A 
ENDBRANCH  15  17
ENDBRANCH  13  15
ENDBRANCH  12  13
ENDBRANCH   4   7
ENDBRANCH   2   3
ENDBRANCH   1   2
BRANCH   1  22
ATOM     22  C   UNL A   1      37.947  19.940  24.822  1.00  0.00     0.023 C 
BRANCH  22  23
ATOM     23  C   UNL A   1      39.095  20.248  25.782  1.00  0.00     0.116 C 
BRANCH  23  24
ATOM     24  N   UNL A   1      40.102  19.189  25.827  1.00  0.00    -0.352 N 
ATOM     25  C   UNL A   1      41.467  19.347  25.957  1.00  0.00     0.251 C 
ATOM     26  H   UNL A   1      39.771  18.264  25.756  1.00  0.00     0.163 HD
ATOM     27  O   UNL A   1      42.248  18.472  25.586  1.00  0.00    -0.269 OA
BRANCH  25  28
ATOM     28  C   UNL A   1      41.966  20.585  26.571  1.00  0.00     0.039 A 
ATOM     29  C   UNL A   1      42.422  21.651  25.791  1.00  0.00     0.014 A 
ATOM     30  C   UNL A   1      41.882  20.686  27.959  1.00  0.00     0.014 A 
ATOM     31  C   UNL A   1      42.710  22.863  26.415  1.00  0.00     0.010 A 
ATOM     32  C   UNL A   1      42.068  21.909  28.557  1.00  0.00     0.010 A 
ATOM     33  C   UNL A   1      42.505  22.996  27.798  1.00  0.00    -0.014 A 
BRANCH  33  34
ATOM     34  C   UNL A   1      42.568  24.317  28.431  1.00  0.00     0.031 A 
ATOM     35  C   UNL A   1      41.389  25.193  28.148  1.00  0.00     0.074 A 
ATOM     36  C   UNL A   1      43.463  24.612  29.402  1.00  0.00     0.049 A 
ATOM     37  N   UNL A   1      41.358  26.330  27.534  1.00  0.00    -0.248 NA
ATOM     38  C   UNL A   1      40.048  24.664  28.464  1.00  0.00     0.031 C 
ATOM     39  C   UNL A   1      44.461  23.709  29.992  1.00  0.00     0.029 A 
ATOM     40  N   UNL A   1      43.588  25.731  30.170  1.00  0.00    -0.354 N 
ATOM     41  C   UNL A   1      40.036  26.774  27.612  1.00  0.00     0.074 A 
ATOM     42  C   UNL A   1      39.256  25.629  27.993  1.00  0.00     0.031 C 
ATOM     43  C   UNL A   1      44.897  24.215  31.165  1.00  0.00     0.029 A 
ATOM     44  C   UNL A   1      44.354  25.553  31.319  1.00  0.00     0.049 A 
ATOM     45  H   UNL A   1      43.173  26.592  29.933  1.00  0.00     0.167 HD
ATOM     46  C   UNL A   1      39.740  28.105  27.640  1.00  0.00     0.037 A 
ATOM     47  C   UNL A   1      44.529  26.426  32.342  1.00  0.00     0.037 A 
ATOM     48  C   UNL A   1      40.878  28.881  27.213  1.00  0.00     0.049 A 
ATOM     49  C   UNL A   1      44.188  27.770  31.824  1.00  0.00     0.074 A 
ATOM     50  C   UNL A   1      41.594  29.040  26.046  1.00  0.00     0.029 A 
ATOM     51  N   UNL A   1      41.656  29.374  28.229  1.00  0.00    -0.354 N 
ATOM     52  N   UNL A   1      44.860  28.376  30.882  1.00  0.00    -0.248 NA
ATOM     53  C   UNL A   1      42.857  28.301  32.075  1.00  0.00     0.031 C 
ATOM     54  C   UNL A   1      42.934  29.310  26.456  1.00  0.00     0.029 A 
ATOM     55  C   UNL A   1      42.970  29.361  27.851  1.00  0.00     0.049 A 
ATOM     56  H   UNL A   1      41.320  29.691  29.098  1.00  0.00     0.167 HD
ATOM     57  C   UNL A   1      43.903  29.051  30.145  1.00  0.00     0.074 A 
ATOM     58  C   UNL A   1      42.730  29.103  31.014  1.00  0.00     0.031 C 
ATOM     59  C   UNL A   1      44.059  29.235  28.801  1.00  0.00     0.037 A 
BRANCH  46  60
ATOM     60  C   UNL A   1      38.643  28.739  28.490  1.00  0.00     0.058 A 
ATOM     61  C   UNL A   1      37.861  29.776  27.928  1.00  0.00     0.135 A 
ATOM     62  C   UNL A   1      38.545  28.616  29.894  1.00  0.00     0.135 A 
ATOM     63  F   UNL A   1      37.852  29.984  26.601  1.00  0.00    -0.206 F 
ATOM     64  C   UNL A   1      37.136  30.683  28.705  1.00  0.00     0.059 A 
ATOM     65  C   UNL A   1      37.790  29.479  30.683  1.00  0.00     0.059 A 
ATOM     66  F   UNL A   1      39.242  27.715  30.592  1.00  0.00    -0.206 F 
ATOM     67  C   UNL A   1      37.129  30.539  30.087  1.00  0.00     0.060 A 
BRANCH  67  68
ATOM     68  S   UNL A   1      36.302  31.773  31.108  1.00  0.00     0.124 S 
ATOM     69  O   UNL A   1      36.220  31.082  32.388  1.00  0.00    -0.237 OA
ATOM     70  O   UNL A   1      37.234  32.893  31.040  1.00  0.00    -0.237 OA
ATOM     71  O   UNL A   1      35.032  31.980  30.417  1.00  0.00    -0.744 OA
ENDBRANCH  67  68
ENDBRANCH  46  60
BRANCH  47  72
ATOM     72  C   UNL A   1      44.712  26.134  33.787  1.00  0.00     0.058 A 
ATOM     73  C   UNL A   1      43.755  25.420  34.529  1.00  0.00     0.135 A 
ATOM     74  C   UNL A   1      45.963  26.324  34.410  1.00  0.00     0.135 A 
ATOM     75  F   UNL A   1      42.545  25.171  34.005  1.00  0.00    -0.206 F 
ATOM     76  C   UNL A   1      44.032  24.895  35.799  1.00  0.00     0.059 A 
ATOM     77  C   UNL A   1      46.260  25.816  35.675  1.00  0.00     0.059 A 
ATOM     78  F   UNL A   1      46.966  26.938  33.763  1.00  0.00    -0.206 F 
ATOM     79  C   UNL A   1      45.296  25.085  36.357  1.00  0.00     0.060 A 
BRANCH  79  80
ATOM     80  S   UNL A   1      45.706  24.287  37.930  1.00  0.00     0.124 S 
ATOM     81  O   UNL A   1      47.062  24.769  38.169  1.00  0.00    -0.237 OA
ATOM     82  O   UNL A   1      44.676  24.812  38.820  1.00  0.00    -0.237 OA
ATOM     83  O   UNL A   1      45.596  22.862  37.628  1.00  0.00    -0.744 OA
ENDBRANCH  79  80
ENDBRANCH  47  72
BRANCH  59  84
ATOM     84  C   UNL A   1      45.449  29.118  28.233  1.00  0.00     0.058 A 
ATOM     85  C   UNL A   1      46.439  30.112  28.308  1.00  0.00     0.135 A 
ATOM     86  C   UNL A   1      45.824  27.880  27.691  1.00  0.00     0.135 A 
ATOM     87  F   UNL A   1      46.192  31.292  28.893  1.00  0.00    -0.206 F 
ATOM     88  C   UNL A   1      47.735  29.895  27.833  1.00  0.00     0.059 A 
ATOM     89  C   UNL A   1      47.117  27.630  27.242  1.00  0.00     0.059 A 
ATOM     90  F   UNL A   1      44.939  26.871  27.643  1.00  0.00    -0.206 F 
ATOM     91  C   UNL A   1      48.065  28.648  27.303  1.00  0.00     0.060 A 
BRANCH  91  92
ATOM     92  S   UNL A   1      49.758  28.340  26.757  1.00  0.00     0.124 S 
ATOM     93  O   UNL A   1      49.686  26.957  26.297  1.00  0.00    -0.237 OA
ATOM     94  O   UNL A   1      49.942  29.346  25.713  1.00  0.00    -0.237 OA
ATOM     95  O   UNL A   1      50.551  28.556  27.964  1.00  0.00    -0.744 OA
ENDBRANCH  91  92
ENDBRANCH  59  84
ENDBRANCH  33  34
ENDBRANCH  25  28
ENDBRANCH  23  24
ENDBRANCH  22  23
ENDBRANCH   1  22
TORSDOF 17
ENDMDL
MODEL 2
REMARK VINA RESULT:     -11.4      4.161      9.549
REMARK SMILES Cc1nsc(N[C@H](C)c2cccs2)c1C(=O)NCCCCNC(=O)c1ccc(-c2c3nc(c(-c4c(F)cc(S(=O)(=O)[O-])cc4F)c4ccc([nH]4)c(-c4c(F)cc(S(=O)(=O)[O-])cc4F)c4nc(c(-c5c(F)cc(S(=O)(=O)[O-])cc5F)c5ccc2[nH]5)C=C4)C=C3)cc1
REMARK SMILES IDX 19 1 18 2 17 3 15 4 16 5 14 7 1 8 2 9 3 10 4 11 5 12 6 13
REMARK SMILES IDX 7 15 8 16 9 17 10 18 13 19 11 20 12 21 20 22 21 23 22 24
REMARK SMILES IDX 23 25 24 27 25 28 26 29 90 30 27 31 89 32 28 33 29 34 30 35
REMARK SMILES IDX 83 36 31 37 88 38 82 39 84 40 32 41 87 42 81 43 80 44 33 46
REMARK SMILES IDX 67 47 46 48 66 49 47 50 50 51 65 52 85 53 48 54 49 55 64 57
REMARK SMILES IDX 86 58 51 59 34 60 35 61 44 62 36 63 37 64 43 65 45 66 38 67
REMARK SMILES IDX 39 68 40 69 41 70 42 71 68 72 69 73 78 74 70 75 71 76 77 77
REMARK SMILES IDX 79 78 72 79 73 80 74 81 75 82 76 83 52 84 53 85 62 86 54 87
REMARK SMILES IDX 55 88 61 89 63 90 56 91 57 92 58 93 59 94 60 95
REMARK H PARENT 17 6 6 14 22 26 84 45 50 56
REMARK Flexibility Score: inf
ROOT
ATOM      1  C   UNL A   1      34.999  30.637  27.754  1.00  0.00     0.023 C 
ENDROOT
BRANCH   1   2
ATOM      2  C   UNL A   1      34.374  29.319  27.286  1.00  0.00     0.116 C 
BRANCH   2   3
ATOM      3  N   UNL A   1      34.184  29.291  25.858  1.00  0.00    -0.352 N 
ATOM      4  C   UNL A   1      33.484  28.555  24.943  1.00  0.00     0.256 C 
ATOM      5  O   UNL A   1      33.678  28.978  23.792  1.00  0.00    -0.269 OA
ATOM      6  H   UNL A   1      34.706  30.001  25.416  1.00  0.00     0.163 HD
BRANCH   4   7
ATOM      7  C   UNL A   1      32.594  27.392  25.174  1.00  0.00     0.097 A 
ATOM      8  C   UNL A   1      34.023  25.262  25.977  1.00  0.00     0.069 C 
ATOM      9  C   UNL A   1      32.791  26.008  25.611  1.00  0.00     0.066 A 
ATOM     10  N   UNL A   1      31.697  25.249  25.700  1.00  0.00    -0.195 NA
ATOM     11  S   UNL A   1      30.379  26.118  25.300  1.00  0.00    -0.018 S 
ATOM     12  C   UNL A   1      31.210  27.565  24.925  1.00  0.00     0.123 A 
BRANCH  12  13
ATOM     13  N   UNL A   1      30.602  28.693  24.458  1.00  0.00    -0.368 N 
ATOM     14  H   UNL A   1      30.776  29.529  24.948  1.00  0.00     0.162 HD
BRANCH  13  15
ATOM     15  C   UNL A   1      29.721  28.780  23.303  1.00  0.00     0.117 C 
ATOM     16  C   UNL A   1      30.484  28.256  22.078  1.00  0.00     0.037 C 
BRANCH  15  17
ATOM     17  C   UNL A   1      29.150  30.151  23.015  1.00  0.00     0.027 A 
ATOM     18  C   UNL A   1      29.149  31.254  23.851  1.00  0.00     0.017 A 
ATOM     19  S   UNL A   1      28.370  30.500  21.527  1.00  0.00    -0.147 S 
ATOM     20  C   UNL A   1      28.516  32.386  23.262  1.00  0.00     0.012 A 
ATOM     21  C   UNL A   1      28.056  32.114  21.993  1.00  0.00     0.065 A 
ENDBRANCH  15  17
ENDBRANCH  13  15
ENDBRANCH  12  13
ENDBRANCH   4   7
ENDBRANCH   2   3
ENDBRANCH   1   2
BRANCH   1  22
ATOM     22  C   UNL A   1      34.013  31.808  27.884  1.00  0.00     0.023 C 
BRANCH  22  23
ATOM     23  C   UNL A   1      34.666  33.185  27.996  1.00  0.00     0.116 C 
BRANCH  23  24
ATOM     24  N   UNL A   1      34.151  33.972  29.116  1.00  0.00    -0.352 N 
ATOM     25  C   UNL A   1      34.406  33.772  30.458  1.00  0.00     0.251 C 
ATOM     26  H   UNL A   1      33.558  34.725  28.889  1.00  0.00     0.163 HD
ATOM     27  O   UNL A   1      33.642  34.198  31.322  1.00  0.00    -0.269 OA
BRANCH  25  28
ATOM     28  C   UNL A   1      35.632  33.051  30.829  1.00  0.00     0.039 A 
ATOM     29  C   UNL A   1      35.595  31.710  31.221  1.00  0.00     0.014 A 
ATOM     30  C   UNL A   1      36.839  33.734  30.691  1.00  0.00     0.014 A 
ATOM     31  C   UNL A   1      36.799  31.027  31.385  1.00  0.00     0.010 A 
ATOM     32  C   UNL A   1      38.019  33.032  30.753  1.00  0.00     0.010 A 
ATOM     33  C   UNL A   1      38.011  31.686  31.123  1.00  0.00    -0.014 A 
BRANCH  33  34
ATOM     34  C   UNL A   1      39.264  30.929  31.054  1.00  0.00     0.031 A 
ATOM     35  C   UNL A   1      39.951  30.751  32.371  1.00  0.00     0.074 A 
ATOM     36  C   UNL A   1      39.621  30.219  29.959  1.00  0.00     0.049 A 
ATOM     37  N   UNL A   1      41.115  31.178  32.737  1.00  0.00    -0.248 NA
ATOM     38  C   UNL A   1      39.180  30.143  33.472  1.00  0.00     0.031 C 
ATOM     39  C   UNL A   1      38.852  30.057  28.717  1.00  0.00     0.029 A 
ATOM     40  N   UNL A   1      40.676  29.378  29.763  1.00  0.00    -0.354 N 
ATOM     41  C   UNL A   1      41.322  30.673  34.023  1.00  0.00     0.074 A 
ATOM     42  C   UNL A   1      40.034  30.241  34.492  1.00  0.00     0.031 C 
ATOM     43  C   UNL A   1      39.322  28.999  28.023  1.00  0.00     0.029 A 
ATOM     44  C   UNL A   1      40.530  28.525  28.671  1.00  0.00     0.049 A 
ATOM     45  H   UNL A   1      41.472  29.374  30.342  1.00  0.00     0.167 HD
ATOM     46  C   UNL A   1      42.577  30.389  34.474  1.00  0.00     0.037 A 
ATOM     47  C   UNL A   1      41.330  27.488  28.319  1.00  0.00     0.037 A 
ATOM     48  C   UNL A   1      43.568  31.013  33.632  1.00  0.00     0.049 A 
ATOM     49  C   UNL A   1      42.637  27.708  28.978  1.00  0.00     0.074 A 
ATOM     50  C   UNL A   1      43.944  32.304  33.326  1.00  0.00     0.029 A 
ATOM     51  N   UNL A   1      44.096  30.203  32.660  1.00  0.00    -0.354 N 
ATOM     52  N   UNL A   1      43.425  28.713  28.706  1.00  0.00    -0.248 NA
ATOM     53  C   UNL A   1      42.914  27.025  30.232  1.00  0.00     0.031 C 
ATOM     54  C   UNL A   1      44.399  32.256  31.974  1.00  0.00     0.029 A 
ATOM     55  C   UNL A   1      44.336  30.933  31.530  1.00  0.00     0.049 A 
ATOM     56  H   UNL A   1      44.276  29.240  32.762  1.00  0.00     0.167 HD
ATOM     57  C   UNL A   1      43.991  29.055  29.922  1.00  0.00     0.074 A 
ATOM     58  C   UNL A   1      43.771  27.893  30.778  1.00  0.00     0.031 C 
ATOM     59  C   UNL A   1      44.313  30.353  30.201  1.00  0.00     0.037 A 
BRANCH  46  60
ATOM     60  C   UNL A   1      42.944  29.189  35.343  1.00  0.00     0.058 A 
ATOM     61  C   UNL A   1      43.722  29.403  36.505  1.00  0.00     0.135 A 
ATOM     62  C   UNL A   1      42.856  27.842  34.927  1.00  0.00     0.135 A 
ATOM     63  F   UNL A   1      43.869  30.638  37.013  1.00  0.00    -0.206 F 
ATOM     64  C   UNL A   1      44.445  28.383  37.131  1.00  0.00     0.059 A 
ATOM     65  C   UNL A   1      43.528  26.803  35.564  1.00  0.00     0.059 A 
ATOM     66  F   UNL A   1      42.191  27.465  33.830  1.00  0.00    -0.206 F 
ATOM     67  C   UNL A   1      44.359  27.087  36.634  1.00  0.00     0.060 A 
BRANCH  67  68
ATOM     68  S   UNL A   1      45.380  25.788  37.352  1.00  0.00     0.124 S 
ATOM     69  O   UNL A   1      46.163  25.364  36.198  1.00  0.00    -0.237 OA
ATOM     70  O   UNL A   1      46.106  26.514  38.388  1.00  0.00    -0.237 OA
ATOM     71  O   UNL A   1      44.398  24.824  37.840  1.00  0.00    -0.744 OA
ENDBRANCH  67  68
ENDBRANCH  46  60
BRANCH  47  72
ATOM     72  C   UNL A   1      40.950  26.203  27.675  1.00  0.00     0.058 A 
ATOM     73  C   UNL A   1      41.758  25.593  26.700  1.00  0.00     0.135 A 
ATOM     74  C   UNL A   1      39.909  25.412  28.201  1.00  0.00     0.135 A 
ATOM     75  F   UNL A   1      42.788  26.264  26.162  1.00  0.00    -0.206 F 
ATOM     76  C   UNL A   1      41.567  24.265  26.294  1.00  0.00     0.059 A 
ATOM     77  C   UNL A   1      39.695  24.090  27.809  1.00  0.00     0.059 A 
ATOM     78  F   UNL A   1      39.119  25.878  29.181  1.00  0.00    -0.206 F 
ATOM     79  C   UNL A   1      40.541  23.515  26.869  1.00  0.00     0.060 A 
BRANCH  79  80
ATOM     80  S   UNL A   1      40.381  21.759  26.456  1.00  0.00     0.124 S 
ATOM     81  O   UNL A   1      39.086  21.723  25.786  1.00  0.00    -0.237 OA
ATOM     82  O   UNL A   1      41.545  21.535  25.605  1.00  0.00    -0.237 OA
ATOM     83  O   UNL A   1      40.427  21.098  27.758  1.00  0.00    -0.744 OA
ENDBRANCH  79  80
ENDBRANCH  47  72
BRANCH  59  84
ATOM     84  C   UNL A   1      44.480  31.300  29.041  1.00  0.00     0.058 A 
ATOM     85  C   UNL A   1      45.573  31.312  28.159  1.00  0.00     0.135 A 
ATOM     86  C   UNL A   1      43.409  32.157  28.747  1.00  0.00     0.135 A 
ATOM     87  F   UNL A   1      46.597  30.463  28.314  1.00  0.00    -0.206 F 
ATOM     88  C   UNL A   1      45.615  32.165  27.053  1.00  0.00     0.059 A 
ATOM     89  C   UNL A   1      43.413  32.991  27.633  1.00  0.00     0.059 A 
ATOM     90  F   UNL A   1      42.312  32.151  29.520  1.00  0.00    -0.206 F 
ATOM     91  C   UNL A   1      44.527  33.000  26.797  1.00  0.00     0.060 A 
BRANCH  91  92
ATOM     92  S   UNL A   1      44.545  34.049  25.328  1.00  0.00     0.124 S 
ATOM     93  O   UNL A   1      45.788  34.793  25.496  1.00  0.00    -0.237 OA
ATOM     94  O   UNL A   1      44.533  33.072  24.241  1.00  0.00    -0.237 OA
ATOM     95  O   UNL A   1      43.322  34.838  25.456  1.00  0.00    -0.744 OA
ENDBRANCH  91  92
ENDBRANCH  59  84
ENDBRANCH  33  34
ENDBRANCH  25  28
ENDBRANCH  23  24
ENDBRANCH  22  23
ENDBRANCH   1  22
TORSDOF 17
ENDMDL
MODEL 3
REMARK VINA RESULT:     -11.3      3.497      8.053
REMARK SMILES Cc1nsc(N[C@H](C)c2cccs2)c1C(=O)NCCCCNC(=O)c1ccc(-c2c3nc(c(-c4c(F)cc(S(=O)(=O)[O-])cc4F)c4ccc([nH]4)c(-c4c(F)cc(S(=O)(=O)[O-])cc4F)c4nc(c(-c5c(F)cc(S(=O)(=O)[O-])cc5F)c5ccc2[nH]5)C=C4)C=C3)cc1
REMARK SMILES IDX 19 1 18 2 17 3 15 4 16 5 14 7 1 8 2 9 3 10 4 11 5 12 6 13
REMARK SMILES IDX 7 15 8 16 9 17 10 18 13 19 11 20 12 21 20 22 21 23 22 24
REMARK SMILES IDX 23 25 24 27 25 28 26 29 90 30 27 31 89 32 28 33 29 34 30 35
REMARK SMILES IDX 83 36 31 37 88 38 82 39 84 40 32 41 87 42 81 43 80 44 33 46
REMARK SMILES IDX 67 47 46 48 66 49 47 50 50 51 65 52 85 53 48 54 49 55 64 57
REMARK SMILES IDX 86 58 51 59 34 60 35 61 44 62 36 63 37 64 43 65 45 66 38 67
REMARK SMILES IDX 39 68 40 69 41 70 42 71 68 72 69 73 78 74 70 75 71 76 77 77
REMARK SMILES IDX 79 78 72 79 73 80 74 81 75 82 76 83 52 84 53 85 62 86 54 87
REMARK SMILES IDX 55 88 61 89 63 90 56 91 57 92 58 93 59 94 60 95
REMARK H PARENT 17 6 6 14 22 26 84 45 50 56
REMARK Flexibility Score: inf
ROOT
ATOM      1  C   UNL A   1      34.114  28.458  25.001  1.00  0.00     0.023 C 
ENDROOT
BRANCH   1   2
ATOM      2  C   UNL A   1      33.541  28.927  23.660  1.00  0.00     0.116 C 
BRANCH   2   3
ATOM      3  N   UNL A   1      33.701  27.932  22.629  1.00  0.00    -0.352 N 
ATOM      4  C   UNL A   1      33.149  26.730  22.288  1.00  0.00     0.256 C 
ATOM      5  O   UNL A   1      33.672  26.278  21.256  1.00  0.00    -0.269 OA
ATOM      6  H   UNL A   1      34.407  28.191  21.993  1.00  0.00     0.163 HD
BRANCH   4   7
ATOM      7  C   UNL A   1      32.077  25.971  22.979  1.00  0.00     0.097 A 
ATOM      8  C   UNL A   1      29.937  27.542  23.400  1.00  0.00     0.069 C 
ATOM      9  C   UNL A   1      30.726  26.284  23.449  1.00  0.00     0.066 A 
ATOM     10  N   UNL A   1      30.056  25.291  24.039  1.00  0.00    -0.195 NA
ATOM     11  S   UNL A   1      30.961  23.938  24.055  1.00  0.00    -0.018 S 
ATOM     12  C   UNL A   1      32.342  24.620  23.314  1.00  0.00     0.123 A 
BRANCH  12  13
ATOM     13  N   UNL A   1      33.505  23.940  23.097  1.00  0.00    -0.368 N 
ATOM     14  H   UNL A   1      33.606  23.498  22.223  1.00  0.00     0.162 HD
BRANCH  13  15
ATOM     15  C   UNL A   1      34.610  23.806  24.034  1.00  0.00     0.117 C 
ATOM     16  C   UNL A   1      35.789  23.157  23.294  1.00  0.00     0.037 C 
BRANCH  15  17
ATOM     17  C   UNL A   1      34.305  23.042  25.302  1.00  0.00     0.027 A 
ATOM     18  C   UNL A   1      34.433  23.489  26.606  1.00  0.00     0.017 A 
ATOM     19  S   UNL A   1      33.747  21.419  25.256  1.00  0.00    -0.147 S 
ATOM     20  C   UNL A   1      34.065  22.499  27.562  1.00  0.00     0.012 A 
ATOM     21  C   UNL A   1      33.662  21.329  26.960  1.00  0.00     0.065 A 
ENDBRANCH  15  17
ENDBRANCH  13  15
ENDBRANCH  12  13
ENDBRANCH   4   7
ENDBRANCH   2   3
ENDBRANCH   1   2
BRANCH   1  22
ATOM     22  C   UNL A   1      33.165  28.619  26.199  1.00  0.00     0.023 C 
BRANCH  22  23
ATOM     23  C   UNL A   1      33.753  29.391  27.380  1.00  0.00     0.116 C 
BRANCH  23  24
ATOM     24  N   UNL A   1      34.066  30.782  27.054  1.00  0.00    -0.352 N 
ATOM     25  C   UNL A   1      35.090  31.545  27.576  1.00  0.00     0.251 C 
ATOM     26  H   UNL A   1      33.483  31.220  26.393  1.00  0.00     0.163 HD
ATOM     27  O   UNL A   1      35.039  32.773  27.565  1.00  0.00    -0.269 OA
BRANCH  25  28
ATOM     28  C   UNL A   1      36.260  30.849  28.131  1.00  0.00     0.039 A 
ATOM     29  C   UNL A   1      36.613  29.566  27.702  1.00  0.00     0.014 A 
ATOM     30  C   UNL A   1      37.050  31.554  29.038  1.00  0.00     0.014 A 
ATOM     31  C   UNL A   1      37.827  29.030  28.125  1.00  0.00     0.010 A 
ATOM     32  C   UNL A   1      38.291  31.066  29.369  1.00  0.00     0.010 A 
ATOM     33  C   UNL A   1      38.678  29.795  28.939  1.00  0.00    -0.014 A 
BRANCH  33  34
ATOM     34  C   UNL A   1      40.052  29.354  29.195  1.00  0.00     0.031 A 
ATOM     35  C   UNL A   1      40.401  29.232  30.644  1.00  0.00     0.074 A 
ATOM     36  C   UNL A   1      40.838  28.835  28.223  1.00  0.00     0.049 A 
ATOM     37  N   UNL A   1      41.293  29.883  31.316  1.00  0.00    -0.248 NA
ATOM     38  C   UNL A   1      39.545  28.377  31.488  1.00  0.00     0.031 C 
ATOM     39  C   UNL A   1      40.474  28.602  26.818  1.00  0.00     0.029 A 
ATOM     40  N   UNL A   1      42.079  28.276  28.302  1.00  0.00    -0.354 N 
ATOM     41  C   UNL A   1      41.281  29.337  32.601  1.00  0.00     0.074 A 
ATOM     42  C   UNL A   1      40.060  28.586  32.701  1.00  0.00     0.031 C 
ATOM     43  C   UNL A   1      41.348  27.739  26.258  1.00  0.00     0.029 A 
ATOM     44  C   UNL A   1      42.428  27.503  27.197  1.00  0.00     0.049 A 
ATOM     45  H   UNL A   1      42.677  28.408  29.074  1.00  0.00     0.167 HD
ATOM     46  C   UNL A   1      42.409  29.312  33.367  1.00  0.00     0.037 A 
ATOM     47  C   UNL A   1      43.518  26.708  27.055  1.00  0.00     0.037 A 
ATOM     48  C   UNL A   1      43.400  30.213  32.831  1.00  0.00     0.049 A 
ATOM     49  C   UNL A   1      44.520  27.169  28.043  1.00  0.00     0.074 A 
ATOM     50  C   UNL A   1      43.518  31.575  32.659  1.00  0.00     0.029 A 
ATOM     51  N   UNL A   1      44.339  29.626  32.023  1.00  0.00    -0.354 N 
ATOM     52  N   UNL A   1      45.083  28.346  28.009  1.00  0.00    -0.248 NA
ATOM     53  C   UNL A   1      44.623  26.468  29.314  1.00  0.00     0.031 C 
ATOM     54  C   UNL A   1      44.301  31.742  31.477  1.00  0.00     0.029 A 
ATOM     55  C   UNL A   1      44.676  30.480  31.010  1.00  0.00     0.049 A 
ATOM     56  H   UNL A   1      44.715  28.724  32.152  1.00  0.00     0.167 HD
ATOM     57  C   UNL A   1      45.219  28.709  29.338  1.00  0.00     0.074 A 
ATOM     58  C   UNL A   1      45.076  27.462  30.083  1.00  0.00     0.031 C 
ATOM     59  C   UNL A   1      45.134  30.019  29.714  1.00  0.00     0.037 A 
BRANCH  46  60
ATOM     60  C   UNL A   1      42.821  28.162  34.282  1.00  0.00     0.058 A 
ATOM     61  C   UNL A   1      43.009  28.423  35.660  1.00  0.00     0.135 A 
ATOM     62  C   UNL A   1      43.346  26.930  33.833  1.00  0.00     0.135 A 
ATOM     63  F   UNL A   1      42.539  29.553  36.214  1.00  0.00    -0.206 F 
ATOM     64  C   UNL A   1      43.757  27.586  36.493  1.00  0.00     0.059 A 
ATOM     65  C   UNL A   1      44.053  26.058  34.657  1.00  0.00     0.059 A 
ATOM     66  F   UNL A   1      43.287  26.540  32.556  1.00  0.00    -0.206 F 
ATOM     67  C   UNL A   1      44.297  26.416  35.972  1.00  0.00     0.060 A 
BRANCH  67  68
ATOM     68  S   UNL A   1      45.366  25.392  37.000  1.00  0.00     0.124 S 
ATOM     69  O   UNL A   1      46.687  25.811  36.550  1.00  0.00    -0.237 OA
ATOM     70  O   UNL A   1      44.982  25.811  38.343  1.00  0.00    -0.237 OA
ATOM     71  O   UNL A   1      44.975  24.033  36.637  1.00  0.00    -0.744 OA
ENDBRANCH  67  68
ENDBRANCH  46  60
BRANCH  47  72
ATOM     72  C   UNL A   1      43.638  25.427  26.311  1.00  0.00     0.058 A 
ATOM     73  C   UNL A   1      44.590  25.245  25.293  1.00  0.00     0.135 A 
ATOM     74  C   UNL A   1      42.992  24.262  26.771  1.00  0.00     0.135 A 
ATOM     75  F   UNL A   1      45.271  26.297  24.812  1.00  0.00    -0.206 F 
ATOM     76  C   UNL A   1      44.908  23.979  24.784  1.00  0.00     0.059 A 
ATOM     77  C   UNL A   1      43.287  22.991  26.276  1.00  0.00     0.059 A 
ATOM     78  F   UNL A   1      42.111  24.318  27.783  1.00  0.00    -0.206 F 
ATOM     79  C   UNL A   1      44.261  22.853  25.295  1.00  0.00     0.060 A 
BRANCH  79  80
ATOM     80  S   UNL A   1      44.770  21.205  24.746  1.00  0.00     0.124 S 
ATOM     81  O   UNL A   1      44.497  21.266  23.314  1.00  0.00    -0.237 OA
ATOM     82  O   UNL A   1      46.180  21.175  25.124  1.00  0.00    -0.237 OA
ATOM     83  O   UNL A   1      43.904  20.310  25.508  1.00  0.00    -0.744 OA
ENDBRANCH  79  80
ENDBRANCH  47  72
BRANCH  59  84
ATOM     84  C   UNL A   1      45.359  31.069  28.658  1.00  0.00     0.058 A 
ATOM     85  C   UNL A   1      44.366  31.588  27.810  1.00  0.00     0.135 A 
ATOM     86  C   UNL A   1      46.629  31.661  28.594  1.00  0.00     0.135 A 
ATOM     87  F   UNL A   1      43.104  31.143  27.869  1.00  0.00    -0.206 F 
ATOM     88  C   UNL A   1      44.635  32.625  26.913  1.00  0.00     0.059 A 
ATOM     89  C   UNL A   1      46.911  32.717  27.733  1.00  0.00     0.059 A 
ATOM     90  F   UNL A   1      47.605  31.248  29.419  1.00  0.00    -0.206 F 
ATOM     91  C   UNL A   1      45.912  33.186  26.884  1.00  0.00     0.060 A 
BRANCH  91  92
ATOM     92  S   UNL A   1      46.242  34.575  25.780  1.00  0.00     0.124 S 
ATOM     93  O   UNL A   1      47.658  34.397  25.476  1.00  0.00    -0.237 OA
ATOM     94  O   UNL A   1      45.320  34.328  24.674  1.00  0.00    -0.237 OA
ATOM     95  O   UNL A   1      45.922  35.744  26.597  1.00  0.00    -0.744 OA
ENDBRANCH  91  92
ENDBRANCH  59  84
ENDBRANCH  33  34
ENDBRANCH  25  28
ENDBRANCH  23  24
ENDBRANCH  22  23
ENDBRANCH   1  22
TORSDOF 17
ENDMDL
