MODEL 1
REMARK VINA RESULT:     -10.6      0.000      0.000
REMARK SMILES COC(=O)[C@@H]([NH2+]CC(C)(C)C(=O)NCCCCNC(=O)c1ccc(-c2c3nc(c(-c4c(F)cc(S(=O)(=O)[O-])cc4F)c4ccc([nH]4)c(-c4c(F)cc(S(=O)(=O)[O-])cc4F)c4nc(c(-c5c(F)cc(S(=O)(=O)[O-])cc5F)c5ccc2[nH]5)C=C4)C=C3)cc1)c1ccccc1
REMARK SMILES IDX 14 1 13 2 11 3 12 4 8 6 9 7 10 8 7 9 6 10 5 13 3 14 4 15
REMARK SMILES IDX 2 16 1 17 87 18 88 19 92 20 89 21 91 22 90 23 15 24 16 25
REMARK SMILES IDX 17 26 18 27 19 28 20 30 21 31 22 32 86 33 23 34 85 35 24 36
REMARK SMILES IDX 25 37 26 38 79 39 27 40 84 41 78 42 80 43 28 44 83 45 77 46
REMARK SMILES IDX 76 47 29 49 63 50 42 51 62 52 43 53 46 54 61 55 81 56 44 57
REMARK SMILES IDX 45 58 60 60 82 61 47 62 30 63 31 64 40 65 32 66 33 67 39 68
REMARK SMILES IDX 41 69 34 70 35 71 36 72 37 73 38 74 64 75 65 76 74 77 66 78
REMARK SMILES IDX 67 79 73 80 75 81 68 82 69 83 70 84 71 85 72 86 48 87 49 88
REMARK SMILES IDX 58 89 50 90 51 91 57 92 59 93 52 94 53 95 54 96 55 97 56 98
REMARK H PARENT 13 5 6 11 6 12 18 29 80 48 46 59
REMARK Flexibility Score: inf
ROOT
ATOM      1  C   UNL A   1      34.247  29.906  27.225  1.00  0.00     0.116 C 
ENDROOT
BRANCH   1   2
ATOM      2  N   UNL A   1      33.519  28.758  27.720  1.00  0.00    -0.355 N 
ATOM      3  C   UNL A   1      32.322  28.293  27.273  1.00  0.00     0.231 C 
ATOM      4  O   UNL A   1      31.474  28.130  28.148  1.00  0.00    -0.274 OA
ATOM      5  H   UNL A   1      33.934  28.260  28.461  1.00  0.00     0.163 HD
BRANCH   3   6
ATOM      6  C   UNL A   1      32.036  28.073  25.776  1.00  0.00     0.092 C 
ATOM      7  C   UNL A   1      33.255  27.493  25.037  1.00  0.00     0.027 C 
ATOM      8  C   UNL A   1      31.631  29.444  25.194  1.00  0.00     0.027 C 
BRANCH   6   9
ATOM      9  C   UNL A   1      30.816  27.116  25.502  1.00  0.00     0.277 C 
BRANCH   9  10
ATOM     10  N   UNL A   1      30.597  25.862  26.234  1.00  0.00    -0.330 N 
ATOM     11  H   UNL A   1      31.367  25.762  26.896  1.00  0.00     0.347 HD
ATOM     12  H   UNL A   1      29.666  25.970  26.636  1.00  0.00     0.347 HD
BRANCH  10  13
ATOM     13  C   UNL A   1      30.512  24.584  25.465  1.00  0.00     0.324 C 
BRANCH  13  14
ATOM     14  C   UNL A   1      30.797  23.438  26.480  1.00  0.00     0.369 C 
ATOM     15  O   UNL A   1      30.160  22.389  26.508  1.00  0.00    -0.245 OA
BRANCH  14  16
ATOM     16  O   UNL A   1      31.776  23.754  27.380  1.00  0.00    -0.464 OA
ATOM     17  C   UNL A   1      32.659  22.670  27.669  1.00  0.00     0.282 C 
ENDBRANCH  14  16
ENDBRANCH  13  14
BRANCH  13  18
ATOM     18  C   UNL A   1      31.317  24.469  24.150  1.00  0.00     0.021 A 
ATOM     19  C   UNL A   1      32.508  23.723  24.072  1.00  0.00     0.010 A 
ATOM     20  C   UNL A   1      31.027  25.261  23.022  1.00  0.00     0.010 A 
ATOM     21  C   UNL A   1      33.346  23.735  22.953  1.00  0.00     0.001 A 
ATOM     22  C   UNL A   1      31.861  25.279  21.894  1.00  0.00     0.001 A 
ATOM     23  C   UNL A   1      33.022  24.517  21.859  1.00  0.00     0.000 A 
ENDBRANCH  13  18
ENDBRANCH  10  13
ENDBRANCH   9  10
ENDBRANCH   6   9
ENDBRANCH   3   6
ENDBRANCH   1   2
BRANCH   1  24
ATOM     24  C   UNL A   1      33.563  31.205  27.662  1.00  0.00     0.023 C 
BRANCH  24  25
ATOM     25  C   UNL A   1      34.518  32.296  28.158  1.00  0.00     0.023 C 
BRANCH  25  26
ATOM     26  C   UNL A   1      35.833  31.786  28.733  1.00  0.00     0.116 C 
BRANCH  26  27
ATOM     27  N   UNL A   1      35.688  31.282  30.090  1.00  0.00    -0.352 N 
ATOM     28  C   UNL A   1      36.528  30.478  30.812  1.00  0.00     0.251 C 
ATOM     29  H   UNL A   1      34.866  31.558  30.556  1.00  0.00     0.163 HD
ATOM     30  O   UNL A   1      36.158  30.039  31.901  1.00  0.00    -0.269 OA
BRANCH  28  31
ATOM     31  C   UNL A   1      37.854  30.122  30.273  1.00  0.00     0.039 A 
ATOM     32  C   UNL A   1      38.892  29.862  31.171  1.00  0.00     0.014 A 
ATOM     33  C   UNL A   1      38.082  30.053  28.895  1.00  0.00     0.014 A 
ATOM     34  C   UNL A   1      40.149  29.504  30.686  1.00  0.00     0.010 A 
ATOM     35  C   UNL A   1      39.310  29.609  28.417  1.00  0.00     0.010 A 
ATOM     36  C   UNL A   1      40.365  29.355  29.306  1.00  0.00    -0.014 A 
BRANCH  36  37
ATOM     37  C   UNL A   1      41.702  28.974  28.787  1.00  0.00     0.031 A 
ATOM     38  C   UNL A   1      42.800  30.002  28.702  1.00  0.00     0.074 A 
ATOM     39  C   UNL A   1      41.921  27.710  28.377  1.00  0.00     0.049 A 
ATOM     40  N   UNL A   1      44.036  29.858  28.299  1.00  0.00    -0.248 NA
ATOM     41  C   UNL A   1      42.459  31.379  29.098  1.00  0.00     0.031 C 
ATOM     42  C   UNL A   1      40.918  26.642  28.354  1.00  0.00     0.029 A 
ATOM     43  N   UNL A   1      43.058  27.105  27.906  1.00  0.00    -0.354 N 
ATOM     44  C   UNL A   1      44.613  31.119  28.385  1.00  0.00     0.074 A 
ATOM     45  C   UNL A   1      43.575  32.031  28.812  1.00  0.00     0.031 C 
ATOM     46  C   UNL A   1      41.493  25.506  27.931  1.00  0.00     0.029 A 
ATOM     47  C   UNL A   1      42.895  25.769  27.621  1.00  0.00     0.049 A 
ATOM     48  H   UNL A   1      43.911  27.581  27.785  1.00  0.00     0.167 HD
ATOM     49  C   UNL A   1      45.899  31.481  28.161  1.00  0.00     0.037 A 
ATOM     50  C   UNL A   1      43.778  24.860  27.166  1.00  0.00     0.037 A 
ATOM     51  C   UNL A   1      46.931  30.561  27.758  1.00  0.00     0.049 A 
ATOM     52  C   UNL A   1      45.204  25.284  26.934  1.00  0.00     0.074 A 
ATOM     53  C   UNL A   1      48.276  30.812  27.556  1.00  0.00     0.029 A 
ATOM     54  N   UNL A   1      46.731  29.215  27.490  1.00  0.00    -0.354 N 
ATOM     55  N   UNL A   1      45.751  26.466  27.093  1.00  0.00    -0.248 NA
ATOM     56  C   UNL A   1      46.136  24.246  26.476  1.00  0.00     0.031 C 
ATOM     57  C   UNL A   1      48.881  29.629  27.117  1.00  0.00     0.029 A 
ATOM     58  C   UNL A   1      47.925  28.626  27.104  1.00  0.00     0.049 A 
ATOM     59  H   UNL A   1      45.869  28.746  27.564  1.00  0.00     0.167 HD
ATOM     60  C   UNL A   1      47.097  26.307  26.780  1.00  0.00     0.074 A 
ATOM     61  C   UNL A   1      47.283  24.910  26.446  1.00  0.00     0.031 C 
ATOM     62  C   UNL A   1      48.090  27.232  26.772  1.00  0.00     0.037 A 
BRANCH  49  63
ATOM     63  C   UNL A   1      46.261  32.930  28.353  1.00  0.00     0.058 A 
ATOM     64  C   UNL A   1      46.123  33.872  27.319  1.00  0.00     0.135 A 
ATOM     65  C   UNL A   1      46.725  33.392  29.596  1.00  0.00     0.135 A 
ATOM     66  F   UNL A   1      45.701  33.485  26.105  1.00  0.00    -0.206 F 
ATOM     67  C   UNL A   1      46.462  35.209  27.499  1.00  0.00     0.059 A 
ATOM     68  C   UNL A   1      47.039  34.732  29.808  1.00  0.00     0.059 A 
ATOM     69  F   UNL A   1      46.879  32.539  30.620  1.00  0.00    -0.206 F 
ATOM     70  C   UNL A   1      46.918  35.630  28.749  1.00  0.00     0.060 A 
BRANCH  70  71
ATOM     71  S   UNL A   1      47.344  37.370  28.967  1.00  0.00     0.124 S 
ATOM     72  O   UNL A   1      47.416  37.472  30.421  1.00  0.00    -0.237 OA
ATOM     73  O   UNL A   1      48.617  37.471  28.261  1.00  0.00    -0.237 OA
ATOM     74  O   UNL A   1      46.227  38.075  28.344  1.00  0.00    -0.744 OA
ENDBRANCH  70  71
ENDBRANCH  49  63
BRANCH  50  75
ATOM     75  C   UNL A   1      43.348  23.455  26.931  1.00  0.00     0.058 A 
ATOM     76  C   UNL A   1      43.243  22.542  27.993  1.00  0.00     0.135 A 
ATOM     77  C   UNL A   1      43.024  22.998  25.645  1.00  0.00     0.135 A 
ATOM     78  F   UNL A   1      43.544  22.929  29.242  1.00  0.00    -0.206 F 
ATOM     79  C   UNL A   1      42.857  21.222  27.785  1.00  0.00     0.059 A 
ATOM     80  C   UNL A   1      42.607  21.690  25.416  1.00  0.00     0.059 A 
ATOM     81  F   UNL A   1      43.089  23.834  24.598  1.00  0.00    -0.206 F 
ATOM     82  C   UNL A   1      42.538  20.806  26.491  1.00  0.00     0.060 A 
BRANCH  82  83
ATOM     83  S   UNL A   1      41.997  19.102  26.239  1.00  0.00     0.124 S 
ATOM     84  O   UNL A   1      42.955  18.632  25.245  1.00  0.00    -0.237 OA
ATOM     85  O   UNL A   1      42.136  18.536  27.577  1.00  0.00    -0.237 OA
ATOM     86  O   UNL A   1      40.623  19.252  25.770  1.00  0.00    -0.744 OA
ENDBRANCH  82  83
ENDBRANCH  50  75
BRANCH  62  87
ATOM     87  C   UNL A   1      49.473  26.751  26.420  1.00  0.00     0.058 A 
ATOM     88  C   UNL A   1      50.318  26.163  27.374  1.00  0.00     0.135 A 
ATOM     89  C   UNL A   1      49.951  26.866  25.105  1.00  0.00     0.135 A 
ATOM     90  F   UNL A   1      49.913  26.029  28.646  1.00  0.00    -0.206 F 
ATOM     91  C   UNL A   1      51.606  25.749  27.047  1.00  0.00     0.059 A 
ATOM     92  C   UNL A   1      51.222  26.429  24.747  1.00  0.00     0.059 A 
ATOM     93  F   UNL A   1      49.179  27.407  24.148  1.00  0.00    -0.206 F 
ATOM     94  C   UNL A   1      52.050  25.891  25.731  1.00  0.00     0.060 A 
BRANCH  94  95
ATOM     95  S   UNL A   1      53.725  25.356  25.321  1.00  0.00     0.124 S 
ATOM     96  O   UNL A   1      53.766  25.603  23.883  1.00  0.00    -0.237 OA
ATOM     97  O   UNL A   1      54.546  26.242  26.140  1.00  0.00    -0.237 OA
ATOM     98  O   UNL A   1      53.741  23.952  25.719  1.00  0.00    -0.744 OA
ENDBRANCH  94  95
ENDBRANCH  62  87
ENDBRANCH  36  37
ENDBRANCH  28  31
ENDBRANCH  26  27
ENDBRANCH  25  26
ENDBRANCH  24  25
ENDBRANCH   1  24
TORSDOF 20
ENDMDL
MODEL 2
REMARK VINA RESULT:     -10.5      0.761      8.341
REMARK SMILES COC(=O)[C@@H]([NH2+]CC(C)(C)C(=O)NCCCCNC(=O)c1ccc(-c2c3nc(c(-c4c(F)cc(S(=O)(=O)[O-])cc4F)c4ccc([nH]4)c(-c4c(F)cc(S(=O)(=O)[O-])cc4F)c4nc(c(-c5c(F)cc(S(=O)(=O)[O-])cc5F)c5ccc2[nH]5)C=C4)C=C3)cc1)c1ccccc1
REMARK SMILES IDX 14 1 13 2 11 3 12 4 8 6 9 7 10 8 7 9 6 10 5 13 3 14 4 15
REMARK SMILES IDX 2 16 1 17 87 18 88 19 92 20 89 21 91 22 90 23 15 24 16 25
REMARK SMILES IDX 17 26 18 27 19 28 20 30 21 31 22 32 86 33 23 34 85 35 24 36
REMARK SMILES IDX 25 37 26 38 79 39 27 40 84 41 78 42 80 43 28 44 83 45 77 46
REMARK SMILES IDX 76 47 29 49 63 50 42 51 62 52 43 53 46 54 61 55 81 56 44 57
REMARK SMILES IDX 45 58 60 60 82 61 47 62 30 63 31 64 40 65 32 66 33 67 39 68
REMARK SMILES IDX 41 69 34 70 35 71 36 72 37 73 38 74 64 75 65 76 74 77 66 78
REMARK SMILES IDX 67 79 73 80 75 81 68 82 69 83 70 84 71 85 72 86 48 87 49 88
REMARK SMILES IDX 58 89 50 90 51 91 57 92 59 93 52 94 53 95 54 96 55 97 56 98
REMARK H PARENT 13 5 6 11 6 12 18 29 80 48 46 59
REMARK Flexibility Score: inf
ROOT
ATOM      1  C   UNL A   1      34.288  29.782  27.136  1.00  0.00     0.116 C 
ENDROOT
BRANCH   1   2
ATOM      2  N   UNL A   1      33.497  28.692  27.665  1.00  0.00    -0.355 N 
ATOM      3  C   UNL A   1      32.290  28.262  27.211  1.00  0.00     0.231 C 
ATOM      4  O   UNL A   1      31.417  28.177  28.073  1.00  0.00    -0.274 OA
ATOM      5  H   UNL A   1      33.873  28.210  28.437  1.00  0.00     0.163 HD
BRANCH   3   6
ATOM      6  C   UNL A   1      32.026  27.986  25.719  1.00  0.00     0.092 C 
ATOM      7  C   UNL A   1      33.319  27.637  24.962  1.00  0.00     0.027 C 
ATOM      8  C   UNL A   1      31.367  29.258  25.143  1.00  0.00     0.027 C 
BRANCH   6   9
ATOM      9  C   UNL A   1      30.997  26.821  25.467  1.00  0.00     0.277 C 
BRANCH   9  10
ATOM     10  N   UNL A   1      30.992  25.571  26.238  1.00  0.00    -0.330 N 
ATOM     11  H   UNL A   1      31.827  25.577  26.826  1.00  0.00     0.347 HD
ATOM     12  H   UNL A   1      30.096  25.584  26.724  1.00  0.00     0.347 HD
BRANCH  10  13
ATOM     13  C   UNL A   1      30.984  24.271  25.502  1.00  0.00     0.324 C 
BRANCH  13  14
ATOM     14  C   UNL A   1      30.817  23.157  26.577  1.00  0.00     0.369 C 
ATOM     15  O   UNL A   1      30.025  22.225  26.464  1.00  0.00    -0.245 OA
BRANCH  14  16
ATOM     16  O   UNL A   1      31.586  23.366  27.687  1.00  0.00    -0.464 OA
ATOM     17  C   UNL A   1      32.715  22.496  27.775  1.00  0.00     0.282 C 
ENDBRANCH  14  16
ENDBRANCH  13  14
BRANCH  13  18
ATOM     18  C   UNL A   1      32.122  23.998  24.491  1.00  0.00     0.021 A 
ATOM     19  C   UNL A   1      31.890  23.326  23.276  1.00  0.00     0.010 A 
ATOM     20  C   UNL A   1      33.476  24.215  24.811  1.00  0.00     0.010 A 
ATOM     21  C   UNL A   1      32.917  22.915  22.422  1.00  0.00     0.001 A 
ATOM     22  C   UNL A   1      34.514  23.806  23.959  1.00  0.00     0.001 A 
ATOM     23  C   UNL A   1      34.235  23.155  22.765  1.00  0.00     0.000 A 
ENDBRANCH  13  18
ENDBRANCH  10  13
ENDBRANCH   9  10
ENDBRANCH   6   9
ENDBRANCH   3   6
ENDBRANCH   1   2
BRANCH   1  24
ATOM     24  C   UNL A   1      33.718  31.128  27.592  1.00  0.00     0.023 C 
BRANCH  24  25
ATOM     25  C   UNL A   1      34.761  32.116  28.127  1.00  0.00     0.023 C 
BRANCH  25  26
ATOM     26  C   UNL A   1      36.016  31.476  28.706  1.00  0.00     0.116 C 
BRANCH  26  27
ATOM     27  N   UNL A   1      35.828  31.025  30.076  1.00  0.00    -0.352 N 
ATOM     28  C   UNL A   1      36.656  30.273  30.865  1.00  0.00     0.251 C 
ATOM     29  H   UNL A   1      34.981  31.300  30.497  1.00  0.00     0.163 HD
ATOM     30  O   UNL A   1      36.253  29.872  31.957  1.00  0.00    -0.269 OA
BRANCH  28  31
ATOM     31  C   UNL A   1      38.011  29.928  30.395  1.00  0.00     0.039 A 
ATOM     32  C   UNL A   1      38.279  29.994  29.026  1.00  0.00     0.014 A 
ATOM     33  C   UNL A   1      39.011  29.533  31.290  1.00  0.00     0.014 A 
ATOM     34  C   UNL A   1      39.558  29.692  28.560  1.00  0.00     0.010 A 
ATOM     35  C   UNL A   1      40.306  29.320  30.832  1.00  0.00     0.010 A 
ATOM     36  C   UNL A   1      40.588  29.371  29.460  1.00  0.00    -0.014 A 
BRANCH  36  37
ATOM     37  C   UNL A   1      41.950  29.049  28.965  1.00  0.00     0.031 A 
ATOM     38  C   UNL A   1      42.265  27.663  28.467  1.00  0.00     0.074 A 
ATOM     39  C   UNL A   1      42.905  29.999  28.982  1.00  0.00     0.049 A 
ATOM     40  N   UNL A   1      43.384  27.196  27.978  1.00  0.00    -0.248 NA
ATOM     41  C   UNL A   1      41.188  26.662  28.552  1.00  0.00     0.031 C 
ATOM     42  C   UNL A   1      42.736  31.360  29.497  1.00  0.00     0.029 A 
ATOM     43  N   UNL A   1      44.206  29.969  28.549  1.00  0.00    -0.354 N 
ATOM     44  C   UNL A   1      43.150  25.854  27.707  1.00  0.00     0.074 A 
ATOM     45  C   UNL A   1      41.804  25.561  28.149  1.00  0.00     0.031 C 
ATOM     46  C   UNL A   1      43.876  32.045  29.316  1.00  0.00     0.029 A 
ATOM     47  C   UNL A   1      44.867  31.166  28.702  1.00  0.00     0.049 A 
ATOM     48  H   UNL A   1      44.627  29.167  28.164  1.00  0.00     0.167 HD
ATOM     49  C   UNL A   1      43.968  24.952  27.113  1.00  0.00     0.037 A 
ATOM     50  C   UNL A   1      46.127  31.514  28.379  1.00  0.00     0.037 A 
ATOM     51  C   UNL A   1      45.299  25.258  26.655  1.00  0.00     0.049 A 
ATOM     52  C   UNL A   1      47.014  30.498  27.711  1.00  0.00     0.074 A 
ATOM     53  C   UNL A   1      46.192  24.436  25.992  1.00  0.00     0.029 A 
ATOM     54  N   UNL A   1      45.929  26.484  26.817  1.00  0.00    -0.354 N 
ATOM     55  N   UNL A   1      46.751  29.253  27.393  1.00  0.00    -0.248 NA
ATOM     56  C   UNL A   1      48.365  30.940  27.343  1.00  0.00     0.031 C 
ATOM     57  C   UNL A   1      47.381  25.147  25.798  1.00  0.00     0.029 A 
ATOM     58  C   UNL A   1      47.208  26.433  26.285  1.00  0.00     0.049 A 
ATOM     59  H   UNL A   1      45.527  27.274  27.245  1.00  0.00     0.167 HD
ATOM     60  C   UNL A   1      47.893  28.771  26.764  1.00  0.00     0.074 A 
ATOM     61  C   UNL A   1      48.840  29.868  26.727  1.00  0.00     0.031 C 
ATOM     62  C   UNL A   1      48.138  27.535  26.260  1.00  0.00     0.037 A 
BRANCH  49  63
ATOM     63  C   UNL A   1      43.444  23.553  26.920  1.00  0.00     0.058 A 
ATOM     64  C   UNL A   1      43.316  22.656  27.993  1.00  0.00     0.135 A 
ATOM     65  C   UNL A   1      43.038  23.112  25.650  1.00  0.00     0.135 A 
ATOM     66  F   UNL A   1      43.705  23.016  29.227  1.00  0.00    -0.206 F 
ATOM     67  C   UNL A   1      42.835  21.363  27.810  1.00  0.00     0.059 A 
ATOM     68  C   UNL A   1      42.523  21.833  25.450  1.00  0.00     0.059 A 
ATOM     69  F   UNL A   1      43.139  23.924  24.587  1.00  0.00    -0.206 F 
ATOM     70  C   UNL A   1      42.440  20.962  26.534  1.00  0.00     0.060 A 
BRANCH  70  71
ATOM     71  S   UNL A   1      41.809  19.284  26.318  1.00  0.00     0.124 S 
ATOM     72  O   UNL A   1      42.178  18.668  27.589  1.00  0.00    -0.237 OA
ATOM     73  O   UNL A   1      40.383  19.511  26.114  1.00  0.00    -0.237 OA
ATOM     74  O   UNL A   1      42.536  18.794  25.150  1.00  0.00    -0.744 OA
ENDBRANCH  70  71
ENDBRANCH  49  63
BRANCH  50  75
ATOM     75  C   UNL A   1      46.612  32.894  28.654  1.00  0.00     0.058 A 
ATOM     76  C   UNL A   1      47.258  33.209  29.859  1.00  0.00     0.135 A 
ATOM     77  C   UNL A   1      46.447  33.924  27.714  1.00  0.00     0.135 A 
ATOM     78  F   UNL A   1      47.436  32.261  30.792  1.00  0.00    -0.206 F 
ATOM     79  C   UNL A   1      47.702  34.498  30.134  1.00  0.00     0.059 A 
ATOM     80  C   UNL A   1      46.909  35.214  27.954  1.00  0.00     0.059 A 
ATOM     81  F   UNL A   1      45.853  33.672  26.538  1.00  0.00    -0.206 F 
ATOM     82  C   UNL A   1      47.526  35.495  29.172  1.00  0.00     0.060 A 
BRANCH  82  83
ATOM     83  S   UNL A   1      48.144  37.155  29.522  1.00  0.00     0.124 S 
ATOM     84  O   UNL A   1      49.584  36.929  29.568  1.00  0.00    -0.237 OA
ATOM     85  O   UNL A   1      47.653  37.911  28.375  1.00  0.00    -0.237 OA
ATOM     86  O   UNL A   1      47.515  37.484  30.797  1.00  0.00    -0.744 OA
ENDBRANCH  82  83
ENDBRANCH  50  75
BRANCH  62  87
ATOM     87  C   UNL A   1      49.472  27.315  25.597  1.00  0.00     0.058 A 
ATOM     88  C   UNL A   1      49.646  27.470  24.213  1.00  0.00     0.135 A 
ATOM     89  C   UNL A   1      50.596  26.962  26.362  1.00  0.00     0.135 A 
ATOM     90  F   UNL A   1      48.606  27.805  23.433  1.00  0.00    -0.206 F 
ATOM     91  C   UNL A   1      50.875  27.236  23.603  1.00  0.00     0.059 A 
ATOM     92  C   UNL A   1      51.841  26.757  25.779  1.00  0.00     0.059 A 
ATOM     93  F   UNL A   1      50.490  26.817  27.692  1.00  0.00    -0.206 F 
ATOM     94  C   UNL A   1      51.966  26.874  24.396  1.00  0.00     0.060 A 
BRANCH  94  95
ATOM     95  S   UNL A   1      53.554  26.567  23.594  1.00  0.00     0.124 S 
ATOM     96  O   UNL A   1      54.169  25.619  24.517  1.00  0.00    -0.237 OA
ATOM     97  O   UNL A   1      53.151  26.024  22.301  1.00  0.00    -0.237 OA
ATOM     98  O   UNL A   1      54.172  27.889  23.546  1.00  0.00    -0.744 OA
ENDBRANCH  94  95
ENDBRANCH  62  87
ENDBRANCH  36  37
ENDBRANCH  28  31
ENDBRANCH  26  27
ENDBRANCH  25  26
ENDBRANCH  24  25
ENDBRANCH   1  24
TORSDOF 20
ENDMDL
MODEL 3
REMARK VINA RESULT:     -10.4      6.423     11.150
REMARK SMILES COC(=O)[C@@H]([NH2+]CC(C)(C)C(=O)NCCCCNC(=O)c1ccc(-c2c3nc(c(-c4c(F)cc(S(=O)(=O)[O-])cc4F)c4ccc([nH]4)c(-c4c(F)cc(S(=O)(=O)[O-])cc4F)c4nc(c(-c5c(F)cc(S(=O)(=O)[O-])cc5F)c5ccc2[nH]5)C=C4)C=C3)cc1)c1ccccc1
REMARK SMILES IDX 14 1 13 2 11 3 12 4 8 6 9 7 10 8 7 9 6 10 5 13 3 14 4 15
REMARK SMILES IDX 2 16 1 17 87 18 88 19 92 20 89 21 91 22 90 23 15 24 16 25
REMARK SMILES IDX 17 26 18 27 19 28 20 30 21 31 22 32 86 33 23 34 85 35 24 36
REMARK SMILES IDX 25 37 26 38 79 39 27 40 84 41 78 42 80 43 28 44 83 45 77 46
REMARK SMILES IDX 76 47 29 49 63 50 42 51 62 52 43 53 46 54 61 55 81 56 44 57
REMARK SMILES IDX 45 58 60 60 82 61 47 62 30 63 31 64 40 65 32 66 33 67 39 68
REMARK SMILES IDX 41 69 34 70 35 71 36 72 37 73 38 74 64 75 65 76 74 77 66 78
REMARK SMILES IDX 67 79 73 80 75 81 68 82 69 83 70 84 71 85 72 86 48 87 49 88
REMARK SMILES IDX 58 89 50 90 51 91 57 92 59 93 52 94 53 95 54 96 55 97 56 98
REMARK H PARENT 13 5 6 11 6 12 18 29 80 48 46 59
REMARK Flexibility Score: inf
ROOT
ATOM      1  C   UNL A   1      32.466  30.541  27.348  1.00  0.00     0.116 C 
ENDROOT
BRANCH   1   2
ATOM      2  N   UNL A   1      33.779  30.219  26.830  1.00  0.00    -0.355 N 
ATOM      3  C   UNL A   1      34.241  28.989  26.481  1.00  0.00     0.231 C 
ATOM      4  O   UNL A   1      35.312  28.677  26.998  1.00  0.00    -0.274 OA
ATOM      5  H   UNL A   1      34.404  30.971  26.720  1.00  0.00     0.163 HD
BRANCH   3   6
ATOM      6  C   UNL A   1      33.438  28.038  25.575  1.00  0.00     0.092 C 
ATOM      7  C   UNL A   1      32.003  27.830  26.090  1.00  0.00     0.027 C 
ATOM      8  C   UNL A   1      34.215  26.704  25.531  1.00  0.00     0.027 C 
BRANCH   6   9
ATOM      9  C   UNL A   1      33.341  28.525  24.081  1.00  0.00     0.277 C 
BRANCH   9  10
ATOM     10  N   UNL A   1      32.240  29.355  23.575  1.00  0.00    -0.330 N 
ATOM     11  H   UNL A   1      31.696  29.658  24.383  1.00  0.00     0.347 HD
ATOM     12  H   UNL A   1      32.708  30.089  23.043  1.00  0.00     0.347 HD
BRANCH  10  13
ATOM     13  C   UNL A   1      31.280  28.759  22.598  1.00  0.00     0.324 C 
BRANCH  13  14
ATOM     14  C   UNL A   1      30.038  29.698  22.573  1.00  0.00     0.369 C 
ATOM     15  O   UNL A   1      29.569  30.223  23.580  1.00  0.00    -0.245 OA
BRANCH  14  16
ATOM     16  O   UNL A   1      29.481  29.813  21.330  1.00  0.00    -0.464 OA
ATOM     17  C   UNL A   1      28.126  30.265  21.349  1.00  0.00     0.282 C 
ENDBRANCH  14  16
ENDBRANCH  13  14
BRANCH  13  18
ATOM     18  C   UNL A   1      30.928  27.260  22.742  1.00  0.00     0.021 A 
ATOM     19  C   UNL A   1      29.902  26.818  23.599  1.00  0.00     0.010 A 
ATOM     20  C   UNL A   1      31.736  26.245  22.194  1.00  0.00     0.010 A 
ATOM     21  C   UNL A   1      29.671  25.468  23.880  1.00  0.00     0.001 A 
ATOM     22  C   UNL A   1      31.510  24.888  22.470  1.00  0.00     0.001 A 
ATOM     23  C   UNL A   1      30.479  24.499  23.314  1.00  0.00     0.000 A 
ENDBRANCH  13  18
ENDBRANCH  10  13
ENDBRANCH   9  10
ENDBRANCH   6   9
ENDBRANCH   3   6
ENDBRANCH   1   2
BRANCH   1  24
ATOM     24  C   UNL A   1      31.699  31.420  26.357  1.00  0.00     0.023 C 
BRANCH  24  25
ATOM     25  C   UNL A   1      31.690  32.914  26.700  1.00  0.00     0.023 C 
BRANCH  25  26
ATOM     26  C   UNL A   1      32.832  33.374  27.598  1.00  0.00     0.116 C 
BRANCH  26  27
ATOM     27  N   UNL A   1      32.656  34.740  28.065  1.00  0.00    -0.352 N 
ATOM     28  C   UNL A   1      33.272  35.390  29.101  1.00  0.00     0.251 C 
ATOM     29  H   UNL A   1      31.998  35.274  27.565  1.00  0.00     0.163 HD
ATOM     30  O   UNL A   1      32.880  36.509  29.431  1.00  0.00    -0.269 OA
BRANCH  28  31
ATOM     31  C   UNL A   1      34.379  34.739  29.827  1.00  0.00     0.039 A 
ATOM     32  C   UNL A   1      34.127  34.218  31.098  1.00  0.00     0.014 A 
ATOM     33  C   UNL A   1      35.659  34.650  29.270  1.00  0.00     0.014 A 
ATOM     34  C   UNL A   1      35.153  33.580  31.796  1.00  0.00     0.010 A 
ATOM     35  C   UNL A   1      36.654  33.937  29.929  1.00  0.00     0.010 A 
ATOM     36  C   UNL A   1      36.420  33.417  31.210  1.00  0.00    -0.014 A 
BRANCH  36  37
ATOM     37  C   UNL A   1      37.512  32.739  31.951  1.00  0.00     0.031 A 
ATOM     38  C   UNL A   1      38.193  31.534  31.357  1.00  0.00     0.074 A 
ATOM     39  C   UNL A   1      37.877  33.197  33.164  1.00  0.00     0.049 A 
ATOM     40  N   UNL A   1      39.177  30.821  31.840  1.00  0.00    -0.248 NA
ATOM     41  C   UNL A   1      37.685  31.049  30.063  1.00  0.00     0.031 C 
ATOM     42  C   UNL A   1      37.251  34.319  33.869  1.00  0.00     0.029 A 
ATOM     43  N   UNL A   1      38.868  32.782  34.018  1.00  0.00    -0.354 N 
ATOM     44  C   UNL A   1      39.399  29.806  30.917  1.00  0.00     0.074 A 
ATOM     45  C   UNL A   1      38.402  29.952  29.879  1.00  0.00     0.031 C 
ATOM     46  C   UNL A   1      37.896  34.526  35.028  1.00  0.00     0.029 A 
ATOM     47  C   UNL A   1      38.958  33.535  35.166  1.00  0.00     0.049 A 
ATOM     48  H   UNL A   1      39.458  32.018  33.827  1.00  0.00     0.167 HD
ATOM     49  C   UNL A   1      40.365  28.856  30.914  1.00  0.00     0.037 A 
ATOM     50  C   UNL A   1      39.806  33.439  36.207  1.00  0.00     0.037 A 
ATOM     51  C   UNL A   1      41.368  28.733  31.940  1.00  0.00     0.049 A 
ATOM     52  C   UNL A   1      40.879  32.383  36.177  1.00  0.00     0.074 A 
ATOM     53  C   UNL A   1      42.425  27.843  32.008  1.00  0.00     0.029 A 
ATOM     54  N   UNL A   1      41.436  29.521  33.081  1.00  0.00    -0.354 N 
ATOM     55  N   UNL A   1      41.121  31.477  35.259  1.00  0.00    -0.248 NA
ATOM     56  C   UNL A   1      41.802  32.346  37.318  1.00  0.00     0.031 C 
ATOM     57  C   UNL A   1      43.102  28.058  33.214  1.00  0.00     0.029 A 
ATOM     58  C   UNL A   1      42.504  29.123  33.869  1.00  0.00     0.049 A 
ATOM     59  H   UNL A   1      40.817  30.254  33.298  1.00  0.00     0.167 HD
ATOM     60  C   UNL A   1      42.242  30.781  35.698  1.00  0.00     0.074 A 
ATOM     61  C   UNL A   1      42.640  31.386  36.953  1.00  0.00     0.031 C 
ATOM     62  C   UNL A   1      42.885  29.736  35.118  1.00  0.00     0.037 A 
BRANCH  49  63
ATOM     63  C   UNL A   1      40.387  27.884  29.765  1.00  0.00     0.058 A 
ATOM     64  C   UNL A   1      39.499  26.797  29.697  1.00  0.00     0.135 A 
ATOM     65  C   UNL A   1      41.289  28.054  28.702  1.00  0.00     0.135 A 
ATOM     66  F   UNL A   1      38.626  26.574  30.693  1.00  0.00    -0.206 F 
ATOM     67  C   UNL A   1      39.524  25.899  28.636  1.00  0.00     0.059 A 
ATOM     68  C   UNL A   1      41.310  27.186  27.613  1.00  0.00     0.059 A 
ATOM     69  F   UNL A   1      42.163  29.073  28.712  1.00  0.00    -0.206 F 
ATOM     70  C   UNL A   1      40.434  26.102  27.597  1.00  0.00     0.060 A 
BRANCH  70  71
ATOM     71  S   UNL A   1      40.446  24.931  26.223  1.00  0.00     0.124 S 
ATOM     72  O   UNL A   1      39.035  24.565  26.141  1.00  0.00    -0.237 OA
ATOM     73  O   UNL A   1      40.954  25.745  25.124  1.00  0.00    -0.237 OA
ATOM     74  O   UNL A   1      41.342  23.874  26.684  1.00  0.00    -0.744 OA
ENDBRANCH  70  71
ENDBRANCH  49  63
BRANCH  50  75
ATOM     75  C   UNL A   1      39.696  34.389  37.348  1.00  0.00     0.058 A 
ATOM     76  C   UNL A   1      40.257  35.674  37.278  1.00  0.00     0.135 A 
ATOM     77  C   UNL A   1      39.022  34.035  38.527  1.00  0.00     0.135 A 
ATOM     78  F   UNL A   1      40.916  36.059  36.174  1.00  0.00    -0.206 F 
ATOM     79  C   UNL A   1      40.175  36.565  38.343  1.00  0.00     0.059 A 
ATOM     80  C   UNL A   1      38.901  34.920  39.594  1.00  0.00     0.059 A 
ATOM     81  F   UNL A   1      38.451  32.826  38.638  1.00  0.00    -0.206 F 
ATOM     82  C   UNL A   1      39.491  36.178  39.497  1.00  0.00     0.060 A 
BRANCH  82  83
ATOM     83  S   UNL A   1      39.354  37.358  40.857  1.00  0.00     0.124 S 
ATOM     84  O   UNL A   1      38.769  36.532  41.907  1.00  0.00    -0.237 OA
ATOM     85  O   UNL A   1      40.743  37.757  41.058  1.00  0.00    -0.237 OA
ATOM     86  O   UNL A   1      38.484  38.397  40.313  1.00  0.00    -0.744 OA
ENDBRANCH  82  83
ENDBRANCH  50  75
BRANCH  62  87
ATOM     87  C   UNL A   1      44.106  29.205  35.820  1.00  0.00     0.058 A 
ATOM     88  C   UNL A   1      45.378  29.765  35.621  1.00  0.00     0.135 A 
ATOM     89  C   UNL A   1      43.998  28.131  36.718  1.00  0.00     0.135 A 
ATOM     90  F   UNL A   1      45.539  30.793  34.773  1.00  0.00    -0.206 F 
ATOM     91  C   UNL A   1      46.506  29.249  36.251  1.00  0.00     0.059 A 
ATOM     92  C   UNL A   1      45.106  27.620  37.384  1.00  0.00     0.059 A 
ATOM     93  F   UNL A   1      42.803  27.567  36.958  1.00  0.00    -0.206 F 
ATOM     94  C   UNL A   1      46.360  28.172  37.127  1.00  0.00     0.060 A 
BRANCH  94  95
ATOM     95  S   UNL A   1      47.832  27.507  37.934  1.00  0.00     0.124 S 
ATOM     96  O   UNL A   1      47.242  26.667  38.971  1.00  0.00    -0.237 OA
ATOM     97  O   UNL A   1      48.492  26.798  36.843  1.00  0.00    -0.237 OA
ATOM     98  O   UNL A   1      48.527  28.699  38.409  1.00  0.00    -0.744 OA
ENDBRANCH  94  95
ENDBRANCH  62  87
ENDBRANCH  36  37
ENDBRANCH  28  31
ENDBRANCH  26  27
ENDBRANCH  25  26
ENDBRANCH  24  25
ENDBRANCH   1  24
TORSDOF 20
ENDMDL
