MODEL 1
REMARK VINA RESULT:      -9.6      0.000      0.000
REMARK SMILES CN(C)c1cccc(C(=O)CCCC(=O)NCCCCNC(=O)c2ccc(-c3c4nc(c(-c5c(F)cc(S(=O)(=O)[O-])cc5F)c5ccc([nH]5)c(-c5c(F)cc(S(=O)(=O)[O-])cc5F)c5nc(c(-c6c(F)cc(S(=O)(=O)[O-])cc6F)c6ccc3[nH]6)C=C5)C=C4)cc2)c1
REMARK SMILES IDX 17 1 16 2 14 3 15 4 13 6 12 7 11 8 9 9 10 10 8 11 4 12 5 13
REMARK SMILES IDX 90 14 6 15 7 16 2 17 1 18 3 19 18 20 19 21 20 22 21 23 22 24
REMARK SMILES IDX 23 26 24 27 25 28 89 29 26 30 88 31 27 32 28 33 29 34 82 35
REMARK SMILES IDX 30 36 87 37 81 38 83 39 31 40 86 41 80 42 79 43 32 45 66 46
REMARK SMILES IDX 45 47 65 48 46 49 49 50 64 51 84 52 47 53 48 54 63 56 85 57
REMARK SMILES IDX 50 58 33 59 34 60 43 61 35 62 36 63 42 64 44 65 37 66 38 67
REMARK SMILES IDX 39 68 40 69 41 70 67 71 68 72 77 73 69 74 70 75 76 76 78 77
REMARK SMILES IDX 71 78 72 79 73 80 74 81 75 82 51 83 52 84 61 85 53 86 54 87
REMARK SMILES IDX 60 88 62 89 55 90 56 91 57 92 58 93 59 94
REMARK H PARENT 16 5 21 25 83 44 49 55
REMARK Flexibility Score: inf
ROOT
ATOM      1  C   UNL A   1      33.020  35.990  29.137  1.00  0.00     0.116 C 
ENDROOT
BRANCH   1   2
ATOM      2  N   UNL A   1      33.129  37.024  30.141  1.00  0.00    -0.356 N 
ATOM      3  C   UNL A   1      33.139  37.040  31.491  1.00  0.00     0.220 C 
ATOM      4  O   UNL A   1      33.279  38.159  32.003  1.00  0.00    -0.275 OA
ATOM      5  H   UNL A   1      33.215  37.924  29.751  1.00  0.00     0.163 HD
BRANCH   3   6
ATOM      6  C   UNL A   1      33.134  35.820  32.412  1.00  0.00     0.100 C 
BRANCH   6   7
ATOM      7  C   UNL A   1      34.203  35.519  33.462  1.00  0.00     0.018 C 
BRANCH   7   8
ATOM      8  C   UNL A   1      34.616  34.110  33.882  1.00  0.00     0.081 C 
BRANCH   8   9
ATOM      9  C   UNL A   1      35.669  33.305  33.111  1.00  0.00     0.162 C 
ATOM     10  O   UNL A   1      35.317  32.327  32.445  1.00  0.00    -0.294 OA
BRANCH   9  11
ATOM     11  C   UNL A   1      37.103  33.728  32.995  1.00  0.00     0.020 A 
ATOM     12  C   UNL A   1      39.108  34.242  31.643  1.00  0.00     0.037 A 
ATOM     13  C   UNL A   1      39.762  34.607  32.822  1.00  0.00     0.026 A 
ATOM     14  C   UNL A   1      37.779  33.809  31.778  1.00  0.00     0.037 A 
ATOM     15  C   UNL A   1      39.114  34.547  34.062  1.00  0.00     0.003 A 
ATOM     16  C   UNL A   1      37.790  34.111  34.148  1.00  0.00     0.012 A 
BRANCH  12  17
ATOM     17  N   UNL A   1      39.726  34.307  30.402  1.00  0.00    -0.378 N 
ATOM     18  C   UNL A   1      38.969  34.578  29.185  1.00  0.00     0.143 C 
ATOM     19  C   UNL A   1      41.072  33.764  30.248  1.00  0.00     0.143 C 
ENDBRANCH  12  17
ENDBRANCH   9  11
ENDBRANCH   8   9
ENDBRANCH   7   8
ENDBRANCH   6   7
ENDBRANCH   3   6
ENDBRANCH   1   2
BRANCH   1  20
ATOM     20  C   UNL A   1      34.397  35.443  28.747  1.00  0.00     0.023 C 
BRANCH  20  21
ATOM     21  C   UNL A   1      34.800  34.202  29.537  1.00  0.00     0.023 C 
BRANCH  21  22
ATOM     22  C   UNL A   1      35.534  33.153  28.705  1.00  0.00     0.116 C 
BRANCH  22  23
ATOM     23  N   UNL A   1      34.641  32.301  27.930  1.00  0.00    -0.352 N 
ATOM     24  C   UNL A   1      34.789  30.964  27.615  1.00  0.00     0.251 C 
ATOM     25  H   UNL A   1      33.826  32.735  27.587  1.00  0.00     0.163 HD
ATOM     26  O   UNL A   1      34.001  30.404  26.878  1.00  0.00    -0.269 OA
BRANCH  24  27
ATOM     27  C   UNL A   1      35.958  30.242  28.165  1.00  0.00     0.039 A 
ATOM     28  C   UNL A   1      37.140  30.212  27.424  1.00  0.00     0.014 A 
ATOM     29  C   UNL A   1      35.904  29.691  29.447  1.00  0.00     0.014 A 
ATOM     30  C   UNL A   1      38.301  29.704  28.011  1.00  0.00     0.010 A 
ATOM     31  C   UNL A   1      37.077  29.264  30.056  1.00  0.00     0.010 A 
ATOM     32  C   UNL A   1      38.290  29.274  29.349  1.00  0.00    -0.014 A 
BRANCH  32  33
ATOM     33  C   UNL A   1      39.535  28.838  30.033  1.00  0.00     0.031 A 
ATOM     34  C   UNL A   1      39.970  29.518  31.302  1.00  0.00     0.074 A 
ATOM     35  C   UNL A   1      40.310  27.887  29.472  1.00  0.00     0.049 A 
ATOM     36  N   UNL A   1      41.062  29.346  31.998  1.00  0.00    -0.248 NA
ATOM     37  C   UNL A   1      39.073  30.554  31.840  1.00  0.00     0.031 C 
ATOM     38  C   UNL A   1      40.029  27.197  28.211  1.00  0.00     0.029 A 
ATOM     39  N   UNL A   1      41.502  27.345  29.884  1.00  0.00    -0.354 N 
ATOM     40  C   UNL A   1      40.994  30.261  33.042  1.00  0.00     0.074 A 
ATOM     41  C   UNL A   1      39.781  31.026  32.854  1.00  0.00     0.031 C 
ATOM     42  C   UNL A   1      41.004  26.306  27.968  1.00  0.00     0.029 A 
ATOM     43  C   UNL A   1      41.998  26.385  29.034  1.00  0.00     0.049 A 
ATOM     44  H   UNL A   1      41.959  27.619  30.713  1.00  0.00     0.167 HD
ATOM     45  C   UNL A   1      41.850  30.430  34.077  1.00  0.00     0.037 A 
ATOM     46  C   UNL A   1      43.127  25.653  29.104  1.00  0.00     0.037 A 
ATOM     47  C   UNL A   1      43.034  29.639  34.280  1.00  0.00     0.049 A 
ATOM     48  C   UNL A   1      44.050  25.842  30.278  1.00  0.00     0.074 A 
ATOM     49  C   UNL A   1      43.931  29.688  35.331  1.00  0.00     0.029 A 
ATOM     50  N   UNL A   1      43.482  28.650  33.417  1.00  0.00    -0.354 N 
ATOM     51  N   UNL A   1      43.938  26.671  31.288  1.00  0.00    -0.248 NA
ATOM     52  C   UNL A   1      45.249  24.994  30.324  1.00  0.00     0.031 C 
ATOM     53  C   UNL A   1      44.941  28.750  35.088  1.00  0.00     0.029 A 
ATOM     54  C   UNL A   1      44.650  28.089  33.905  1.00  0.00     0.049 A 
ATOM     55  H   UNL A   1      43.035  28.386  32.580  1.00  0.00     0.167 HD
ATOM     56  C   UNL A   1      45.036  26.426  32.104  1.00  0.00     0.074 A 
ATOM     57  C   UNL A   1      45.795  25.365  31.475  1.00  0.00     0.031 C 
ATOM     58  C   UNL A   1      45.386  27.026  33.268  1.00  0.00     0.037 A 
BRANCH  45  59
ATOM     59  C   UNL A   1      41.523  31.504  35.078  1.00  0.00     0.058 A 
ATOM     60  C   UNL A   1      40.513  31.329  36.038  1.00  0.00     0.135 A 
ATOM     61  C   UNL A   1      42.239  32.711  35.093  1.00  0.00     0.135 A 
ATOM     62  F   UNL A   1      39.786  30.200  36.057  1.00  0.00    -0.206 F 
ATOM     63  C   UNL A   1      40.202  32.326  36.956  1.00  0.00     0.059 A 
ATOM     64  C   UNL A   1      41.963  33.711  36.020  1.00  0.00     0.059 A 
ATOM     65  F   UNL A   1      43.213  32.930  34.196  1.00  0.00    -0.206 F 
ATOM     66  C   UNL A   1      40.931  33.515  36.939  1.00  0.00     0.060 A 
BRANCH  66  67
ATOM     67  S   UNL A   1      40.515  34.800  38.136  1.00  0.00     0.124 S 
ATOM     68  O   UNL A   1      39.071  34.909  37.953  1.00  0.00    -0.237 OA
ATOM     69  O   UNL A   1      40.952  34.206  39.396  1.00  0.00    -0.237 OA
ATOM     70  O   UNL A   1      41.293  35.949  37.685  1.00  0.00    -0.744 OA
ENDBRANCH  66  67
ENDBRANCH  45  59
BRANCH  46  71
ATOM     71  C   UNL A   1      43.434  24.651  28.048  1.00  0.00     0.058 A 
ATOM     72  C   UNL A   1      42.984  23.328  28.160  1.00  0.00     0.135 A 
ATOM     73  C   UNL A   1      44.175  24.994  26.907  1.00  0.00     0.135 A 
ATOM     74  F   UNL A   1      42.276  22.950  29.237  1.00  0.00    -0.206 F 
ATOM     75  C   UNL A   1      43.272  22.373  27.190  1.00  0.00     0.059 A 
ATOM     76  C   UNL A   1      44.457  24.064  25.911  1.00  0.00     0.059 A 
ATOM     77  F   UNL A   1      44.615  26.252  26.743  1.00  0.00    -0.206 F 
ATOM     78  C   UNL A   1      44.009  22.752  26.067  1.00  0.00     0.060 A 
BRANCH  78  79
ATOM     79  S   UNL A   1      44.340  21.517  24.791  1.00  0.00     0.124 S 
ATOM     80  O   UNL A   1      43.320  20.516  25.079  1.00  0.00    -0.237 OA
ATOM     81  O   UNL A   1      44.154  22.286  23.564  1.00  0.00    -0.237 OA
ATOM     82  O   UNL A   1      45.716  21.115  25.066  1.00  0.00    -0.744 OA
ENDBRANCH  78  79
ENDBRANCH  46  71
BRANCH  58  83
ATOM     83  C   UNL A   1      46.625  26.529  33.957  1.00  0.00     0.058 A 
ATOM     84  C   UNL A   1      46.588  25.441  34.841  1.00  0.00     0.135 A 
ATOM     85  C   UNL A   1      47.873  27.113  33.684  1.00  0.00     0.135 A 
ATOM     86  F   UNL A   1      45.419  24.851  35.140  1.00  0.00    -0.206 F 
ATOM     87  C   UNL A   1      47.744  24.960  35.449  1.00  0.00     0.059 A 
ATOM     88  C   UNL A   1      49.044  26.633  34.261  1.00  0.00     0.059 A 
ATOM     89  F   UNL A   1      47.962  28.151  32.837  1.00  0.00    -0.206 F 
ATOM     90  C   UNL A   1      48.968  25.562  35.150  1.00  0.00     0.060 A 
BRANCH  90  91
ATOM     91  S   UNL A   1      50.466  24.905  35.913  1.00  0.00     0.124 S 
ATOM     92  O   UNL A   1      50.115  23.499  36.086  1.00  0.00    -0.237 OA
ATOM     93  O   UNL A   1      51.481  25.186  34.902  1.00  0.00    -0.237 OA
ATOM     94  O   UNL A   1      50.587  25.679  37.145  1.00  0.00    -0.744 OA
ENDBRANCH  90  91
ENDBRANCH  58  83
ENDBRANCH  32  33
ENDBRANCH  24  27
ENDBRANCH  22  23
ENDBRANCH  21  22
ENDBRANCH  20  21
ENDBRANCH   1  20
TORSDOF 19
ENDMDL
MODEL 2
REMARK VINA RESULT:      -9.5      4.072      6.830
REMARK SMILES CN(C)c1cccc(C(=O)CCCC(=O)NCCCCNC(=O)c2ccc(-c3c4nc(c(-c5c(F)cc(S(=O)(=O)[O-])cc5F)c5ccc([nH]5)c(-c5c(F)cc(S(=O)(=O)[O-])cc5F)c5nc(c(-c6c(F)cc(S(=O)(=O)[O-])cc6F)c6ccc3[nH]6)C=C5)C=C4)cc2)c1
REMARK SMILES IDX 17 1 16 2 14 3 15 4 13 6 12 7 11 8 9 9 10 10 8 11 4 12 5 13
REMARK SMILES IDX 90 14 6 15 7 16 2 17 1 18 3 19 18 20 19 21 20 22 21 23 22 24
REMARK SMILES IDX 23 26 24 27 25 28 89 29 26 30 88 31 27 32 28 33 29 34 82 35
REMARK SMILES IDX 30 36 87 37 81 38 83 39 31 40 86 41 80 42 79 43 32 45 66 46
REMARK SMILES IDX 45 47 65 48 46 49 49 50 64 51 84 52 47 53 48 54 63 56 85 57
REMARK SMILES IDX 50 58 33 59 34 60 43 61 35 62 36 63 42 64 44 65 37 66 38 67
REMARK SMILES IDX 39 68 40 69 41 70 67 71 68 72 77 73 69 74 70 75 76 76 78 77
REMARK SMILES IDX 71 78 72 79 73 80 74 81 75 82 51 83 52 84 61 85 53 86 54 87
REMARK SMILES IDX 60 88 62 89 55 90 56 91 57 92 58 93 59 94
REMARK H PARENT 16 5 21 25 83 44 49 55
REMARK Flexibility Score: inf
ROOT
ATOM      1  C   UNL A   1      32.405  28.893  24.672  1.00  0.00     0.116 C 
ENDROOT
BRANCH   1   2
ATOM      2  N   UNL A   1      31.658  29.436  23.560  1.00  0.00    -0.356 N 
ATOM      3  C   UNL A   1      30.894  28.907  22.580  1.00  0.00     0.220 C 
ATOM      4  O   UNL A   1      30.389  29.730  21.804  1.00  0.00    -0.275 OA
ATOM      5  H   UNL A   1      31.721  30.417  23.503  1.00  0.00     0.163 HD
BRANCH   3   6
ATOM      6  C   UNL A   1      30.497  27.438  22.432  1.00  0.00     0.100 C 
BRANCH   6   7
ATOM      7  C   UNL A   1      31.484  26.280  22.291  1.00  0.00     0.018 C 
BRANCH   7   8
ATOM      8  C   UNL A   1      32.179  25.599  23.468  1.00  0.00     0.081 C 
BRANCH   8   9
ATOM      9  C   UNL A   1      33.292  24.564  23.269  1.00  0.00     0.162 C 
ATOM     10  O   UNL A   1      33.777  24.403  22.145  1.00  0.00    -0.294 OA
BRANCH   9  11
ATOM     11  C   UNL A   1      33.941  23.828  24.403  1.00  0.00     0.020 A 
ATOM     12  C   UNL A   1      35.936  22.875  25.508  1.00  0.00     0.037 A 
ATOM     13  C   UNL A   1      35.123  22.523  26.587  1.00  0.00     0.026 A 
ATOM     14  C   UNL A   1      35.303  23.527  24.438  1.00  0.00     0.037 A 
ATOM     15  C   UNL A   1      33.754  22.815  26.593  1.00  0.00     0.003 A 
ATOM     16  C   UNL A   1      33.166  23.466  25.506  1.00  0.00     0.012 A 
BRANCH  12  17
ATOM     17  N   UNL A   1      37.299  22.608  25.489  1.00  0.00    -0.378 N 
ATOM     18  C   UNL A   1      37.813  21.292  25.124  1.00  0.00     0.143 C 
ATOM     19  C   UNL A   1      38.213  23.521  26.166  1.00  0.00     0.143 C 
ENDBRANCH  12  17
ENDBRANCH   9  11
ENDBRANCH   8   9
ENDBRANCH   7   8
ENDBRANCH   6   7
ENDBRANCH   3   6
ENDBRANCH   1   2
BRANCH   1  20
ATOM     20  C   UNL A   1      31.470  28.377  25.772  1.00  0.00     0.023 C 
BRANCH  20  21
ATOM     21  C   UNL A   1      32.201  28.001  27.058  1.00  0.00     0.023 C 
BRANCH  21  22
ATOM     22  C   UNL A   1      33.575  28.652  27.197  1.00  0.00     0.116 C 
BRANCH  22  23
ATOM     23  N   UNL A   1      33.519  30.024  27.686  1.00  0.00    -0.352 N 
ATOM     24  C   UNL A   1      34.512  30.754  28.309  1.00  0.00     0.251 C 
ATOM     25  H   UNL A   1      32.662  30.490  27.555  1.00  0.00     0.163 HD
ATOM     26  O   UNL A   1      34.289  31.866  28.747  1.00  0.00    -0.269 OA
BRANCH  24  27
ATOM     27  C   UNL A   1      35.844  30.129  28.468  1.00  0.00     0.039 A 
ATOM     28  C   UNL A   1      36.753  30.200  27.412  1.00  0.00     0.014 A 
ATOM     29  C   UNL A   1      36.214  29.568  29.693  1.00  0.00     0.014 A 
ATOM     30  C   UNL A   1      38.071  29.787  27.616  1.00  0.00     0.010 A 
ATOM     31  C   UNL A   1      37.545  29.236  29.917  1.00  0.00     0.010 A 
ATOM     32  C   UNL A   1      38.489  29.350  28.884  1.00  0.00    -0.014 A 
BRANCH  32  33
ATOM     33  C   UNL A   1      39.911  29.015  29.159  1.00  0.00     0.031 A 
ATOM     34  C   UNL A   1      40.822  30.049  29.761  1.00  0.00     0.074 A 
ATOM     35  C   UNL A   1      40.398  27.811  28.794  1.00  0.00     0.049 A 
ATOM     36  N   UNL A   1      42.106  29.983  29.994  1.00  0.00    -0.248 NA
ATOM     37  C   UNL A   1      40.213  31.341  30.117  1.00  0.00     0.031 C 
ATOM     38  C   UNL A   1      39.630  26.746  28.144  1.00  0.00     0.029 A 
ATOM     39  N   UNL A   1      41.660  27.284  28.907  1.00  0.00    -0.354 N 
ATOM     40  C   UNL A   1      42.463  31.226  30.503  1.00  0.00     0.074 A 
ATOM     41  C   UNL A   1      41.271  32.045  30.492  1.00  0.00     0.031 C 
ATOM     42  C   UNL A   1      40.430  25.685  27.942  1.00  0.00     0.029 A 
ATOM     43  C   UNL A   1      41.773  26.005  28.414  1.00  0.00     0.049 A 
ATOM     44  H   UNL A   1      42.414  27.776  29.306  1.00  0.00     0.167 HD
ATOM     45  C   UNL A   1      43.667  31.638  30.964  1.00  0.00     0.037 A 
ATOM     46  C   UNL A   1      42.840  25.184  28.347  1.00  0.00     0.037 A 
ATOM     47  C   UNL A   1      44.839  30.805  31.011  1.00  0.00     0.049 A 
ATOM     48  C   UNL A   1      44.162  25.657  28.889  1.00  0.00     0.074 A 
ATOM     49  C   UNL A   1      46.089  31.107  31.520  1.00  0.00     0.029 A 
ATOM     50  N   UNL A   1      44.904  29.503  30.537  1.00  0.00    -0.354 N 
ATOM     51  N   UNL A   1      44.466  26.816  29.424  1.00  0.00    -0.248 NA
ATOM     52  C   UNL A   1      45.284  24.711  28.823  1.00  0.00     0.031 C 
ATOM     53  C   UNL A   1      46.920  29.999  31.324  1.00  0.00     0.029 A 
ATOM     54  C   UNL A   1      46.175  28.992  30.730  1.00  0.00     0.049 A 
ATOM     55  H   UNL A   1      44.155  29.015  30.124  1.00  0.00     0.167 HD
ATOM     56  C   UNL A   1      45.806  26.729  29.783  1.00  0.00     0.074 A 
ATOM     57  C   UNL A   1      46.252  25.400  29.415  1.00  0.00     0.031 C 
ATOM     58  C   UNL A   1      46.597  27.663  30.365  1.00  0.00     0.037 A 
BRANCH  45  59
ATOM     59  C   UNL A   1      43.768  33.050  31.472  1.00  0.00     0.058 A 
ATOM     60  C   UNL A   1      44.154  34.106  30.630  1.00  0.00     0.135 A 
ATOM     61  C   UNL A   1      43.459  33.355  32.806  1.00  0.00     0.135 A 
ATOM     62  F   UNL A   1      44.478  33.867  29.350  1.00  0.00    -0.206 F 
ATOM     63  C   UNL A   1      44.260  35.410  31.101  1.00  0.00     0.059 A 
ATOM     64  C   UNL A   1      43.531  34.658  33.292  1.00  0.00     0.059 A 
ATOM     65  F   UNL A   1      43.086  32.384  33.653  1.00  0.00    -0.206 F 
ATOM     66  C   UNL A   1      43.948  35.676  32.435  1.00  0.00     0.060 A 
BRANCH  66  67
ATOM     67  S   UNL A   1      44.092  37.373  33.032  1.00  0.00     0.124 S 
ATOM     68  O   UNL A   1      43.940  38.130  31.793  1.00  0.00    -0.237 OA
ATOM     69  O   UNL A   1      42.980  37.469  33.973  1.00  0.00    -0.237 OA
ATOM     70  O   UNL A   1      45.422  37.411  33.631  1.00  0.00    -0.744 OA
ENDBRANCH  66  67
ENDBRANCH  45  59
BRANCH  46  71
ATOM     71  C   UNL A   1      42.697  23.820  27.772  1.00  0.00     0.058 A 
ATOM     72  C   UNL A   1      42.535  22.703  28.604  1.00  0.00     0.135 A 
ATOM     73  C   UNL A   1      42.713  23.604  26.386  1.00  0.00     0.135 A 
ATOM     74  F   UNL A   1      42.519  22.858  29.937  1.00  0.00    -0.206 F 
ATOM     75  C   UNL A   1      42.413  21.418  28.087  1.00  0.00     0.059 A 
ATOM     76  C   UNL A   1      42.570  22.331  25.842  1.00  0.00     0.059 A 
ATOM     77  F   UNL A   1      42.848  24.642  25.544  1.00  0.00    -0.206 F 
ATOM     78  C   UNL A   1      42.430  21.242  26.702  1.00  0.00     0.060 A 
BRANCH  78  79
ATOM     79  S   UNL A   1      42.226  19.575  26.037  1.00  0.00     0.124 S 
ATOM     80  O   UNL A   1      40.808  19.565  25.697  1.00  0.00    -0.237 OA
ATOM     81  O   UNL A   1      43.154  19.579  24.910  1.00  0.00    -0.237 OA
ATOM     82  O   UNL A   1      42.615  18.721  27.155  1.00  0.00    -0.744 OA
ENDBRANCH  78  79
ENDBRANCH  46  71
BRANCH  58  83
ATOM     83  C   UNL A   1      48.016  27.275  30.670  1.00  0.00     0.058 A 
ATOM     84  C   UNL A   1      48.369  26.683  31.891  1.00  0.00     0.135 A 
ATOM     85  C   UNL A   1      49.023  27.445  29.706  1.00  0.00     0.135 A 
ATOM     86  F   UNL A   1      47.445  26.503  32.849  1.00  0.00    -0.206 F 
ATOM     87  C   UNL A   1      49.677  26.291  32.156  1.00  0.00     0.059 A 
ATOM     88  C   UNL A   1      50.332  27.038  29.940  1.00  0.00     0.059 A 
ATOM     89  F   UNL A   1      48.733  27.998  28.517  1.00  0.00    -0.206 F 
ATOM     90  C   UNL A   1      50.652  26.472  31.173  1.00  0.00     0.060 A 
BRANCH  90  91
ATOM     91  S   UNL A   1      52.338  25.924  31.512  1.00  0.00     0.124 S 
ATOM     92  O   UNL A   1      52.748  26.862  32.551  1.00  0.00    -0.237 OA
ATOM     93  O   UNL A   1      52.137  24.544  31.947  1.00  0.00    -0.237 OA
ATOM     94  O   UNL A   1      53.010  26.076  30.225  1.00  0.00    -0.744 OA
ENDBRANCH  90  91
ENDBRANCH  58  83
ENDBRANCH  32  33
ENDBRANCH  24  27
ENDBRANCH  22  23
ENDBRANCH  21  22
ENDBRANCH  20  21
ENDBRANCH   1  20
TORSDOF 19
ENDMDL
MODEL 3
REMARK VINA RESULT:      -9.5      2.424      4.270
REMARK SMILES CN(C)c1cccc(C(=O)CCCC(=O)NCCCCNC(=O)c2ccc(-c3c4nc(c(-c5c(F)cc(S(=O)(=O)[O-])cc5F)c5ccc([nH]5)c(-c5c(F)cc(S(=O)(=O)[O-])cc5F)c5nc(c(-c6c(F)cc(S(=O)(=O)[O-])cc6F)c6ccc3[nH]6)C=C5)C=C4)cc2)c1
REMARK SMILES IDX 17 1 16 2 14 3 15 4 13 6 12 7 11 8 9 9 10 10 8 11 4 12 5 13
REMARK SMILES IDX 90 14 6 15 7 16 2 17 1 18 3 19 18 20 19 21 20 22 21 23 22 24
REMARK SMILES IDX 23 26 24 27 25 28 89 29 26 30 88 31 27 32 28 33 29 34 82 35
REMARK SMILES IDX 30 36 87 37 81 38 83 39 31 40 86 41 80 42 79 43 32 45 66 46
REMARK SMILES IDX 45 47 65 48 46 49 49 50 64 51 84 52 47 53 48 54 63 56 85 57
REMARK SMILES IDX 50 58 33 59 34 60 43 61 35 62 36 63 42 64 44 65 37 66 38 67
REMARK SMILES IDX 39 68 40 69 41 70 67 71 68 72 77 73 69 74 70 75 76 76 78 77
REMARK SMILES IDX 71 78 72 79 73 80 74 81 75 82 51 83 52 84 61 85 53 86 54 87
REMARK SMILES IDX 60 88 62 89 55 90 56 91 57 92 58 93 59 94
REMARK H PARENT 16 5 21 25 83 44 49 55
REMARK Flexibility Score: inf
ROOT
ATOM      1  C   UNL A   1      38.118  34.431  30.055  1.00  0.00     0.116 C 
ENDROOT
BRANCH   1   2
ATOM      2  N   UNL A   1      37.475  34.623  31.336  1.00  0.00    -0.356 N 
ATOM      3  C   UNL A   1      37.901  34.651  32.617  1.00  0.00     0.220 C 
ATOM      4  O   UNL A   1      37.020  34.873  33.460  1.00  0.00    -0.275 OA
ATOM      5  H   UNL A   1      36.505  34.766  31.256  1.00  0.00     0.163 HD
BRANCH   3   6
ATOM      6  C   UNL A   1      39.351  34.574  33.094  1.00  0.00     0.100 C 
BRANCH   6   7
ATOM      7  C   UNL A   1      39.854  33.653  34.205  1.00  0.00     0.018 C 
BRANCH   7   8
ATOM      8  C   UNL A   1      39.264  32.277  34.508  1.00  0.00     0.081 C 
BRANCH   8   9
ATOM      9  C   UNL A   1      40.101  31.149  35.123  1.00  0.00     0.162 C 
ATOM     10  O   UNL A   1      40.354  31.171  36.331  1.00  0.00    -0.294 OA
BRANCH   9  11
ATOM     11  C   UNL A   1      40.513  29.924  34.362  1.00  0.00     0.020 A 
ATOM     12  C   UNL A   1      42.094  28.073  33.929  1.00  0.00     0.037 A 
ATOM     13  C   UNL A   1      41.202  27.587  32.971  1.00  0.00     0.026 A 
ATOM     14  C   UNL A   1      41.708  29.244  34.600  1.00  0.00     0.037 A 
ATOM     15  C   UNL A   1      39.989  28.237  32.710  1.00  0.00     0.003 A 
ATOM     16  C   UNL A   1      39.646  29.399  33.404  1.00  0.00     0.012 A 
BRANCH  12  17
ATOM     17  N   UNL A   1      43.294  27.437  34.213  1.00  0.00    -0.378 N 
ATOM     18  C   UNL A   1      43.332  26.069  34.721  1.00  0.00     0.143 C 
ATOM     19  C   UNL A   1      44.509  28.234  34.343  1.00  0.00     0.143 C 
ENDBRANCH  12  17
ENDBRANCH   9  11
ENDBRANCH   8   9
ENDBRANCH   7   8
ENDBRANCH   6   7
ENDBRANCH   3   6
ENDBRANCH   1   2
BRANCH   1  20
ATOM     20  C   UNL A   1      37.364  33.406  29.201  1.00  0.00     0.023 C 
BRANCH  20  21
ATOM     21  C   UNL A   1      35.857  33.637  29.170  1.00  0.00     0.023 C 
BRANCH  21  22
ATOM     22  C   UNL A   1      35.047  32.507  29.800  1.00  0.00     0.116 C 
BRANCH  22  23
ATOM     23  N   UNL A   1      34.220  31.783  28.842  1.00  0.00    -0.352 N 
ATOM     24  C   UNL A   1      34.545  30.666  28.099  1.00  0.00     0.251 C 
ATOM     25  H   UNL A   1      33.311  32.138  28.709  1.00  0.00     0.163 HD
ATOM     26  O   UNL A   1      33.778  30.224  27.266  1.00  0.00    -0.269 OA
BRANCH  24  27
ATOM     27  C   UNL A   1      35.873  30.048  28.311  1.00  0.00     0.039 A 
ATOM     28  C   UNL A   1      36.841  30.170  27.313  1.00  0.00     0.014 A 
ATOM     29  C   UNL A   1      36.178  29.442  29.532  1.00  0.00     0.014 A 
ATOM     30  C   UNL A   1      38.149  29.762  27.578  1.00  0.00     0.010 A 
ATOM     31  C   UNL A   1      37.497  29.115  29.821  1.00  0.00     0.010 A 
ATOM     32  C   UNL A   1      38.499  29.279  28.850  1.00  0.00    -0.014 A 
BRANCH  32  33
ATOM     33  C   UNL A   1      39.906  28.947  29.194  1.00  0.00     0.031 A 
ATOM     34  C   UNL A   1      40.765  29.963  29.895  1.00  0.00     0.074 A 
ATOM     35  C   UNL A   1      40.430  27.766  28.806  1.00  0.00     0.049 A 
ATOM     36  N   UNL A   1      42.035  29.900  30.201  1.00  0.00    -0.248 NA
ATOM     37  C   UNL A   1      40.120  31.231  30.272  1.00  0.00     0.031 C 
ATOM     38  C   UNL A   1      39.717  26.723  28.064  1.00  0.00     0.029 A 
ATOM     39  N   UNL A   1      41.690  27.248  28.971  1.00  0.00    -0.354 N 
ATOM     40  C   UNL A   1      42.344  31.122  30.786  1.00  0.00     0.074 A 
ATOM     41  C   UNL A   1      41.143  31.928  30.740  1.00  0.00     0.031 C 
ATOM     42  C   UNL A   1      40.541  25.682  27.863  1.00  0.00     0.029 A 
ATOM     43  C   UNL A   1      41.850  25.995  28.428  1.00  0.00     0.049 A 
ATOM     44  H   UNL A   1      42.413  27.730  29.435  1.00  0.00     0.167 HD
ATOM     45  C   UNL A   1      43.512  31.526  31.337  1.00  0.00     0.037 A 
ATOM     46  C   UNL A   1      42.929  25.189  28.388  1.00  0.00     0.037 A 
ATOM     47  C   UNL A   1      44.691  30.705  31.417  1.00  0.00     0.049 A 
ATOM     48  C   UNL A   1      44.211  25.651  29.029  1.00  0.00     0.074 A 
ATOM     49  C   UNL A   1      45.905  30.997  32.012  1.00  0.00     0.029 A 
ATOM     50  N   UNL A   1      44.801  29.426  30.889  1.00  0.00    -0.354 N 
ATOM     51  N   UNL A   1      44.467  26.788  29.632  1.00  0.00    -0.248 NA
ATOM     52  C   UNL A   1      45.347  24.721  28.989  1.00  0.00     0.031 C 
ATOM     53  C   UNL A   1      46.760  29.908  31.817  1.00  0.00     0.029 A 
ATOM     54  C   UNL A   1      46.066  28.921  31.135  1.00  0.00     0.049 A 
ATOM     55  H   UNL A   1      44.085  28.949  30.411  1.00  0.00     0.167 HD
ATOM     56  C   UNL A   1      45.784  26.699  30.067  1.00  0.00     0.074 A 
ATOM     57  C   UNL A   1      46.269  25.393  29.667  1.00  0.00     0.031 C 
ATOM     58  C   UNL A   1      46.527  27.615  30.736  1.00  0.00     0.037 A 
BRANCH  45  59
ATOM     59  C   UNL A   1      43.565  32.914  31.912  1.00  0.00     0.058 A 
ATOM     60  C   UNL A   1      43.782  34.038  31.097  1.00  0.00     0.135 A 
ATOM     61  C   UNL A   1      43.376  33.128  33.286  1.00  0.00     0.135 A 
ATOM     62  F   UNL A   1      43.986  33.889  29.779  1.00  0.00    -0.206 F 
ATOM     63  C   UNL A   1      43.843  35.321  31.630  1.00  0.00     0.059 A 
ATOM     64  C   UNL A   1      43.405  34.406  33.837  1.00  0.00     0.059 A 
ATOM     65  F   UNL A   1      43.166  32.089  34.109  1.00  0.00    -0.206 F 
ATOM     66  C   UNL A   1      43.655  35.495  33.002  1.00  0.00     0.060 A 
BRANCH  66  67
ATOM     67  S   UNL A   1      43.738  37.166  33.678  1.00  0.00     0.124 S 
ATOM     68  O   UNL A   1      43.875  37.964  32.463  1.00  0.00    -0.237 OA
ATOM     69  O   UNL A   1      42.460  37.286  34.374  1.00  0.00    -0.237 OA
ATOM     70  O   UNL A   1      44.916  37.126  34.538  1.00  0.00    -0.744 OA
ENDBRANCH  66  67
ENDBRANCH  45  59
BRANCH  46  71
ATOM     71  C   UNL A   1      42.839  23.851  27.746  1.00  0.00     0.058 A 
ATOM     72  C   UNL A   1      42.398  22.734  28.470  1.00  0.00     0.135 A 
ATOM     73  C   UNL A   1      43.184  23.660  26.399  1.00  0.00     0.135 A 
ATOM     74  F   UNL A   1      42.063  22.864  29.764  1.00  0.00    -0.206 F 
ATOM     75  C   UNL A   1      42.320  21.472  27.891  1.00  0.00     0.059 A 
ATOM     76  C   UNL A   1      43.092  22.413  25.790  1.00  0.00     0.059 A 
ATOM     77  F   UNL A   1      43.595  24.700  25.656  1.00  0.00    -0.206 F 
ATOM     78  C   UNL A   1      42.668  21.322  26.548  1.00  0.00     0.060 A 
BRANCH  78  79
ATOM     79  S   UNL A   1      42.520  19.688  25.791  1.00  0.00     0.124 S 
ATOM     80  O   UNL A   1      43.402  19.818  24.637  1.00  0.00    -0.237 OA
ATOM     81  O   UNL A   1      42.991  18.812  26.860  1.00  0.00    -0.237 OA
ATOM     82  O   UNL A   1      41.095  19.588  25.491  1.00  0.00    -0.744 OA
ENDBRANCH  78  79
ENDBRANCH  46  71
BRANCH  58  83
ATOM     83  C   UNL A   1      47.930  27.228  31.108  1.00  0.00     0.058 A 
ATOM     84  C   UNL A   1      49.015  27.491  30.258  1.00  0.00     0.135 A 
ATOM     85  C   UNL A   1      48.199  26.639  32.355  1.00  0.00     0.135 A 
ATOM     86  F   UNL A   1      48.810  28.047  29.053  1.00  0.00    -0.206 F 
ATOM     87  C   UNL A   1      50.317  27.164  30.622  1.00  0.00     0.059 A 
ATOM     88  C   UNL A   1      49.495  26.327  32.749  1.00  0.00     0.059 A 
ATOM     89  F   UNL A   1      47.195  26.377  33.208  1.00  0.00    -0.206 F 
ATOM     90  C   UNL A   1      50.547  26.584  31.871  1.00  0.00     0.060 A 
BRANCH  90  91
ATOM     91  S   UNL A   1      52.245  26.201  32.349  1.00  0.00     0.124 S 
ATOM     92  O   UNL A   1      52.680  27.467  32.929  1.00  0.00    -0.237 OA
ATOM     93  O   UNL A   1      52.064  25.101  33.293  1.00  0.00    -0.237 OA
ATOM     94  O   UNL A   1      52.879  25.835  31.087  1.00  0.00    -0.744 OA
ENDBRANCH  90  91
ENDBRANCH  58  83
ENDBRANCH  32  33
ENDBRANCH  24  27
ENDBRANCH  22  23
ENDBRANCH  21  22
ENDBRANCH  20  21
ENDBRANCH   1  20
TORSDOF 19
ENDMDL
