MODEL 1
REMARK VINA RESULT:     -10.6      0.000      0.000
REMARK SMILES COCC[C@H](NC(=O)c1ccc(C)cc1F)C(=O)NCCCCNC(=O)c1ccc(-c2c3nc(c(-c4c(F)cc(S(=O)(=O)[O-])cc4F)c4ccc([nH]4)c(-c4c(F)cc(S(=O)(=O)[O-])cc4F)c4nc(c(-c5c(F)cc(S(=O)(=O)[O-])cc5F)c5ccc2[nH]5)C=C4)C=C3)cc1
REMARK SMILES IDX 21 1 20 2 19 3 17 4 18 5 5 7 4 8 3 9 2 10 1 11 6 12 7 13
REMARK SMILES IDX 8 15 9 16 10 17 15 18 11 19 14 20 16 21 12 22 13 23 22 24
REMARK SMILES IDX 23 25 24 26 25 27 26 29 27 30 28 31 92 32 29 33 91 34 30 35
REMARK SMILES IDX 31 36 32 37 85 38 33 39 90 40 84 41 86 42 34 43 89 44 83 45
REMARK SMILES IDX 82 46 35 48 69 49 48 50 68 51 49 52 52 53 67 54 87 55 50 56
REMARK SMILES IDX 51 57 66 59 88 60 53 61 36 62 37 63 46 64 38 65 39 66 45 67
REMARK SMILES IDX 47 68 40 69 41 70 42 71 43 72 44 73 70 74 71 75 80 76 72 77
REMARK SMILES IDX 73 78 79 79 81 80 74 81 75 82 76 83 77 84 78 85 54 86 55 87
REMARK SMILES IDX 64 88 56 89 57 90 63 91 65 92 58 93 59 94 60 95 61 96 62 97
REMARK H PARENT 19 6 6 14 24 28 86 47 52 58
REMARK Flexibility Score: inf
ROOT
ATOM      1  C   UNL A   1      33.320  29.077  24.806  1.00  0.00     0.023 C 
ENDROOT
BRANCH   1   2
ATOM      2  C   UNL A   1      32.799  28.515  23.483  1.00  0.00     0.116 C 
BRANCH   2   3
ATOM      3  N   UNL A   1      31.417  28.072  23.495  1.00  0.00    -0.354 N 
ATOM      4  C   UNL A   1      30.867  26.876  23.860  1.00  0.00     0.242 C 
ATOM      5  O   UNL A   1      29.636  26.813  23.931  1.00  0.00    -0.273 OA
ATOM      6  H   UNL A   1      30.767  28.745  23.188  1.00  0.00     0.163 HD
BRANCH   4   7
ATOM      7  C   UNL A   1      31.730  25.688  24.321  1.00  0.00     0.173 C 
BRANCH   7   8
ATOM      8  C   UNL A   1      31.421  24.566  23.297  1.00  0.00     0.063 C 
BRANCH   8   9
ATOM      9  C   UNL A   1      32.620  24.091  22.495  1.00  0.00     0.162 C 
BRANCH   9  10
ATOM     10  O   UNL A   1      33.251  25.211  21.885  1.00  0.00    -0.385 OA
ATOM     11  C   UNL A   1      32.571  25.652  20.720  1.00  0.00     0.194 C 
ENDBRANCH   9  10
ENDBRANCH   8   9
ENDBRANCH   7   8
BRANCH   7  12
ATOM     12  N   UNL A   1      31.554  25.247  25.711  1.00  0.00    -0.340 N 
ATOM     13  C   UNL A   1      31.977  24.112  26.380  1.00  0.00     0.254 C 
ATOM     14  H   UNL A   1      31.039  25.874  26.270  1.00  0.00     0.164 HD
ATOM     15  O   UNL A   1      31.368  23.813  27.408  1.00  0.00    -0.269 OA
BRANCH  13  16
ATOM     16  C   UNL A   1      33.152  23.290  25.971  1.00  0.00     0.075 A 
ATOM     17  C   UNL A   1      34.459  23.720  26.188  1.00  0.00     0.017 A 
ATOM     18  C   UNL A   1      32.984  21.976  25.529  1.00  0.00     0.136 A 
ATOM     19  C   UNL A   1      35.568  22.927  25.887  1.00  0.00     0.004 A 
ATOM     20  C   UNL A   1      34.089  21.154  25.249  1.00  0.00     0.043 A 
ATOM     21  F   UNL A   1      31.760  21.453  25.363  1.00  0.00    -0.206 F 
ATOM     22  C   UNL A   1      35.393  21.637  25.397  1.00  0.00    -0.048 A 
ATOM     23  C   UNL A   1      36.590  20.779  25.109  1.00  0.00     0.044 C 
ENDBRANCH  13  16
ENDBRANCH   7  12
ENDBRANCH   4   7
ENDBRANCH   2   3
ENDBRANCH   1   2
BRANCH   1  24
ATOM     24  C   UNL A   1      33.918  28.076  25.791  1.00  0.00     0.023 C 
BRANCH  24  25
ATOM     25  C   UNL A   1      33.604  28.332  27.251  1.00  0.00     0.116 C 
BRANCH  25  26
ATOM     26  N   UNL A   1      33.462  29.744  27.556  1.00  0.00    -0.352 N 
ATOM     27  C   UNL A   1      34.388  30.599  28.105  1.00  0.00     0.251 C 
ATOM     28  H   UNL A   1      32.587  30.142  27.342  1.00  0.00     0.163 HD
ATOM     29  O   UNL A   1      34.068  31.735  28.417  1.00  0.00    -0.269 OA
BRANCH  27  30
ATOM     30  C   UNL A   1      35.761  30.107  28.347  1.00  0.00     0.039 A 
ATOM     31  C   UNL A   1      36.698  30.199  27.316  1.00  0.00     0.014 A 
ATOM     32  C   UNL A   1      36.129  29.600  29.597  1.00  0.00     0.014 A 
ATOM     33  C   UNL A   1      38.023  29.834  27.558  1.00  0.00     0.010 A 
ATOM     34  C   UNL A   1      37.465  29.321  29.860  1.00  0.00     0.010 A 
ATOM     35  C   UNL A   1      38.423  29.424  28.840  1.00  0.00    -0.014 A 
BRANCH  35  36
ATOM     36  C   UNL A   1      39.835  29.074  29.132  1.00  0.00     0.031 A 
ATOM     37  C   UNL A   1      40.749  30.106  29.736  1.00  0.00     0.074 A 
ATOM     38  C   UNL A   1      40.308  27.858  28.793  1.00  0.00     0.049 A 
ATOM     39  N   UNL A   1      42.028  30.027  29.991  1.00  0.00    -0.248 NA
ATOM     40  C   UNL A   1      40.151  31.411  30.065  1.00  0.00     0.031 C 
ATOM     41  C   UNL A   1      39.530  26.795  28.151  1.00  0.00     0.029 A 
ATOM     42  N   UNL A   1      41.559  27.314  28.931  1.00  0.00    -0.354 N 
ATOM     43  C   UNL A   1      42.390  31.272  30.491  1.00  0.00     0.074 A 
ATOM     44  C   UNL A   1      41.211  32.106  30.449  1.00  0.00     0.031 C 
ATOM     45  C   UNL A   1      40.316  25.720  27.973  1.00  0.00     0.029 A 
ATOM     46  C   UNL A   1      41.659  26.028  28.453  1.00  0.00     0.049 A 
ATOM     47  H   UNL A   1      42.315  27.798  29.336  1.00  0.00     0.167 HD
ATOM     48  C   UNL A   1      43.593  31.675  30.966  1.00  0.00     0.037 A 
ATOM     49  C   UNL A   1      42.718  25.196  28.401  1.00  0.00     0.037 A 
ATOM     50  C   UNL A   1      44.751  30.825  31.041  1.00  0.00     0.049 A 
ATOM     51  C   UNL A   1      44.038  25.660  28.954  1.00  0.00     0.074 A 
ATOM     52  C   UNL A   1      45.997  31.113  31.567  1.00  0.00     0.029 A 
ATOM     53  N   UNL A   1      44.804  29.519  30.577  1.00  0.00    -0.354 N 
ATOM     54  N   UNL A   1      44.347  26.821  29.483  1.00  0.00    -0.248 NA
ATOM     55  C   UNL A   1      45.151  24.702  28.910  1.00  0.00     0.031 C 
ATOM     56  C   UNL A   1      46.816  29.994  31.387  1.00  0.00     0.029 A 
ATOM     57  C   UNL A   1      46.067  28.992  30.790  1.00  0.00     0.049 A 
ATOM     58  H   UNL A   1      44.054  29.036  30.159  1.00  0.00     0.167 HD
ATOM     59  C   UNL A   1      45.683  26.724  29.858  1.00  0.00     0.074 A 
ATOM     60  C   UNL A   1      46.119  25.387  29.506  1.00  0.00     0.031 C 
ATOM     61  C   UNL A   1      46.477  27.655  30.441  1.00  0.00     0.037 A 
BRANCH  48  62
ATOM     62  C   UNL A   1      43.710  33.094  31.452  1.00  0.00     0.058 A 
ATOM     63  C   UNL A   1      44.030  34.147  30.582  1.00  0.00     0.135 A 
ATOM     64  C   UNL A   1      43.474  33.408  32.801  1.00  0.00     0.135 A 
ATOM     65  F   UNL A   1      44.284  33.901  29.286  1.00  0.00    -0.206 F 
ATOM     66  C   UNL A   1      44.140  35.457  31.034  1.00  0.00     0.059 A 
ATOM     67  C   UNL A   1      43.549  34.717  33.270  1.00  0.00     0.059 A 
ATOM     68  F   UNL A   1      43.168  32.439  33.677  1.00  0.00    -0.206 F 
ATOM     69  C   UNL A   1      43.898  35.733  32.380  1.00  0.00     0.060 A 
BRANCH  69  70
ATOM     70  S   UNL A   1      44.037  37.440  32.950  1.00  0.00     0.124 S 
ATOM     71  O   UNL A   1      43.928  38.175  31.693  1.00  0.00    -0.237 OA
ATOM     72  O   UNL A   1      42.899  37.561  33.855  1.00  0.00    -0.237 OA
ATOM     73  O   UNL A   1      45.349  37.479  33.588  1.00  0.00    -0.744 OA
ENDBRANCH  69  70
ENDBRANCH  48  62
BRANCH  49  74
ATOM     74  C   UNL A   1      42.564  23.833  27.828  1.00  0.00     0.058 A 
ATOM     75  C   UNL A   1      42.564  23.630  26.439  1.00  0.00     0.135 A 
ATOM     76  C   UNL A   1      42.431  22.706  28.654  1.00  0.00     0.135 A 
ATOM     77  F   UNL A   1      42.685  24.676  25.609  1.00  0.00    -0.206 F 
ATOM     78  C   UNL A   1      42.417  22.361  25.888  1.00  0.00     0.059 A 
ATOM     79  C   UNL A   1      42.307  21.424  28.127  1.00  0.00     0.059 A 
ATOM     80  F   UNL A   1      42.444  22.844  29.988  1.00  0.00    -0.206 F 
ATOM     81  C   UNL A   1      42.290  21.263  26.742  1.00  0.00     0.060 A 
BRANCH  81  82
ATOM     82  S   UNL A   1      42.144  19.615  26.017  1.00  0.00     0.124 S 
ATOM     83  O   UNL A   1      42.585  18.770  27.121  1.00  0.00    -0.237 OA
ATOM     84  O   UNL A   1      40.724  19.548  25.688  1.00  0.00    -0.237 OA
ATOM     85  O   UNL A   1      43.043  19.675  24.868  1.00  0.00    -0.744 OA
ENDBRANCH  81  82
ENDBRANCH  49  74
BRANCH  61  86
ATOM     86  C   UNL A   1      47.888  27.255  30.765  1.00  0.00     0.058 A 
ATOM     87  C   UNL A   1      48.194  26.486  31.899  1.00  0.00     0.135 A 
ATOM     88  C   UNL A   1      48.939  27.595  29.897  1.00  0.00     0.135 A 
ATOM     89  F   UNL A   1      47.227  26.141  32.763  1.00  0.00    -0.206 F 
ATOM     90  C   UNL A   1      49.498  26.084  32.171  1.00  0.00     0.059 A 
ATOM     91  C   UNL A   1      50.245  27.182  30.136  1.00  0.00     0.059 A 
ATOM     92  F   UNL A   1      48.696  28.321  28.794  1.00  0.00    -0.206 F 
ATOM     93  C   UNL A   1      50.515  26.435  31.281  1.00  0.00     0.060 A 
BRANCH  93  94
ATOM     94  S   UNL A   1      52.196  25.871  31.625  1.00  0.00     0.124 S 
ATOM     95  O   UNL A   1      51.960  24.507  32.082  1.00  0.00    -0.237 OA
ATOM     96  O   UNL A   1      52.842  26.000  30.322  1.00  0.00    -0.237 OA
ATOM     97  O   UNL A   1      52.665  26.804  32.645  1.00  0.00    -0.744 OA
ENDBRANCH  93  94
ENDBRANCH  61  86
ENDBRANCH  35  36
ENDBRANCH  27  30
ENDBRANCH  25  26
ENDBRANCH  24  25
ENDBRANCH   1  24
TORSDOF 19
ENDMDL
MODEL 2
REMARK VINA RESULT:     -10.6      1.318      3.021
REMARK SMILES COCC[C@H](NC(=O)c1ccc(C)cc1F)C(=O)NCCCCNC(=O)c1ccc(-c2c3nc(c(-c4c(F)cc(S(=O)(=O)[O-])cc4F)c4ccc([nH]4)c(-c4c(F)cc(S(=O)(=O)[O-])cc4F)c4nc(c(-c5c(F)cc(S(=O)(=O)[O-])cc5F)c5ccc2[nH]5)C=C4)C=C3)cc1
REMARK SMILES IDX 21 1 20 2 19 3 17 4 18 5 5 7 4 8 3 9 2 10 1 11 6 12 7 13
REMARK SMILES IDX 8 15 9 16 10 17 15 18 11 19 14 20 16 21 12 22 13 23 22 24
REMARK SMILES IDX 23 25 24 26 25 27 26 29 27 30 28 31 92 32 29 33 91 34 30 35
REMARK SMILES IDX 31 36 32 37 85 38 33 39 90 40 84 41 86 42 34 43 89 44 83 45
REMARK SMILES IDX 82 46 35 48 69 49 48 50 68 51 49 52 52 53 67 54 87 55 50 56
REMARK SMILES IDX 51 57 66 59 88 60 53 61 36 62 37 63 46 64 38 65 39 66 45 67
REMARK SMILES IDX 47 68 40 69 41 70 42 71 43 72 44 73 70 74 71 75 80 76 72 77
REMARK SMILES IDX 73 78 79 79 81 80 74 81 75 82 76 83 77 84 78 85 54 86 55 87
REMARK SMILES IDX 64 88 56 89 57 90 63 91 65 92 58 93 59 94 60 95 61 96 62 97
REMARK H PARENT 19 6 6 14 24 28 86 47 52 58
REMARK Flexibility Score: inf
ROOT
ATOM      1  C   UNL A   1      33.465  26.988  24.863  1.00  0.00     0.023 C 
ENDROOT
BRANCH   1   2
ATOM      2  C   UNL A   1      34.203  25.674  25.122  1.00  0.00     0.116 C 
BRANCH   2   3
ATOM      3  N   UNL A   1      34.505  24.884  23.943  1.00  0.00    -0.354 N 
ATOM      4  C   UNL A   1      34.671  23.537  23.789  1.00  0.00     0.242 C 
ATOM      5  O   UNL A   1      34.760  23.102  22.637  1.00  0.00    -0.273 OA
ATOM      6  H   UNL A   1      34.608  25.407  23.114  1.00  0.00     0.163 HD
BRANCH   4   7
ATOM      7  C   UNL A   1      34.594  22.565  24.980  1.00  0.00     0.173 C 
BRANCH   7   8
ATOM      8  C   UNL A   1      35.997  21.909  25.035  1.00  0.00     0.063 C 
BRANCH   8   9
ATOM      9  C   UNL A   1      37.103  22.817  25.543  1.00  0.00     0.162 C 
BRANCH   9  10
ATOM     10  O   UNL A   1      38.323  22.088  25.595  1.00  0.00    -0.385 OA
ATOM     11  C   UNL A   1      39.232  22.615  26.549  1.00  0.00     0.194 C 
ENDBRANCH   9  10
ENDBRANCH   8   9
ENDBRANCH   7   8
BRANCH   7  12
ATOM     12  N   UNL A   1      33.509  21.574  24.951  1.00  0.00    -0.340 N 
ATOM     13  C   UNL A   1      32.141  21.698  25.120  1.00  0.00     0.254 C 
ATOM     14  H   UNL A   1      33.811  20.653  24.781  1.00  0.00     0.164 HD
ATOM     15  O   UNL A   1      31.525  20.680  25.434  1.00  0.00    -0.269 OA
BRANCH  13  16
ATOM     16  C   UNL A   1      31.380  22.957  24.874  1.00  0.00     0.075 A 
ATOM     17  C   UNL A   1      31.048  23.827  25.909  1.00  0.00     0.017 A 
ATOM     18  C   UNL A   1      31.139  23.401  23.573  1.00  0.00     0.136 A 
ATOM     19  C   UNL A   1      30.408  25.049  25.685  1.00  0.00     0.004 A 
ATOM     20  C   UNL A   1      30.523  24.640  23.328  1.00  0.00     0.043 A 
ATOM     21  F   UNL A   1      31.492  22.661  22.512  1.00  0.00    -0.206 F 
ATOM     22  C   UNL A   1      30.123  25.461  24.388  1.00  0.00    -0.048 A 
ATOM     23  C   UNL A   1      29.469  26.791  24.154  1.00  0.00     0.044 C 
ENDBRANCH  13  16
ENDBRANCH   7  12
ENDBRANCH   4   7
ENDBRANCH   2   3
ENDBRANCH   1   2
BRANCH   1  24
ATOM     24  C   UNL A   1      34.037  28.240  25.521  1.00  0.00     0.023 C 
BRANCH  24  25
ATOM     25  C   UNL A   1      33.895  28.306  27.028  1.00  0.00     0.116 C 
BRANCH  25  26
ATOM     26  N   UNL A   1      33.713  29.661  27.517  1.00  0.00    -0.352 N 
ATOM     27  C   UNL A   1      34.609  30.457  28.189  1.00  0.00     0.251 C 
ATOM     28  H   UNL A   1      32.830  30.063  27.344  1.00  0.00     0.163 HD
ATOM     29  O   UNL A   1      34.256  31.533  28.645  1.00  0.00    -0.269 OA
BRANCH  27  30
ATOM     30  C   UNL A   1      35.992  29.970  28.384  1.00  0.00     0.039 A 
ATOM     31  C   UNL A   1      36.896  30.076  27.326  1.00  0.00     0.014 A 
ATOM     32  C   UNL A   1      36.401  29.455  29.618  1.00  0.00     0.014 A 
ATOM     33  C   UNL A   1      38.229  29.717  27.524  1.00  0.00     0.010 A 
ATOM     34  C   UNL A   1      37.745  29.181  29.837  1.00  0.00     0.010 A 
ATOM     35  C   UNL A   1      38.671  29.297  28.790  1.00  0.00    -0.014 A 
BRANCH  35  36
ATOM     36  C   UNL A   1      40.093  28.953  29.035  1.00  0.00     0.031 A 
ATOM     37  C   UNL A   1      41.025  29.991  29.597  1.00  0.00     0.074 A 
ATOM     38  C   UNL A   1      40.557  27.735  28.690  1.00  0.00     0.049 A 
ATOM     39  N   UNL A   1      42.313  29.917  29.809  1.00  0.00    -0.248 NA
ATOM     40  C   UNL A   1      40.436  31.298  29.936  1.00  0.00     0.031 C 
ATOM     41  C   UNL A   1      39.759  26.665  28.085  1.00  0.00     0.029 A 
ATOM     42  N   UNL A   1      41.813  27.194  28.789  1.00  0.00    -0.354 N 
ATOM     43  C   UNL A   1      42.690  31.167  30.285  1.00  0.00     0.074 A 
ATOM     44  C   UNL A   1      41.508  31.999  30.277  1.00  0.00     0.031 C 
ATOM     45  C   UNL A   1      40.541  25.590  27.888  1.00  0.00     0.029 A 
ATOM     46  C   UNL A   1      41.899  25.905  28.318  1.00  0.00     0.049 A 
ATOM     47  H   UNL A   1      42.581  27.684  29.163  1.00  0.00     0.167 HD
ATOM     48  C   UNL A   1      43.907  31.577  30.715  1.00  0.00     0.037 A 
ATOM     49  C   UNL A   1      42.957  25.075  28.237  1.00  0.00     0.037 A 
ATOM     50  C   UNL A   1      45.069  30.730  30.756  1.00  0.00     0.049 A 
ATOM     51  C   UNL A   1      44.295  25.546  28.739  1.00  0.00     0.074 A 
ATOM     52  C   UNL A   1      46.332  31.024  31.236  1.00  0.00     0.029 A 
ATOM     53  N   UNL A   1      45.108  29.419  30.302  1.00  0.00    -0.354 N 
ATOM     54  N   UNL A   1      44.620  26.711  29.247  1.00  0.00    -0.248 NA
ATOM     55  C   UNL A   1      45.408  24.589  28.664  1.00  0.00     0.031 C 
ATOM     56  C   UNL A   1      47.147  29.905  31.037  1.00  0.00     0.029 A 
ATOM     57  C   UNL A   1      46.379  28.897  30.475  1.00  0.00     0.049 A 
ATOM     58  H   UNL A   1      44.346  28.932  29.914  1.00  0.00     0.167 HD
ATOM     59  C   UNL A   1      45.968  26.620  29.576  1.00  0.00     0.074 A 
ATOM     60  C   UNL A   1      46.394  25.281  29.220  1.00  0.00     0.031 C 
ATOM     61  C   UNL A   1      46.780  27.558  30.123  1.00  0.00     0.037 A 
BRANCH  48  62
ATOM     62  C   UNL A   1      44.039  32.999  31.184  1.00  0.00     0.058 A 
ATOM     63  C   UNL A   1      43.793  33.361  32.518  1.00  0.00     0.135 A 
ATOM     64  C   UNL A   1      44.441  34.010  30.296  1.00  0.00     0.135 A 
ATOM     65  F   UNL A   1      43.388  32.438  33.406  1.00  0.00    -0.206 F 
ATOM     66  C   UNL A   1      43.915  34.677  32.949  1.00  0.00     0.059 A 
ATOM     67  C   UNL A   1      44.598  35.329  30.712  1.00  0.00     0.059 A 
ATOM     68  F   UNL A   1      44.686  33.720  29.008  1.00  0.00    -0.206 F 
ATOM     69  C   UNL A   1      44.318  35.655  32.039  1.00  0.00     0.060 A 
BRANCH  69  70
ATOM     70  S   UNL A   1      44.477  37.358  32.616  1.00  0.00     0.124 S 
ATOM     71  O   UNL A   1      43.816  38.092  31.540  1.00  0.00    -0.237 OA
ATOM     72  O   UNL A   1      43.766  37.324  33.889  1.00  0.00    -0.237 OA
ATOM     73  O   UNL A   1      45.920  37.551  32.712  1.00  0.00    -0.744 OA
ENDBRANCH  69  70
ENDBRANCH  48  62
BRANCH  49  74
ATOM     74  C   UNL A   1      42.787  23.706  27.680  1.00  0.00     0.058 A 
ATOM     75  C   UNL A   1      42.492  22.619  28.516  1.00  0.00     0.135 A 
ATOM     76  C   UNL A   1      42.901  23.460  26.303  1.00  0.00     0.135 A 
ATOM     77  F   UNL A   1      42.377  22.803  29.840  1.00  0.00    -0.206 F 
ATOM     78  C   UNL A   1      42.335  21.332  28.011  1.00  0.00     0.059 A 
ATOM     79  C   UNL A   1      42.723  22.187  25.770  1.00  0.00     0.059 A 
ATOM     80  F   UNL A   1      43.162  24.470  25.459  1.00  0.00    -0.206 F 
ATOM     81  C   UNL A   1      42.452  21.127  26.634  1.00  0.00     0.060 A 
BRANCH  81  82
ATOM     82  S   UNL A   1      42.202  19.461  25.983  1.00  0.00     0.124 S 
ATOM     83  O   UNL A   1      40.769  19.465  25.711  1.00  0.00    -0.237 OA
ATOM     84  O   UNL A   1      43.075  19.454  24.813  1.00  0.00    -0.237 OA
ATOM     85  O   UNL A   1      42.635  18.604  27.083  1.00  0.00    -0.744 OA
ENDBRANCH  81  82
ENDBRANCH  49  74
BRANCH  61  86
ATOM     86  C   UNL A   1      48.203  27.163  30.401  1.00  0.00     0.058 A 
ATOM     87  C   UNL A   1      49.234  27.438  29.490  1.00  0.00     0.135 A 
ATOM     88  C   UNL A   1      48.545  26.559  31.622  1.00  0.00     0.135 A 
ATOM     89  F   UNL A   1      48.959  28.009  28.308  1.00  0.00    -0.206 F 
ATOM     90  C   UNL A   1      50.556  27.108  29.772  1.00  0.00     0.059 A 
ATOM     91  C   UNL A   1      49.863  26.244  31.935  1.00  0.00     0.059 A 
ATOM     92  F   UNL A   1      47.596  26.285  32.530  1.00  0.00    -0.206 F 
ATOM     93  C   UNL A   1      50.860  26.513  30.999  1.00  0.00     0.060 A 
BRANCH  93  94
ATOM     94  S   UNL A   1      52.585  26.127  31.369  1.00  0.00     0.124 S 
ATOM     95  O   UNL A   1      53.186  26.171  30.041  1.00  0.00    -0.237 OA
ATOM     96  O   UNL A   1      52.961  27.210  32.271  1.00  0.00    -0.237 OA
ATOM     97  O   UNL A   1      52.512  24.805  31.983  1.00  0.00    -0.744 OA
ENDBRANCH  93  94
ENDBRANCH  61  86
ENDBRANCH  35  36
ENDBRANCH  27  30
ENDBRANCH  25  26
ENDBRANCH  24  25
ENDBRANCH   1  24
TORSDOF 19
ENDMDL
MODEL 3
REMARK VINA RESULT:     -10.6      1.246      2.394
REMARK SMILES COCC[C@H](NC(=O)c1ccc(C)cc1F)C(=O)NCCCCNC(=O)c1ccc(-c2c3nc(c(-c4c(F)cc(S(=O)(=O)[O-])cc4F)c4ccc([nH]4)c(-c4c(F)cc(S(=O)(=O)[O-])cc4F)c4nc(c(-c5c(F)cc(S(=O)(=O)[O-])cc5F)c5ccc2[nH]5)C=C4)C=C3)cc1
REMARK SMILES IDX 21 1 20 2 19 3 17 4 18 5 5 7 4 8 3 9 2 10 1 11 6 12 7 13
REMARK SMILES IDX 8 15 9 16 10 17 15 18 11 19 14 20 16 21 12 22 13 23 22 24
REMARK SMILES IDX 23 25 24 26 25 27 26 29 27 30 28 31 92 32 29 33 91 34 30 35
REMARK SMILES IDX 31 36 32 37 85 38 33 39 90 40 84 41 86 42 34 43 89 44 83 45
REMARK SMILES IDX 82 46 35 48 69 49 48 50 68 51 49 52 52 53 67 54 87 55 50 56
REMARK SMILES IDX 51 57 66 59 88 60 53 61 36 62 37 63 46 64 38 65 39 66 45 67
REMARK SMILES IDX 47 68 40 69 41 70 42 71 43 72 44 73 70 74 71 75 80 76 72 77
REMARK SMILES IDX 73 78 79 79 81 80 74 81 75 82 76 83 77 84 78 85 54 86 55 87
REMARK SMILES IDX 64 88 56 89 57 90 63 91 65 92 58 93 59 94 60 95 61 96 62 97
REMARK H PARENT 19 6 6 14 24 28 86 47 52 58
REMARK Flexibility Score: inf
ROOT
ATOM      1  C   UNL A   1      31.409  27.128  26.378  1.00  0.00     0.023 C 
ENDROOT
BRANCH   1   2
ATOM      2  C   UNL A   1      31.083  25.831  25.636  1.00  0.00     0.116 C 
BRANCH   2   3
ATOM      3  N   UNL A   1      30.390  24.824  26.418  1.00  0.00    -0.354 N 
ATOM      4  C   UNL A   1      30.711  23.523  26.684  1.00  0.00     0.242 C 
ATOM      5  O   UNL A   1      30.026  22.926  27.519  1.00  0.00    -0.273 OA
ATOM      6  H   UNL A   1      29.546  25.128  26.824  1.00  0.00     0.163 HD
BRANCH   4   7
ATOM      7  C   UNL A   1      31.969  22.858  26.096  1.00  0.00     0.173 C 
BRANCH   7   8
ATOM      8  C   UNL A   1      33.132  23.385  26.974  1.00  0.00     0.063 C 
BRANCH   8   9
ATOM      9  C   UNL A   1      34.138  24.253  26.240  1.00  0.00     0.162 C 
BRANCH   9  10
ATOM     10  O   UNL A   1      35.311  23.492  25.975  1.00  0.00    -0.385 OA
ATOM     11  C   UNL A   1      35.972  23.907  24.789  1.00  0.00     0.194 C 
ENDBRANCH   9  10
ENDBRANCH   8   9
ENDBRANCH   7   8
BRANCH   7  12
ATOM     12  N   UNL A   1      32.210  23.061  24.660  1.00  0.00    -0.340 N 
ATOM     13  C   UNL A   1      32.809  22.261  23.703  1.00  0.00     0.254 C 
ATOM     14  H   UNL A   1      31.887  23.925  24.317  1.00  0.00     0.164 HD
ATOM     15  O   UNL A   1      33.226  22.823  22.690  1.00  0.00    -0.269 OA
BRANCH  13  16
ATOM     16  C   UNL A   1      32.908  20.776  23.798  1.00  0.00     0.075 A 
ATOM     17  C   UNL A   1      32.175  19.936  22.963  1.00  0.00     0.017 A 
ATOM     18  C   UNL A   1      33.882  20.177  24.599  1.00  0.00     0.136 A 
ATOM     19  C   UNL A   1      32.318  18.547  22.983  1.00  0.00     0.004 A 
ATOM     20  C   UNL A   1      34.060  18.783  24.611  1.00  0.00     0.043 A 
ATOM     21  F   UNL A   1      34.685  20.913  25.381  1.00  0.00    -0.206 F 
ATOM     22  C   UNL A   1      33.254  17.953  23.823  1.00  0.00    -0.048 A 
ATOM     23  C   UNL A   1      33.427  16.463  23.812  1.00  0.00     0.044 C 
ENDBRANCH  13  16
ENDBRANCH   7  12
ENDBRANCH   4   7
ENDBRANCH   2   3
ENDBRANCH   1   2
BRANCH   1  24
ATOM     24  C   UNL A   1      32.742  27.794  26.046  1.00  0.00     0.023 C 
BRANCH  24  25
ATOM     25  C   UNL A   1      33.570  28.225  27.240  1.00  0.00     0.116 C 
BRANCH  25  26
ATOM     26  N   UNL A   1      33.418  29.635  27.550  1.00  0.00    -0.352 N 
ATOM     27  C   UNL A   1      34.339  30.496  28.095  1.00  0.00     0.251 C 
ATOM     28  H   UNL A   1      32.538  30.025  27.342  1.00  0.00     0.163 HD
ATOM     29  O   UNL A   1      34.011  31.629  28.412  1.00  0.00    -0.269 OA
BRANCH  27  30
ATOM     30  C   UNL A   1      35.718  30.015  28.327  1.00  0.00     0.039 A 
ATOM     31  C   UNL A   1      36.630  30.059  27.272  1.00  0.00     0.014 A 
ATOM     32  C   UNL A   1      36.115  29.567  29.591  1.00  0.00     0.014 A 
ATOM     33  C   UNL A   1      37.961  29.705  27.499  1.00  0.00     0.010 A 
ATOM     34  C   UNL A   1      37.457  29.299  29.835  1.00  0.00     0.010 A 
ATOM     35  C   UNL A   1      38.391  29.354  28.790  1.00  0.00    -0.014 A 
BRANCH  35  36
ATOM     36  C   UNL A   1      39.810  29.018  29.064  1.00  0.00     0.031 A 
ATOM     37  C   UNL A   1      40.723  30.061  29.650  1.00  0.00     0.074 A 
ATOM     38  C   UNL A   1      40.288  27.804  28.725  1.00  0.00     0.049 A 
ATOM     39  N   UNL A   1      42.006  29.994  29.889  1.00  0.00    -0.248 NA
ATOM     40  C   UNL A   1      40.119  31.363  29.980  1.00  0.00     0.031 C 
ATOM     41  C   UNL A   1      39.510  26.732  28.099  1.00  0.00     0.029 A 
ATOM     42  N   UNL A   1      41.546  27.271  28.850  1.00  0.00    -0.354 N 
ATOM     43  C   UNL A   1      42.365  31.244  30.377  1.00  0.00     0.074 A 
ATOM     44  C   UNL A   1      41.178  32.069  30.346  1.00  0.00     0.031 C 
ATOM     45  C   UNL A   1      40.303  25.662  27.916  1.00  0.00     0.029 A 
ATOM     46  C   UNL A   1      41.650  25.984  28.377  1.00  0.00     0.049 A 
ATOM     47  H   UNL A   1      42.303  27.764  29.242  1.00  0.00     0.167 HD
ATOM     48  C   UNL A   1      43.570  31.661  30.834  1.00  0.00     0.037 A 
ATOM     49  C   UNL A   1      42.715  25.161  28.315  1.00  0.00     0.037 A 
ATOM     50  C   UNL A   1      44.736  30.820  30.897  1.00  0.00     0.049 A 
ATOM     51  C   UNL A   1      44.038  25.638  28.848  1.00  0.00     0.074 A 
ATOM     52  C   UNL A   1      45.987  31.122  31.406  1.00  0.00     0.029 A 
ATOM     53  N   UNL A   1      44.793  29.512  30.440  1.00  0.00    -0.354 N 
ATOM     54  N   UNL A   1      44.345  26.804  29.366  1.00  0.00    -0.248 NA
ATOM     55  C   UNL A   1      45.159  24.690  28.793  1.00  0.00     0.031 C 
ATOM     56  C   UNL A   1      46.813  30.008  31.220  1.00  0.00     0.029 A 
ATOM     57  C   UNL A   1      46.064  28.997  30.639  1.00  0.00     0.049 A 
ATOM     58  H   UNL A   1      44.043  29.021  30.035  1.00  0.00     0.167 HD
ATOM     59  C   UNL A   1      45.686  26.721  29.723  1.00  0.00     0.074 A 
ATOM     60  C   UNL A   1      46.128  25.386  29.373  1.00  0.00     0.031 C 
ATOM     61  C   UNL A   1      46.480  27.662  30.291  1.00  0.00     0.037 A 
BRANCH  48  62
ATOM     62  C   UNL A   1      43.682  33.082  31.311  1.00  0.00     0.058 A 
ATOM     63  C   UNL A   1      43.587  33.413  32.672  1.00  0.00     0.135 A 
ATOM     64  C   UNL A   1      43.916  34.124  30.399  1.00  0.00     0.135 A 
ATOM     65  F   UNL A   1      43.346  32.458  33.585  1.00  0.00    -0.206 F 
ATOM     66  C   UNL A   1      43.690  34.729  33.109  1.00  0.00     0.059 A 
ATOM     67  C   UNL A   1      44.052  35.445  30.818  1.00  0.00     0.059 A 
ATOM     68  F   UNL A   1      44.013  33.865  29.086  1.00  0.00    -0.206 F 
ATOM     69  C   UNL A   1      43.923  35.739  32.175  1.00  0.00     0.060 A 
BRANCH  69  70
ATOM     70  S   UNL A   1      44.061  37.441  32.761  1.00  0.00     0.124 S 
ATOM     71  O   UNL A   1      43.918  38.188  31.514  1.00  0.00    -0.237 OA
ATOM     72  O   UNL A   1      42.942  37.542  33.692  1.00  0.00    -0.237 OA
ATOM     73  O   UNL A   1      45.386  37.484  33.370  1.00  0.00    -0.744 OA
ENDBRANCH  69  70
ENDBRANCH  48  62
BRANCH  49  74
ATOM     74  C   UNL A   1      42.565  23.793  27.751  1.00  0.00     0.058 A 
ATOM     75  C   UNL A   1      42.401  22.680  28.589  1.00  0.00     0.135 A 
ATOM     76  C   UNL A   1      42.568  23.573  26.364  1.00  0.00     0.135 A 
ATOM     77  F   UNL A   1      42.395  22.840  29.921  1.00  0.00    -0.206 F 
ATOM     78  C   UNL A   1      42.265  21.394  28.076  1.00  0.00     0.059 A 
ATOM     79  C   UNL A   1      42.409  22.299  25.826  1.00  0.00     0.059 A 
ATOM     80  F   UNL A   1      42.703  24.606  25.519  1.00  0.00    -0.206 F 
ATOM     81  C   UNL A   1      42.270  21.214  26.691  1.00  0.00     0.060 A 
BRANCH  81  82
ATOM     82  S   UNL A   1      42.047  19.547  26.034  1.00  0.00     0.124 S 
ATOM     83  O   UNL A   1      42.500  18.728  27.152  1.00  0.00    -0.237 OA
ATOM     84  O   UNL A   1      40.614  19.515  25.756  1.00  0.00    -0.237 OA
ATOM     85  O   UNL A   1      42.906  19.536  24.853  1.00  0.00    -0.744 OA
ENDBRANCH  81  82
ENDBRANCH  49  74
BRANCH  61  86
ATOM     86  C   UNL A   1      47.899  27.275  30.598  1.00  0.00     0.058 A 
ATOM     87  C   UNL A   1      48.229  26.535  31.744  1.00  0.00     0.135 A 
ATOM     88  C   UNL A   1      48.932  27.598  29.703  1.00  0.00     0.135 A 
ATOM     89  F   UNL A   1      47.280  26.207  32.634  1.00  0.00    -0.206 F 
ATOM     90  C   UNL A   1      49.540  26.144  32.001  1.00  0.00     0.059 A 
ATOM     91  C   UNL A   1      50.244  27.195  29.927  1.00  0.00     0.059 A 
ATOM     92  F   UNL A   1      48.665  28.296  28.587  1.00  0.00    -0.206 F 
ATOM     93  C   UNL A   1      50.539  26.477  31.084  1.00  0.00     0.060 A 
BRANCH  93  94
ATOM     94  S   UNL A   1      52.228  25.929  31.410  1.00  0.00     0.124 S 
ATOM     95  O   UNL A   1      52.001  24.612  31.995  1.00  0.00    -0.237 OA
ATOM     96  O   UNL A   1      52.822  25.937  30.077  1.00  0.00    -0.237 OA
ATOM     97  O   UNL A   1      52.743  26.943  32.325  1.00  0.00    -0.744 OA
ENDBRANCH  93  94
ENDBRANCH  61  86
ENDBRANCH  35  36
ENDBRANCH  27  30
ENDBRANCH  25  26
ENDBRANCH  24  25
ENDBRANCH   1  24
TORSDOF 19
ENDMDL
