MODEL 1
REMARK VINA RESULT:     -12.2      0.000      0.000
REMARK SMILES CC(=O)N/C(=C/c1c[nH]c(-c2ccccc2)n1)C(=O)NCCCCNC(=O)c1ccc(-c2c3nc(c(-c4c(F)cc(S(=O)(=O)[O-])cc4F)c4ccc([nH]4)c(-c4c(F)cc(S(=O)(=O)[O-])cc4F)c4nc(c(-c5c(F)cc(S(=O)(=O)[O-])cc5F)c5ccc2[nH]5)C=C4)C=C3)cc1
REMARK SMILES IDX 23 1 22 2 21 3 20 4 18 5 19 6 5 8 6 9 4 10 1 11 2 12 3 13
REMARK SMILES IDX 7 15 8 16 17 17 9 18 10 19 11 21 12 22 16 23 13 24 15 25
REMARK SMILES IDX 14 26 24 27 25 28 26 29 27 31 28 32 29 33 93 34 30 35 92 36
REMARK SMILES IDX 31 37 32 38 33 39 86 40 34 41 91 42 85 43 87 44 35 45 90 46
REMARK SMILES IDX 84 47 83 48 36 50 70 51 49 52 69 53 50 54 53 55 68 56 88 57
REMARK SMILES IDX 51 58 52 59 67 61 89 62 54 63 37 64 38 65 47 66 39 67 40 68
REMARK SMILES IDX 46 69 48 70 41 71 42 72 43 73 44 74 45 75 71 76 72 77 81 78
REMARK SMILES IDX 73 79 74 80 80 81 82 82 75 83 76 84 77 85 78 86 79 87 55 88
REMARK SMILES IDX 56 89 65 90 57 91 58 92 64 93 66 94 59 95 60 96 61 97 62 98
REMARK SMILES IDX 63 99
REMARK H PARENT 20 7 4 14 9 20 25 30 87 49 53 60
REMARK Flexibility Score: inf
ROOT
ATOM      1  C   UNL A   1      32.652  28.275  27.492  1.00  0.00     0.023 C 
ENDROOT
BRANCH   1   2
ATOM      2  C   UNL A   1      31.778  27.461  26.536  1.00  0.00     0.023 C 
BRANCH   2   3
ATOM      3  C   UNL A   1      31.980  25.950  26.519  1.00  0.00     0.116 C 
BRANCH   3   4
ATOM      4  N   UNL A   1      33.189  25.469  25.882  1.00  0.00    -0.351 N 
ATOM      5  C   UNL A   1      33.313  24.756  24.714  1.00  0.00     0.267 C 
ATOM      6  O   UNL A   1      34.420  24.699  24.175  1.00  0.00    -0.268 OA
ATOM      7  H   UNL A   1      34.031  25.681  26.346  1.00  0.00     0.163 HD
BRANCH   5   8
ATOM      8  C   UNL A   1      32.165  23.943  24.168  1.00  0.00     0.109 C 
ATOM      9  C   UNL A   1      31.184  24.497  23.419  1.00  0.00     0.062 C 
BRANCH   8  10
ATOM     10  N   UNL A   1      32.096  22.569  24.359  1.00  0.00    -0.322 N 
ATOM     11  C   UNL A   1      32.035  22.222  26.850  1.00  0.00     0.114 C 
ATOM     12  C   UNL A   1      32.037  21.737  25.434  1.00  0.00     0.221 C 
ATOM     13  O   UNL A   1      31.988  20.524  25.196  1.00  0.00    -0.275 OA
ATOM     14  H   UNL A   1      32.090  22.075  23.508  1.00  0.00     0.170 HD
ENDBRANCH   8  10
BRANCH   9  15
ATOM     15  C   UNL A   1      31.023  25.845  23.018  1.00  0.00     0.084 A 
ATOM     16  C   UNL A   1      31.681  26.464  21.984  1.00  0.00     0.112 A 
ATOM     17  N   UNL A   1      30.118  26.677  23.602  1.00  0.00    -0.229 NA
ATOM     18  N   UNL A   1      31.106  27.705  21.911  1.00  0.00    -0.344 N 
ATOM     19  C   UNL A   1      30.155  27.799  22.904  1.00  0.00     0.138 A 
ATOM     20  H   UNL A   1      31.333  28.408  21.261  1.00  0.00     0.168 HD
BRANCH  19  21
ATOM     21  C   UNL A   1      29.307  28.970  23.107  1.00  0.00     0.017 A 
ATOM     22  C   UNL A   1      27.920  28.914  22.913  1.00  0.00     0.012 A 
ATOM     23  C   UNL A   1      29.880  30.172  23.542  1.00  0.00     0.012 A 
ATOM     24  C   UNL A   1      27.123  30.033  23.161  1.00  0.00     0.001 A 
ATOM     25  C   UNL A   1      29.085  31.295  23.777  1.00  0.00     0.001 A 
ATOM     26  C   UNL A   1      27.705  31.222  23.594  1.00  0.00     0.000 A 
ENDBRANCH  19  21
ENDBRANCH   9  15
ENDBRANCH   5   8
ENDBRANCH   3   4
ENDBRANCH   2   3
ENDBRANCH   1   2
BRANCH   1  27
ATOM     27  C   UNL A   1      33.458  29.435  26.909  1.00  0.00     0.116 C 
BRANCH  27  28
ATOM     28  N   UNL A   1      33.544  30.617  27.755  1.00  0.00    -0.352 N 
ATOM     29  C   UNL A   1      34.603  31.058  28.524  1.00  0.00     0.251 C 
ATOM     30  H   UNL A   1      32.736  31.179  27.782  1.00  0.00     0.163 HD
ATOM     31  O   UNL A   1      34.495  32.113  29.148  1.00  0.00    -0.269 OA
BRANCH  29  32
ATOM     32  C   UNL A   1      35.844  30.251  28.644  1.00  0.00     0.039 A 
ATOM     33  C   UNL A   1      36.668  30.118  27.518  1.00  0.00     0.014 A 
ATOM     34  C   UNL A   1      36.234  29.675  29.855  1.00  0.00     0.014 A 
ATOM     35  C   UNL A   1      37.940  29.550  27.646  1.00  0.00     0.010 A 
ATOM     36  C   UNL A   1      37.522  29.162  29.998  1.00  0.00     0.010 A 
ATOM     37  C   UNL A   1      38.404  29.145  28.907  1.00  0.00    -0.014 A 
BRANCH  37  38
ATOM     38  C   UNL A   1      39.841  28.866  29.157  1.00  0.00     0.031 A 
ATOM     39  C   UNL A   1      40.781  29.956  29.579  1.00  0.00     0.074 A 
ATOM     40  C   UNL A   1      40.313  27.641  28.845  1.00  0.00     0.049 A 
ATOM     41  N   UNL A   1      42.082  29.917  29.710  1.00  0.00    -0.248 NA
ATOM     42  C   UNL A   1      40.185  31.269  29.869  1.00  0.00     0.031 C 
ATOM     43  C   UNL A   1      39.498  26.523  28.358  1.00  0.00     0.029 A 
ATOM     44  N   UNL A   1      41.590  27.138  28.851  1.00  0.00    -0.354 N 
ATOM     45  C   UNL A   1      42.465  31.196  30.092  1.00  0.00     0.074 A 
ATOM     46  C   UNL A   1      41.260  31.999  30.137  1.00  0.00     0.031 C 
ATOM     47  C   UNL A   1      40.294  25.472  28.106  1.00  0.00     0.029 A 
ATOM     48  C   UNL A   1      41.676  25.847  28.379  1.00  0.00     0.049 A 
ATOM     49  H   UNL A   1      42.370  27.650  29.165  1.00  0.00     0.167 HD
ATOM     50  C   UNL A   1      43.707  31.652  30.390  1.00  0.00     0.037 A 
ATOM     51  C   UNL A   1      42.747  25.059  28.170  1.00  0.00     0.037 A 
ATOM     52  C   UNL A   1      44.897  30.841  30.332  1.00  0.00     0.049 A 
ATOM     53  C   UNL A   1      44.112  25.583  28.511  1.00  0.00     0.074 A 
ATOM     54  C   UNL A   1      46.196  31.191  30.659  1.00  0.00     0.029 A 
ATOM     55  N   UNL A   1      44.936  29.518  29.910  1.00  0.00    -0.354 N 
ATOM     56  N   UNL A   1      44.448  26.773  28.949  1.00  0.00    -0.248 NA
ATOM     57  C   UNL A   1      45.243  24.661  28.344  1.00  0.00     0.031 C 
ATOM     58  C   UNL A   1      47.024  30.092  30.401  1.00  0.00     0.029 A 
ATOM     59  C   UNL A   1      46.236  29.043  29.957  1.00  0.00     0.049 A 
ATOM     60  H   UNL A   1      44.154  28.996  29.620  1.00  0.00     0.167 HD
ATOM     61  C   UNL A   1      45.822  26.732  29.147  1.00  0.00     0.074 A 
ATOM     62  C   UNL A   1      46.256  25.400  28.777  1.00  0.00     0.031 C 
ATOM     63  C   UNL A   1      46.646  27.706  29.602  1.00  0.00     0.037 A 
BRANCH  50  64
ATOM     64  C   UNL A   1      43.841  33.090  30.807  1.00  0.00     0.058 A 
ATOM     65  C   UNL A   1      43.746  33.475  32.155  1.00  0.00     0.135 A 
ATOM     66  C   UNL A   1      44.107  34.094  29.860  1.00  0.00     0.135 A 
ATOM     67  F   UNL A   1      43.485  32.559  33.101  1.00  0.00    -0.206 F 
ATOM     68  C   UNL A   1      43.878  34.804  32.546  1.00  0.00     0.059 A 
ATOM     69  C   UNL A   1      44.266  35.427  30.231  1.00  0.00     0.059 A 
ATOM     70  F   UNL A   1      44.211  33.784  28.559  1.00  0.00    -0.206 F 
ATOM     71  C   UNL A   1      44.134  35.774  31.575  1.00  0.00     0.060 A 
BRANCH  71  72
ATOM     72  S   UNL A   1      44.294  37.495  32.099  1.00  0.00     0.124 S 
ATOM     73  O   UNL A   1      43.862  38.204  30.898  1.00  0.00    -0.237 OA
ATOM     74  O   UNL A   1      43.385  37.563  33.237  1.00  0.00    -0.237 OA
ATOM     75  O   UNL A   1      45.711  37.620  32.425  1.00  0.00    -0.744 OA
ENDBRANCH  71  72
ENDBRANCH  50  64
BRANCH  51  76
ATOM     76  C   UNL A   1      42.559  23.681  27.647  1.00  0.00     0.058 A 
ATOM     77  C   UNL A   1      42.538  23.434  26.266  1.00  0.00     0.135 A 
ATOM     78  C   UNL A   1      42.440  22.580  28.510  1.00  0.00     0.135 A 
ATOM     79  F   UNL A   1      42.646  24.454  25.402  1.00  0.00    -0.206 F 
ATOM     80  C   UNL A   1      42.396  22.147  25.758  1.00  0.00     0.059 A 
ATOM     81  C   UNL A   1      42.319  21.281  28.026  1.00  0.00     0.059 A 
ATOM     82  F   UNL A   1      42.478  22.761  29.840  1.00  0.00    -0.206 F 
ATOM     83  C   UNL A   1      42.291  21.076  26.646  1.00  0.00     0.060 A 
BRANCH  83  84
ATOM     84  S   UNL A   1      42.173  19.403  25.974  1.00  0.00     0.124 S 
ATOM     85  O   UNL A   1      40.739  19.278  25.748  1.00  0.00    -0.237 OA
ATOM     86  O   UNL A   1      43.004  19.493  24.778  1.00  0.00    -0.237 OA
ATOM     87  O   UNL A   1      42.720  18.573  27.044  1.00  0.00    -0.744 OA
ENDBRANCH  83  84
ENDBRANCH  51  76
BRANCH  63  88
ATOM     88  C   UNL A   1      48.096  27.357  29.781  1.00  0.00     0.058 A 
ATOM     89  C   UNL A   1      49.056  27.660  28.806  1.00  0.00     0.135 A 
ATOM     90  C   UNL A   1      48.535  26.769  30.979  1.00  0.00     0.135 A 
ATOM     91  F   UNL A   1      48.685  28.212  27.640  1.00  0.00    -0.206 F 
ATOM     92  C   UNL A   1      50.405  27.383  29.007  1.00  0.00     0.059 A 
ATOM     93  C   UNL A   1      49.881  26.505  31.210  1.00  0.00     0.059 A 
ATOM     94  F   UNL A   1      47.655  26.465  31.946  1.00  0.00    -0.206 F 
ATOM     95  C   UNL A   1      50.808  26.810  30.215  1.00  0.00     0.060 A 
BRANCH  95  96
ATOM     96  S   UNL A   1      52.567  26.507  30.487  1.00  0.00     0.124 S 
ATOM     97  O   UNL A   1      52.532  25.419  31.457  1.00  0.00    -0.237 OA
ATOM     98  O   UNL A   1      53.034  26.152  29.150  1.00  0.00    -0.237 OA
ATOM     99  O   UNL A   1      53.056  27.787  30.995  1.00  0.00    -0.744 OA
ENDBRANCH  95  96
ENDBRANCH  63  88
ENDBRANCH  37  38
ENDBRANCH  29  32
ENDBRANCH  27  28
ENDBRANCH   1  27
TORSDOF 17
ENDMDL
MODEL 2
REMARK VINA RESULT:     -12.1      1.389      3.884
REMARK SMILES CC(=O)N/C(=C/c1c[nH]c(-c2ccccc2)n1)C(=O)NCCCCNC(=O)c1ccc(-c2c3nc(c(-c4c(F)cc(S(=O)(=O)[O-])cc4F)c4ccc([nH]4)c(-c4c(F)cc(S(=O)(=O)[O-])cc4F)c4nc(c(-c5c(F)cc(S(=O)(=O)[O-])cc5F)c5ccc2[nH]5)C=C4)C=C3)cc1
REMARK SMILES IDX 23 1 22 2 21 3 20 4 18 5 19 6 5 8 6 9 4 10 1 11 2 12 3 13
REMARK SMILES IDX 7 15 8 16 17 17 9 18 10 19 11 21 12 22 16 23 13 24 15 25
REMARK SMILES IDX 14 26 24 27 25 28 26 29 27 31 28 32 29 33 93 34 30 35 92 36
REMARK SMILES IDX 31 37 32 38 33 39 86 40 34 41 91 42 85 43 87 44 35 45 90 46
REMARK SMILES IDX 84 47 83 48 36 50 70 51 49 52 69 53 50 54 53 55 68 56 88 57
REMARK SMILES IDX 51 58 52 59 67 61 89 62 54 63 37 64 38 65 47 66 39 67 40 68
REMARK SMILES IDX 46 69 48 70 41 71 42 72 43 73 44 74 45 75 71 76 72 77 81 78
REMARK SMILES IDX 73 79 74 80 80 81 82 82 75 83 76 84 77 85 78 86 79 87 55 88
REMARK SMILES IDX 56 89 65 90 57 91 58 92 64 93 66 94 59 95 60 96 61 97 62 98
REMARK SMILES IDX 63 99
REMARK H PARENT 20 7 4 14 9 20 25 30 87 49 53 60
REMARK Flexibility Score: inf
ROOT
ATOM      1  C   UNL A   1      32.647  28.414  27.539  1.00  0.00     0.023 C 
ENDROOT
BRANCH   1   2
ATOM      2  C   UNL A   1      31.675  27.699  26.599  1.00  0.00     0.023 C 
BRANCH   2   3
ATOM      3  C   UNL A   1      31.782  26.181  26.505  1.00  0.00     0.116 C 
BRANCH   3   4
ATOM      4  N   UNL A   1      32.978  25.659  25.874  1.00  0.00    -0.351 N 
ATOM      5  C   UNL A   1      33.203  25.417  24.540  1.00  0.00     0.267 C 
ATOM      6  O   UNL A   1      34.364  25.264  24.158  1.00  0.00    -0.268 OA
ATOM      7  H   UNL A   1      33.724  25.450  26.480  1.00  0.00     0.163 HD
BRANCH   5   8
ATOM      8  C   UNL A   1      32.058  25.204  23.579  1.00  0.00     0.109 C 
ATOM      9  C   UNL A   1      31.471  23.996  23.417  1.00  0.00     0.062 C 
BRANCH   8  10
ATOM     10  N   UNL A   1      31.512  26.259  22.860  1.00  0.00    -0.322 N 
ATOM     11  C   UNL A   1      29.268  26.715  23.904  1.00  0.00     0.114 C 
ATOM     12  C   UNL A   1      30.355  26.973  22.907  1.00  0.00     0.221 C 
ATOM     13  O   UNL A   1      30.221  27.871  22.065  1.00  0.00    -0.275 OA
ATOM     14  H   UNL A   1      32.108  26.566  22.140  1.00  0.00     0.170 HD
ENDBRANCH   8  10
BRANCH   9  15
ATOM     15  C   UNL A   1      31.775  22.766  24.049  1.00  0.00     0.084 A 
ATOM     16  C   UNL A   1      31.384  22.388  25.310  1.00  0.00     0.112 A 
ATOM     17  N   UNL A   1      32.459  21.771  23.421  1.00  0.00    -0.229 NA
ATOM     18  N   UNL A   1      31.806  21.091  25.422  1.00  0.00    -0.344 N 
ATOM     19  C   UNL A   1      32.450  20.744  24.254  1.00  0.00     0.138 A 
ATOM     20  H   UNL A   1      31.672  20.505  26.202  1.00  0.00     0.168 HD
BRANCH  19  21
ATOM     21  C   UNL A   1      33.000  19.417  23.993  1.00  0.00     0.017 A 
ATOM     22  C   UNL A   1      32.422  18.554  23.053  1.00  0.00     0.012 A 
ATOM     23  C   UNL A   1      34.157  19.005  24.666  1.00  0.00     0.012 A 
ATOM     24  C   UNL A   1      32.995  17.309  22.785  1.00  0.00     0.001 A 
ATOM     25  C   UNL A   1      34.723  17.755  24.408  1.00  0.00     0.001 A 
ATOM     26  C   UNL A   1      34.145  16.911  23.462  1.00  0.00     0.000 A 
ENDBRANCH  19  21
ENDBRANCH   9  15
ENDBRANCH   5   8
ENDBRANCH   3   4
ENDBRANCH   2   3
ENDBRANCH   1   2
BRANCH   1  27
ATOM     27  C   UNL A   1      33.489  29.553  26.963  1.00  0.00     0.116 C 
BRANCH  27  28
ATOM     28  N   UNL A   1      33.567  30.747  27.792  1.00  0.00    -0.352 N 
ATOM     29  C   UNL A   1      34.620  31.202  28.561  1.00  0.00     0.251 C 
ATOM     30  H   UNL A   1      32.756  31.307  27.808  1.00  0.00     0.163 HD
ATOM     31  O   UNL A   1      34.506  32.266  29.169  1.00  0.00    -0.269 OA
BRANCH  29  32
ATOM     32  C   UNL A   1      35.863  30.400  28.698  1.00  0.00     0.039 A 
ATOM     33  C   UNL A   1      36.712  30.284  27.590  1.00  0.00     0.014 A 
ATOM     34  C   UNL A   1      36.230  29.813  29.911  1.00  0.00     0.014 A 
ATOM     35  C   UNL A   1      37.984  29.722  27.738  1.00  0.00     0.010 A 
ATOM     36  C   UNL A   1      37.517  29.305  30.076  1.00  0.00     0.010 A 
ATOM     37  C   UNL A   1      38.423  29.306  29.005  1.00  0.00    -0.014 A 
BRANCH  37  38
ATOM     38  C   UNL A   1      39.856  29.031  29.282  1.00  0.00     0.031 A 
ATOM     39  C   UNL A   1      40.778  30.120  29.746  1.00  0.00     0.074 A 
ATOM     40  C   UNL A   1      40.344  27.816  28.959  1.00  0.00     0.049 A 
ATOM     41  N   UNL A   1      42.076  30.087  29.907  1.00  0.00    -0.248 NA
ATOM     42  C   UNL A   1      40.165  31.423  30.048  1.00  0.00     0.031 C 
ATOM     43  C   UNL A   1      39.548  26.701  28.432  1.00  0.00     0.029 A 
ATOM     44  N   UNL A   1      41.624  27.321  28.985  1.00  0.00    -0.354 N 
ATOM     45  C   UNL A   1      42.441  31.361  30.322  1.00  0.00     0.074 A 
ATOM     46  C   UNL A   1      41.229  32.155  30.354  1.00  0.00     0.031 C 
ATOM     47  C   UNL A   1      40.357  25.661  28.178  1.00  0.00     0.029 A 
ATOM     48  C   UNL A   1      41.730  26.041  28.491  1.00  0.00     0.049 A 
ATOM     49  H   UNL A   1      42.393  27.833  29.326  1.00  0.00     0.167 HD
ATOM     50  C   UNL A   1      43.672  31.819  30.657  1.00  0.00     0.037 A 
ATOM     51  C   UNL A   1      42.811  25.263  28.292  1.00  0.00     0.037 A 
ATOM     52  C   UNL A   1      44.869  31.018  30.612  1.00  0.00     0.049 A 
ATOM     53  C   UNL A   1      44.164  25.791  28.674  1.00  0.00     0.074 A 
ATOM     54  C   UNL A   1      46.157  31.370  30.975  1.00  0.00     0.029 A 
ATOM     55  N   UNL A   1      44.927  29.704  30.166  1.00  0.00    -0.354 N 
ATOM     56  N   UNL A   1      44.481  26.974  29.142  1.00  0.00    -0.248 NA
ATOM     57  C   UNL A   1      45.305  24.879  28.517  1.00  0.00     0.031 C 
ATOM     58  C   UNL A   1      46.999  30.282  30.716  1.00  0.00     0.029 A 
ATOM     59  C   UNL A   1      46.229  29.237  30.234  1.00  0.00     0.049 A 
ATOM     60  H   UNL A   1      44.156  29.181  29.848  1.00  0.00     0.167 HD
ATOM     61  C   UNL A   1      45.850  26.938  29.371  1.00  0.00     0.074 A 
ATOM     62  C   UNL A   1      46.303  25.617  28.986  1.00  0.00     0.031 C 
ATOM     63  C   UNL A   1      46.657  27.909  29.864  1.00  0.00     0.037 A 
BRANCH  50  64
ATOM     64  C   UNL A   1      43.786  33.251  31.104  1.00  0.00     0.058 A 
ATOM     65  C   UNL A   1      43.836  33.592  32.466  1.00  0.00     0.135 A 
ATOM     66  C   UNL A   1      43.887  34.293  30.167  1.00  0.00     0.135 A 
ATOM     67  F   UNL A   1      43.736  32.637  33.405  1.00  0.00    -0.206 F 
ATOM     68  C   UNL A   1      43.950  34.914  32.884  1.00  0.00     0.059 A 
ATOM     69  C   UNL A   1      44.025  35.622  30.563  1.00  0.00     0.059 A 
ATOM     70  F   UNL A   1      43.848  34.025  28.853  1.00  0.00    -0.206 F 
ATOM     71  C   UNL A   1      44.040  35.923  31.923  1.00  0.00     0.060 A 
BRANCH  71  72
ATOM     72  S   UNL A   1      44.180  37.635  32.483  1.00  0.00     0.124 S 
ATOM     73  O   UNL A   1      43.165  37.680  33.530  1.00  0.00    -0.237 OA
ATOM     74  O   UNL A   1      45.563  37.704  32.939  1.00  0.00    -0.237 OA
ATOM     75  O   UNL A   1      43.879  38.410  31.283  1.00  0.00    -0.744 OA
ENDBRANCH  71  72
ENDBRANCH  50  64
BRANCH  51  76
ATOM     76  C   UNL A   1      42.645  23.895  27.738  1.00  0.00     0.058 A 
ATOM     77  C   UNL A   1      42.552  23.686  26.355  1.00  0.00     0.135 A 
ATOM     78  C   UNL A   1      42.619  22.766  28.573  1.00  0.00     0.135 A 
ATOM     79  F   UNL A   1      42.569  24.734  25.517  1.00  0.00    -0.206 F 
ATOM     80  C   UNL A   1      42.429  22.409  25.817  1.00  0.00     0.059 A 
ATOM     81  C   UNL A   1      42.520  21.477  28.057  1.00  0.00     0.059 A 
ATOM     82  F   UNL A   1      42.729  22.910  29.903  1.00  0.00    -0.206 F 
ATOM     83  C   UNL A   1      42.418  21.310  26.676  1.00  0.00     0.060 A 
BRANCH  83  84
ATOM     84  S   UNL A   1      42.325  19.654  25.961  1.00  0.00     0.124 S 
ATOM     85  O   UNL A   1      40.979  19.650  25.403  1.00  0.00    -0.237 OA
ATOM     86  O   UNL A   1      43.418  19.674  24.995  1.00  0.00    -0.237 OA
ATOM     87  O   UNL A   1      42.535  18.780  27.112  1.00  0.00    -0.744 OA
ENDBRANCH  83  84
ENDBRANCH  51  76
BRANCH  63  88
ATOM     88  C   UNL A   1      48.104  27.566  30.070  1.00  0.00     0.058 A 
ATOM     89  C   UNL A   1      49.089  27.919  29.136  1.00  0.00     0.135 A 
ATOM     90  C   UNL A   1      48.516  26.933  31.254  1.00  0.00     0.135 A 
ATOM     91  F   UNL A   1      48.745  28.516  27.984  1.00  0.00    -0.206 F 
ATOM     92  C   UNL A   1      50.435  27.647  29.364  1.00  0.00     0.059 A 
ATOM     93  C   UNL A   1      49.857  26.672  31.513  1.00  0.00     0.059 A 
ATOM     94  F   UNL A   1      47.612  26.580  32.182  1.00  0.00    -0.206 F 
ATOM     95  C   UNL A   1      50.809  27.028  30.559  1.00  0.00     0.060 A 
BRANCH  95  96
ATOM     96  S   UNL A   1      52.562  26.730  30.868  1.00  0.00     0.124 S 
ATOM     97  O   UNL A   1      52.516  25.950  32.099  1.00  0.00    -0.237 OA
ATOM     98  O   UNL A   1      52.973  26.004  29.670  1.00  0.00    -0.237 OA
ATOM     99  O   UNL A   1      53.116  28.076  30.998  1.00  0.00    -0.744 OA
ENDBRANCH  95  96
ENDBRANCH  63  88
ENDBRANCH  37  38
ENDBRANCH  29  32
ENDBRANCH  27  28
ENDBRANCH   1  27
TORSDOF 17
ENDMDL
MODEL 3
REMARK VINA RESULT:     -12.0      1.494      3.899
REMARK SMILES CC(=O)N/C(=C/c1c[nH]c(-c2ccccc2)n1)C(=O)NCCCCNC(=O)c1ccc(-c2c3nc(c(-c4c(F)cc(S(=O)(=O)[O-])cc4F)c4ccc([nH]4)c(-c4c(F)cc(S(=O)(=O)[O-])cc4F)c4nc(c(-c5c(F)cc(S(=O)(=O)[O-])cc5F)c5ccc2[nH]5)C=C4)C=C3)cc1
REMARK SMILES IDX 23 1 22 2 21 3 20 4 18 5 19 6 5 8 6 9 4 10 1 11 2 12 3 13
REMARK SMILES IDX 7 15 8 16 17 17 9 18 10 19 11 21 12 22 16 23 13 24 15 25
REMARK SMILES IDX 14 26 24 27 25 28 26 29 27 31 28 32 29 33 93 34 30 35 92 36
REMARK SMILES IDX 31 37 32 38 33 39 86 40 34 41 91 42 85 43 87 44 35 45 90 46
REMARK SMILES IDX 84 47 83 48 36 50 70 51 49 52 69 53 50 54 53 55 68 56 88 57
REMARK SMILES IDX 51 58 52 59 67 61 89 62 54 63 37 64 38 65 47 66 39 67 40 68
REMARK SMILES IDX 46 69 48 70 41 71 42 72 43 73 44 74 45 75 71 76 72 77 81 78
REMARK SMILES IDX 73 79 74 80 80 81 82 82 75 83 76 84 77 85 78 86 79 87 55 88
REMARK SMILES IDX 56 89 65 90 57 91 58 92 64 93 66 94 59 95 60 96 61 97 62 98
REMARK SMILES IDX 63 99
REMARK H PARENT 20 7 4 14 9 20 25 30 87 49 53 60
REMARK Flexibility Score: inf
ROOT
ATOM      1  C   UNL A   1      31.951  28.799  27.129  1.00  0.00     0.023 C 
ENDROOT
BRANCH   1   2
ATOM      2  C   UNL A   1      31.786  27.278  27.081  1.00  0.00     0.023 C 
BRANCH   2   3
ATOM      3  C   UNL A   1      31.980  26.595  25.733  1.00  0.00     0.116 C 
BRANCH   3   4
ATOM      4  N   UNL A   1      30.785  26.080  25.095  1.00  0.00    -0.351 N 
ATOM      5  C   UNL A   1      30.567  25.837  23.761  1.00  0.00     0.267 C 
ATOM      6  O   UNL A   1      29.615  25.123  23.441  1.00  0.00    -0.268 OA
ATOM      7  H   UNL A   1      30.032  25.879  25.696  1.00  0.00     0.163 HD
BRANCH   5   8
ATOM      8  C   UNL A   1      31.380  26.531  22.695  1.00  0.00     0.109 C 
ATOM      9  C   UNL A   1      32.573  26.051  22.274  1.00  0.00     0.062 C 
BRANCH   8  10
ATOM     10  N   UNL A   1      30.908  27.667  22.051  1.00  0.00    -0.322 N 
ATOM     11  C   UNL A   1      30.508  29.369  23.860  1.00  0.00     0.114 C 
ATOM     12  C   UNL A   1      30.513  28.911  22.435  1.00  0.00     0.221 C 
ATOM     13  O   UNL A   1      30.139  29.677  21.538  1.00  0.00    -0.275 OA
ATOM     14  H   UNL A   1      30.843  27.542  21.077  1.00  0.00     0.170 HD
ENDBRANCH   8  10
BRANCH   9  15
ATOM     15  C   UNL A   1      33.270  24.895  22.703  1.00  0.00     0.084 A 
ATOM     16  C   UNL A   1      33.068  23.615  22.249  1.00  0.00     0.112 A 
ATOM     17  N   UNL A   1      34.292  24.950  23.599  1.00  0.00    -0.229 NA
ATOM     18  N   UNL A   1      34.048  22.880  22.860  1.00  0.00    -0.344 N 
ATOM     19  C   UNL A   1      34.779  23.723  23.669  1.00  0.00     0.138 A 
ATOM     20  H   UNL A   1      34.204  21.916  22.741  1.00  0.00     0.168 HD
BRANCH  19  21
ATOM     21  C   UNL A   1      35.937  23.297  24.449  1.00  0.00     0.017 A 
ATOM     22  C   UNL A   1      36.597  22.090  24.185  1.00  0.00     0.012 A 
ATOM     23  C   UNL A   1      36.431  24.128  25.463  1.00  0.00     0.012 A 
ATOM     24  C   UNL A   1      37.732  21.726  24.912  1.00  0.00     0.001 A 
ATOM     25  C   UNL A   1      37.558  23.759  26.199  1.00  0.00     0.001 A 
ATOM     26  C   UNL A   1      38.213  22.562  25.918  1.00  0.00     0.000 A 
ENDBRANCH  19  21
ENDBRANCH   9  15
ENDBRANCH   5   8
ENDBRANCH   3   4
ENDBRANCH   2   3
ENDBRANCH   1   2
BRANCH   1  27
ATOM     27  C   UNL A   1      33.370  29.360  27.213  1.00  0.00     0.116 C 
BRANCH  27  28
ATOM     28  N   UNL A   1      33.496  30.620  27.932  1.00  0.00    -0.352 N 
ATOM     29  C   UNL A   1      34.594  31.136  28.591  1.00  0.00     0.251 C 
ATOM     30  H   UNL A   1      32.687  31.182  27.950  1.00  0.00     0.163 HD
ATOM     31  O   UNL A   1      34.516  32.248  29.113  1.00  0.00    -0.269 OA
BRANCH  29  32
ATOM     32  C   UNL A   1      35.846  30.346  28.719  1.00  0.00     0.039 A 
ATOM     33  C   UNL A   1      36.680  30.227  27.600  1.00  0.00     0.014 A 
ATOM     34  C   UNL A   1      36.234  29.772  29.931  1.00  0.00     0.014 A 
ATOM     35  C   UNL A   1      37.959  29.677  27.736  1.00  0.00     0.010 A 
ATOM     36  C   UNL A   1      37.527  29.276  30.083  1.00  0.00     0.010 A 
ATOM     37  C   UNL A   1      38.418  29.275  29.000  1.00  0.00    -0.014 A 
BRANCH  37  38
ATOM     38  C   UNL A   1      39.857  29.014  29.260  1.00  0.00     0.031 A 
ATOM     39  C   UNL A   1      40.775  30.113  29.709  1.00  0.00     0.074 A 
ATOM     40  C   UNL A   1      40.352  27.802  28.935  1.00  0.00     0.049 A 
ATOM     41  N   UNL A   1      42.075  30.092  29.853  1.00  0.00    -0.248 NA
ATOM     42  C   UNL A   1      40.154  31.411  30.013  1.00  0.00     0.031 C 
ATOM     43  C   UNL A   1      39.560  26.678  28.422  1.00  0.00     0.029 A 
ATOM     44  N   UNL A   1      41.636  27.319  28.947  1.00  0.00    -0.354 N 
ATOM     45  C   UNL A   1      42.433  31.371  30.259  1.00  0.00     0.074 A 
ATOM     46  C   UNL A   1      41.215  32.154  30.303  1.00  0.00     0.031 C 
ATOM     47  C   UNL A   1      40.375  25.645  28.162  1.00  0.00     0.029 A 
ATOM     48  C   UNL A   1      41.748  26.038  28.455  1.00  0.00     0.049 A 
ATOM     49  H   UNL A   1      42.405  27.839  29.276  1.00  0.00     0.167 HD
ATOM     50  C   UNL A   1      43.664  31.841  30.577  1.00  0.00     0.037 A 
ATOM     51  C   UNL A   1      42.834  25.269  28.246  1.00  0.00     0.037 A 
ATOM     52  C   UNL A   1      44.868  31.051  30.519  1.00  0.00     0.049 A 
ATOM     53  C   UNL A   1      44.187  25.810  28.609  1.00  0.00     0.074 A 
ATOM     54  C   UNL A   1      46.158  31.416  30.865  1.00  0.00     0.029 A 
ATOM     55  N   UNL A   1      44.933  29.736  30.077  1.00  0.00    -0.354 N 
ATOM     56  N   UNL A   1      44.499  26.998  29.069  1.00  0.00    -0.248 NA
ATOM     57  C   UNL A   1      45.334  24.909  28.440  1.00  0.00     0.031 C 
ATOM     58  C   UNL A   1      47.006  30.335  30.599  1.00  0.00     0.029 A 
ATOM     59  C   UNL A   1      46.239  29.281  30.130  1.00  0.00     0.049 A 
ATOM     60  H   UNL A   1      44.162  29.205  29.771  1.00  0.00     0.167 HD
ATOM     61  C   UNL A   1      45.871  26.976  29.281  1.00  0.00     0.074 A 
ATOM     62  C   UNL A   1      46.330  25.657  28.895  1.00  0.00     0.031 C 
ATOM     63  C   UNL A   1      46.675  27.956  29.760  1.00  0.00     0.037 A 
BRANCH  50  64
ATOM     64  C   UNL A   1      43.772  33.276  31.017  1.00  0.00     0.058 A 
ATOM     65  C   UNL A   1      43.531  33.654  32.348  1.00  0.00     0.135 A 
ATOM     66  C   UNL A   1      44.156  34.281  30.114  1.00  0.00     0.135 A 
ATOM     67  F   UNL A   1      43.153  32.736  33.253  1.00  0.00    -0.206 F 
ATOM     68  C   UNL A   1      43.637  34.978  32.762  1.00  0.00     0.059 A 
ATOM     69  C   UNL A   1      44.291  35.609  30.510  1.00  0.00     0.059 A 
ATOM     70  F   UNL A   1      44.402  33.977  28.830  1.00  0.00    -0.206 F 
ATOM     71  C   UNL A   1      44.014  35.950  31.833  1.00  0.00     0.060 A 
BRANCH  71  72
ATOM     72  S   UNL A   1      44.139  37.665  32.385  1.00  0.00     0.124 S 
ATOM     73  O   UNL A   1      43.293  37.649  33.574  1.00  0.00    -0.237 OA
ATOM     74  O   UNL A   1      45.569  37.814  32.627  1.00  0.00    -0.237 OA
ATOM     75  O   UNL A   1      43.616  38.425  31.254  1.00  0.00    -0.744 OA
ENDBRANCH  71  72
ENDBRANCH  50  64
BRANCH  51  76
ATOM     76  C   UNL A   1      42.673  23.897  27.699  1.00  0.00     0.058 A 
ATOM     77  C   UNL A   1      42.583  22.790  28.555  1.00  0.00     0.135 A 
ATOM     78  C   UNL A   1      42.560  23.668  26.319  1.00  0.00     0.135 A 
ATOM     79  F   UNL A   1      42.686  22.959  29.882  1.00  0.00    -0.206 F 
ATOM     80  C   UNL A   1      42.398  21.502  28.063  1.00  0.00     0.059 A 
ATOM     81  C   UNL A   1      42.353  22.392  25.804  1.00  0.00     0.059 A 
ATOM     82  F   UNL A   1      42.616  24.698  25.459  1.00  0.00    -0.206 F 
ATOM     83  C   UNL A   1      42.280  21.313  26.686  1.00  0.00     0.060 A 
BRANCH  83  84
ATOM     84  S   UNL A   1      41.974  19.645  26.064  1.00  0.00     0.124 S 
ATOM     85  O   UNL A   1      42.355  18.830  27.210  1.00  0.00    -0.237 OA
ATOM     86  O   UNL A   1      40.548  19.688  25.755  1.00  0.00    -0.237 OA
ATOM     87  O   UNL A   1      42.854  19.554  24.902  1.00  0.00    -0.744 OA
ENDBRANCH  83  84
ENDBRANCH  51  76
BRANCH  63  88
ATOM     88  C   UNL A   1      48.128  27.627  29.949  1.00  0.00     0.058 A 
ATOM     89  C   UNL A   1      48.599  26.998  31.110  1.00  0.00     0.135 A 
ATOM     90  C   UNL A   1      49.048  27.886  28.919  1.00  0.00     0.135 A 
ATOM     91  F   UNL A   1      47.762  26.740  32.127  1.00  0.00    -0.206 F 
ATOM     92  C   UNL A   1      49.938  26.646  31.251  1.00  0.00     0.059 A 
ATOM     93  C   UNL A   1      50.385  27.522  29.029  1.00  0.00     0.059 A 
ATOM     94  F   UNL A   1      48.644  28.481  27.786  1.00  0.00    -0.206 F 
ATOM     95  C   UNL A   1      50.823  26.908  30.201  1.00  0.00     0.060 A 
BRANCH  95  96
ATOM     96  S   UNL A   1      52.545  26.396  30.372  1.00  0.00     0.124 S 
ATOM     97  O   UNL A   1      52.834  25.885  29.037  1.00  0.00    -0.237 OA
ATOM     98  O   UNL A   1      53.210  27.645  30.731  1.00  0.00    -0.237 OA
ATOM     99  O   UNL A   1      52.497  25.393  31.432  1.00  0.00    -0.744 OA
ENDBRANCH  95  96
ENDBRANCH  63  88
ENDBRANCH  37  38
ENDBRANCH  29  32
ENDBRANCH  27  28
ENDBRANCH   1  27
TORSDOF 17
ENDMDL
