MODEL 1
REMARK VINA RESULT:     -11.4      0.000      0.000
REMARK SMILES C[C@H]1CCC[C@@](NC(=O)N2CCO[C@H](C#N)C2)(C(=O)NCCCCNC(=O)c2ccc(-c3c4nc(c(-c5c(F)cc(S(=O)(=O)[O-])cc5F)c5ccc([nH]5)c(-c5c(F)cc(S(=O)(=O)[O-])cc5F)c5nc(c(-c6c(F)cc(S(=O)(=O)[O-])cc6F)c6ccc3[nH]6)C=C5)C=C4)cc2)C1
REMARK SMILES IDX 22 1 21 2 20 3 18 4 19 5 6 7 1 8 2 9 3 10 94 11 4 12 5 13
REMARK SMILES IDX 7 14 8 15 9 17 10 18 11 19 17 20 12 21 14 22 13 23 15 24
REMARK SMILES IDX 16 25 23 26 24 27 25 28 26 29 27 31 28 32 29 33 93 34 30 35
REMARK SMILES IDX 92 36 31 37 32 38 33 39 86 40 34 41 91 42 85 43 87 44 35 45
REMARK SMILES IDX 90 46 84 47 83 48 36 50 70 51 49 52 69 53 50 54 53 55 68 56
REMARK SMILES IDX 88 57 51 58 52 59 67 61 89 62 54 63 37 64 38 65 47 66 39 67
REMARK SMILES IDX 40 68 46 69 48 70 41 71 42 72 43 73 44 74 45 75 71 76 72 77
REMARK SMILES IDX 81 78 73 79 74 80 80 81 82 82 75 83 76 84 77 85 78 86 79 87
REMARK SMILES IDX 55 88 56 89 65 90 57 91 58 92 64 93 66 94 59 95 60 96 61 97
REMARK SMILES IDX 62 98 63 99
REMARK H PARENT 20 6 7 16 25 30 87 49 53 60
REMARK Flexibility Score: inf
ROOT
ATOM      1  C   UNL A   1      32.930  26.781  25.305  1.00  0.00     0.023 C 
ENDROOT
BRANCH   1   2
ATOM      2  C   UNL A   1      33.682  25.469  25.479  1.00  0.00     0.116 C 
BRANCH   2   3
ATOM      3  N   UNL A   1      34.105  24.953  24.183  1.00  0.00    -0.354 N 
ATOM      4  C   UNL A   1      34.852  23.852  23.867  1.00  0.00     0.245 C 
ATOM      5  O   UNL A   1      35.016  23.611  22.669  1.00  0.00    -0.272 OA
ATOM      6  H   UNL A   1      33.805  25.483  23.410  1.00  0.00     0.163 HD
BRANCH   4   7
ATOM      7  C   UNL A   1      35.541  23.017  24.974  1.00  0.00     0.121 C 
ATOM      8  C   UNL A   1      37.839  19.817  24.699  1.00  0.00     0.008 C 
ATOM      9  C   UNL A   1      37.232  21.061  25.345  1.00  0.00    -0.011 C 
ATOM     10  C   UNL A   1      38.352  22.070  25.610  1.00  0.00     0.003 C 
ATOM     11  C   UNL A   1      36.103  21.659  24.464  1.00  0.00     0.042 C 
ATOM     12  C   UNL A   1      37.793  23.314  26.261  1.00  0.00     0.003 C 
ATOM     13  C   UNL A   1      36.751  23.935  25.358  1.00  0.00     0.039 C 
BRANCH   7  14
ATOM     14  N   UNL A   1      34.619  22.784  26.111  1.00  0.00    -0.323 N 
ATOM     15  C   UNL A   1      33.663  21.870  26.425  1.00  0.00     0.318 C 
ATOM     16  H   UNL A   1      34.726  23.461  26.817  1.00  0.00     0.166 HD
ATOM     17  O   UNL A   1      33.106  22.030  27.513  1.00  0.00    -0.249 OA
BRANCH  15  18
ATOM     18  N   UNL A   1      33.181  20.979  25.503  1.00  0.00    -0.319 N 
ATOM     19  C   UNL A   1      32.166  21.464  24.553  1.00  0.00     0.150 C 
ATOM     20  C   UNL A   1      33.156  19.509  25.638  1.00  0.00     0.169 C 
ATOM     21  C   UNL A   1      32.274  20.712  23.219  1.00  0.00     0.183 C 
ATOM     22  C   UNL A   1      33.227  18.813  24.256  1.00  0.00     0.240 C 
ATOM     23  O   UNL A   1      32.152  19.297  23.413  1.00  0.00    -0.360 OA
BRANCH  22  24
ATOM     24  C   UNL A   1      33.159  17.348  24.399  1.00  0.00     0.096 C 
ATOM     25  N   UNL A   1      33.075  16.196  24.505  1.00  0.00    -0.195 NA
ENDBRANCH  22  24
ENDBRANCH  15  18
ENDBRANCH   7  14
ENDBRANCH   4   7
ENDBRANCH   2   3
ENDBRANCH   1   2
BRANCH   1  26
ATOM     26  C   UNL A   1      33.767  27.985  25.728  1.00  0.00     0.023 C 
BRANCH  26  27
ATOM     27  C   UNL A   1      33.760  28.239  27.230  1.00  0.00     0.116 C 
BRANCH  27  28
ATOM     28  N   UNL A   1      33.597  29.640  27.565  1.00  0.00    -0.352 N 
ATOM     29  C   UNL A   1      34.528  30.489  28.112  1.00  0.00     0.251 C 
ATOM     30  H   UNL A   1      32.713  30.030  27.377  1.00  0.00     0.163 HD
ATOM     31  O   UNL A   1      34.212  31.625  28.448  1.00  0.00    -0.269 OA
BRANCH  29  32
ATOM     32  C   UNL A   1      35.901  29.991  28.328  1.00  0.00     0.039 A 
ATOM     33  C   UNL A   1      36.821  30.094  27.284  1.00  0.00     0.014 A 
ATOM     34  C   UNL A   1      36.291  29.495  29.576  1.00  0.00     0.014 A 
ATOM     35  C   UNL A   1      38.151  29.738  27.505  1.00  0.00     0.010 A 
ATOM     36  C   UNL A   1      37.635  29.226  29.817  1.00  0.00     0.010 A 
ATOM     37  C   UNL A   1      38.575  29.329  28.780  1.00  0.00    -0.014 A 
BRANCH  37  38
ATOM     38  C   UNL A   1      39.990  28.954  29.038  1.00  0.00     0.031 A 
ATOM     39  C   UNL A   1      40.937  29.986  29.591  1.00  0.00     0.074 A 
ATOM     40  C   UNL A   1      40.436  27.718  28.736  1.00  0.00     0.049 A 
ATOM     41  N   UNL A   1      42.225  29.901  29.794  1.00  0.00    -0.248 NA
ATOM     42  C   UNL A   1      40.360  31.296  29.937  1.00  0.00     0.031 C 
ATOM     43  C   UNL A   1      39.619  26.636  28.183  1.00  0.00     0.029 A 
ATOM     44  N   UNL A   1      41.689  27.167  28.841  1.00  0.00    -0.354 N 
ATOM     45  C   UNL A   1      42.614  31.144  30.278  1.00  0.00     0.074 A 
ATOM     46  C   UNL A   1      41.438  31.985  30.278  1.00  0.00     0.031 C 
ATOM     47  C   UNL A   1      40.389  25.549  28.011  1.00  0.00     0.029 A 
ATOM     48  C   UNL A   1      41.762  25.869  28.389  1.00  0.00     0.049 A 
ATOM     49  H   UNL A   1      42.462  27.655  29.206  1.00  0.00     0.167 HD
ATOM     50  C   UNL A   1      43.835  31.543  30.706  1.00  0.00     0.037 A 
ATOM     51  C   UNL A   1      42.820  25.040  28.273  1.00  0.00     0.037 A 
ATOM     52  C   UNL A   1      44.998  30.696  30.710  1.00  0.00     0.049 A 
ATOM     53  C   UNL A   1      44.181  25.522  28.707  1.00  0.00     0.074 A 
ATOM     54  C   UNL A   1      46.275  30.994  31.152  1.00  0.00     0.029 A 
ATOM     55  N   UNL A   1      45.030  29.389  30.247  1.00  0.00    -0.354 N 
ATOM     56  N   UNL A   1      44.524  26.689  29.199  1.00  0.00    -0.248 NA
ATOM     57  C   UNL A   1      45.297  24.575  28.578  1.00  0.00     0.031 C 
ATOM     58  C   UNL A   1      47.093  29.892  30.894  1.00  0.00     0.029 A 
ATOM     59  C   UNL A   1      46.310  28.875  30.371  1.00  0.00     0.049 A 
ATOM     60  H   UNL A   1      44.257  28.898  29.884  1.00  0.00     0.167 HD
ATOM     61  C   UNL A   1      45.884  26.600  29.480  1.00  0.00     0.074 A 
ATOM     62  C   UNL A   1      46.301  25.267  29.099  1.00  0.00     0.031 C 
ATOM     63  C   UNL A   1      46.708  27.535  30.015  1.00  0.00     0.037 A 
BRANCH  50  64
ATOM     64  C   UNL A   1      43.978  32.961  31.191  1.00  0.00     0.058 A 
ATOM     65  C   UNL A   1      44.163  34.034  30.303  1.00  0.00     0.135 A 
ATOM     66  C   UNL A   1      43.896  33.256  32.562  1.00  0.00     0.135 A 
ATOM     67  F   UNL A   1      44.265  33.811  28.983  1.00  0.00    -0.206 F 
ATOM     68  C   UNL A   1      44.297  35.342  30.759  1.00  0.00     0.059 A 
ATOM     69  C   UNL A   1      43.990  34.561  33.037  1.00  0.00     0.059 A 
ATOM     70  F   UNL A   1      43.722  32.271  33.457  1.00  0.00    -0.206 F 
ATOM     71  C   UNL A   1      44.207  35.595  32.129  1.00  0.00     0.060 A 
BRANCH  71  72
ATOM     72  S   UNL A   1      44.379  37.298  32.700  1.00  0.00     0.124 S 
ATOM     73  O   UNL A   1      43.152  37.473  33.471  1.00  0.00    -0.237 OA
ATOM     74  O   UNL A   1      45.613  37.240  33.478  1.00  0.00    -0.237 OA
ATOM     75  O   UNL A   1      44.456  38.066  31.462  1.00  0.00    -0.744 OA
ENDBRANCH  71  72
ENDBRANCH  50  64
BRANCH  51  76
ATOM     76  C   UNL A   1      42.636  23.668  27.723  1.00  0.00     0.058 A 
ATOM     77  C   UNL A   1      42.676  23.428  26.341  1.00  0.00     0.135 A 
ATOM     78  C   UNL A   1      42.417  22.568  28.568  1.00  0.00     0.135 A 
ATOM     79  F   UNL A   1      42.875  24.444  25.489  1.00  0.00    -0.206 F 
ATOM     80  C   UNL A   1      42.488  22.152  25.815  1.00  0.00     0.059 A 
ATOM     81  C   UNL A   1      42.257  21.279  28.069  1.00  0.00     0.059 A 
ATOM     82  F   UNL A   1      42.383  22.739  29.899  1.00  0.00    -0.206 F 
ATOM     83  C   UNL A   1      42.284  21.083  26.690  1.00  0.00     0.060 A 
BRANCH  83  84
ATOM     84  S   UNL A   1      42.088  19.427  25.997  1.00  0.00     0.124 S 
ATOM     85  O   UNL A   1      40.642  19.346  25.831  1.00  0.00    -0.237 OA
ATOM     86  O   UNL A   1      42.870  19.518  24.767  1.00  0.00    -0.237 OA
ATOM     87  O   UNL A   1      42.654  18.562  27.029  1.00  0.00    -0.744 OA
ENDBRANCH  83  84
ENDBRANCH  51  76
BRANCH  63  88
ATOM     88  C   UNL A   1      48.133  27.143  30.302  1.00  0.00     0.058 A 
ATOM     89  C   UNL A   1      49.181  27.411  29.410  1.00  0.00     0.135 A 
ATOM     90  C   UNL A   1      48.461  26.572  31.545  1.00  0.00     0.135 A 
ATOM     91  F   UNL A   1      48.924  27.949  28.207  1.00  0.00    -0.206 F 
ATOM     92  C   UNL A   1      50.503  27.120  29.735  1.00  0.00     0.059 A 
ATOM     93  C   UNL A   1      49.777  26.305  31.904  1.00  0.00     0.059 A 
ATOM     94  F   UNL A   1      47.497  26.300  32.440  1.00  0.00    -0.206 F 
ATOM     95  C   UNL A   1      50.792  26.578  30.990  1.00  0.00     0.060 A 
BRANCH  95  96
ATOM     96  S   UNL A   1      52.517  26.272  31.424  1.00  0.00     0.124 S 
ATOM     97  O   UNL A   1      52.432  24.968  32.072  1.00  0.00    -0.237 OA
ATOM     98  O   UNL A   1      53.174  26.291  30.121  1.00  0.00    -0.237 OA
ATOM     99  O   UNL A   1      52.851  27.388  32.305  1.00  0.00    -0.744 OA
ENDBRANCH  95  96
ENDBRANCH  63  88
ENDBRANCH  37  38
ENDBRANCH  29  32
ENDBRANCH  27  28
ENDBRANCH  26  27
ENDBRANCH   1  26
TORSDOF 17
ENDMDL
MODEL 2
REMARK VINA RESULT:     -11.2      2.948      4.645
REMARK SMILES C[C@H]1CCC[C@@](NC(=O)N2CCO[C@H](C#N)C2)(C(=O)NCCCCNC(=O)c2ccc(-c3c4nc(c(-c5c(F)cc(S(=O)(=O)[O-])cc5F)c5ccc([nH]5)c(-c5c(F)cc(S(=O)(=O)[O-])cc5F)c5nc(c(-c6c(F)cc(S(=O)(=O)[O-])cc6F)c6ccc3[nH]6)C=C5)C=C4)cc2)C1
REMARK SMILES IDX 22 1 21 2 20 3 18 4 19 5 6 7 1 8 2 9 3 10 94 11 4 12 5 13
REMARK SMILES IDX 7 14 8 15 9 17 10 18 11 19 17 20 12 21 14 22 13 23 15 24
REMARK SMILES IDX 16 25 23 26 24 27 25 28 26 29 27 31 28 32 29 33 93 34 30 35
REMARK SMILES IDX 92 36 31 37 32 38 33 39 86 40 34 41 91 42 85 43 87 44 35 45
REMARK SMILES IDX 90 46 84 47 83 48 36 50 70 51 49 52 69 53 50 54 53 55 68 56
REMARK SMILES IDX 88 57 51 58 52 59 67 61 89 62 54 63 37 64 38 65 47 66 39 67
REMARK SMILES IDX 40 68 46 69 48 70 41 71 42 72 43 73 44 74 45 75 71 76 72 77
REMARK SMILES IDX 81 78 73 79 74 80 80 81 82 82 75 83 76 84 77 85 78 86 79 87
REMARK SMILES IDX 55 88 56 89 65 90 57 91 58 92 64 93 66 94 59 95 60 96 61 97
REMARK SMILES IDX 62 98 63 99
REMARK H PARENT 20 6 7 16 25 30 87 49 53 60
REMARK Flexibility Score: inf
ROOT
ATOM      1  C   UNL A   1      32.849  29.863  26.970  1.00  0.00     0.023 C 
ENDROOT
BRANCH   1   2
ATOM      2  C   UNL A   1      32.284  29.741  25.562  1.00  0.00     0.116 C 
BRANCH   2   3
ATOM      3  N   UNL A   1      33.360  29.551  24.599  1.00  0.00    -0.354 N 
ATOM      4  C   UNL A   1      33.391  28.840  23.432  1.00  0.00     0.245 C 
ATOM      5  O   UNL A   1      34.430  28.895  22.769  1.00  0.00    -0.272 OA
ATOM      6  H   UNL A   1      34.202  30.008  24.826  1.00  0.00     0.163 HD
BRANCH   4   7
ATOM      7  C   UNL A   1      32.208  27.928  23.027  1.00  0.00     0.121 C 
ATOM      8  C   UNL A   1      29.663  25.902  25.268  1.00  0.00     0.008 C 
ATOM      9  C   UNL A   1      30.191  26.590  24.009  1.00  0.00    -0.011 C 
ATOM     10  C   UNL A   1      29.244  27.736  23.647  1.00  0.00     0.003 C 
ATOM     11  C   UNL A   1      31.651  27.077  24.205  1.00  0.00     0.042 C 
ATOM     12  C   UNL A   1      29.725  28.437  22.397  1.00  0.00     0.003 C 
ATOM     13  C   UNL A   1      31.119  28.980  22.625  1.00  0.00     0.039 C 
BRANCH   7  14
ATOM     14  N   UNL A   1      32.586  27.040  21.901  1.00  0.00    -0.323 N 
ATOM     15  C   UNL A   1      32.936  25.735  21.760  1.00  0.00     0.318 C 
ATOM     16  H   UNL A   1      32.582  27.515  21.039  1.00  0.00     0.166 HD
ATOM     17  O   UNL A   1      33.179  25.368  20.608  1.00  0.00    -0.249 OA
BRANCH  15  18
ATOM     18  N   UNL A   1      33.233  24.942  22.836  1.00  0.00    -0.319 N 
ATOM     19  C   UNL A   1      34.545  25.129  23.479  1.00  0.00     0.150 C 
ATOM     20  C   UNL A   1      32.656  23.616  23.131  1.00  0.00     0.169 C 
ATOM     21  C   UNL A   1      34.463  24.803  24.976  1.00  0.00     0.183 C 
ATOM     22  C   UNL A   1      32.640  23.332  24.654  1.00  0.00     0.240 C 
ATOM     23  O   UNL A   1      33.981  23.469  25.188  1.00  0.00    -0.360 OA
BRANCH  22  24
ATOM     24  C   UNL A   1      32.101  21.989  24.935  1.00  0.00     0.096 C 
ATOM     25  N   UNL A   1      31.674  20.929  25.126  1.00  0.00    -0.195 NA
ENDBRANCH  22  24
ENDBRANCH  15  18
ENDBRANCH   7  14
ENDBRANCH   4   7
ENDBRANCH   2   3
ENDBRANCH   1   2
BRANCH   1  26
ATOM     26  C   UNL A   1      33.938  28.829  27.245  1.00  0.00     0.023 C 
BRANCH  26  27
ATOM     27  C   UNL A   1      35.284  29.441  27.611  1.00  0.00     0.116 C 
BRANCH  27  28
ATOM     28  N   UNL A   1      35.243  30.198  28.846  1.00  0.00    -0.352 N 
ATOM     29  C   UNL A   1      36.259  30.392  29.749  1.00  0.00     0.251 C 
ATOM     30  H   UNL A   1      34.383  30.624  29.065  1.00  0.00     0.163 HD
ATOM     31  O   UNL A   1      36.046  30.964  30.812  1.00  0.00    -0.269 OA
BRANCH  29  32
ATOM     32  C   UNL A   1      37.600  29.860  29.433  1.00  0.00     0.039 A 
ATOM     33  C   UNL A   1      37.971  29.734  28.095  1.00  0.00     0.014 A 
ATOM     34  C   UNL A   1      38.505  29.557  30.456  1.00  0.00     0.014 A 
ATOM     35  C   UNL A   1      39.272  29.345  27.777  1.00  0.00     0.010 A 
ATOM     36  C   UNL A   1      39.825  29.256  30.135  1.00  0.00     0.010 A 
ATOM     37  C   UNL A   1      40.218  29.131  28.793  1.00  0.00    -0.014 A 
BRANCH  37  38
ATOM     38  C   UNL A   1      41.611  28.724  28.476  1.00  0.00     0.031 A 
ATOM     39  C   UNL A   1      42.694  29.768  28.442  1.00  0.00     0.074 A 
ATOM     40  C   UNL A   1      41.897  27.441  28.173  1.00  0.00     0.049 A 
ATOM     41  N   UNL A   1      43.948  29.648  28.092  1.00  0.00    -0.248 NA
ATOM     42  C   UNL A   1      42.309  31.136  28.830  1.00  0.00     0.031 C 
ATOM     43  C   UNL A   1      40.931  26.340  28.158  1.00  0.00     0.029 A 
ATOM     44  N   UNL A   1      43.080  26.849  27.809  1.00  0.00    -0.354 N 
ATOM     45  C   UNL A   1      44.495  30.921  28.205  1.00  0.00     0.074 A 
ATOM     46  C   UNL A   1      43.423  31.810  28.595  1.00  0.00     0.031 C 
ATOM     47  C   UNL A   1      41.565  25.206  27.816  1.00  0.00     0.029 A 
ATOM     48  C   UNL A   1      42.966  25.505  27.537  1.00  0.00     0.049 A 
ATOM     49  H   UNL A   1      43.932  27.340  27.748  1.00  0.00     0.167 HD
ATOM     50  C   UNL A   1      45.779  31.311  28.024  1.00  0.00     0.037 A 
ATOM     51  C   UNL A   1      43.881  24.620  27.091  1.00  0.00     0.037 A 
ATOM     52  C   UNL A   1      46.841  30.417  27.644  1.00  0.00     0.049 A 
ATOM     53  C   UNL A   1      45.293  25.086  26.845  1.00  0.00     0.074 A 
ATOM     54  C   UNL A   1      48.182  30.706  27.465  1.00  0.00     0.029 A 
ATOM     55  N   UNL A   1      46.684  29.064  27.381  1.00  0.00    -0.354 N 
ATOM     56  N   UNL A   1      45.804  26.285  26.995  1.00  0.00    -0.248 NA
ATOM     57  C   UNL A   1      46.258  24.079  26.378  1.00  0.00     0.031 C 
ATOM     58  C   UNL A   1      48.823  29.544  27.028  1.00  0.00     0.029 A 
ATOM     59  C   UNL A   1      47.900  28.509  27.017  1.00  0.00     0.049 A 
ATOM     60  H   UNL A   1      45.835  28.570  27.443  1.00  0.00     0.167 HD
ATOM     61  C   UNL A   1      47.155  26.167  26.685  1.00  0.00     0.074 A 
ATOM     62  C   UNL A   1      47.382  24.781  26.336  1.00  0.00     0.031 C 
ATOM     63  C   UNL A   1      48.120  27.120  26.699  1.00  0.00     0.037 A 
BRANCH  50  64
ATOM     64  C   UNL A   1      46.103  32.768  28.219  1.00  0.00     0.058 A 
ATOM     65  C   UNL A   1      46.544  33.271  29.454  1.00  0.00     0.135 A 
ATOM     66  C   UNL A   1      46.002  33.669  27.146  1.00  0.00     0.135 A 
ATOM     67  F   UNL A   1      46.643  32.459  30.519  1.00  0.00    -0.206 F 
ATOM     68  C   UNL A   1      46.838  34.619  29.628  1.00  0.00     0.059 A 
ATOM     69  C   UNL A   1      46.327  35.016  27.288  1.00  0.00     0.059 A 
ATOM     70  F   UNL A   1      45.584  33.246  25.943  1.00  0.00    -0.206 F 
ATOM     71  C   UNL A   1      46.729  35.483  28.537  1.00  0.00     0.060 A 
BRANCH  71  72
ATOM     72  S   UNL A   1      47.120  37.228  28.782  1.00  0.00     0.124 S 
ATOM     73  O   UNL A   1      46.268  37.861  27.779  1.00  0.00    -0.237 OA
ATOM     74  O   UNL A   1      46.727  37.441  30.172  1.00  0.00    -0.237 OA
ATOM     75  O   UNL A   1      48.553  37.296  28.520  1.00  0.00    -0.744 OA
ENDBRANCH  71  72
ENDBRANCH  50  64
BRANCH  51  76
ATOM     76  C   UNL A   1      43.492  23.203  26.849  1.00  0.00     0.058 A 
ATOM     77  C   UNL A   1      43.243  22.325  27.915  1.00  0.00     0.135 A 
ATOM     78  C   UNL A   1      43.360  22.696  25.545  1.00  0.00     0.135 A 
ATOM     79  F   UNL A   1      43.362  22.755  29.180  1.00  0.00    -0.206 F 
ATOM     80  C   UNL A   1      42.896  20.994  27.700  1.00  0.00     0.059 A 
ATOM     81  C   UNL A   1      42.984  21.378  25.304  1.00  0.00     0.059 A 
ATOM     82  F   UNL A   1      43.572  23.496  24.489  1.00  0.00    -0.206 F 
ATOM     83  C   UNL A   1      42.764  20.532  26.389  1.00  0.00     0.060 A 
BRANCH  83  84
ATOM     84  S   UNL A   1      42.267  18.816  26.125  1.00  0.00     0.124 S 
ATOM     85  O   UNL A   1      43.193  18.398  25.079  1.00  0.00    -0.237 OA
ATOM     86  O   UNL A   1      42.485  18.230  27.444  1.00  0.00    -0.237 OA
ATOM     87  O   UNL A   1      40.868  18.930  25.720  1.00  0.00    -0.744 OA
ENDBRANCH  83  84
ENDBRANCH  51  76
BRANCH  63  88
ATOM     88  C   UNL A   1      49.536  26.699  26.405  1.00  0.00     0.058 A 
ATOM     89  C   UNL A   1      50.319  25.996  27.333  1.00  0.00     0.135 A 
ATOM     90  C   UNL A   1      50.078  26.923  25.128  1.00  0.00     0.135 A 
ATOM     91  F   UNL A   1      49.853  25.761  28.570  1.00  0.00    -0.206 F 
ATOM     92  C   UNL A   1      51.593  25.540  27.009  1.00  0.00     0.059 A 
ATOM     93  C   UNL A   1      51.334  26.446  24.771  1.00  0.00     0.059 A 
ATOM     94  F   UNL A   1      49.369  27.584  24.198  1.00  0.00    -0.206 F 
ATOM     95  C   UNL A   1      52.087  25.759  25.720  1.00  0.00     0.060 A 
BRANCH  95  96
ATOM     96  S   UNL A   1      53.711  25.098  25.293  1.00  0.00     0.124 S 
ATOM     97  O   UNL A   1      53.513  23.667  25.502  1.00  0.00    -0.237 OA
ATOM     98  O   UNL A   1      53.863  25.521  23.904  1.00  0.00    -0.237 OA
ATOM     99  O   UNL A   1      54.607  25.751  26.243  1.00  0.00    -0.744 OA
ENDBRANCH  95  96
ENDBRANCH  63  88
ENDBRANCH  37  38
ENDBRANCH  29  32
ENDBRANCH  27  28
ENDBRANCH  26  27
ENDBRANCH   1  26
TORSDOF 17
ENDMDL
MODEL 3
REMARK VINA RESULT:     -10.9      3.292      9.047
REMARK SMILES C[C@H]1CCC[C@@](NC(=O)N2CCO[C@H](C#N)C2)(C(=O)NCCCCNC(=O)c2ccc(-c3c4nc(c(-c5c(F)cc(S(=O)(=O)[O-])cc5F)c5ccc([nH]5)c(-c5c(F)cc(S(=O)(=O)[O-])cc5F)c5nc(c(-c6c(F)cc(S(=O)(=O)[O-])cc6F)c6ccc3[nH]6)C=C5)C=C4)cc2)C1
REMARK SMILES IDX 22 1 21 2 20 3 18 4 19 5 6 7 1 8 2 9 3 10 94 11 4 12 5 13
REMARK SMILES IDX 7 14 8 15 9 17 10 18 11 19 17 20 12 21 14 22 13 23 15 24
REMARK SMILES IDX 16 25 23 26 24 27 25 28 26 29 27 31 28 32 29 33 93 34 30 35
REMARK SMILES IDX 92 36 31 37 32 38 33 39 86 40 34 41 91 42 85 43 87 44 35 45
REMARK SMILES IDX 90 46 84 47 83 48 36 50 70 51 49 52 69 53 50 54 53 55 68 56
REMARK SMILES IDX 88 57 51 58 52 59 67 61 89 62 54 63 37 64 38 65 47 66 39 67
REMARK SMILES IDX 40 68 46 69 48 70 41 71 42 72 43 73 44 74 45 75 71 76 72 77
REMARK SMILES IDX 81 78 73 79 74 80 80 81 82 82 75 83 76 84 77 85 78 86 79 87
REMARK SMILES IDX 55 88 56 89 65 90 57 91 58 92 64 93 66 94 59 95 60 96 61 97
REMARK SMILES IDX 62 98 63 99
REMARK H PARENT 20 6 7 16 25 30 87 49 53 60
REMARK Flexibility Score: inf
ROOT
ATOM      1  C   UNL A   1      37.537  21.137  24.928  1.00  0.00     0.023 C 
ENDROOT
BRANCH   1   2
ATOM      2  C   UNL A   1      36.071  20.851  25.216  1.00  0.00     0.116 C 
BRANCH   2   3
ATOM      3  N   UNL A   1      35.649  21.540  26.429  1.00  0.00    -0.354 N 
ATOM      4  C   UNL A   1      34.404  21.921  26.845  1.00  0.00     0.245 C 
ATOM      5  O   UNL A   1      34.321  22.447  27.958  1.00  0.00    -0.272 OA
ATOM      6  H   UNL A   1      36.379  21.769  27.048  1.00  0.00     0.163 HD
BRANCH   4   7
ATOM      7  C   UNL A   1      33.179  21.789  25.907  1.00  0.00     0.121 C 
ATOM      8  C   UNL A   1      32.802  22.631  22.067  1.00  0.00     0.008 C 
ATOM      9  C   UNL A   1      32.453  21.981  23.406  1.00  0.00    -0.011 C 
ATOM     10  C   UNL A   1      32.553  20.462  23.252  1.00  0.00     0.003 C 
ATOM     11  C   UNL A   1      33.363  22.515  24.543  1.00  0.00     0.042 C 
ATOM     12  C   UNL A   1      32.203  19.780  24.555  1.00  0.00     0.003 C 
ATOM     13  C   UNL A   1      33.148  20.246  25.640  1.00  0.00     0.039 C 
BRANCH   7  14
ATOM     14  N   UNL A   1      31.948  22.278  26.574  1.00  0.00    -0.323 N 
ATOM     15  C   UNL A   1      31.198  23.410  26.536  1.00  0.00     0.318 C 
ATOM     16  H   UNL A   1      31.582  21.615  27.203  1.00  0.00     0.166 HD
ATOM     17  O   UNL A   1      30.206  23.420  27.269  1.00  0.00    -0.249 OA
BRANCH  15  18
ATOM     18  N   UNL A   1      31.636  24.550  25.916  1.00  0.00    -0.319 N 
ATOM     19  C   UNL A   1      32.599  25.394  26.644  1.00  0.00     0.150 C 
ATOM     20  C   UNL A   1      30.924  25.303  24.865  1.00  0.00     0.169 C 
ATOM     21  C   UNL A   1      33.526  26.124  25.662  1.00  0.00     0.183 C 
ATOM     22  C   UNL A   1      31.912  26.048  23.935  1.00  0.00     0.240 C 
ATOM     23  O   UNL A   1      32.772  26.907  24.726  1.00  0.00    -0.360 OA
BRANCH  22  24
ATOM     24  C   UNL A   1      31.191  26.830  22.915  1.00  0.00     0.096 C 
ATOM     25  N   UNL A   1      30.602  27.453  22.135  1.00  0.00    -0.195 NA
ENDBRANCH  22  24
ENDBRANCH  15  18
ENDBRANCH   7  14
ENDBRANCH   4   7
ENDBRANCH   2   3
ENDBRANCH   1   2
BRANCH   1  26
ATOM     26  C   UNL A   1      38.432  19.945  25.255  1.00  0.00     0.023 C 
BRANCH  26  27
ATOM     27  C   UNL A   1      39.643  20.304  26.107  1.00  0.00     0.116 C 
BRANCH  27  28
ATOM     28  N   UNL A   1      40.634  19.246  26.155  1.00  0.00    -0.352 N 
ATOM     29  C   UNL A   1      41.994  19.372  26.290  1.00  0.00     0.251 C 
ATOM     30  H   UNL A   1      40.289  18.327  26.081  1.00  0.00     0.163 HD
ATOM     31  O   UNL A   1      42.722  18.390  26.200  1.00  0.00    -0.269 OA
BRANCH  29  32
ATOM     32  C   UNL A   1      42.564  20.718  26.501  1.00  0.00     0.039 A 
ATOM     33  C   UNL A   1      42.959  21.459  25.388  1.00  0.00     0.014 A 
ATOM     34  C   UNL A   1      42.639  21.266  27.786  1.00  0.00     0.014 A 
ATOM     35  C   UNL A   1      43.391  22.774  25.557  1.00  0.00     0.010 A 
ATOM     36  C   UNL A   1      42.985  22.605  27.940  1.00  0.00     0.010 A 
ATOM     37  C   UNL A   1      43.380  23.368  26.830  1.00  0.00    -0.014 A 
BRANCH  37  38
ATOM     38  C   UNL A   1      43.827  24.770  27.030  1.00  0.00     0.031 A 
ATOM     39  C   UNL A   1      45.282  25.113  26.855  1.00  0.00     0.074 A 
ATOM     40  C   UNL A   1      42.949  25.719  27.414  1.00  0.00     0.049 A 
ATOM     41  N   UNL A   1      45.898  26.244  27.077  1.00  0.00    -0.248 NA
ATOM     42  C   UNL A   1      46.166  24.031  26.389  1.00  0.00     0.031 C 
ATOM     43  C   UNL A   1      41.517  25.508  27.632  1.00  0.00     0.029 A 
ATOM     44  N   UNL A   1      43.136  27.049  27.701  1.00  0.00    -0.354 N 
ATOM     45  C   UNL A   1      47.238  26.007  26.793  1.00  0.00     0.074 A 
ATOM     46  C   UNL A   1      47.356  24.609  26.442  1.00  0.00     0.031 C 
ATOM     47  C   UNL A   1      40.953  26.670  28.003  1.00  0.00     0.029 A 
ATOM     48  C   UNL A   1      41.989  27.694  28.103  1.00  0.00     0.049 A 
ATOM     49  H   UNL A   1      44.008  27.498  27.626  1.00  0.00     0.167 HD
ATOM     50  C   UNL A   1      48.273  26.879  26.800  1.00  0.00     0.037 A 
ATOM     51  C   UNL A   1      41.798  28.961  28.525  1.00  0.00     0.037 A 
ATOM     52  C   UNL A   1      48.145  28.272  27.141  1.00  0.00     0.049 A 
ATOM     53  C   UNL A   1      42.974  29.903  28.575  1.00  0.00     0.074 A 
ATOM     54  C   UNL A   1      49.126  29.247  27.148  1.00  0.00     0.029 A 
ATOM     55  N   UNL A   1      46.967  28.886  27.540  1.00  0.00    -0.354 N 
ATOM     56  N   UNL A   1      44.228  29.673  28.264  1.00  0.00    -0.248 NA
ATOM     57  C   UNL A   1      42.711  31.278  29.023  1.00  0.00     0.031 C 
ATOM     58  C   UNL A   1      48.557  30.434  27.616  1.00  0.00     0.029 A 
ATOM     59  C   UNL A   1      47.201  30.222  27.819  1.00  0.00     0.049 A 
ATOM     60  H   UNL A   1      46.092  28.439  27.613  1.00  0.00     0.167 HD
ATOM     61  C   UNL A   1      44.893  30.883  28.436  1.00  0.00     0.074 A 
ATOM     62  C   UNL A   1      43.903  31.842  28.882  1.00  0.00     0.031 C 
ATOM     63  C   UNL A   1      46.201  31.175  28.234  1.00  0.00     0.037 A 
BRANCH  50  64
ATOM     64  C   UNL A   1      49.636  26.351  26.441  1.00  0.00     0.058 A 
ATOM     65  C   UNL A   1      50.115  26.369  25.120  1.00  0.00     0.135 A 
ATOM     66  C   UNL A   1      50.490  25.850  27.438  1.00  0.00     0.135 A 
ATOM     67  F   UNL A   1      49.337  26.820  24.124  1.00  0.00    -0.206 F 
ATOM     68  C   UNL A   1      51.375  25.876  24.796  1.00  0.00     0.059 A 
ATOM     69  C   UNL A   1      51.769  25.387  27.141  1.00  0.00     0.059 A 
ATOM     70  F   UNL A   1      50.086  25.807  28.717  1.00  0.00    -0.206 F 
ATOM     71  C   UNL A   1      52.196  25.389  25.815  1.00  0.00     0.060 A 
BRANCH  71  72
ATOM     72  S   UNL A   1      53.828  24.759  25.375  1.00  0.00     0.124 S 
ATOM     73  O   UNL A   1      54.183  25.625  24.255  1.00  0.00    -0.237 OA
ATOM     74  O   UNL A   1      54.585  24.971  26.605  1.00  0.00    -0.237 OA
ATOM     75  O   UNL A   1      53.573  23.364  25.030  1.00  0.00    -0.744 OA
ENDBRANCH  71  72
ENDBRANCH  50  64
BRANCH  51  76
ATOM     76  C   UNL A   1      40.440  29.415  28.933  1.00  0.00     0.058 A 
ATOM     77  C   UNL A   1      39.432  29.639  27.983  1.00  0.00     0.135 A 
ATOM     78  C   UNL A   1      40.119  29.633  30.284  1.00  0.00     0.135 A 
ATOM     79  F   UNL A   1      39.686  29.453  26.679  1.00  0.00    -0.206 F 
ATOM     80  C   UNL A   1      38.164  30.080  28.352  1.00  0.00     0.059 A 
ATOM     81  C   UNL A   1      38.850  30.043  30.680  1.00  0.00     0.059 A 
ATOM     82  F   UNL A   1      41.041  29.420  31.236  1.00  0.00    -0.206 F 
ATOM     83  C   UNL A   1      37.882  30.274  29.705  1.00  0.00     0.060 A 
BRANCH  83  84
ATOM     84  S   UNL A   1      36.219  30.801  30.174  1.00  0.00     0.124 S 
ATOM     85  O   UNL A   1      35.483  30.594  28.932  1.00  0.00    -0.237 OA
ATOM     86  O   UNL A   1      35.906  29.883  31.264  1.00  0.00    -0.237 OA
ATOM     87  O   UNL A   1      36.408  32.194  30.571  1.00  0.00    -0.744 OA
ENDBRANCH  83  84
ENDBRANCH  51  76
BRANCH  63  88
ATOM     88  C   UNL A   1      46.645  32.603  28.410  1.00  0.00     0.058 A 
ATOM     89  C   UNL A   1      46.569  33.547  27.375  1.00  0.00     0.135 A 
ATOM     90  C   UNL A   1      47.063  33.051  29.676  1.00  0.00     0.135 A 
ATOM     91  F   UNL A   1      46.183  33.172  26.145  1.00  0.00    -0.206 F 
ATOM     92  C   UNL A   1      46.901  34.882  27.585  1.00  0.00     0.059 A 
ATOM     93  C   UNL A   1      47.366  34.387  29.916  1.00  0.00     0.059 A 
ATOM     94  F   UNL A   1      47.146  32.192  30.705  1.00  0.00    -0.206 F 
ATOM     95  C   UNL A   1      47.286  35.295  28.863  1.00  0.00     0.060 A 
BRANCH  95  96
ATOM     96  S   UNL A   1      47.645  37.042  29.137  1.00  0.00     0.124 S 
ATOM     97  O   UNL A   1      46.328  37.562  29.491  1.00  0.00    -0.237 OA
ATOM     98  O   UNL A   1      48.620  36.993  30.221  1.00  0.00    -0.237 OA
ATOM     99  O   UNL A   1      48.168  37.490  27.849  1.00  0.00    -0.744 OA
ENDBRANCH  95  96
ENDBRANCH  63  88
ENDBRANCH  37  38
ENDBRANCH  29  32
ENDBRANCH  27  28
ENDBRANCH  26  27
ENDBRANCH   1  26
TORSDOF 17
ENDMDL
