MODEL 1
REMARK VINA RESULT:     -12.0      0.000      0.000
REMARK SMILES CCOc1ccc(-c2cnc(N)cc2C(=O)NCCCCNC(=O)c2ccc(-c3c4nc(c(-c5c(F)cc(S(=O)(=O)[O-])cc5F)c5ccc([nH]5)c(-c5c(F)cc(S(=O)(=O)[O-])cc5F)c5nc(c(-c6c(F)cc(S(=O)(=O)[O-])cc6F)c6ccc3[nH]6)C=C5)C=C4)cc2)c(Cl)c1
REMARK SMILES IDX 19 1 18 2 17 3 15 4 16 5 14 7 8 8 9 9 10 10 13 11 11 12 7 13
REMARK SMILES IDX 4 14 5 15 93 16 6 17 91 18 92 19 3 20 2 21 1 22 12 23 20 26
REMARK SMILES IDX 21 27 22 28 23 29 24 31 25 32 26 33 90 34 27 35 89 36 28 37
REMARK SMILES IDX 29 38 30 39 83 40 31 41 88 42 82 43 84 44 32 45 87 46 81 47
REMARK SMILES IDX 80 48 33 50 67 51 46 52 66 53 47 54 50 55 65 56 85 57 48 58
REMARK SMILES IDX 49 59 64 61 86 62 51 63 34 64 35 65 44 66 36 67 37 68 43 69
REMARK SMILES IDX 45 70 38 71 39 72 40 73 41 74 42 75 68 76 69 77 78 78 70 79
REMARK SMILES IDX 71 80 77 81 79 82 72 83 73 84 74 85 75 86 76 87 52 88 53 89
REMARK SMILES IDX 62 90 54 91 55 92 61 93 63 94 56 95 57 96 58 97 59 98 60 99
REMARK H PARENT 17 6 12 24 12 25 22 30 84 49 50 60
REMARK Flexibility Score: inf
ROOT
ATOM      1  C   UNL A   1      36.459  23.222  26.042  1.00  0.00     0.023 C 
ENDROOT
BRANCH   1   2
ATOM      2  C   UNL A   1      36.169  22.049  25.104  1.00  0.00     0.116 C 
BRANCH   2   3
ATOM      3  N   UNL A   1      35.499  22.482  23.896  1.00  0.00    -0.352 N 
ATOM      4  C   UNL A   1      34.255  22.976  23.588  1.00  0.00     0.252 C 
ATOM      5  O   UNL A   1      34.138  23.333  22.415  1.00  0.00    -0.269 OA
ATOM      6  H   UNL A   1      36.074  22.401  23.102  1.00  0.00     0.163 HD
BRANCH   4   7
ATOM      7  C   UNL A   1      33.110  23.149  24.555  1.00  0.00     0.052 A 
ATOM      8  C   UNL A   1      32.325  22.038  24.944  1.00  0.00     0.014 A 
ATOM      9  C   UNL A   1      31.213  22.303  25.752  1.00  0.00     0.123 A 
ATOM     10  N   UNL A   1      30.830  23.523  26.186  1.00  0.00    -0.239 NA
ATOM     11  C   UNL A   1      32.761  24.395  25.087  1.00  0.00     0.061 A 
ATOM     12  C   UNL A   1      31.609  24.549  25.846  1.00  0.00     0.124 A 
BRANCH   8  13
ATOM     13  C   UNL A   1      32.565  20.627  24.583  1.00  0.00     0.003 A 
ATOM     14  C   UNL A   1      33.147  17.940  23.974  1.00  0.00     0.120 A 
ATOM     15  C   UNL A   1      33.466  18.452  25.226  1.00  0.00     0.047 A 
ATOM     16  C   UNL A   1      32.580  18.761  23.003  1.00  0.00     0.067 A 
ATOM     17  C   UNL A   1      33.159  19.777  25.535  1.00  0.00     0.014 A 
ATOM     18  C   UNL A   1      32.299  20.099  23.302  1.00  0.00     0.052 A 
ATOM     19  Cl  UNL A   1      31.671  21.087  22.024  1.00  0.00    -0.084 Cl
BRANCH  14  20
ATOM     20  O   UNL A   1      33.491  16.665  23.622  1.00  0.00    -0.494 OA
BRANCH  20  21
ATOM     21  C   UNL A   1      33.822  15.844  24.750  1.00  0.00     0.226 C 
ATOM     22  C   UNL A   1      32.568  15.264  25.384  1.00  0.00     0.049 C 
ENDBRANCH  20  21
ENDBRANCH  14  20
ENDBRANCH   8  13
BRANCH  12  23
ATOM     23  N   UNL A   1      31.239  25.789  26.325  1.00  0.00    -0.384 N 
ATOM     24  H   UNL A   1      30.324  26.122  26.178  1.00  0.00     0.158 HD
ATOM     25  H   UNL A   1      31.891  26.342  26.815  1.00  0.00     0.158 HD
ENDBRANCH  12  23
ENDBRANCH   4   7
ENDBRANCH   2   3
ENDBRANCH   1   2
BRANCH   1  26
ATOM     26  C   UNL A   1      37.785  23.943  25.766  1.00  0.00     0.023 C 
BRANCH  26  27
ATOM     27  C   UNL A   1      38.902  23.662  26.768  1.00  0.00     0.116 C 
BRANCH  27  28
ATOM     28  N   UNL A   1      40.231  23.679  26.175  1.00  0.00    -0.352 N 
ATOM     29  C   UNL A   1      41.223  24.617  26.353  1.00  0.00     0.251 C 
ATOM     30  H   UNL A   1      40.446  22.930  25.573  1.00  0.00     0.163 HD
ATOM     31  O   UNL A   1      42.265  24.550  25.717  1.00  0.00    -0.269 OA
BRANCH  29  32
ATOM     32  C   UNL A   1      40.982  25.731  27.293  1.00  0.00     0.039 A 
ATOM     33  C   UNL A   1      40.057  25.554  28.325  1.00  0.00     0.014 A 
ATOM     34  C   UNL A   1      41.713  26.915  27.185  1.00  0.00     0.014 A 
ATOM     35  C   UNL A   1      39.920  26.543  29.303  1.00  0.00     0.010 A 
ATOM     36  C   UNL A   1      41.613  27.876  28.187  1.00  0.00     0.010 A 
ATOM     37  C   UNL A   1      40.725  27.693  29.260  1.00  0.00    -0.014 A 
BRANCH  37  38
ATOM     38  C   UNL A   1      40.677  28.719  30.331  1.00  0.00     0.031 A 
ATOM     39  C   UNL A   1      41.554  28.569  31.543  1.00  0.00     0.074 A 
ATOM     40  C   UNL A   1      39.767  29.711  30.266  1.00  0.00     0.049 A 
ATOM     41  N   UNL A   1      41.539  29.246  32.661  1.00  0.00    -0.248 NA
ATOM     42  C   UNL A   1      42.558  27.492  31.505  1.00  0.00     0.031 C 
ATOM     43  C   UNL A   1      38.826  29.928  29.165  1.00  0.00     0.029 A 
ATOM     44  N   UNL A   1      39.461  30.704  31.163  1.00  0.00    -0.354 N 
ATOM     45  C   UNL A   1      42.501  28.656  33.473  1.00  0.00     0.074 A 
ATOM     46  C   UNL A   1      43.067  27.553  32.727  1.00  0.00     0.031 C 
ATOM     47  C   UNL A   1      38.043  30.982  29.455  1.00  0.00     0.029 A 
ATOM     48  C   UNL A   1      38.401  31.492  30.774  1.00  0.00     0.049 A 
ATOM     49  H   UNL A   1      39.952  30.840  32.005  1.00  0.00     0.167 HD
ATOM     50  C   UNL A   1      42.879  29.010  34.723  1.00  0.00     0.037 A 
ATOM     51  C   UNL A   1      37.774  32.496  31.420  1.00  0.00     0.037 A 
ATOM     52  C   UNL A   1      42.354  30.144  35.433  1.00  0.00     0.049 A 
ATOM     53  C   UNL A   1      38.253  32.900  32.789  1.00  0.00     0.074 A 
ATOM     54  C   UNL A   1      42.738  30.639  36.667  1.00  0.00     0.029 A 
ATOM     55  N   UNL A   1      41.337  30.966  34.972  1.00  0.00    -0.354 N 
ATOM     56  N   UNL A   1      39.209  32.373  33.515  1.00  0.00    -0.248 NA
ATOM     57  C   UNL A   1      37.571  34.036  33.427  1.00  0.00     0.031 C 
ATOM     58  C   UNL A   1      41.936  31.744  36.965  1.00  0.00     0.029 A 
ATOM     59  C   UNL A   1      41.075  31.958  35.900  1.00  0.00     0.049 A 
ATOM     60  H   UNL A   1      40.870  30.860  34.111  1.00  0.00     0.167 HD
ATOM     61  C   UNL A   1      39.264  33.130  34.679  1.00  0.00     0.074 A 
ATOM     62  C   UNL A   1      38.247  34.154  34.561  1.00  0.00     0.031 C 
ATOM     63  C   UNL A   1      40.080  32.989  35.750  1.00  0.00     0.037 A 
BRANCH  50  64
ATOM     64  C   UNL A   1      43.921  28.175  35.407  1.00  0.00     0.058 A 
ATOM     65  C   UNL A   1      45.291  28.445  35.265  1.00  0.00     0.135 A 
ATOM     66  C   UNL A   1      43.543  27.136  36.272  1.00  0.00     0.135 A 
ATOM     67  F   UNL A   1      45.705  29.416  34.435  1.00  0.00    -0.206 F 
ATOM     68  C   UNL A   1      46.250  27.708  35.949  1.00  0.00     0.059 A 
ATOM     69  C   UNL A   1      44.484  26.400  36.984  1.00  0.00     0.059 A 
ATOM     70  F   UNL A   1      42.244  26.835  36.440  1.00  0.00    -0.206 F 
ATOM     71  C   UNL A   1      45.837  26.690  36.810  1.00  0.00     0.060 A 
BRANCH  71  72
ATOM     72  S   UNL A   1      47.092  25.766  37.722  1.00  0.00     0.124 S 
ATOM     73  O   UNL A   1      46.275  24.784  38.427  1.00  0.00    -0.237 OA
ATOM     74  O   UNL A   1      47.932  25.237  36.650  1.00  0.00    -0.237 OA
ATOM     75  O   UNL A   1      47.720  26.781  38.561  1.00  0.00    -0.744 OA
ENDBRANCH  71  72
ENDBRANCH  50  64
BRANCH  51  76
ATOM     76  C   UNL A   1      36.624  33.191  30.788  1.00  0.00     0.058 A 
ATOM     77  C   UNL A   1      36.819  34.097  29.734  1.00  0.00     0.135 A 
ATOM     78  C   UNL A   1      35.311  32.983  31.236  1.00  0.00     0.135 A 
ATOM     79  F   UNL A   1      38.057  34.332  29.275  1.00  0.00    -0.206 F 
ATOM     80  C   UNL A   1      35.758  34.797  29.169  1.00  0.00     0.059 A 
ATOM     81  C   UNL A   1      34.231  33.654  30.672  1.00  0.00     0.059 A 
ATOM     82  F   UNL A   1      35.070  32.112  32.229  1.00  0.00    -0.206 F 
ATOM     83  C   UNL A   1      34.468  34.573  29.650  1.00  0.00     0.060 A 
BRANCH  83  84
ATOM     84  S   UNL A   1      33.091  35.473  28.902  1.00  0.00     0.124 S 
ATOM     85  O   UNL A   1      33.792  36.514  28.161  1.00  0.00    -0.237 OA
ATOM     86  O   UNL A   1      32.445  34.440  28.098  1.00  0.00    -0.237 OA
ATOM     87  O   UNL A   1      32.323  35.926  30.058  1.00  0.00    -0.744 OA
ENDBRANCH  83  84
ENDBRANCH  51  76
BRANCH  63  88
ATOM     88  C   UNL A   1      39.952  33.988  36.862  1.00  0.00     0.058 A 
ATOM     89  C   UNL A   1      40.660  35.198  36.848  1.00  0.00     0.135 A 
ATOM     90  C   UNL A   1      39.041  33.768  37.908  1.00  0.00     0.135 A 
ATOM     91  F   UNL A   1      41.548  35.450  35.873  1.00  0.00    -0.206 F 
ATOM     92  C   UNL A   1      40.475  36.156  37.838  1.00  0.00     0.059 A 
ATOM     93  C   UNL A   1      38.824  34.722  38.897  1.00  0.00     0.059 A 
ATOM     94  F   UNL A   1      38.333  32.628  37.959  1.00  0.00    -0.206 F 
ATOM     95  C   UNL A   1      39.550  35.911  38.856  1.00  0.00     0.060 A 
BRANCH  95  96
ATOM     96  S   UNL A   1      39.266  37.190  40.099  1.00  0.00     0.124 S 
ATOM     97  O   UNL A   1      40.631  37.540  40.477  1.00  0.00    -0.237 OA
ATOM     98  O   UNL A   1      38.538  38.207  39.344  1.00  0.00    -0.237 OA
ATOM     99  O   UNL A   1      38.486  36.501  41.121  1.00  0.00    -0.744 OA
ENDBRANCH  95  96
ENDBRANCH  63  88
ENDBRANCH  37  38
ENDBRANCH  29  32
ENDBRANCH  27  28
ENDBRANCH  26  27
ENDBRANCH   1  26
TORSDOF 18
ENDMDL
MODEL 2
REMARK VINA RESULT:     -12.0      6.539     11.833
REMARK SMILES CCOc1ccc(-c2cnc(N)cc2C(=O)NCCCCNC(=O)c2ccc(-c3c4nc(c(-c5c(F)cc(S(=O)(=O)[O-])cc5F)c5ccc([nH]5)c(-c5c(F)cc(S(=O)(=O)[O-])cc5F)c5nc(c(-c6c(F)cc(S(=O)(=O)[O-])cc6F)c6ccc3[nH]6)C=C5)C=C4)cc2)c(Cl)c1
REMARK SMILES IDX 19 1 18 2 17 3 15 4 16 5 14 7 8 8 9 9 10 10 13 11 11 12 7 13
REMARK SMILES IDX 4 14 5 15 93 16 6 17 91 18 92 19 3 20 2 21 1 22 12 23 20 26
REMARK SMILES IDX 21 27 22 28 23 29 24 31 25 32 26 33 90 34 27 35 89 36 28 37
REMARK SMILES IDX 29 38 30 39 83 40 31 41 88 42 82 43 84 44 32 45 87 46 81 47
REMARK SMILES IDX 80 48 33 50 67 51 46 52 66 53 47 54 50 55 65 56 85 57 48 58
REMARK SMILES IDX 49 59 64 61 86 62 51 63 34 64 35 65 44 66 36 67 37 68 43 69
REMARK SMILES IDX 45 70 38 71 39 72 40 73 41 74 42 75 68 76 69 77 78 78 70 79
REMARK SMILES IDX 71 80 77 81 79 82 72 83 73 84 74 85 75 86 76 87 52 88 53 89
REMARK SMILES IDX 62 90 54 91 55 92 61 93 63 94 56 95 57 96 58 97 59 98 60 99
REMARK H PARENT 17 6 12 24 12 25 22 30 84 49 50 60
REMARK Flexibility Score: inf
ROOT
ATOM      1  C   UNL A   1      33.175  28.015  27.018  1.00  0.00     0.023 C 
ENDROOT
BRANCH   1   2
ATOM      2  C   UNL A   1      31.656  28.011  27.195  1.00  0.00     0.116 C 
BRANCH   2   3
ATOM      3  N   UNL A   1      31.100  26.685  27.021  1.00  0.00    -0.352 N 
ATOM      4  C   UNL A   1      30.734  25.908  25.950  1.00  0.00     0.252 C 
ATOM      5  O   UNL A   1      30.402  24.763  26.256  1.00  0.00    -0.269 OA
ATOM      6  H   UNL A   1      30.947  26.230  27.880  1.00  0.00     0.163 HD
BRANCH   4   7
ATOM      7  C   UNL A   1      30.763  26.332  24.502  1.00  0.00     0.052 A 
ATOM      8  C   UNL A   1      31.499  25.587  23.551  1.00  0.00     0.014 A 
ATOM      9  C   UNL A   1      31.568  26.112  22.255  1.00  0.00     0.123 A 
ATOM     10  N   UNL A   1      30.996  27.263  21.842  1.00  0.00    -0.239 NA
ATOM     11  C   UNL A   1      30.095  27.472  24.042  1.00  0.00     0.061 A 
ATOM     12  C   UNL A   1      30.270  27.924  22.742  1.00  0.00     0.124 A 
BRANCH   8  13
ATOM     13  C   UNL A   1      32.199  24.310  23.791  1.00  0.00     0.003 A 
ATOM     14  C   UNL A   1      33.406  21.815  24.292  1.00  0.00     0.120 A 
ATOM     15  C   UNL A   1      32.110  21.871  23.793  1.00  0.00     0.047 A 
ATOM     16  C   UNL A   1      34.097  22.988  24.586  1.00  0.00     0.067 A 
ATOM     17  C   UNL A   1      31.520  23.106  23.525  1.00  0.00     0.014 A 
ATOM     18  C   UNL A   1      33.494  24.228  24.346  1.00  0.00     0.052 A 
ATOM     19  Cl  UNL A   1      34.374  25.647  24.813  1.00  0.00    -0.084 Cl
BRANCH  14  20
ATOM     20  O   UNL A   1      33.987  20.623  24.621  1.00  0.00    -0.494 OA
BRANCH  20  21
ATOM     21  C   UNL A   1      33.065  19.694  25.206  1.00  0.00     0.226 C 
ATOM     22  C   UNL A   1      33.197  18.322  24.564  1.00  0.00     0.049 C 
ENDBRANCH  20  21
ENDBRANCH  14  20
ENDBRANCH   8  13
BRANCH  12  23
ATOM     23  N   UNL A   1      29.652  29.079  22.306  1.00  0.00    -0.384 N 
ATOM     24  H   UNL A   1      28.827  29.391  22.744  1.00  0.00     0.158 HD
ATOM     25  H   UNL A   1      30.035  29.589  21.556  1.00  0.00     0.158 HD
ENDBRANCH  12  23
ENDBRANCH   4   7
ENDBRANCH   2   3
ENDBRANCH   1   2
BRANCH   1  26
ATOM     26  C   UNL A   1      33.800  29.413  26.925  1.00  0.00     0.023 C 
BRANCH  26  27
ATOM     27  C   UNL A   1      35.174  29.559  27.573  1.00  0.00     0.116 C 
BRANCH  27  28
ATOM     28  N   UNL A   1      35.164  30.381  28.775  1.00  0.00    -0.352 N 
ATOM     29  C   UNL A   1      36.191  30.581  29.669  1.00  0.00     0.251 C 
ATOM     30  H   UNL A   1      34.321  30.850  28.971  1.00  0.00     0.163 HD
ATOM     31  O   UNL A   1      36.011  31.231  30.690  1.00  0.00    -0.269 OA
BRANCH  29  32
ATOM     32  C   UNL A   1      37.499  29.953  29.395  1.00  0.00     0.039 A 
ATOM     33  C   UNL A   1      37.967  29.916  28.079  1.00  0.00     0.014 A 
ATOM     34  C   UNL A   1      38.281  29.464  30.443  1.00  0.00     0.014 A 
ATOM     35  C   UNL A   1      39.260  29.454  27.821  1.00  0.00     0.010 A 
ATOM     36  C   UNL A   1      39.586  29.052  30.191  1.00  0.00     0.010 A 
ATOM     37  C   UNL A   1      40.091  29.055  28.880  1.00  0.00    -0.014 A 
BRANCH  37  38
ATOM     38  C   UNL A   1      41.501  28.650  28.656  1.00  0.00     0.031 A 
ATOM     39  C   UNL A   1      42.581  29.697  28.638  1.00  0.00     0.074 A 
ATOM     40  C   UNL A   1      41.788  27.369  28.355  1.00  0.00     0.049 A 
ATOM     41  N   UNL A   1      43.834  29.583  28.287  1.00  0.00    -0.248 NA
ATOM     42  C   UNL A   1      42.188  31.060  29.035  1.00  0.00     0.031 C 
ATOM     43  C   UNL A   1      40.817  26.273  28.290  1.00  0.00     0.029 A 
ATOM     44  N   UNL A   1      42.977  26.775  28.012  1.00  0.00    -0.354 N 
ATOM     45  C   UNL A   1      44.371  30.861  28.383  1.00  0.00     0.074 A 
ATOM     46  C   UNL A   1      43.302  31.739  28.806  1.00  0.00     0.031 C 
ATOM     47  C   UNL A   1      41.448  25.145  27.923  1.00  0.00     0.029 A 
ATOM     48  C   UNL A   1      42.858  25.442  27.691  1.00  0.00     0.049 A 
ATOM     49  H   UNL A   1      43.835  27.258  27.997  1.00  0.00     0.167 HD
ATOM     50  C   UNL A   1      45.642  31.259  28.146  1.00  0.00     0.037 A 
ATOM     51  C   UNL A   1      43.776  24.566  27.238  1.00  0.00     0.037 A 
ATOM     52  C   UNL A   1      46.711  30.369  27.785  1.00  0.00     0.049 A 
ATOM     53  C   UNL A   1      45.194  25.028  27.034  1.00  0.00     0.074 A 
ATOM     54  C   UNL A   1      48.053  30.664  27.612  1.00  0.00     0.029 A 
ATOM     55  N   UNL A   1      46.566  29.012  27.547  1.00  0.00    -0.354 N 
ATOM     56  N   UNL A   1      45.700  26.227  27.194  1.00  0.00    -0.248 NA
ATOM     57  C   UNL A   1      46.169  24.020  26.591  1.00  0.00     0.031 C 
ATOM     58  C   UNL A   1      48.715  29.489  27.245  1.00  0.00     0.029 A 
ATOM     59  C   UNL A   1      47.791  28.456  27.221  1.00  0.00     0.049 A 
ATOM     60  H   UNL A   1      45.717  28.515  27.603  1.00  0.00     0.167 HD
ATOM     61  C   UNL A   1      47.054  26.111  26.901  1.00  0.00     0.074 A 
ATOM     62  C   UNL A   1      47.291  24.725  26.557  1.00  0.00     0.031 C 
ATOM     63  C   UNL A   1      48.013  27.066  26.913  1.00  0.00     0.037 A 
BRANCH  50  64
ATOM     64  C   UNL A   1      45.959  32.720  28.281  1.00  0.00     0.058 A 
ATOM     65  C   UNL A   1      46.377  33.272  29.501  1.00  0.00     0.135 A 
ATOM     66  C   UNL A   1      45.914  33.563  27.159  1.00  0.00     0.135 A 
ATOM     67  F   UNL A   1      46.420  32.512  30.608  1.00  0.00    -0.206 F 
ATOM     68  C   UNL A   1      46.730  34.613  29.607  1.00  0.00     0.059 A 
ATOM     69  C   UNL A   1      46.283  34.902  27.237  1.00  0.00     0.059 A 
ATOM     70  F   UNL A   1      45.517  33.083  25.969  1.00  0.00    -0.206 F 
ATOM     71  C   UNL A   1      46.683  35.419  28.469  1.00  0.00     0.060 A 
BRANCH  71  72
ATOM     72  S   UNL A   1      47.181  37.149  28.613  1.00  0.00     0.124 S 
ATOM     73  O   UNL A   1      45.887  37.815  28.724  1.00  0.00    -0.237 OA
ATOM     74  O   UNL A   1      47.994  37.141  29.826  1.00  0.00    -0.237 OA
ATOM     75  O   UNL A   1      47.912  37.397  27.375  1.00  0.00    -0.744 OA
ENDBRANCH  71  72
ENDBRANCH  50  64
BRANCH  51  76
ATOM     76  C   UNL A   1      43.391  23.162  26.941  1.00  0.00     0.058 A 
ATOM     77  C   UNL A   1      43.106  22.258  27.976  1.00  0.00     0.135 A 
ATOM     78  C   UNL A   1      43.321  22.689  25.622  1.00  0.00     0.135 A 
ATOM     79  F   UNL A   1      43.164  22.663  29.253  1.00  0.00    -0.206 F 
ATOM     80  C   UNL A   1      42.797  20.927  27.716  1.00  0.00     0.059 A 
ATOM     81  C   UNL A   1      42.993  21.368  25.336  1.00  0.00     0.059 A 
ATOM     82  F   UNL A   1      43.567  23.519  24.596  1.00  0.00    -0.206 F 
ATOM     83  C   UNL A   1      42.750  20.490  26.392  1.00  0.00     0.060 A 
BRANCH  83  84
ATOM     84  S   UNL A   1      42.333  18.764  26.059  1.00  0.00     0.124 S 
ATOM     85  O   UNL A   1      43.244  18.451  24.963  1.00  0.00    -0.237 OA
ATOM     86  O   UNL A   1      42.627  18.121  27.336  1.00  0.00    -0.237 OA
ATOM     87  O   UNL A   1      40.918  18.824  25.708  1.00  0.00    -0.744 OA
ENDBRANCH  83  84
ENDBRANCH  51  76
BRANCH  63  88
ATOM     88  C   UNL A   1      49.418  26.648  26.596  1.00  0.00     0.058 A 
ATOM     89  C   UNL A   1      50.288  26.180  27.591  1.00  0.00     0.135 A 
ATOM     90  C   UNL A   1      49.868  26.634  25.267  1.00  0.00     0.135 A 
ATOM     91  F   UNL A   1      49.905  26.182  28.878  1.00  0.00    -0.206 F 
ATOM     92  C   UNL A   1      51.561  25.715  27.280  1.00  0.00     0.059 A 
ATOM     93  C   UNL A   1      51.130  26.154  24.929  1.00  0.00     0.059 A 
ATOM     94  F   UNL A   1      49.068  27.065  24.277  1.00  0.00    -0.206 F 
ATOM     95  C   UNL A   1      51.970  25.701  25.945  1.00  0.00     0.060 A 
BRANCH  95  96
ATOM     96  S   UNL A   1      53.599  25.032  25.542  1.00  0.00     0.124 S 
ATOM     97  O   UNL A   1      54.335  25.288  26.777  1.00  0.00    -0.237 OA
ATOM     98  O   UNL A   1      53.303  23.631  25.260  1.00  0.00    -0.237 OA
ATOM     99  O   UNL A   1      54.013  25.823  24.388  1.00  0.00    -0.744 OA
ENDBRANCH  95  96
ENDBRANCH  63  88
ENDBRANCH  37  38
ENDBRANCH  29  32
ENDBRANCH  27  28
ENDBRANCH  26  27
ENDBRANCH   1  26
TORSDOF 18
ENDMDL
MODEL 3
REMARK VINA RESULT:     -12.0      1.470      3.238
REMARK SMILES CCOc1ccc(-c2cnc(N)cc2C(=O)NCCCCNC(=O)c2ccc(-c3c4nc(c(-c5c(F)cc(S(=O)(=O)[O-])cc5F)c5ccc([nH]5)c(-c5c(F)cc(S(=O)(=O)[O-])cc5F)c5nc(c(-c6c(F)cc(S(=O)(=O)[O-])cc6F)c6ccc3[nH]6)C=C5)C=C4)cc2)c(Cl)c1
REMARK SMILES IDX 19 1 18 2 17 3 15 4 16 5 14 7 8 8 9 9 10 10 13 11 11 12 7 13
REMARK SMILES IDX 4 14 5 15 93 16 6 17 91 18 92 19 3 20 2 21 1 22 12 23 20 26
REMARK SMILES IDX 21 27 22 28 23 29 24 31 25 32 26 33 90 34 27 35 89 36 28 37
REMARK SMILES IDX 29 38 30 39 83 40 31 41 88 42 82 43 84 44 32 45 87 46 81 47
REMARK SMILES IDX 80 48 33 50 67 51 46 52 66 53 47 54 50 55 65 56 85 57 48 58
REMARK SMILES IDX 49 59 64 61 86 62 51 63 34 64 35 65 44 66 36 67 37 68 43 69
REMARK SMILES IDX 45 70 38 71 39 72 40 73 41 74 42 75 68 76 69 77 78 78 70 79
REMARK SMILES IDX 71 80 77 81 79 82 72 83 73 84 74 85 75 86 76 87 52 88 53 89
REMARK SMILES IDX 62 90 54 91 55 92 61 93 63 94 56 95 57 96 58 97 59 98 60 99
REMARK H PARENT 17 6 12 24 12 25 22 30 84 49 50 60
REMARK Flexibility Score: inf
ROOT
ATOM      1  C   UNL A   1      36.106  23.299  26.179  1.00  0.00     0.023 C 
ENDROOT
BRANCH   1   2
ATOM      2  C   UNL A   1      35.360  24.450  25.502  1.00  0.00     0.116 C 
BRANCH   2   3
ATOM      3  N   UNL A   1      35.086  24.164  24.109  1.00  0.00    -0.352 N 
ATOM      4  C   UNL A   1      34.367  23.213  23.427  1.00  0.00     0.252 C 
ATOM      5  O   UNL A   1      34.304  23.413  22.213  1.00  0.00    -0.269 OA
ATOM      6  H   UNL A   1      35.520  24.807  23.504  1.00  0.00     0.163 HD
BRANCH   4   7
ATOM      7  C   UNL A   1      33.648  22.040  24.044  1.00  0.00     0.052 A 
ATOM      8  C   UNL A   1      32.340  22.190  24.561  1.00  0.00     0.014 A 
ATOM      9  C   UNL A   1      31.790  21.082  25.218  1.00  0.00     0.123 A 
ATOM     10  N   UNL A   1      32.403  19.893  25.401  1.00  0.00    -0.239 NA
ATOM     11  C   UNL A   1      34.237  20.774  24.154  1.00  0.00     0.061 A 
ATOM     12  C   UNL A   1      33.615  19.759  24.866  1.00  0.00     0.124 A 
BRANCH   8  13
ATOM     13  C   UNL A   1      31.497  23.398  24.473  1.00  0.00     0.003 A 
ATOM     14  C   UNL A   1      29.939  25.724  24.167  1.00  0.00     0.120 A 
ATOM     15  C   UNL A   1      30.142  24.878  23.084  1.00  0.00     0.047 A 
ATOM     16  C   UNL A   1      30.537  25.450  25.394  1.00  0.00     0.067 A 
ATOM     17  C   UNL A   1      30.896  23.715  23.240  1.00  0.00     0.014 A 
ATOM     18  C   UNL A   1      31.320  24.299  25.544  1.00  0.00     0.052 A 
ATOM     19  Cl  UNL A   1      32.105  24.061  27.072  1.00  0.00    -0.084 Cl
BRANCH  14  20
ATOM     20  O   UNL A   1      29.256  26.900  24.029  1.00  0.00    -0.494 OA
BRANCH  20  21
ATOM     21  C   UNL A   1      29.850  27.781  23.068  1.00  0.00     0.226 C 
ATOM     22  C   UNL A   1      31.077  28.468  23.646  1.00  0.00     0.049 C 
ENDBRANCH  20  21
ENDBRANCH  14  20
ENDBRANCH   8  13
BRANCH  12  23
ATOM     23  N   UNL A   1      34.222  18.528  25.017  1.00  0.00    -0.384 N 
ATOM     24  H   UNL A   1      35.116  18.466  25.426  1.00  0.00     0.158 HD
ATOM     25  H   UNL A   1      33.761  17.712  24.715  1.00  0.00     0.158 HD
ENDBRANCH  12  23
ENDBRANCH   4   7
ENDBRANCH   2   3
ENDBRANCH   1   2
BRANCH   1  26
ATOM     26  C   UNL A   1      37.578  23.166  25.767  1.00  0.00     0.023 C 
BRANCH  26  27
ATOM     27  C   UNL A   1      38.535  24.151  26.434  1.00  0.00     0.116 C 
BRANCH  27  28
ATOM     28  N   UNL A   1      39.937  23.876  26.155  1.00  0.00    -0.352 N 
ATOM     29  C   UNL A   1      41.038  24.572  26.599  1.00  0.00     0.251 C 
ATOM     30  H   UNL A   1      40.119  23.100  25.578  1.00  0.00     0.163 HD
ATOM     31  O   UNL A   1      42.160  24.279  26.210  1.00  0.00    -0.269 OA
BRANCH  29  32
ATOM     32  C   UNL A   1      40.831  25.710  27.519  1.00  0.00     0.039 A 
ATOM     33  C   UNL A   1      39.852  25.606  28.510  1.00  0.00     0.014 A 
ATOM     34  C   UNL A   1      41.645  26.841  27.436  1.00  0.00     0.014 A 
ATOM     35  C   UNL A   1      39.740  26.612  29.474  1.00  0.00     0.010 A 
ATOM     36  C   UNL A   1      41.566  27.816  28.425  1.00  0.00     0.010 A 
ATOM     37  C   UNL A   1      40.621  27.705  29.459  1.00  0.00    -0.014 A 
BRANCH  37  38
ATOM     38  C   UNL A   1      40.595  28.743  30.519  1.00  0.00     0.031 A 
ATOM     39  C   UNL A   1      41.470  28.588  31.732  1.00  0.00     0.074 A 
ATOM     40  C   UNL A   1      39.706  29.753  30.443  1.00  0.00     0.049 A 
ATOM     41  N   UNL A   1      41.470  29.277  32.842  1.00  0.00    -0.248 NA
ATOM     42  C   UNL A   1      42.451  27.490  31.704  1.00  0.00     0.031 C 
ATOM     43  C   UNL A   1      38.769  29.978  29.340  1.00  0.00     0.029 A 
ATOM     44  N   UNL A   1      39.421  30.762  31.329  1.00  0.00    -0.354 N 
ATOM     45  C   UNL A   1      42.419  28.675  33.660  1.00  0.00     0.074 A 
ATOM     46  C   UNL A   1      42.962  27.554  32.926  1.00  0.00     0.031 C 
ATOM     47  C   UNL A   1      38.008  31.051  29.619  1.00  0.00     0.029 A 
ATOM     48  C   UNL A   1      38.378  31.567  30.933  1.00  0.00     0.049 A 
ATOM     49  H   UNL A   1      39.916  30.896  32.170  1.00  0.00     0.167 HD
ATOM     50  C   UNL A   1      42.806  29.035  34.906  1.00  0.00     0.037 A 
ATOM     51  C   UNL A   1      37.772  32.591  31.568  1.00  0.00     0.037 A 
ATOM     52  C   UNL A   1      42.305  30.187  35.604  1.00  0.00     0.049 A 
ATOM     53  C   UNL A   1      38.260  32.999  32.933  1.00  0.00     0.074 A 
ATOM     54  C   UNL A   1      42.700  30.687  36.833  1.00  0.00     0.029 A 
ATOM     55  N   UNL A   1      41.305  31.025  35.134  1.00  0.00    -0.354 N 
ATOM     56  N   UNL A   1      39.206  32.460  33.664  1.00  0.00    -0.248 NA
ATOM     57  C   UNL A   1      37.602  34.156  33.559  1.00  0.00     0.031 C 
ATOM     58  C   UNL A   1      41.922  31.812  37.119  1.00  0.00     0.029 A 
ATOM     59  C   UNL A   1      41.064  32.032  36.052  1.00  0.00     0.049 A 
ATOM     60  H   UNL A   1      40.836  30.920  34.275  1.00  0.00     0.167 HD
ATOM     61  C   UNL A   1      39.277  33.229  34.820  1.00  0.00     0.074 A 
ATOM     62  C   UNL A   1      38.282  34.272  34.692  1.00  0.00     0.031 C 
ATOM     63  C   UNL A   1      40.091  33.082  35.892  1.00  0.00     0.037 A 
BRANCH  50  64
ATOM     64  C   UNL A   1      43.831  28.186  35.598  1.00  0.00     0.058 A 
ATOM     65  C   UNL A   1      45.206  28.421  35.445  1.00  0.00     0.135 A 
ATOM     66  C   UNL A   1      43.432  27.170  36.481  1.00  0.00     0.135 A 
ATOM     67  F   UNL A   1      45.639  29.368  34.599  1.00  0.00    -0.206 F 
ATOM     68  C   UNL A   1      46.150  27.672  36.137  1.00  0.00     0.059 A 
ATOM     69  C   UNL A   1      44.359  26.423  37.201  1.00  0.00     0.059 A 
ATOM     70  F   UNL A   1      42.127  26.903  36.659  1.00  0.00    -0.206 F 
ATOM     71  C   UNL A   1      45.718  26.677  37.015  1.00  0.00     0.060 A 
BRANCH  71  72
ATOM     72  S   UNL A   1      46.954  25.737  37.936  1.00  0.00     0.124 S 
ATOM     73  O   UNL A   1      46.821  24.414  37.335  1.00  0.00    -0.237 OA
ATOM     74  O   UNL A   1      48.188  26.453  37.623  1.00  0.00    -0.237 OA
ATOM     75  O   UNL A   1      46.505  25.847  39.320  1.00  0.00    -0.744 OA
ENDBRANCH  71  72
ENDBRANCH  50  64
BRANCH  51  76
ATOM     76  C   UNL A   1      36.636  33.303  30.929  1.00  0.00     0.058 A 
ATOM     77  C   UNL A   1      35.319  33.103  31.370  1.00  0.00     0.135 A 
ATOM     78  C   UNL A   1      36.839  34.180  29.853  1.00  0.00     0.135 A 
ATOM     79  F   UNL A   1      35.076  32.271  32.393  1.00  0.00    -0.206 F 
ATOM     80  C   UNL A   1      34.240  33.721  30.747  1.00  0.00     0.059 A 
ATOM     81  C   UNL A   1      35.779  34.827  29.227  1.00  0.00     0.059 A 
ATOM     82  F   UNL A   1      38.082  34.419  29.406  1.00  0.00    -0.206 F 
ATOM     83  C   UNL A   1      34.480  34.577  29.671  1.00  0.00     0.060 A 
BRANCH  83  84
ATOM     84  S   UNL A   1      33.077  35.389  28.874  1.00  0.00     0.124 S 
ATOM     85  O   UNL A   1      33.744  36.425  28.096  1.00  0.00    -0.237 OA
ATOM     86  O   UNL A   1      32.481  34.299  28.108  1.00  0.00    -0.237 OA
ATOM     87  O   UNL A   1      32.279  35.859  30.003  1.00  0.00    -0.744 OA
ENDBRANCH  83  84
ENDBRANCH  51  76
BRANCH  63  88
ATOM     88  C   UNL A   1      39.984  34.095  36.993  1.00  0.00     0.058 A 
ATOM     89  C   UNL A   1      40.612  35.345  36.905  1.00  0.00     0.135 A 
ATOM     90  C   UNL A   1      39.171  33.843  38.109  1.00  0.00     0.135 A 
ATOM     91  F   UNL A   1      41.406  35.630  35.860  1.00  0.00    -0.206 F 
ATOM     92  C   UNL A   1      40.442  36.312  37.889  1.00  0.00     0.059 A 
ATOM     93  C   UNL A   1      38.969  34.802  39.096  1.00  0.00     0.059 A 
ATOM     94  F   UNL A   1      38.541  32.663  38.234  1.00  0.00    -0.206 F 
ATOM     95  C   UNL A   1      39.613  36.033  38.979  1.00  0.00     0.060 A 
BRANCH  95  96
ATOM     96  S   UNL A   1      39.344  37.319  40.218  1.00  0.00     0.124 S 
ATOM     97  O   UNL A   1      38.536  38.279  39.474  1.00  0.00    -0.237 OA
ATOM     98  O   UNL A   1      38.650  36.594  41.279  1.00  0.00    -0.237 OA
ATOM     99  O   UNL A   1      40.696  37.757  40.550  1.00  0.00    -0.744 OA
ENDBRANCH  95  96
ENDBRANCH  63  88
ENDBRANCH  37  38
ENDBRANCH  29  32
ENDBRANCH  27  28
ENDBRANCH  26  27
ENDBRANCH   1  26
TORSDOF 18
ENDMDL
