MODEL 1
REMARK VINA RESULT:     -12.5      0.000      0.000
REMARK SMILES C[C@@H]1CCCCN1C(=O)Cn1cc(C(=O)NCCCCNC(=O)c2ccc(-c3c4nc(c(-c5c(F)cc(S(=O)(=O)[O-])cc5F)c5ccc([nH]5)c(-c5c(F)cc(S(=O)(=O)[O-])cc5F)c5nc(c(-c6c(F)cc(S(=O)(=O)[O-])cc6F)c6ccc3[nH]6)C=C5)C=C4)cc2)cn1
REMARK SMILES IDX 18 1 17 2 16 3 14 4 15 5 13 7 11 8 12 9 91 10 90 11 10 12
REMARK SMILES IDX 8 13 9 14 7 15 1 16 2 17 3 18 4 19 6 20 5 21 19 22 20 23
REMARK SMILES IDX 21 24 22 25 23 27 24 28 25 29 89 30 26 31 88 32 27 33 28 34
REMARK SMILES IDX 29 35 82 36 30 37 87 38 81 39 83 40 31 41 86 42 80 43 79 44
REMARK SMILES IDX 32 46 66 47 45 48 65 49 46 50 49 51 64 52 84 53 47 54 48 55
REMARK SMILES IDX 63 57 85 58 50 59 33 60 34 61 43 62 35 63 36 64 42 65 44 66
REMARK SMILES IDX 37 67 38 68 39 69 40 70 41 71 67 72 68 73 77 74 69 75 70 76
REMARK SMILES IDX 76 77 78 78 71 79 72 80 73 81 74 82 75 83 51 84 52 85 61 86
REMARK SMILES IDX 53 87 54 88 60 89 62 90 55 91 56 92 57 93 58 94 59 95
REMARK H PARENT 16 6 21 26 83 45 49 56
REMARK Flexibility Score: inf
ROOT
ATOM      1  C   UNL A   1      35.857  21.903  25.341  1.00  0.00     0.023 C 
ENDROOT
BRANCH   1   2
ATOM      2  C   UNL A   1      34.675  22.110  24.391  1.00  0.00     0.116 C 
BRANCH   2   3
ATOM      3  N   UNL A   1      33.677  21.074  24.571  1.00  0.00    -0.352 N 
ATOM      4  C   UNL A   1      32.425  21.105  25.122  1.00  0.00     0.254 C 
ATOM      5  O   UNL A   1      31.765  20.065  25.092  1.00  0.00    -0.269 OA
ATOM      6  H   UNL A   1      33.949  20.190  24.237  1.00  0.00     0.163 HD
BRANCH   4   7
ATOM      7  C   UNL A   1      31.863  22.321  25.675  1.00  0.00     0.077 A 
ATOM      8  N   UNL A   1      30.815  24.210  26.120  1.00  0.00    -0.262 N 
ATOM      9  C   UNL A   1      31.056  23.301  25.127  1.00  0.00     0.123 A 
ATOM     10  N   UNL A   1      31.428  23.903  27.278  1.00  0.00    -0.180 NA
ATOM     11  C   UNL A   1      32.103  22.789  26.989  1.00  0.00     0.149 A 
BRANCH   8  12
ATOM     12  C   UNL A   1      29.975  25.391  26.057  1.00  0.00     0.244 C 
BRANCH  12  13
ATOM     13  C   UNL A   1      30.649  26.567  25.381  1.00  0.00     0.244 C 
ATOM     14  O   UNL A   1      30.129  27.054  24.370  1.00  0.00    -0.273 OA
BRANCH  13  15
ATOM     15  N   UNL A   1      31.811  27.106  25.928  1.00  0.00    -0.338 N 
ATOM     16  C   UNL A   1      33.986  25.969  25.526  1.00  0.00     0.031 C 
ATOM     17  C   UNL A   1      33.117  27.191  25.244  1.00  0.00     0.082 C 
ATOM     18  C   UNL A   1      33.861  28.495  25.601  1.00  0.00     0.025 C 
ATOM     19  C   UNL A   1      32.868  29.627  25.852  1.00  0.00     0.004 C 
ATOM     20  C   UNL A   1      31.736  27.793  27.213  1.00  0.00     0.120 C 
ATOM     21  C   UNL A   1      31.956  29.297  27.039  1.00  0.00     0.022 C 
ENDBRANCH  13  15
ENDBRANCH  12  13
ENDBRANCH   8  12
ENDBRANCH   4   7
ENDBRANCH   2   3
ENDBRANCH   1   2
BRANCH   1  22
ATOM     22  C   UNL A   1      37.239  22.095  24.695  1.00  0.00     0.023 C 
BRANCH  22  23
ATOM     23  C   UNL A   1      38.238  22.869  25.550  1.00  0.00     0.116 C 
BRANCH  23  24
ATOM     24  N   UNL A   1      38.906  22.023  26.535  1.00  0.00    -0.352 N 
ATOM     25  C   UNL A   1      39.988  22.345  27.327  1.00  0.00     0.251 C 
ATOM     26  H   UNL A   1      38.542  21.116  26.647  1.00  0.00     0.163 HD
ATOM     27  O   UNL A   1      40.686  21.461  27.819  1.00  0.00    -0.269 OA
BRANCH  25  28
ATOM     28  C   UNL A   1      40.298  23.765  27.566  1.00  0.00     0.039 A 
ATOM     29  C   UNL A   1      39.338  24.751  27.335  1.00  0.00     0.014 A 
ATOM     30  C   UNL A   1      41.553  24.097  28.076  1.00  0.00     0.014 A 
ATOM     31  C   UNL A   1      39.614  26.061  27.720  1.00  0.00     0.010 A 
ATOM     32  C   UNL A   1      41.786  25.372  28.550  1.00  0.00     0.010 A 
ATOM     33  C   UNL A   1      40.826  26.366  28.366  1.00  0.00    -0.014 A 
BRANCH  33  34
ATOM     34  C   UNL A   1      40.999  27.679  29.001  1.00  0.00     0.031 A 
ATOM     35  C   UNL A   1      42.145  28.471  28.466  1.00  0.00     0.074 A 
ATOM     36  C   UNL A   1      40.115  28.248  29.852  1.00  0.00     0.049 A 
ATOM     37  N   UNL A   1      43.239  28.787  29.077  1.00  0.00    -0.248 NA
ATOM     38  C   UNL A   1      42.138  28.839  27.040  1.00  0.00     0.031 C 
ATOM     39  C   UNL A   1      38.804  27.727  30.258  1.00  0.00     0.029 A 
ATOM     40  N   UNL A   1      40.160  29.467  30.470  1.00  0.00    -0.354 N 
ATOM     41  C   UNL A   1      43.949  29.600  28.196  1.00  0.00     0.074 A 
ATOM     42  C   UNL A   1      43.322  29.443  26.910  1.00  0.00     0.031 C 
ATOM     43  C   UNL A   1      38.093  28.705  30.862  1.00  0.00     0.029 A 
ATOM     44  C   UNL A   1      38.957  29.853  31.055  1.00  0.00     0.049 A 
ATOM     45  H   UNL A   1      40.972  30.023  30.500  1.00  0.00     0.167 HD
ATOM     46  C   UNL A   1      44.823  30.536  28.660  1.00  0.00     0.037 A 
ATOM     47  C   UNL A   1      38.677  31.016  31.693  1.00  0.00     0.037 A 
ATOM     48  C   UNL A   1      45.109  30.324  30.056  1.00  0.00     0.049 A 
ATOM     49  C   UNL A   1      39.957  31.565  32.190  1.00  0.00     0.074 A 
ATOM     50  C   UNL A   1      45.852  29.434  30.800  1.00  0.00     0.029 A 
ATOM     51  N   UNL A   1      44.224  30.932  30.906  1.00  0.00    -0.354 N 
ATOM     52  N   UNL A   1      40.681  30.977  33.103  1.00  0.00    -0.248 NA
ATOM     53  C   UNL A   1      40.632  32.620  31.444  1.00  0.00     0.031 C 
ATOM     54  C   UNL A   1      45.228  29.374  32.083  1.00  0.00     0.029 A 
ATOM     55  C   UNL A   1      44.148  30.255  32.096  1.00  0.00     0.049 A 
ATOM     56  H   UNL A   1      43.712  31.744  30.692  1.00  0.00     0.167 HD
ATOM     57  C   UNL A   1      41.981  31.269  32.747  1.00  0.00     0.074 A 
ATOM     58  C   UNL A   1      41.887  32.417  31.855  1.00  0.00     0.031 C 
ATOM     59  C   UNL A   1      42.981  30.364  32.946  1.00  0.00     0.037 A 
BRANCH  46  60
ATOM     60  C   UNL A   1      45.061  31.892  28.022  1.00  0.00     0.058 A 
ATOM     61  C   UNL A   1      46.344  32.211  27.524  1.00  0.00     0.135 A 
ATOM     62  C   UNL A   1      44.175  32.984  28.154  1.00  0.00     0.135 A 
ATOM     63  F   UNL A   1      47.274  31.255  27.371  1.00  0.00    -0.206 F 
ATOM     64  C   UNL A   1      46.733  33.523  27.236  1.00  0.00     0.059 A 
ATOM     65  C   UNL A   1      44.526  34.290  27.824  1.00  0.00     0.059 A 
ATOM     66  F   UNL A   1      42.962  32.855  28.704  1.00  0.00    -0.206 F 
ATOM     67  C   UNL A   1      45.817  34.558  27.403  1.00  0.00     0.060 A 
BRANCH  67  68
ATOM     68  S   UNL A   1      46.334  36.260  27.116  1.00  0.00     0.124 S 
ATOM     69  O   UNL A   1      46.695  36.223  25.703  1.00  0.00    -0.237 OA
ATOM     70  O   UNL A   1      45.126  37.005  27.450  1.00  0.00    -0.237 OA
ATOM     71  O   UNL A   1      47.446  36.433  28.046  1.00  0.00    -0.744 OA
ENDBRANCH  67  68
ENDBRANCH  46  60
BRANCH  47  72
ATOM     72  C   UNL A   1      37.398  31.761  31.768  1.00  0.00     0.058 A 
ATOM     73  C   UNL A   1      36.731  31.969  32.988  1.00  0.00     0.135 A 
ATOM     74  C   UNL A   1      36.954  32.529  30.673  1.00  0.00     0.135 A 
ATOM     75  F   UNL A   1      37.102  31.292  34.084  1.00  0.00    -0.206 F 
ATOM     76  C   UNL A   1      35.716  32.921  33.127  1.00  0.00     0.059 A 
ATOM     77  C   UNL A   1      35.942  33.482  30.788  1.00  0.00     0.059 A 
ATOM     78  F   UNL A   1      37.560  32.436  29.480  1.00  0.00    -0.206 F 
ATOM     79  C   UNL A   1      35.344  33.691  32.025  1.00  0.00     0.060 A 
BRANCH  79  80
ATOM     80  S   UNL A   1      34.160  35.042  32.247  1.00  0.00     0.124 S 
ATOM     81  O   UNL A   1      33.076  34.379  32.964  1.00  0.00    -0.237 OA
ATOM     82  O   UNL A   1      34.936  36.008  33.018  1.00  0.00    -0.237 OA
ATOM     83  O   UNL A   1      33.848  35.447  30.880  1.00  0.00    -0.744 OA
ENDBRANCH  79  80
ENDBRANCH  47  72
BRANCH  59  84
ATOM     84  C   UNL A   1      42.770  29.324  34.008  1.00  0.00     0.058 A 
ATOM     85  C   UNL A   1      42.994  29.519  35.381  1.00  0.00     0.135 A 
ATOM     86  C   UNL A   1      42.249  28.083  33.613  1.00  0.00     0.135 A 
ATOM     87  F   UNL A   1      43.416  30.701  35.850  1.00  0.00    -0.206 F 
ATOM     88  C   UNL A   1      42.747  28.511  36.316  1.00  0.00     0.059 A 
ATOM     89  C   UNL A   1      41.967  27.074  34.529  1.00  0.00     0.059 A 
ATOM     90  F   UNL A   1      41.970  27.853  32.319  1.00  0.00    -0.206 F 
ATOM     91  C   UNL A   1      42.233  27.290  35.878  1.00  0.00     0.060 A 
BRANCH  91  92
ATOM     92  S   UNL A   1      41.850  26.010  37.092  1.00  0.00     0.124 S 
ATOM     93  O   UNL A   1      42.791  26.312  38.166  1.00  0.00    -0.237 OA
ATOM     94  O   UNL A   1      40.444  26.263  37.391  1.00  0.00    -0.237 OA
ATOM     95  O   UNL A   1      42.109  24.767  36.368  1.00  0.00    -0.744 OA
ENDBRANCH  91  92
ENDBRANCH  59  84
ENDBRANCH  33  34
ENDBRANCH  25  28
ENDBRANCH  23  24
ENDBRANCH  22  23
ENDBRANCH   1  22
TORSDOF 17
ENDMDL
MODEL 2
REMARK VINA RESULT:     -12.3      1.112      2.025
REMARK SMILES C[C@@H]1CCCCN1C(=O)Cn1cc(C(=O)NCCCCNC(=O)c2ccc(-c3c4nc(c(-c5c(F)cc(S(=O)(=O)[O-])cc5F)c5ccc([nH]5)c(-c5c(F)cc(S(=O)(=O)[O-])cc5F)c5nc(c(-c6c(F)cc(S(=O)(=O)[O-])cc6F)c6ccc3[nH]6)C=C5)C=C4)cc2)cn1
REMARK SMILES IDX 18 1 17 2 16 3 14 4 15 5 13 7 11 8 12 9 91 10 90 11 10 12
REMARK SMILES IDX 8 13 9 14 7 15 1 16 2 17 3 18 4 19 6 20 5 21 19 22 20 23
REMARK SMILES IDX 21 24 22 25 23 27 24 28 25 29 89 30 26 31 88 32 27 33 28 34
REMARK SMILES IDX 29 35 82 36 30 37 87 38 81 39 83 40 31 41 86 42 80 43 79 44
REMARK SMILES IDX 32 46 66 47 45 48 65 49 46 50 49 51 64 52 84 53 47 54 48 55
REMARK SMILES IDX 63 57 85 58 50 59 33 60 34 61 43 62 35 63 36 64 42 65 44 66
REMARK SMILES IDX 37 67 38 68 39 69 40 70 41 71 67 72 68 73 77 74 69 75 70 76
REMARK SMILES IDX 76 77 78 78 71 79 72 80 73 81 74 82 75 83 51 84 52 85 61 86
REMARK SMILES IDX 53 87 54 88 60 89 62 90 55 91 56 92 57 93 58 94 59 95
REMARK H PARENT 16 6 21 26 83 45 49 56
REMARK Flexibility Score: inf
ROOT
ATOM      1  C   UNL A   1      37.468  20.773  25.007  1.00  0.00     0.023 C 
ENDROOT
BRANCH   1   2
ATOM      2  C   UNL A   1      35.988  20.982  25.331  1.00  0.00     0.116 C 
BRANCH   2   3
ATOM      3  N   UNL A   1      35.206  19.819  24.962  1.00  0.00    -0.352 N 
ATOM      4  C   UNL A   1      33.886  19.679  24.628  1.00  0.00     0.254 C 
ATOM      5  O   UNL A   1      33.498  18.557  24.301  1.00  0.00    -0.269 OA
ATOM      6  H   UNL A   1      35.716  18.978  24.949  1.00  0.00     0.163 HD
BRANCH   4   7
ATOM      7  C   UNL A   1      32.980  20.811  24.604  1.00  0.00     0.077 A 
ATOM      8  N   UNL A   1      31.678  22.527  24.130  1.00  0.00    -0.262 N 
ATOM      9  C   UNL A   1      32.554  21.634  23.577  1.00  0.00     0.123 A 
ATOM     10  N   UNL A   1      31.518  22.359  25.456  1.00  0.00    -0.180 NA
ATOM     11  C   UNL A   1      32.347  21.354  25.747  1.00  0.00     0.149 A 
BRANCH   8  12
ATOM     12  C   UNL A   1      30.918  23.560  23.453  1.00  0.00     0.244 C 
BRANCH  12  13
ATOM     13  C   UNL A   1      31.012  24.912  24.130  1.00  0.00     0.244 C 
ATOM     14  O   UNL A   1      29.973  25.469  24.500  1.00  0.00    -0.273 OA
BRANCH  13  15
ATOM     15  N   UNL A   1      32.262  25.481  24.364  1.00  0.00    -0.338 N 
ATOM     16  C   UNL A   1      32.563  26.990  26.318  1.00  0.00     0.031 C 
ATOM     17  C   UNL A   1      32.893  25.639  25.690  1.00  0.00     0.082 C 
ATOM     18  C   UNL A   1      34.418  25.416  25.622  1.00  0.00     0.025 C 
ATOM     19  C   UNL A   1      34.762  24.391  24.545  1.00  0.00     0.004 C 
ATOM     20  C   UNL A   1      33.112  25.816  23.227  1.00  0.00     0.120 C 
ATOM     21  C   UNL A   1      34.325  24.887  23.163  1.00  0.00     0.022 C 
ENDBRANCH  13  15
ENDBRANCH  12  13
ENDBRANCH   8  12
ENDBRANCH   4   7
ENDBRANCH   2   3
ENDBRANCH   1   2
BRANCH   1  22
ATOM     22  C   UNL A   1      38.376  21.961  25.366  1.00  0.00     0.023 C 
BRANCH  22  23
ATOM     23  C   UNL A   1      39.447  21.651  26.408  1.00  0.00     0.116 C 
BRANCH  23  24
ATOM     24  N   UNL A   1      40.798  21.700  25.855  1.00  0.00    -0.352 N 
ATOM     25  C   UNL A   1      41.632  22.794  25.763  1.00  0.00     0.251 C 
ATOM     26  H   UNL A   1      41.154  20.852  25.505  1.00  0.00     0.163 HD
ATOM     27  O   UNL A   1      42.559  22.806  24.957  1.00  0.00    -0.269 OA
BRANCH  25  28
ATOM     28  C   UNL A   1      41.389  23.949  26.642  1.00  0.00     0.039 A 
ATOM     29  C   UNL A   1      41.989  24.025  27.900  1.00  0.00     0.014 A 
ATOM     30  C   UNL A   1      40.588  24.990  26.170  1.00  0.00     0.014 A 
ATOM     31  C   UNL A   1      41.861  25.202  28.635  1.00  0.00     0.010 A 
ATOM     32  C   UNL A   1      40.548  26.188  26.852  1.00  0.00     0.010 A 
ATOM     33  C   UNL A   1      41.172  26.302  28.093  1.00  0.00    -0.014 A 
BRANCH  33  34
ATOM     34  C   UNL A   1      41.266  27.612  28.750  1.00  0.00     0.031 A 
ATOM     35  C   UNL A   1      42.435  28.432  28.317  1.00  0.00     0.074 A 
ATOM     36  C   UNL A   1      40.304  28.155  29.530  1.00  0.00     0.049 A 
ATOM     37  N   UNL A   1      43.469  28.764  29.017  1.00  0.00    -0.248 NA
ATOM     38  C   UNL A   1      42.538  28.814  26.898  1.00  0.00     0.031 C 
ATOM     39  C   UNL A   1      38.976  27.605  29.824  1.00  0.00     0.029 A 
ATOM     40  N   UNL A   1      40.273  29.369  30.159  1.00  0.00    -0.354 N 
ATOM     41  C   UNL A   1      44.232  29.599  28.204  1.00  0.00     0.074 A 
ATOM     42  C   UNL A   1      43.716  29.442  26.870  1.00  0.00     0.031 C 
ATOM     43  C   UNL A   1      38.197  28.563  30.375  1.00  0.00     0.029 A 
ATOM     44  C   UNL A   1      39.020  29.727  30.647  1.00  0.00     0.049 A 
ATOM     45  H   UNL A   1      41.069  29.941  30.260  1.00  0.00     0.167 HD
ATOM     46  C   UNL A   1      45.046  30.548  28.745  1.00  0.00     0.037 A 
ATOM     47  C   UNL A   1      38.665  30.877  31.269  1.00  0.00     0.037 A 
ATOM     48  C   UNL A   1      45.221  30.328  30.158  1.00  0.00     0.049 A 
ATOM     49  C   UNL A   1      39.888  31.447  31.873  1.00  0.00     0.074 A 
ATOM     50  C   UNL A   1      45.919  29.446  30.953  1.00  0.00     0.029 A 
ATOM     51  N   UNL A   1      44.258  30.910  30.937  1.00  0.00    -0.354 N 
ATOM     52  N   UNL A   1      40.547  30.865  32.837  1.00  0.00    -0.248 NA
ATOM     53  C   UNL A   1      40.600  32.522  31.193  1.00  0.00     0.031 C 
ATOM     54  C   UNL A   1      45.194  29.362  32.180  1.00  0.00     0.029 A 
ATOM     55  C   UNL A   1      44.099  30.221  32.112  1.00  0.00     0.049 A 
ATOM     56  H   UNL A   1      43.748  31.714  30.689  1.00  0.00     0.167 HD
ATOM     57  C   UNL A   1      41.865  31.186  32.592  1.00  0.00     0.074 A 
ATOM     58  C   UNL A   1      41.822  32.340  31.704  1.00  0.00     0.031 C 
ATOM     59  C   UNL A   1      42.865  30.299  32.864  1.00  0.00     0.037 A 
BRANCH  46  60
ATOM     60  C   UNL A   1      45.307  31.914  28.138  1.00  0.00     0.058 A 
ATOM     61  C   UNL A   1      46.632  32.298  27.833  1.00  0.00     0.135 A 
ATOM     62  C   UNL A   1      44.358  32.960  28.131  1.00  0.00     0.135 A 
ATOM     63  F   UNL A   1      47.621  31.390  27.826  1.00  0.00    -0.206 F 
ATOM     64  C   UNL A   1      46.993  33.628  27.596  1.00  0.00     0.059 A 
ATOM     65  C   UNL A   1      44.687  34.282  27.847  1.00  0.00     0.059 A 
ATOM     66  F   UNL A   1      43.085  32.769  28.497  1.00  0.00    -0.206 F 
ATOM     67  C   UNL A   1      46.012  34.615  27.618  1.00  0.00     0.060 A 
BRANCH  67  68
ATOM     68  S   UNL A   1      46.480  36.342  27.398  1.00  0.00     0.124 S 
ATOM     69  O   UNL A   1      47.489  36.506  28.438  1.00  0.00    -0.237 OA
ATOM     70  O   UNL A   1      46.967  36.352  26.024  1.00  0.00    -0.237 OA
ATOM     71  O   UNL A   1      45.226  37.057  27.617  1.00  0.00    -0.744 OA
ENDBRANCH  67  68
ENDBRANCH  46  60
BRANCH  47  72
ATOM     72  C   UNL A   1      37.368  31.596  31.245  1.00  0.00     0.058 A 
ATOM     73  C   UNL A   1      36.436  31.478  32.289  1.00  0.00     0.135 A 
ATOM     74  C   UNL A   1      37.147  32.638  30.323  1.00  0.00     0.135 A 
ATOM     75  F   UNL A   1      36.581  30.524  33.221  1.00  0.00    -0.206 F 
ATOM     76  C   UNL A   1      35.373  32.374  32.442  1.00  0.00     0.059 A 
ATOM     77  C   UNL A   1      36.093  33.543  30.453  1.00  0.00     0.059 A 
ATOM     78  F   UNL A   1      38.010  32.861  29.320  1.00  0.00    -0.206 F 
ATOM     79  C   UNL A   1      35.223  33.420  31.530  1.00  0.00     0.060 A 
BRANCH  79  80
ATOM     80  S   UNL A   1      33.959  34.680  31.827  1.00  0.00     0.124 S 
ATOM     81  O   UNL A   1      33.363  34.829  30.504  1.00  0.00    -0.237 OA
ATOM     82  O   UNL A   1      33.120  34.044  32.837  1.00  0.00    -0.237 OA
ATOM     83  O   UNL A   1      34.730  35.828  32.297  1.00  0.00    -0.744 OA
ENDBRANCH  79  80
ENDBRANCH  47  72
BRANCH  59  84
ATOM     84  C   UNL A   1      42.589  29.244  33.897  1.00  0.00     0.058 A 
ATOM     85  C   UNL A   1      42.067  27.968  33.625  1.00  0.00     0.135 A 
ATOM     86  C   UNL A   1      42.937  29.525  35.226  1.00  0.00     0.135 A 
ATOM     87  F   UNL A   1      41.783  27.593  32.371  1.00  0.00    -0.206 F 
ATOM     88  C   UNL A   1      41.864  27.027  34.637  1.00  0.00     0.059 A 
ATOM     89  C   UNL A   1      42.772  28.593  36.246  1.00  0.00     0.059 A 
ATOM     90  F   UNL A   1      43.484  30.711  35.541  1.00  0.00    -0.206 F 
ATOM     91  C   UNL A   1      42.221  27.350  35.946  1.00  0.00     0.060 A 
BRANCH  91  92
ATOM     92  S   UNL A   1      42.021  26.111  37.245  1.00  0.00     0.124 S 
ATOM     93  O   UNL A   1      40.610  26.249  37.587  1.00  0.00    -0.237 OA
ATOM     94  O   UNL A   1      42.392  24.874  36.565  1.00  0.00    -0.237 OA
ATOM     95  O   UNL A   1      42.959  26.548  38.278  1.00  0.00    -0.744 OA
ENDBRANCH  91  92
ENDBRANCH  59  84
ENDBRANCH  33  34
ENDBRANCH  25  28
ENDBRANCH  23  24
ENDBRANCH  22  23
ENDBRANCH   1  22
TORSDOF 17
ENDMDL
MODEL 3
REMARK VINA RESULT:     -12.1      2.879      9.536
REMARK SMILES C[C@@H]1CCCCN1C(=O)Cn1cc(C(=O)NCCCCNC(=O)c2ccc(-c3c4nc(c(-c5c(F)cc(S(=O)(=O)[O-])cc5F)c5ccc([nH]5)c(-c5c(F)cc(S(=O)(=O)[O-])cc5F)c5nc(c(-c6c(F)cc(S(=O)(=O)[O-])cc6F)c6ccc3[nH]6)C=C5)C=C4)cc2)cn1
REMARK SMILES IDX 18 1 17 2 16 3 14 4 15 5 13 7 11 8 12 9 91 10 90 11 10 12
REMARK SMILES IDX 8 13 9 14 7 15 1 16 2 17 3 18 4 19 6 20 5 21 19 22 20 23
REMARK SMILES IDX 21 24 22 25 23 27 24 28 25 29 89 30 26 31 88 32 27 33 28 34
REMARK SMILES IDX 29 35 82 36 30 37 87 38 81 39 83 40 31 41 86 42 80 43 79 44
REMARK SMILES IDX 32 46 66 47 45 48 65 49 46 50 49 51 64 52 84 53 47 54 48 55
REMARK SMILES IDX 63 57 85 58 50 59 33 60 34 61 43 62 35 63 36 64 42 65 44 66
REMARK SMILES IDX 37 67 38 68 39 69 40 70 41 71 67 72 68 73 77 74 69 75 70 76
REMARK SMILES IDX 76 77 78 78 71 79 72 80 73 81 74 82 75 83 51 84 52 85 61 86
REMARK SMILES IDX 53 87 54 88 60 89 62 90 55 91 56 92 57 93 58 94 59 95
REMARK H PARENT 16 6 21 26 83 45 49 56
REMARK Flexibility Score: inf
ROOT
ATOM      1  C   UNL A   1      33.074  29.168  26.508  1.00  0.00     0.023 C 
ENDROOT
BRANCH   1   2
ATOM      2  C   UNL A   1      33.195  29.306  24.989  1.00  0.00     0.116 C 
BRANCH   2   3
ATOM      3  N   UNL A   1      31.932  29.703  24.401  1.00  0.00    -0.352 N 
ATOM      4  C   UNL A   1      30.886  28.968  23.912  1.00  0.00     0.254 C 
ATOM      5  O   UNL A   1      29.896  29.583  23.513  1.00  0.00    -0.269 OA
ATOM      6  H   UNL A   1      31.802  30.676  24.342  1.00  0.00     0.163 HD
BRANCH   4   7
ATOM      7  C   UNL A   1      30.907  27.519  23.908  1.00  0.00     0.077 A 
ATOM      8  N   UNL A   1      30.829  25.355  24.330  1.00  0.00    -0.262 N 
ATOM      9  C   UNL A   1      30.717  26.587  24.912  1.00  0.00     0.123 A 
ATOM     10  N   UNL A   1      31.102  25.416  23.012  1.00  0.00    -0.180 NA
ATOM     11  C   UNL A   1      31.200  26.725  22.773  1.00  0.00     0.149 A 
BRANCH   8  12
ATOM     12  C   UNL A   1      30.654  24.058  24.955  1.00  0.00     0.244 C 
BRANCH  12  13
ATOM     13  C   UNL A   1      31.625  23.807  26.090  1.00  0.00     0.244 C 
ATOM     14  O   UNL A   1      31.215  23.880  27.255  1.00  0.00    -0.273 OA
BRANCH  13  15
ATOM     15  N   UNL A   1      32.944  23.458  25.808  1.00  0.00    -0.338 N 
ATOM     16  C   UNL A   1      33.766  21.199  26.446  1.00  0.00     0.031 C 
ATOM     17  C   UNL A   1      33.390  22.142  25.307  1.00  0.00     0.082 C 
ATOM     18  C   UNL A   1      34.547  22.283  24.297  1.00  0.00     0.025 C 
ATOM     19  C   UNL A   1      34.415  23.582  23.507  1.00  0.00     0.004 C 
ATOM     20  C   UNL A   1      33.974  24.490  25.847  1.00  0.00     0.120 C 
ATOM     21  C   UNL A   1      34.490  24.796  24.440  1.00  0.00     0.022 C 
ENDBRANCH  13  15
ENDBRANCH  12  13
ENDBRANCH   8  12
ENDBRANCH   4   7
ENDBRANCH   2   3
ENDBRANCH   1   2
BRANCH   1  22
ATOM     22  C   UNL A   1      32.793  30.484  27.250  1.00  0.00     0.023 C 
BRANCH  22  23
ATOM     23  C   UNL A   1      33.994  31.419  27.365  1.00  0.00     0.116 C 
BRANCH  23  24
ATOM     24  N   UNL A   1      34.024  32.141  28.633  1.00  0.00    -0.352 N 
ATOM     25  C   UNL A   1      34.880  31.943  29.696  1.00  0.00     0.251 C 
ATOM     26  H   UNL A   1      33.353  32.853  28.743  1.00  0.00     0.163 HD
ATOM     27  O   UNL A   1      34.575  32.329  30.823  1.00  0.00    -0.269 OA
BRANCH  25  28
ATOM     28  C   UNL A   1      36.159  31.255  29.460  1.00  0.00     0.039 A 
ATOM     29  C   UNL A   1      37.306  31.980  29.131  1.00  0.00     0.014 A 
ATOM     30  C   UNL A   1      36.213  29.871  29.625  1.00  0.00     0.014 A 
ATOM     31  C   UNL A   1      38.528  31.312  29.070  1.00  0.00     0.010 A 
ATOM     32  C   UNL A   1      37.435  29.231  29.665  1.00  0.00     0.010 A 
ATOM     33  C   UNL A   1      38.599  29.941  29.378  1.00  0.00    -0.014 A 
BRANCH  33  34
ATOM     34  C   UNL A   1      39.911  29.308  29.569  1.00  0.00     0.031 A 
ATOM     35  C   UNL A   1      40.326  29.182  30.996  1.00  0.00     0.074 A 
ATOM     36  C   UNL A   1      40.624  28.700  28.595  1.00  0.00     0.049 A 
ATOM     37  N   UNL A   1      41.292  29.797  31.594  1.00  0.00    -0.248 NA
ATOM     38  C   UNL A   1      39.486  28.383  31.904  1.00  0.00     0.031 C 
ATOM     39  C   UNL A   1      40.228  28.486  27.198  1.00  0.00     0.029 A 
ATOM     40  N   UNL A   1      41.829  28.057  28.667  1.00  0.00    -0.354 N 
ATOM     41  C   UNL A   1      41.335  29.280  32.887  1.00  0.00     0.074 A 
ATOM     42  C   UNL A   1      40.101  28.565  33.075  1.00  0.00     0.031 C 
ATOM     43  C   UNL A   1      41.054  27.584  26.623  1.00  0.00     0.029 A 
ATOM     44  C   UNL A   1      42.142  27.303  27.540  1.00  0.00     0.049 A 
ATOM     45  H   UNL A   1      42.424  28.122  29.449  1.00  0.00     0.167 HD
ATOM     46  C   UNL A   1      42.500  29.260  33.594  1.00  0.00     0.037 A 
ATOM     47  C   UNL A   1      43.231  26.524  27.335  1.00  0.00     0.037 A 
ATOM     48  C   UNL A   1      43.494  30.093  32.967  1.00  0.00     0.049 A 
ATOM     49  C   UNL A   1      44.308  27.032  28.212  1.00  0.00     0.074 A 
ATOM     50  C   UNL A   1      43.732  31.445  32.841  1.00  0.00     0.029 A 
ATOM     51  N   UNL A   1      44.231  29.456  32.004  1.00  0.00    -0.354 N 
ATOM     52  N   UNL A   1      44.846  28.213  28.073  1.00  0.00    -0.248 NA
ATOM     53  C   UNL A   1      44.586  26.367  29.479  1.00  0.00     0.031 C 
ATOM     54  C   UNL A   1      44.466  31.605  31.627  1.00  0.00     0.029 A 
ATOM     55  C   UNL A   1      44.686  30.348  31.068  1.00  0.00     0.049 A 
ATOM     56  H   UNL A   1      44.409  28.488  31.986  1.00  0.00     0.167 HD
ATOM     57  C   UNL A   1      45.141  28.607  29.361  1.00  0.00     0.074 A 
ATOM     58  C   UNL A   1      45.139  27.383  30.149  1.00  0.00     0.031 C 
ATOM     59  C   UNL A   1      45.039  29.916  29.732  1.00  0.00     0.037 A 
BRANCH  46  60
ATOM     60  C   UNL A   1      42.909  28.165  34.560  1.00  0.00     0.058 A 
ATOM     61  C   UNL A   1      43.135  28.482  35.917  1.00  0.00     0.135 A 
ATOM     62  C   UNL A   1      43.379  26.898  34.150  1.00  0.00     0.135 A 
ATOM     63  F   UNL A   1      42.745  29.667  36.415  1.00  0.00    -0.206 F 
ATOM     64  C   UNL A   1      43.824  27.629  36.784  1.00  0.00     0.059 A 
ATOM     65  C   UNL A   1      44.023  26.012  35.009  1.00  0.00     0.059 A 
ATOM     66  F   UNL A   1      43.329  26.497  32.874  1.00  0.00    -0.206 F 
ATOM     67  C   UNL A   1      44.277  26.400  36.315  1.00  0.00     0.060 A 
BRANCH  67  68
ATOM     68  S   UNL A   1      45.240  25.330  37.399  1.00  0.00     0.124 S 
ATOM     69  O   UNL A   1      44.209  24.809  38.288  1.00  0.00    -0.237 OA
ATOM     70  O   UNL A   1      45.815  24.379  36.455  1.00  0.00    -0.237 OA
ATOM     71  O   UNL A   1      46.196  26.250  38.011  1.00  0.00    -0.744 OA
ENDBRANCH  67  68
ENDBRANCH  46  60
BRANCH  47  72
ATOM     72  C   UNL A   1      43.358  25.276  26.545  1.00  0.00     0.058 A 
ATOM     73  C   UNL A   1      44.276  25.156  25.489  1.00  0.00     0.135 A 
ATOM     74  C   UNL A   1      42.773  24.079  27.005  1.00  0.00     0.135 A 
ATOM     75  F   UNL A   1      44.893  26.244  25.003  1.00  0.00    -0.206 F 
ATOM     76  C   UNL A   1      44.634  23.915  24.951  1.00  0.00     0.059 A 
ATOM     77  C   UNL A   1      43.111  22.830  26.482  1.00  0.00     0.059 A 
ATOM     78  F   UNL A   1      41.921  24.086  28.042  1.00  0.00    -0.206 F 
ATOM     79  C   UNL A   1      44.062  22.754  25.471  1.00  0.00     0.060 A 
BRANCH  79  80
ATOM     80  S   UNL A   1      44.656  21.142  24.901  1.00  0.00     0.124 S 
ATOM     81  O   UNL A   1      43.721  20.229  25.549  1.00  0.00    -0.237 OA
ATOM     82  O   UNL A   1      44.529  21.262  23.452  1.00  0.00    -0.237 OA
ATOM     83  O   UNL A   1      46.027  21.090  25.400  1.00  0.00    -0.744 OA
ENDBRANCH  79  80
ENDBRANCH  47  72
BRANCH  59  84
ATOM     84  C   UNL A   1      45.142  30.951  28.650  1.00  0.00     0.058 A 
ATOM     85  C   UNL A   1      44.084  31.349  27.814  1.00  0.00     0.135 A 
ATOM     86  C   UNL A   1      46.365  31.620  28.498  1.00  0.00     0.135 A 
ATOM     87  F   UNL A   1      42.862  30.816  27.948  1.00  0.00    -0.206 F 
ATOM     88  C   UNL A   1      44.247  32.342  26.846  1.00  0.00     0.059 A 
ATOM     89  C   UNL A   1      46.543  32.632  27.561  1.00  0.00     0.059 A 
ATOM     90  F   UNL A   1      47.400  31.315  29.299  1.00  0.00    -0.206 F 
ATOM     91  C   UNL A   1      45.483  32.979  26.728  1.00  0.00     0.060 A 
BRANCH  91  92
ATOM     92  S   UNL A   1      45.677  34.309  25.522  1.00  0.00     0.124 S 
ATOM     93  O   UNL A   1      47.124  34.347  25.336  1.00  0.00    -0.237 OA
ATOM     94  O   UNL A   1      44.904  33.822  24.383  1.00  0.00    -0.237 OA
ATOM     95  O   UNL A   1      45.104  35.469  26.201  1.00  0.00    -0.744 OA
ENDBRANCH  91  92
ENDBRANCH  59  84
ENDBRANCH  33  34
ENDBRANCH  25  28
ENDBRANCH  23  24
ENDBRANCH  22  23
ENDBRANCH   1  22
TORSDOF 17
ENDMDL
