MODEL 1
REMARK VINA RESULT:      -9.9      0.000      0.000
REMARK SMILES O=C(NCCCCNC(=O)[C@@H]1CCCN(c2ccc3cc(S(=O)(=O)N4CCCCC4)ccc3n2)C1)c1ccc(-c2c3nc(c(-c4c(F)cc(S(=O)(=O)[O-])cc4F)c4ccc([nH]4)c(-c4c(F)cc(S(=O)(=O)[O-])cc4F)c4nc(c(-c5c(F)cc(S(=O)(=O)[O-])cc5F)c5ccc2[nH]5)C=C4)C=C3)cc1
REMARK SMILES IDX 5 1 4 2 3 3 1 4 2 5 36 7 37 8 101 9 38 10 100 11 39 12 40 13
REMARK SMILES IDX 41 14 94 15 42 16 99 17 93 18 95 19 43 20 98 21 92 22 91 23
REMARK SMILES IDX 44 25 78 26 57 27 77 28 58 29 61 30 76 31 96 32 59 33 60 34
REMARK SMILES IDX 75 36 97 37 62 38 45 39 46 40 55 41 47 42 48 43 54 44 56 45
REMARK SMILES IDX 49 46 50 47 51 48 52 49 53 50 79 51 80 52 89 53 81 54 82 55
REMARK SMILES IDX 88 56 90 57 83 58 84 59 85 60 86 61 87 62 63 63 64 64 73 65
REMARK SMILES IDX 65 66 66 67 72 68 74 69 67 70 68 71 69 72 70 73 71 74 6 75
REMARK SMILES IDX 7 76 8 77 9 78 10 80 11 81 12 82 35 83 13 84 15 85 14 86
REMARK SMILES IDX 16 87 17 88 34 89 18 90 33 91 19 92 32 93 20 94 31 95 21 96
REMARK SMILES IDX 22 97 23 98 24 99 25 100 26 101 30 102 27 103 29 104 28 105
REMARK H PARENT 3 6 95 24 61 35 8 79
REMARK Flexibility Score: inf
ROOT
ATOM      1  C   UNL A   1      36.381  33.226  28.772  1.00  0.00     0.023 C 
ENDROOT
BRANCH   1   2
ATOM      2  C   UNL A   1      35.526  32.350  29.669  1.00  0.00     0.116 C 
BRANCH   2   3
ATOM      3  N   UNL A   1      34.582  31.508  28.937  1.00  0.00    -0.352 N 
ATOM      4  O   UNL A   1      33.976  29.779  27.601  1.00  0.00    -0.269 OA
ATOM      5  C   UNL A   1      34.842  30.336  28.264  1.00  0.00     0.251 C 
ATOM      6  H   UNL A   1      33.648  31.816  28.923  1.00  0.00     0.163 HD
BRANCH   5   7
ATOM      7  C   UNL A   1      36.211  29.795  28.342  1.00  0.00     0.039 A 
ATOM      8  C   UNL A   1      36.658  29.265  29.553  1.00  0.00     0.014 A 
ATOM      9  C   UNL A   1      37.081  29.954  27.262  1.00  0.00     0.014 A 
ATOM     10  C   UNL A   1      38.015  29.079  29.747  1.00  0.00     0.010 A 
ATOM     11  C   UNL A   1      38.432  29.641  27.423  1.00  0.00     0.010 A 
ATOM     12  C   UNL A   1      38.915  29.237  28.678  1.00  0.00    -0.014 A 
BRANCH  12  13
ATOM     13  C   UNL A   1      40.341  28.895  28.898  1.00  0.00     0.031 A 
ATOM     14  C   UNL A   1      40.906  27.564  28.488  1.00  0.00     0.074 A 
ATOM     15  C   UNL A   1      41.133  29.843  29.438  1.00  0.00     0.049 A 
ATOM     16  N   UNL A   1      42.130  27.121  28.622  1.00  0.00    -0.248 NA
ATOM     17  C   UNL A   1      39.988  26.603  27.856  1.00  0.00     0.031 C 
ATOM     18  C   UNL A   1      40.678  31.168  29.875  1.00  0.00     0.029 A 
ATOM     19  N   UNL A   1      42.479  29.861  29.684  1.00  0.00    -0.354 N 
ATOM     20  C   UNL A   1      42.124  25.821  28.128  1.00  0.00     0.074 A 
ATOM     21  C   UNL A   1      40.771  25.543  27.696  1.00  0.00     0.031 C 
ATOM     22  C   UNL A   1      41.734  31.892  30.265  1.00  0.00     0.029 A 
ATOM     23  C   UNL A   1      42.923  31.055  30.199  1.00  0.00     0.049 A 
ATOM     24  H   UNL A   1      43.071  29.094  29.509  1.00  0.00     0.167 HD
ATOM     25  C   UNL A   1      43.158  24.947  28.047  1.00  0.00     0.037 A 
ATOM     26  C   UNL A   1      44.149  31.431  30.604  1.00  0.00     0.037 A 
ATOM     27  C   UNL A   1      44.505  25.255  28.459  1.00  0.00     0.049 A 
ATOM     28  C   UNL A   1      45.269  30.442  30.507  1.00  0.00     0.074 A 
ATOM     29  C   UNL A   1      45.630  24.451  28.399  1.00  0.00     0.029 A 
ATOM     30  N   UNL A   1      44.910  26.464  29.008  1.00  0.00    -0.354 N 
ATOM     31  N   UNL A   1      45.243  29.216  30.043  1.00  0.00    -0.248 NA
ATOM     32  C   UNL A   1      46.579  30.879  31.001  1.00  0.00     0.031 C 
ATOM     33  C   UNL A   1      46.706  25.160  28.944  1.00  0.00     0.029 A 
ATOM     34  C   UNL A   1      46.264  26.423  29.305  1.00  0.00     0.049 A 
ATOM     35  H   UNL A   1      44.323  27.239  29.162  1.00  0.00     0.167 HD
ATOM     36  C   UNL A   1      46.535  28.731  30.184  1.00  0.00     0.074 A 
ATOM     37  C   UNL A   1      47.322  29.808  30.755  1.00  0.00     0.031 C 
ATOM     38  C   UNL A   1      47.024  27.505  29.878  1.00  0.00     0.037 A 
BRANCH  25  39
ATOM     39  C   UNL A   1      42.875  23.565  27.518  1.00  0.00     0.058 A 
ATOM     40  C   UNL A   1      43.042  23.237  26.164  1.00  0.00     0.135 A 
ATOM     41  C   UNL A   1      42.481  22.540  28.394  1.00  0.00     0.135 A 
ATOM     42  F   UNL A   1      43.403  24.182  25.280  1.00  0.00    -0.206 F 
ATOM     43  C   UNL A   1      42.811  21.947  25.693  1.00  0.00     0.059 A 
ATOM     44  C   UNL A   1      42.269  21.237  27.950  1.00  0.00     0.059 A 
ATOM     45  F   UNL A   1      42.307  22.796  29.701  1.00  0.00    -0.206 F 
ATOM     46  C   UNL A   1      42.425  20.953  26.595  1.00  0.00     0.060 A 
BRANCH  46  47
ATOM     47  S   UNL A   1      42.147  19.279  25.977  1.00  0.00     0.124 S 
ATOM     48  O   UNL A   1      42.971  19.273  24.771  1.00  0.00    -0.237 OA
ATOM     49  O   UNL A   1      42.630  18.452  27.078  1.00  0.00    -0.237 OA
ATOM     50  O   UNL A   1      40.705  19.235  25.751  1.00  0.00    -0.744 OA
ENDBRANCH  46  47
ENDBRANCH  25  39
BRANCH  26  51
ATOM     51  C   UNL A   1      44.350  32.794  31.158  1.00  0.00     0.058 A 
ATOM     52  C   UNL A   1      44.611  33.886  30.319  1.00  0.00     0.135 A 
ATOM     53  C   UNL A   1      44.225  33.040  32.535  1.00  0.00     0.135 A 
ATOM     54  F   UNL A   1      44.737  33.699  28.996  1.00  0.00    -0.206 F 
ATOM     55  C   UNL A   1      44.748  35.174  30.825  1.00  0.00     0.059 A 
ATOM     56  C   UNL A   1      44.329  34.322  33.061  1.00  0.00     0.059 A 
ATOM     57  F   UNL A   1      43.951  32.031  33.377  1.00  0.00    -0.206 F 
ATOM     58  C   UNL A   1      44.599  35.381  32.198  1.00  0.00     0.060 A 
BRANCH  58  59
ATOM     59  S   UNL A   1      44.714  37.066  32.840  1.00  0.00     0.124 S 
ATOM     60  O   UNL A   1      46.143  37.180  33.104  1.00  0.00    -0.237 OA
ATOM     61  O   UNL A   1      44.203  37.857  31.725  1.00  0.00    -0.237 OA
ATOM     62  O   UNL A   1      43.853  37.031  34.019  1.00  0.00    -0.744 OA
ENDBRANCH  58  59
ENDBRANCH  26  51
BRANCH  38  63
ATOM     63  C   UNL A   1      48.484  27.277  30.141  1.00  0.00     0.058 A 
ATOM     64  C   UNL A   1      48.928  26.655  31.318  1.00  0.00     0.135 A 
ATOM     65  C   UNL A   1      49.445  27.668  29.196  1.00  0.00     0.135 A 
ATOM     66  F   UNL A   1      48.046  26.275  32.256  1.00  0.00    -0.206 F 
ATOM     67  C   UNL A   1      50.281  26.450  31.561  1.00  0.00     0.059 A 
ATOM     68  C   UNL A   1      50.802  27.450  29.408  1.00  0.00     0.059 A 
ATOM     69  F   UNL A   1      49.068  28.262  28.054  1.00  0.00    -0.206 F 
ATOM     70  C   UNL A   1      51.211  26.853  30.600  1.00  0.00     0.060 A 
BRANCH  70  71
ATOM     71  S   UNL A   1      52.963  26.562  30.917  1.00  0.00     0.124 S 
ATOM     72  O   UNL A   1      53.354  27.807  31.570  1.00  0.00    -0.237 OA
ATOM     73  O   UNL A   1      52.937  25.379  31.770  1.00  0.00    -0.237 OA
ATOM     74  O   UNL A   1      53.518  26.353  29.583  1.00  0.00    -0.744 OA
ENDBRANCH  70  71
ENDBRANCH  38  63
ENDBRANCH  12  13
ENDBRANCH   5   7
ENDBRANCH   2   3
ENDBRANCH   1   2
BRANCH   1  75
ATOM     75  C   UNL A   1      37.855  33.236  29.139  1.00  0.00     0.023 C 
BRANCH  75  76
ATOM     76  C   UNL A   1      38.391  34.578  29.624  1.00  0.00     0.116 C 
BRANCH  76  77
ATOM     77  N   UNL A   1      39.232  34.487  30.797  1.00  0.00    -0.356 N 
ATOM     78  C   UNL A   1      38.996  34.024  32.049  1.00  0.00     0.224 C 
ATOM     79  H   UNL A   1      40.147  34.822  30.660  1.00  0.00     0.163 HD
ATOM     80  O   UNL A   1      39.971  34.013  32.815  1.00  0.00    -0.275 OA
BRANCH  78  81
ATOM     81  C   UNL A   1      37.629  33.624  32.614  1.00  0.00     0.098 C 
ATOM     82  C   UNL A   1      37.043  34.333  33.833  1.00  0.00     0.017 C 
ATOM     83  C   UNL A   1      37.562  32.115  32.772  1.00  0.00     0.131 C 
ATOM     84  C   UNL A   1      37.115  33.590  35.185  1.00  0.00     0.022 C 
ATOM     85  N   UNL A   1      38.281  31.745  33.974  1.00  0.00    -0.356 N 
ATOM     86  C   UNL A   1      37.720  32.171  35.244  1.00  0.00     0.118 C 
BRANCH  85  87
ATOM     87  C   UNL A   1      39.319  30.830  33.946  1.00  0.00     0.129 A 
ATOM     88  C   UNL A   1      39.399  29.866  32.937  1.00  0.00     0.047 A 
ATOM     89  N   UNL A   1      40.321  30.951  34.847  1.00  0.00    -0.231 NA
ATOM     90  C   UNL A   1      40.507  29.034  32.838  1.00  0.00     0.014 A 
ATOM     91  C   UNL A   1      41.385  30.125  34.778  1.00  0.00     0.073 A 
ATOM     92  C   UNL A   1      41.522  29.146  33.777  1.00  0.00     0.002 A 
ATOM     93  C   UNL A   1      42.396  30.217  35.726  1.00  0.00     0.030 A 
ATOM     94  C   UNL A   1      42.642  28.301  33.735  1.00  0.00     0.032 A 
ATOM     95  C   UNL A   1      43.509  29.363  35.712  1.00  0.00     0.024 A 
ATOM     96  C   UNL A   1      43.630  28.398  34.715  1.00  0.00     0.083 A 
BRANCH  96  97
ATOM     97  S   UNL A   1      44.956  27.205  34.615  1.00  0.00     0.243 S 
ATOM     98  O   UNL A   1      45.780  27.641  33.501  1.00  0.00    -0.207 OA
ATOM     99  O   UNL A   1      45.485  27.090  35.952  1.00  0.00    -0.207 OA
BRANCH  97 100
ATOM    100  N   UNL A   1      44.273  25.705  34.177  1.00  0.00    -0.198 NA
ATOM    101  C   UNL A   1      44.932  24.989  33.060  1.00  0.00     0.102 C 
ATOM    102  C   UNL A   1      43.664  24.920  35.274  1.00  0.00     0.102 C 
ATOM    103  C   UNL A   1      44.158  23.752  32.626  1.00  0.00     0.017 C 
ATOM    104  C   UNL A   1      42.914  23.700  34.762  1.00  0.00     0.017 C 
ATOM    105  C   UNL A   1      43.778  22.884  33.814  1.00  0.00     0.003 C 
ENDBRANCH  97 100
ENDBRANCH  96  97
ENDBRANCH  85  87
ENDBRANCH  78  81
ENDBRANCH  76  77
ENDBRANCH  75  76
ENDBRANCH   1  75
TORSDOF 17
ENDMDL
MODEL 2
REMARK VINA RESULT:      -9.7      5.174     11.506
REMARK SMILES O=C(NCCCCNC(=O)[C@@H]1CCCN(c2ccc3cc(S(=O)(=O)N4CCCCC4)ccc3n2)C1)c1ccc(-c2c3nc(c(-c4c(F)cc(S(=O)(=O)[O-])cc4F)c4ccc([nH]4)c(-c4c(F)cc(S(=O)(=O)[O-])cc4F)c4nc(c(-c5c(F)cc(S(=O)(=O)[O-])cc5F)c5ccc2[nH]5)C=C4)C=C3)cc1
REMARK SMILES IDX 5 1 4 2 3 3 1 4 2 5 36 7 37 8 101 9 38 10 100 11 39 12 40 13
REMARK SMILES IDX 41 14 94 15 42 16 99 17 93 18 95 19 43 20 98 21 92 22 91 23
REMARK SMILES IDX 44 25 78 26 57 27 77 28 58 29 61 30 76 31 96 32 59 33 60 34
REMARK SMILES IDX 75 36 97 37 62 38 45 39 46 40 55 41 47 42 48 43 54 44 56 45
REMARK SMILES IDX 49 46 50 47 51 48 52 49 53 50 79 51 80 52 89 53 81 54 82 55
REMARK SMILES IDX 88 56 90 57 83 58 84 59 85 60 86 61 87 62 63 63 64 64 73 65
REMARK SMILES IDX 65 66 66 67 72 68 74 69 67 70 68 71 69 72 70 73 71 74 6 75
REMARK SMILES IDX 7 76 8 77 9 78 10 80 11 81 12 82 35 83 13 84 15 85 14 86
REMARK SMILES IDX 16 87 17 88 34 89 18 90 33 91 19 92 32 93 20 94 31 95 21 96
REMARK SMILES IDX 22 97 23 98 24 99 25 100 26 101 30 102 27 103 29 104 28 105
REMARK H PARENT 3 6 95 24 61 35 8 79
REMARK Flexibility Score: inf
ROOT
ATOM      1  C   UNL A   1      35.311  23.500  25.331  1.00  0.00     0.023 C 
ENDROOT
BRANCH   1   2
ATOM      2  C   UNL A   1      36.723  24.056  25.322  1.00  0.00     0.116 C 
BRANCH   2   3
ATOM      3  N   UNL A   1      37.754  23.034  25.491  1.00  0.00    -0.352 N 
ATOM      4  O   UNL A   1      39.772  22.239  26.152  1.00  0.00    -0.269 OA
ATOM      5  C   UNL A   1      38.944  23.141  26.174  1.00  0.00     0.251 C 
ATOM      6  H   UNL A   1      37.576  22.165  25.064  1.00  0.00     0.163 HD
BRANCH   5   7
ATOM      7  C   UNL A   1      39.200  24.396  26.904  1.00  0.00     0.039 A 
ATOM      8  C   UNL A   1      39.996  25.373  26.305  1.00  0.00     0.014 A 
ATOM      9  C   UNL A   1      38.775  24.525  28.227  1.00  0.00     0.014 A 
ATOM     10  C   UNL A   1      40.528  26.381  27.089  1.00  0.00     0.010 A 
ATOM     11  C   UNL A   1      39.212  25.617  28.979  1.00  0.00     0.010 A 
ATOM     12  C   UNL A   1      40.122  26.533  28.427  1.00  0.00    -0.014 A 
BRANCH  12  13
ATOM     13  C   UNL A   1      40.614  27.707  29.186  1.00  0.00     0.031 A 
ATOM     14  C   UNL A   1      42.017  27.769  29.724  1.00  0.00     0.074 A 
ATOM     15  C   UNL A   1      39.771  28.747  29.340  1.00  0.00     0.049 A 
ATOM     16  N   UNL A   1      42.586  28.726  30.412  1.00  0.00    -0.248 NA
ATOM     17  C   UNL A   1      42.892  26.614  29.469  1.00  0.00     0.031 C 
ATOM     18  C   UNL A   1      38.386  28.783  28.859  1.00  0.00     0.029 A 
ATOM     19  N   UNL A   1      39.953  29.979  29.908  1.00  0.00    -0.354 N 
ATOM     20  C   UNL A   1      43.870  28.278  30.704  1.00  0.00     0.074 A 
ATOM     21  C   UNL A   1      43.995  26.958  30.124  1.00  0.00     0.031 C 
ATOM     22  C   UNL A   1      37.869  29.997  29.086  1.00  0.00     0.029 A 
ATOM     23  C   UNL A   1      38.848  30.791  29.812  1.00  0.00     0.049 A 
ATOM     24  H   UNL A   1      40.792  30.256  30.342  1.00  0.00     0.167 HD
ATOM     25  C   UNL A   1      44.846  28.916  31.394  1.00  0.00     0.037 A 
ATOM     26  C   UNL A   1      38.631  32.032  30.283  1.00  0.00     0.037 A 
ATOM     27  C   UNL A   1      44.707  30.244  31.942  1.00  0.00     0.049 A 
ATOM     28  C   UNL A   1      39.727  32.709  31.046  1.00  0.00     0.074 A 
ATOM     29  C   UNL A   1      45.642  30.991  32.638  1.00  0.00     0.029 A 
ATOM     30  N   UNL A   1      43.562  31.023  31.855  1.00  0.00    -0.354 N 
ATOM     31  N   UNL A   1      40.932  32.267  31.318  1.00  0.00    -0.248 NA
ATOM     32  C   UNL A   1      39.433  34.043  31.580  1.00  0.00     0.031 C 
ATOM     33  C   UNL A   1      45.050  32.205  33.002  1.00  0.00     0.029 A 
ATOM     34  C   UNL A   1      43.760  32.235  32.496  1.00  0.00     0.049 A 
ATOM     35  H   UNL A   1      42.731  30.755  31.401  1.00  0.00     0.167 HD
ATOM     36  C   UNL A   1      41.545  33.271  32.053  1.00  0.00     0.074 A 
ATOM     37  C   UNL A   1      40.585  34.353  32.161  1.00  0.00     0.031 C 
ATOM     38  C   UNL A   1      42.787  33.294  32.596  1.00  0.00     0.037 A 
BRANCH  25  39
ATOM     39  C   UNL A   1      46.143  28.185  31.624  1.00  0.00     0.058 A 
ATOM     40  C   UNL A   1      47.234  28.311  30.751  1.00  0.00     0.135 A 
ATOM     41  C   UNL A   1      46.311  27.386  32.768  1.00  0.00     0.135 A 
ATOM     42  F   UNL A   1      47.124  29.051  29.635  1.00  0.00    -0.206 F 
ATOM     43  C   UNL A   1      48.440  27.658  30.993  1.00  0.00     0.059 A 
ATOM     44  C   UNL A   1      47.516  26.743  33.042  1.00  0.00     0.059 A 
ATOM     45  F   UNL A   1      45.301  27.230  33.639  1.00  0.00    -0.206 F 
ATOM     46  C   UNL A   1      48.571  26.876  32.142  1.00  0.00     0.060 A 
BRANCH  46  47
ATOM     47  S   UNL A   1      50.145  26.048  32.456  1.00  0.00     0.124 S 
ATOM     48  O   UNL A   1      49.984  24.816  31.690  1.00  0.00    -0.237 OA
ATOM     49  O   UNL A   1      51.114  27.002  31.925  1.00  0.00    -0.237 OA
ATOM     50  O   UNL A   1      50.161  25.886  33.907  1.00  0.00    -0.744 OA
ENDBRANCH  46  47
ENDBRANCH  25  39
BRANCH  26  51
ATOM     51  C   UNL A   1      37.313  32.679  30.060  1.00  0.00     0.058 A 
ATOM     52  C   UNL A   1      36.238  32.450  30.929  1.00  0.00     0.135 A 
ATOM     53  C   UNL A   1      37.122  33.585  29.005  1.00  0.00     0.135 A 
ATOM     54  F   UNL A   1      36.374  31.593  31.953  1.00  0.00    -0.206 F 
ATOM     55  C   UNL A   1      35.017  33.092  30.758  1.00  0.00     0.059 A 
ATOM     56  C   UNL A   1      35.922  34.261  28.830  1.00  0.00     0.059 A 
ATOM     57  F   UNL A   1      38.130  33.856  28.159  1.00  0.00    -0.206 F 
ATOM     58  C   UNL A   1      34.871  34.000  29.707  1.00  0.00     0.060 A 
BRANCH  58  59
ATOM     59  S   UNL A   1      33.303  34.879  29.528  1.00  0.00     0.124 S 
ATOM     60  O   UNL A   1      32.574  33.995  28.628  1.00  0.00    -0.237 OA
ATOM     61  O   UNL A   1      32.820  34.932  30.904  1.00  0.00    -0.237 OA
ATOM     62  O   UNL A   1      33.705  36.165  28.964  1.00  0.00    -0.744 OA
ENDBRANCH  58  59
ENDBRANCH  26  51
BRANCH  38  63
ATOM     63  C   UNL A   1      43.174  34.539  33.340  1.00  0.00     0.058 A 
ATOM     64  C   UNL A   1      43.050  34.627  34.735  1.00  0.00     0.135 A 
ATOM     65  C   UNL A   1      43.694  35.645  32.651  1.00  0.00     0.135 A 
ATOM     66  F   UNL A   1      42.546  33.599  35.436  1.00  0.00    -0.206 F 
ATOM     67  C   UNL A   1      43.405  35.783  35.420  1.00  0.00     0.059 A 
ATOM     68  C   UNL A   1      44.078  36.802  33.319  1.00  0.00     0.059 A 
ATOM     69  F   UNL A   1      43.836  35.605  31.317  1.00  0.00    -0.206 F 
ATOM     70  C   UNL A   1      43.917  36.866  34.702  1.00  0.00     0.060 A 
BRANCH  70  71
ATOM     71  S   UNL A   1      44.394  38.354  35.605  1.00  0.00     0.124 S 
ATOM     72  O   UNL A   1      43.746  38.136  36.894  1.00  0.00    -0.237 OA
ATOM     73  O   UNL A   1      45.851  38.268  35.606  1.00  0.00    -0.237 OA
ATOM     74  O   UNL A   1      43.836  39.434  34.796  1.00  0.00    -0.744 OA
ENDBRANCH  70  71
ENDBRANCH  38  63
ENDBRANCH  12  13
ENDBRANCH   5   7
ENDBRANCH   2   3
ENDBRANCH   1   2
BRANCH   1  75
ATOM     75  C   UNL A   1      34.923  22.815  26.630  1.00  0.00     0.023 C 
BRANCH  75  76
ATOM     76  C   UNL A   1      34.400  21.391  26.478  1.00  0.00     0.116 C 
BRANCH  76  77
ATOM     77  N   UNL A   1      35.277  20.519  25.728  1.00  0.00    -0.356 N 
ATOM     78  C   UNL A   1      35.033  19.434  24.953  1.00  0.00     0.224 C 
ATOM     79  H   UNL A   1      36.229  20.759  25.792  1.00  0.00     0.163 HD
ATOM     80  O   UNL A   1      36.017  18.949  24.376  1.00  0.00    -0.275 OA
BRANCH  78  81
ATOM     81  C   UNL A   1      33.688  18.712  24.820  1.00  0.00     0.098 C 
ATOM     82  C   UNL A   1      33.436  17.720  23.688  1.00  0.00     0.017 C 
ATOM     83  C   UNL A   1      32.554  19.715  24.934  1.00  0.00     0.131 C 
ATOM     84  C   UNL A   1      32.575  18.206  22.501  1.00  0.00     0.022 C 
ATOM     85  N   UNL A   1      32.422  20.407  23.668  1.00  0.00    -0.356 N 
ATOM     86  C   UNL A   1      31.976  19.628  22.526  1.00  0.00     0.118 C 
BRANCH  85  87
ATOM     87  C   UNL A   1      32.483  21.788  23.586  1.00  0.00     0.129 A 
ATOM     88  C   UNL A   1      33.110  22.415  22.507  1.00  0.00     0.047 A 
ATOM     89  N   UNL A   1      31.828  22.526  24.511  1.00  0.00    -0.231 NA
ATOM     90  C   UNL A   1      33.058  23.796  22.362  1.00  0.00     0.014 A 
ATOM     91  C   UNL A   1      31.801  23.869  24.396  1.00  0.00     0.073 A 
ATOM     92  C   UNL A   1      32.404  24.552  23.324  1.00  0.00     0.002 A 
ATOM     93  C   UNL A   1      31.167  24.635  25.366  1.00  0.00     0.030 A 
ATOM     94  C   UNL A   1      32.359  25.952  23.235  1.00  0.00     0.032 A 
ATOM     95  C   UNL A   1      31.134  26.037  25.305  1.00  0.00     0.024 A 
ATOM     96  C   UNL A   1      31.736  26.698  24.237  1.00  0.00     0.083 A 
BRANCH  96  97
ATOM     97  S   UNL A   1      31.828  28.474  24.067  1.00  0.00     0.243 S 
ATOM     98  O   UNL A   1      32.744  28.706  22.965  1.00  0.00    -0.207 OA
ATOM     99  O   UNL A   1      30.463  28.937  24.031  1.00  0.00    -0.207 OA
BRANCH  97 100
ATOM    100  N   UNL A   1      32.568  29.092  25.473  1.00  0.00    -0.198 NA
ATOM    101  C   UNL A   1      33.980  28.698  25.694  1.00  0.00     0.102 C 
ATOM    102  C   UNL A   1      32.120  30.433  25.912  1.00  0.00     0.102 C 
ATOM    103  C   UNL A   1      34.503  29.151  27.051  1.00  0.00     0.017 C 
ATOM    104  C   UNL A   1      32.687  30.814  27.270  1.00  0.00     0.017 C 
ATOM    105  C   UNL A   1      34.193  30.616  27.309  1.00  0.00     0.003 C 
ENDBRANCH  97 100
ENDBRANCH  96  97
ENDBRANCH  85  87
ENDBRANCH  78  81
ENDBRANCH  76  77
ENDBRANCH  75  76
ENDBRANCH   1  75
TORSDOF 17
ENDMDL
MODEL 3
REMARK VINA RESULT:      -9.6      5.182     11.212
REMARK SMILES O=C(NCCCCNC(=O)[C@@H]1CCCN(c2ccc3cc(S(=O)(=O)N4CCCCC4)ccc3n2)C1)c1ccc(-c2c3nc(c(-c4c(F)cc(S(=O)(=O)[O-])cc4F)c4ccc([nH]4)c(-c4c(F)cc(S(=O)(=O)[O-])cc4F)c4nc(c(-c5c(F)cc(S(=O)(=O)[O-])cc5F)c5ccc2[nH]5)C=C4)C=C3)cc1
REMARK SMILES IDX 5 1 4 2 3 3 1 4 2 5 36 7 37 8 101 9 38 10 100 11 39 12 40 13
REMARK SMILES IDX 41 14 94 15 42 16 99 17 93 18 95 19 43 20 98 21 92 22 91 23
REMARK SMILES IDX 44 25 78 26 57 27 77 28 58 29 61 30 76 31 96 32 59 33 60 34
REMARK SMILES IDX 75 36 97 37 62 38 45 39 46 40 55 41 47 42 48 43 54 44 56 45
REMARK SMILES IDX 49 46 50 47 51 48 52 49 53 50 79 51 80 52 89 53 81 54 82 55
REMARK SMILES IDX 88 56 90 57 83 58 84 59 85 60 86 61 87 62 63 63 64 64 73 65
REMARK SMILES IDX 65 66 66 67 72 68 74 69 67 70 68 71 69 72 70 73 71 74 6 75
REMARK SMILES IDX 7 76 8 77 9 78 10 80 11 81 12 82 35 83 13 84 15 85 14 86
REMARK SMILES IDX 16 87 17 88 34 89 18 90 33 91 19 92 32 93 20 94 31 95 21 96
REMARK SMILES IDX 22 97 23 98 24 99 25 100 26 101 30 102 27 103 29 104 28 105
REMARK H PARENT 3 6 95 24 61 35 8 79
REMARK Flexibility Score: inf
ROOT
ATOM      1  C   UNL A   1      35.117  23.480  25.464  1.00  0.00     0.023 C 
ENDROOT
BRANCH   1   2
ATOM      2  C   UNL A   1      36.515  23.983  25.768  1.00  0.00     0.116 C 
BRANCH   2   3
ATOM      3  N   UNL A   1      37.496  22.914  25.944  1.00  0.00    -0.352 N 
ATOM      4  O   UNL A   1      39.539  22.058  26.428  1.00  0.00    -0.269 OA
ATOM      5  C   UNL A   1      38.781  23.019  26.427  1.00  0.00     0.251 C 
ATOM      6  H   UNL A   1      37.203  22.011  25.687  1.00  0.00     0.163 HD
BRANCH   5   7
ATOM      7  C   UNL A   1      39.222  24.341  26.909  1.00  0.00     0.039 A 
ATOM      8  C   UNL A   1      39.881  25.195  26.025  1.00  0.00     0.014 A 
ATOM      9  C   UNL A   1      39.110  24.654  28.265  1.00  0.00     0.014 A 
ATOM     10  C   UNL A   1      40.598  26.264  26.531  1.00  0.00     0.010 A 
ATOM     11  C   UNL A   1      39.728  25.808  28.750  1.00  0.00     0.010 A 
ATOM     12  C   UNL A   1      40.509  26.601  27.893  1.00  0.00    -0.014 A 
BRANCH  12  13
ATOM     13  C   UNL A   1      41.184  27.834  28.363  1.00  0.00     0.031 A 
ATOM     14  C   UNL A   1      42.669  28.026  28.220  1.00  0.00     0.074 A 
ATOM     15  C   UNL A   1      40.411  28.808  28.884  1.00  0.00     0.049 A 
ATOM     16  N   UNL A   1      43.399  29.047  28.590  1.00  0.00    -0.248 NA
ATOM     17  C   UNL A   1      43.435  26.938  27.593  1.00  0.00     0.031 C 
ATOM     18  C   UNL A   1      38.959  28.717  29.070  1.00  0.00     0.029 A 
ATOM     19  N   UNL A   1      40.719  30.068  29.321  1.00  0.00    -0.354 N 
ATOM     20  C   UNL A   1      44.712  28.713  28.276  1.00  0.00     0.074 A 
ATOM     21  C   UNL A   1      44.679  27.390  27.691  1.00  0.00     0.031 C 
ATOM     22  C   UNL A   1      38.495  29.892  29.513  1.00  0.00     0.029 A 
ATOM     23  C   UNL A   1      39.622  30.786  29.732  1.00  0.00     0.049 A 
ATOM     24  H   UNL A   1      41.636  30.425  29.337  1.00  0.00     0.167 HD
ATOM     25  C   UNL A   1      45.835  29.449  28.464  1.00  0.00     0.037 A 
ATOM     26  C   UNL A   1      39.532  32.019  30.261  1.00  0.00     0.037 A 
ATOM     27  C   UNL A   1      45.840  30.777  29.026  1.00  0.00     0.049 A 
ATOM     28  C   UNL A   1      40.789  32.806  30.460  1.00  0.00     0.074 A 
ATOM     29  C   UNL A   1      46.919  31.619  29.239  1.00  0.00     0.029 A 
ATOM     30  N   UNL A   1      44.713  31.459  29.464  1.00  0.00    -0.354 N 
ATOM     31  N   UNL A   1      42.022  32.471  30.164  1.00  0.00    -0.248 NA
ATOM     32  C   UNL A   1      40.650  34.128  31.079  1.00  0.00     0.031 C 
ATOM     33  C   UNL A   1      46.448  32.793  29.837  1.00  0.00     0.029 A 
ATOM     34  C   UNL A   1      45.071  32.703  29.959  1.00  0.00     0.049 A 
ATOM     35  H   UNL A   1      43.793  31.111  29.426  1.00  0.00     0.167 HD
ATOM     36  C   UNL A   1      42.809  33.544  30.556  1.00  0.00     0.074 A 
ATOM     37  C   UNL A   1      41.908  34.548  31.089  1.00  0.00     0.031 C 
ATOM     38  C   UNL A   1      44.156  33.683  30.490  1.00  0.00     0.037 A 
BRANCH  25  39
ATOM     39  C   UNL A   1      47.156  28.832  28.087  1.00  0.00     0.058 A 
ATOM     40  C   UNL A   1      47.934  28.115  29.009  1.00  0.00     0.135 A 
ATOM     41  C   UNL A   1      47.623  28.914  26.764  1.00  0.00     0.135 A 
ATOM     42  F   UNL A   1      47.542  28.016  30.290  1.00  0.00    -0.206 F 
ATOM     43  C   UNL A   1      49.136  27.518  28.639  1.00  0.00     0.059 A 
ATOM     44  C   UNL A   1      48.811  28.304  26.367  1.00  0.00     0.059 A 
ATOM     45  F   UNL A   1      46.919  29.586  25.838  1.00  0.00    -0.206 F 
ATOM     46  C   UNL A   1      49.566  27.618  27.315  1.00  0.00     0.060 A 
BRANCH  46  47
ATOM     47  S   UNL A   1      51.118  26.824  26.841  1.00  0.00     0.124 S 
ATOM     48  O   UNL A   1      51.880  27.958  26.326  1.00  0.00    -0.237 OA
ATOM     49  O   UNL A   1      51.587  26.269  28.107  1.00  0.00    -0.237 OA
ATOM     50  O   UNL A   1      50.707  25.840  25.844  1.00  0.00    -0.744 OA
ENDBRANCH  46  47
ENDBRANCH  25  39
BRANCH  26  51
ATOM     51  C   UNL A   1      38.201  32.551  30.653  1.00  0.00     0.058 A 
ATOM     52  C   UNL A   1      37.719  32.402  31.960  1.00  0.00     0.135 A 
ATOM     53  C   UNL A   1      37.412  33.269  29.740  1.00  0.00     0.135 A 
ATOM     54  F   UNL A   1      38.439  31.724  32.867  1.00  0.00    -0.206 F 
ATOM     55  C   UNL A   1      36.498  32.942  32.349  1.00  0.00     0.059 A 
ATOM     56  C   UNL A   1      36.204  33.843  30.112  1.00  0.00     0.059 A 
ATOM     57  F   UNL A   1      37.842  33.459  28.482  1.00  0.00    -0.206 F 
ATOM     58  C   UNL A   1      35.750  33.666  31.417  1.00  0.00     0.060 A 
BRANCH  58  59
ATOM     59  S   UNL A   1      34.196  34.420  31.947  1.00  0.00     0.124 S 
ATOM     60  O   UNL A   1      34.668  35.641  32.588  1.00  0.00    -0.237 OA
ATOM     61  O   UNL A   1      33.490  34.592  30.681  1.00  0.00    -0.237 OA
ATOM     62  O   UNL A   1      33.627  33.414  32.840  1.00  0.00    -0.744 OA
ENDBRANCH  58  59
ENDBRANCH  26  51
BRANCH  38  63
ATOM     63  C   UNL A   1      44.725  34.978  30.992  1.00  0.00     0.058 A 
ATOM     64  C   UNL A   1      45.150  35.124  32.321  1.00  0.00     0.135 A 
ATOM     65  C   UNL A   1      44.865  36.075  30.129  1.00  0.00     0.135 A 
ATOM     66  F   UNL A   1      45.024  34.106  33.188  1.00  0.00    -0.206 F 
ATOM     67  C   UNL A   1      45.672  36.326  32.785  1.00  0.00     0.059 A 
ATOM     68  C   UNL A   1      45.407  37.278  30.565  1.00  0.00     0.059 A 
ATOM     69  F   UNL A   1      44.477  35.980  28.847  1.00  0.00    -0.206 F 
ATOM     70  C   UNL A   1      45.795  37.398  31.899  1.00  0.00     0.060 A 
BRANCH  70  71
ATOM     71  S   UNL A   1      46.493  38.947  32.507  1.00  0.00     0.124 S 
ATOM     72  O   UNL A   1      47.825  38.923  31.910  1.00  0.00    -0.237 OA
ATOM     73  O   UNL A   1      45.573  39.942  31.965  1.00  0.00    -0.237 OA
ATOM     74  O   UNL A   1      46.452  38.790  33.958  1.00  0.00    -0.744 OA
ENDBRANCH  70  71
ENDBRANCH  38  63
ENDBRANCH  12  13
ENDBRANCH   5   7
ENDBRANCH   2   3
ENDBRANCH   1   2
BRANCH   1  75
ATOM     75  C   UNL A   1      34.348  23.013  26.689  1.00  0.00     0.023 C 
BRANCH  75  76
ATOM     76  C   UNL A   1      33.995  21.530  26.704  1.00  0.00     0.116 C 
BRANCH  76  77
ATOM     77  N   UNL A   1      34.917  20.698  25.963  1.00  0.00    -0.356 N 
ATOM     78  C   UNL A   1      34.721  19.664  25.109  1.00  0.00     0.224 C 
ATOM     79  H   UNL A   1      35.864  20.927  26.104  1.00  0.00     0.163 HD
ATOM     80  O   UNL A   1      35.740  19.206  24.570  1.00  0.00    -0.275 OA
BRANCH  78  81
ATOM     81  C   UNL A   1      33.387  18.960  24.844  1.00  0.00     0.098 C 
ATOM     82  C   UNL A   1      33.242  17.947  23.711  1.00  0.00     0.017 C 
ATOM     83  C   UNL A   1      32.265  19.983  24.811  1.00  0.00     0.131 C 
ATOM     84  C   UNL A   1      32.526  18.420  22.427  1.00  0.00     0.022 C 
ATOM     85  N   UNL A   1      32.287  20.649  23.525  1.00  0.00    -0.356 N 
ATOM     86  C   UNL A   1      31.954  19.852  22.357  1.00  0.00     0.118 C 
BRANCH  85  87
ATOM     87  C   UNL A   1      32.382  22.026  23.422  1.00  0.00     0.129 A 
ATOM     88  C   UNL A   1      33.145  22.619  22.413  1.00  0.00     0.047 A 
ATOM     89  N   UNL A   1      31.634  22.796  24.245  1.00  0.00    -0.231 NA
ATOM     90  C   UNL A   1      33.136  23.997  22.233  1.00  0.00     0.014 A 
ATOM     91  C   UNL A   1      31.645  24.137  24.099  1.00  0.00     0.073 A 
ATOM     92  C   UNL A   1      32.385  24.785  23.094  1.00  0.00     0.002 A 
ATOM     93  C   UNL A   1      30.912  24.934  24.968  1.00  0.00     0.030 A 
ATOM     94  C   UNL A   1      32.376  26.183  22.970  1.00  0.00     0.032 A 
ATOM     95  C   UNL A   1      30.912  26.334  24.874  1.00  0.00     0.024 A 
ATOM     96  C   UNL A   1      31.650  26.961  23.874  1.00  0.00     0.083 A 
BRANCH  96  97
ATOM     97  S   UNL A   1      31.794  28.731  23.678  1.00  0.00     0.243 S 
ATOM     98  O   UNL A   1      32.626  28.920  22.503  1.00  0.00    -0.207 OA
ATOM     99  O   UNL A   1      30.449  29.246  23.747  1.00  0.00    -0.207 OA
BRANCH  97 100
ATOM    100  N   UNL A   1      32.669  29.331  25.013  1.00  0.00    -0.198 NA
ATOM    101  C   UNL A   1      31.900  30.145  25.984  1.00  0.00     0.102 C 
ATOM    102  C   UNL A   1      33.774  28.479  25.506  1.00  0.00     0.102 C 
ATOM    103  C   UNL A   1      32.790  30.778  27.045  1.00  0.00     0.017 C 
ATOM    104  C   UNL A   1      34.613  29.179  26.564  1.00  0.00     0.017 C 
ATOM    105  C   UNL A   1      33.737  29.761  27.660  1.00  0.00     0.003 C 
ENDBRANCH  97 100
ENDBRANCH  96  97
ENDBRANCH  85  87
ENDBRANCH  78  81
ENDBRANCH  76  77
ENDBRANCH  75  76
ENDBRANCH   1  75
TORSDOF 17
ENDMDL
