MODEL 1
REMARK VINA RESULT:     -12.1      0.000      0.000
REMARK SMILES O=C(NCCCCNC(=O)c1csc(S(=O)(=O)Nc2ccc(F)cc2)c1)c1ccc(-c2c3nc(c(-c4c(F)cc(S(=O)(=O)[O-])cc4F)c4ccc([nH]4)c(-c4c(F)cc(S(=O)(=O)[O-])cc4F)c4nc(c(-c5c(F)cc(S(=O)(=O)[O-])cc5F)c5ccc2[nH]5)C=C4)C=C3)cc1
REMARK SMILES IDX 5 1 4 2 3 3 1 4 2 5 27 7 28 8 92 9 29 10 91 11 30 12 31 13
REMARK SMILES IDX 32 14 85 15 33 16 90 17 84 18 86 19 34 20 89 21 83 22 82 23
REMARK SMILES IDX 35 25 69 26 48 27 68 28 49 29 52 30 67 31 87 32 50 33 51 34
REMARK SMILES IDX 66 36 88 37 53 38 36 39 37 40 46 41 38 42 39 43 45 44 47 45
REMARK SMILES IDX 40 46 41 47 42 48 43 49 44 50 70 51 71 52 80 53 72 54 73 55
REMARK SMILES IDX 79 56 81 57 74 58 75 59 76 60 77 61 78 62 54 63 55 64 64 65
REMARK SMILES IDX 56 66 57 67 63 68 65 69 58 70 59 71 60 72 61 73 62 74 6 75
REMARK SMILES IDX 7 76 8 77 9 78 10 80 11 81 12 82 26 83 13 84 14 85 15 86
REMARK SMILES IDX 16 87 17 88 18 89 19 91 20 92 25 93 21 94 24 95 22 96 23 97
REMARK H PARENT 3 6 86 24 52 35 8 79 18 90
REMARK Flexibility Score: inf
ROOT
ATOM      1  C   UNL A   1      37.297  23.572  25.486  1.00  0.00     0.023 C 
ENDROOT
BRANCH   1   2
ATOM      2  C   UNL A   1      38.270  24.075  26.546  1.00  0.00     0.116 C 
BRANCH   2   3
ATOM      3  N   UNL A   1      39.664  23.902  26.174  1.00  0.00    -0.352 N 
ATOM      4  O   UNL A   1      41.860  24.356  26.050  1.00  0.00    -0.269 OA
ATOM      5  C   UNL A   1      40.776  24.603  26.571  1.00  0.00     0.251 C 
ATOM      6  H   UNL A   1      39.837  23.168  25.539  1.00  0.00     0.163 HD
BRANCH   5   7
ATOM      7  C   UNL A   1      40.668  25.670  27.590  1.00  0.00     0.039 A 
ATOM      8  C   UNL A   1      41.528  26.773  27.587  1.00  0.00     0.014 A 
ATOM      9  C   UNL A   1      39.664  25.569  28.556  1.00  0.00     0.014 A 
ATOM     10  C   UNL A   1      41.461  27.709  28.617  1.00  0.00     0.010 A 
ATOM     11  C   UNL A   1      39.559  26.540  29.554  1.00  0.00     0.010 A 
ATOM     12  C   UNL A   1      40.473  27.603  29.609  1.00  0.00    -0.014 A 
BRANCH  12  13
ATOM     13  C   UNL A   1      40.368  28.627  30.677  1.00  0.00     0.031 A 
ATOM     14  C   UNL A   1      41.248  28.561  31.892  1.00  0.00     0.074 A 
ATOM     15  C   UNL A   1      39.455  29.608  30.556  1.00  0.00     0.049 A 
ATOM     16  N   UNL A   1      41.244  29.328  32.953  1.00  0.00    -0.248 NA
ATOM     17  C   UNL A   1      42.260  27.495  31.925  1.00  0.00     0.031 C 
ATOM     18  C   UNL A   1      38.546  29.774  29.421  1.00  0.00     0.029 A 
ATOM     19  N   UNL A   1      39.133  30.644  31.396  1.00  0.00    -0.354 N 
ATOM     20  C   UNL A   1      42.232  28.823  33.790  1.00  0.00     0.074 A 
ATOM     21  C   UNL A   1      42.807  27.676  33.120  1.00  0.00     0.031 C 
ATOM     22  C   UNL A   1      37.782  30.857  29.626  1.00  0.00     0.029 A 
ATOM     23  C   UNL A   1      38.107  31.429  30.931  1.00  0.00     0.049 A 
ATOM     24  H   UNL A   1      39.594  30.809  32.251  1.00  0.00     0.167 HD
ATOM     25  C   UNL A   1      42.620  29.280  35.004  1.00  0.00     0.037 A 
ATOM     26  C   UNL A   1      37.474  32.475  31.497  1.00  0.00     0.037 A 
ATOM     27  C   UNL A   1      42.057  30.434  35.653  1.00  0.00     0.049 A 
ATOM     28  C   UNL A   1      37.896  32.942  32.857  1.00  0.00     0.074 A 
ATOM     29  C   UNL A   1      42.428  31.009  36.857  1.00  0.00     0.029 A 
ATOM     30  N   UNL A   1      41.000  31.185  35.161  1.00  0.00    -0.354 N 
ATOM     31  N   UNL A   1      38.852  32.474  33.623  1.00  0.00    -0.248 NA
ATOM     32  C   UNL A   1      37.153  34.068  33.439  1.00  0.00     0.031 C 
ATOM     33  C   UNL A   1      41.568  32.082  37.111  1.00  0.00     0.029 A 
ATOM     34  C   UNL A   1      40.685  32.199  36.048  1.00  0.00     0.049 A 
ATOM     35  H   UNL A   1      40.541  31.021  34.305  1.00  0.00     0.167 HD
ATOM     36  C   UNL A   1      38.832  33.250  34.774  1.00  0.00     0.074 A 
ATOM     37  C   UNL A   1      37.772  34.224  34.604  1.00  0.00     0.031 C 
ATOM     38  C   UNL A   1      39.624  33.160  35.869  1.00  0.00     0.037 A 
BRANCH  25  39
ATOM     39  C   UNL A   1      43.694  28.514  35.725  1.00  0.00     0.058 A 
ATOM     40  C   UNL A   1      43.354  27.498  36.632  1.00  0.00     0.135 A 
ATOM     41  C   UNL A   1      45.056  28.802  35.542  1.00  0.00     0.135 A 
ATOM     42  F   UNL A   1      42.066  27.181  36.839  1.00  0.00    -0.206 F 
ATOM     43  C   UNL A   1      44.327  26.791  37.330  1.00  0.00     0.059 A 
ATOM     44  C   UNL A   1      46.047  28.094  36.216  1.00  0.00     0.059 A 
ATOM     45  F   UNL A   1      45.434  29.751  34.671  1.00  0.00    -0.206 F 
ATOM     46  C   UNL A   1      45.672  27.094  37.114  1.00  0.00     0.060 A 
BRANCH  46  47
ATOM     47  S   UNL A   1      46.929  26.116  37.964  1.00  0.00     0.124 S 
ATOM     48  O   UNL A   1      47.168  25.039  37.012  1.00  0.00    -0.237 OA
ATOM     49  O   UNL A   1      48.016  27.078  38.125  1.00  0.00    -0.237 OA
ATOM     50  O   UNL A   1      46.267  25.726  39.207  1.00  0.00    -0.744 OA
ENDBRANCH  46  47
ENDBRANCH  25  39
BRANCH  26  51
ATOM     51  C   UNL A   1      36.374  33.129  30.745  1.00  0.00     0.058 A 
ATOM     52  C   UNL A   1      36.650  34.021  29.696  1.00  0.00     0.135 A 
ATOM     53  C   UNL A   1      35.041  32.978  31.148  1.00  0.00     0.135 A 
ATOM     54  F   UNL A   1      37.913  34.206  29.284  1.00  0.00    -0.206 F 
ATOM     55  C   UNL A   1      35.645  34.782  29.110  1.00  0.00     0.059 A 
ATOM     56  C   UNL A   1      34.016  33.714  30.563  1.00  0.00     0.059 A 
ATOM     57  F   UNL A   1      34.734  32.127  32.140  1.00  0.00    -0.206 F 
ATOM     58  C   UNL A   1      34.335  34.637  29.565  1.00  0.00     0.060 A 
BRANCH  58  59
ATOM     59  S   UNL A   1      33.059  35.701  28.860  1.00  0.00     0.124 S 
ATOM     60  O   UNL A   1      32.347  36.134  30.059  1.00  0.00    -0.237 OA
ATOM     61  O   UNL A   1      33.850  36.724  28.185  1.00  0.00    -0.237 OA
ATOM     62  O   UNL A   1      32.318  34.802  27.980  1.00  0.00    -0.744 OA
ENDBRANCH  58  59
ENDBRANCH  26  51
BRANCH  38  63
ATOM     63  C   UNL A   1      39.394  34.138  36.985  1.00  0.00     0.058 A 
ATOM     64  C   UNL A   1      39.972  35.416  36.942  1.00  0.00     0.135 A 
ATOM     65  C   UNL A   1      38.711  33.761  38.152  1.00  0.00     0.135 A 
ATOM     66  F   UNL A   1      40.636  35.821  35.847  1.00  0.00    -0.206 F 
ATOM     67  C   UNL A   1      39.913  36.276  38.033  1.00  0.00     0.059 A 
ATOM     68  C   UNL A   1      38.624  34.612  39.249  1.00  0.00     0.059 A 
ATOM     69  F   UNL A   1      38.130  32.554  38.232  1.00  0.00    -0.206 F 
ATOM     70  C   UNL A   1      39.251  35.858  39.188  1.00  0.00     0.060 A 
BRANCH  70  71
ATOM     71  S   UNL A   1      39.224  36.967  40.613  1.00  0.00     0.124 S 
ATOM     72  O   UNL A   1      38.430  38.082  40.108  1.00  0.00    -0.237 OA
ATOM     73  O   UNL A   1      38.583  36.142  41.634  1.00  0.00    -0.237 OA
ATOM     74  O   UNL A   1      40.636  37.255  40.846  1.00  0.00    -0.744 OA
ENDBRANCH  70  71
ENDBRANCH  38  63
ENDBRANCH  12  13
ENDBRANCH   5   7
ENDBRANCH   2   3
ENDBRANCH   1   2
BRANCH   1  75
ATOM     75  C   UNL A   1      36.583  22.258  25.802  1.00  0.00     0.023 C 
BRANCH  75  76
ATOM     76  C   UNL A   1      36.281  21.357  24.607  1.00  0.00     0.116 C 
BRANCH  76  77
ATOM     77  N   UNL A   1      35.450  20.212  24.940  1.00  0.00    -0.352 N 
ATOM     78  C   UNL A   1      34.084  20.095  25.018  1.00  0.00     0.252 C 
ATOM     79  H   UNL A   1      35.947  19.387  25.143  1.00  0.00     0.163 HD
ATOM     80  O   UNL A   1      33.596  19.048  25.434  1.00  0.00    -0.269 OA
BRANCH  78  81
ATOM     81  C   UNL A   1      33.251  21.247  24.701  1.00  0.00     0.051 A 
ATOM     82  C   UNL A   1      32.805  21.616  23.448  1.00  0.00     0.080 A 
ATOM     83  C   UNL A   1      32.703  22.125  25.690  1.00  0.00     0.048 A 
ATOM     84  S   UNL A   1      32.014  23.132  23.458  1.00  0.00    -0.130 S 
ATOM     85  C   UNL A   1      32.192  23.292  25.156  1.00  0.00     0.141 A 
BRANCH  85  86
ATOM     86  S   UNL A   1      31.616  24.821  25.865  1.00  0.00     0.271 S 
ATOM     87  O   UNL A   1      30.682  25.388  24.918  1.00  0.00    -0.200 OA
ATOM     88  O   UNL A   1      31.196  24.468  27.208  1.00  0.00    -0.200 OA
BRANCH  86  89
ATOM     89  N   UNL A   1      32.839  25.988  26.056  1.00  0.00    -0.279 N 
ATOM     90  H   UNL A   1      33.781  25.712  26.120  1.00  0.00     0.180 HD
BRANCH  89  91
ATOM     91  C   UNL A   1      32.490  27.365  26.122  1.00  0.00     0.049 A 
ATOM     92  C   UNL A   1      32.778  28.181  25.023  1.00  0.00     0.030 A 
ATOM     93  C   UNL A   1      31.935  27.909  27.283  1.00  0.00     0.030 A 
ATOM     94  C   UNL A   1      32.516  29.550  25.086  1.00  0.00     0.041 A 
ATOM     95  C   UNL A   1      31.664  29.279  27.338  1.00  0.00     0.041 A 
ATOM     96  C   UNL A   1      31.961  30.087  26.244  1.00  0.00     0.123 A 
ATOM     97  F   UNL A   1      31.716  31.401  26.309  1.00  0.00    -0.207 F 
ENDBRANCH  89  91
ENDBRANCH  86  89
ENDBRANCH  85  86
ENDBRANCH  78  81
ENDBRANCH  76  77
ENDBRANCH  75  76
ENDBRANCH   1  75
TORSDOF 17
ENDMDL
MODEL 2
REMARK VINA RESULT:     -11.9      2.699      3.378
REMARK SMILES O=C(NCCCCNC(=O)c1csc(S(=O)(=O)Nc2ccc(F)cc2)c1)c1ccc(-c2c3nc(c(-c4c(F)cc(S(=O)(=O)[O-])cc4F)c4ccc([nH]4)c(-c4c(F)cc(S(=O)(=O)[O-])cc4F)c4nc(c(-c5c(F)cc(S(=O)(=O)[O-])cc5F)c5ccc2[nH]5)C=C4)C=C3)cc1
REMARK SMILES IDX 5 1 4 2 3 3 1 4 2 5 27 7 28 8 92 9 29 10 91 11 30 12 31 13
REMARK SMILES IDX 32 14 85 15 33 16 90 17 84 18 86 19 34 20 89 21 83 22 82 23
REMARK SMILES IDX 35 25 69 26 48 27 68 28 49 29 52 30 67 31 87 32 50 33 51 34
REMARK SMILES IDX 66 36 88 37 53 38 36 39 37 40 46 41 38 42 39 43 45 44 47 45
REMARK SMILES IDX 40 46 41 47 42 48 43 49 44 50 70 51 71 52 80 53 72 54 73 55
REMARK SMILES IDX 79 56 81 57 74 58 75 59 76 60 77 61 78 62 54 63 55 64 64 65
REMARK SMILES IDX 56 66 57 67 63 68 65 69 58 70 59 71 60 72 61 73 62 74 6 75
REMARK SMILES IDX 7 76 8 77 9 78 10 80 11 81 12 82 26 83 13 84 14 85 15 86
REMARK SMILES IDX 16 87 17 88 18 89 19 91 20 92 25 93 21 94 24 95 22 96 23 97
REMARK H PARENT 3 6 86 24 52 35 8 79 18 90
REMARK Flexibility Score: inf
ROOT
ATOM      1  C   UNL A   1      35.399  23.419  25.526  1.00  0.00     0.023 C 
ENDROOT
BRANCH   1   2
ATOM      2  C   UNL A   1      36.792  24.036  25.471  1.00  0.00     0.116 C 
BRANCH   2   3
ATOM      3  N   UNL A   1      37.857  23.049  25.468  1.00  0.00    -0.352 N 
ATOM      4  O   UNL A   1      39.902  22.188  25.822  1.00  0.00    -0.269 OA
ATOM      5  C   UNL A   1      39.108  23.101  26.034  1.00  0.00     0.251 C 
ATOM      6  H   UNL A   1      37.651  22.214  24.988  1.00  0.00     0.163 HD
BRANCH   5   7
ATOM      7  C   UNL A   1      39.513  24.259  26.860  1.00  0.00     0.039 A 
ATOM      8  C   UNL A   1      39.130  24.371  28.200  1.00  0.00     0.014 A 
ATOM      9  C   UNL A   1      40.316  25.244  26.277  1.00  0.00     0.014 A 
ATOM     10  C   UNL A   1      39.449  25.522  28.919  1.00  0.00     0.010 A 
ATOM     11  C   UNL A   1      40.685  26.368  27.018  1.00  0.00     0.010 A 
ATOM     12  C   UNL A   1      40.232  26.530  28.335  1.00  0.00    -0.014 A 
BRANCH  12  13
ATOM     13  C   UNL A   1      40.614  27.731  29.117  1.00  0.00     0.031 A 
ATOM     14  C   UNL A   1      41.934  27.792  29.833  1.00  0.00     0.074 A 
ATOM     15  C   UNL A   1      39.752  28.761  29.200  1.00  0.00     0.049 A 
ATOM     16  N   UNL A   1      42.400  28.730  30.618  1.00  0.00    -0.248 NA
ATOM     17  C   UNL A   1      42.845  26.653  29.649  1.00  0.00     0.031 C 
ATOM     18  C   UNL A   1      38.443  28.815  28.547  1.00  0.00     0.029 A 
ATOM     19  N   UNL A   1      39.841  29.955  29.870  1.00  0.00    -0.354 N 
ATOM     20  C   UNL A   1      43.646  28.284  31.042  1.00  0.00     0.074 A 
ATOM     21  C   UNL A   1      43.858  26.987  30.437  1.00  0.00     0.031 C 
ATOM     22  C   UNL A   1      37.858  29.987  28.834  1.00  0.00     0.029 A 
ATOM     23  C   UNL A   1      38.724  30.743  29.735  1.00  0.00     0.049 A 
ATOM     24  H   UNL A   1      40.628  30.220  30.397  1.00  0.00     0.167 HD
ATOM     25  C   UNL A   1      44.529  28.906  31.859  1.00  0.00     0.037 A 
ATOM     26  C   UNL A   1      38.414  31.930  30.292  1.00  0.00     0.037 A 
ATOM     27  C   UNL A   1      44.319  30.207  32.439  1.00  0.00     0.049 A 
ATOM     28  C   UNL A   1      39.390  32.585  31.222  1.00  0.00     0.074 A 
ATOM     29  C   UNL A   1      45.183  30.944  33.230  1.00  0.00     0.029 A 
ATOM     30  N   UNL A   1      43.163  30.961  32.299  1.00  0.00    -0.354 N 
ATOM     31  N   UNL A   1      40.578  32.165  31.589  1.00  0.00    -0.248 NA
ATOM     32  C   UNL A   1      38.989  33.863  31.824  1.00  0.00     0.031 C 
ATOM     33  C   UNL A   1      44.533  32.125  33.602  1.00  0.00     0.029 A 
ATOM     34  C   UNL A   1      43.278  32.141  33.013  1.00  0.00     0.049 A 
ATOM     35  H   UNL A   1      42.376  30.695  31.770  1.00  0.00     0.167 HD
ATOM     36  C   UNL A   1      41.070  33.130  32.458  1.00  0.00     0.074 A 
ATOM     37  C   UNL A   1      40.053  34.159  32.560  1.00  0.00     0.031 C 
ATOM     38  C   UNL A   1      42.257  33.156  33.110  1.00  0.00     0.037 A 
BRANCH  25  39
ATOM     39  C   UNL A   1      45.799  28.176  32.196  1.00  0.00     0.058 A 
ATOM     40  C   UNL A   1      46.942  28.337  31.397  1.00  0.00     0.135 A 
ATOM     41  C   UNL A   1      45.879  27.298  33.288  1.00  0.00     0.135 A 
ATOM     42  F   UNL A   1      46.920  29.169  30.344  1.00  0.00    -0.206 F 
ATOM     43  C   UNL A   1      48.123  27.655  31.672  1.00  0.00     0.059 A 
ATOM     44  C   UNL A   1      47.056  26.620  33.592  1.00  0.00     0.059 A 
ATOM     45  F   UNL A   1      44.819  27.124  34.094  1.00  0.00    -0.206 F 
ATOM     46  C   UNL A   1      48.172  26.800  32.774  1.00  0.00     0.060 A 
BRANCH  46  47
ATOM     47  S   UNL A   1      49.732  25.983  33.169  1.00  0.00     0.124 S 
ATOM     48  O   UNL A   1      50.687  27.076  33.040  1.00  0.00    -0.237 OA
ATOM     49  O   UNL A   1      49.495  25.501  34.527  1.00  0.00    -0.237 OA
ATOM     50  O   UNL A   1      49.828  24.935  32.155  1.00  0.00    -0.744 OA
ENDBRANCH  46  47
ENDBRANCH  25  39
BRANCH  26  51
ATOM     51  C   UNL A   1      37.106  32.548  29.960  1.00  0.00     0.058 A 
ATOM     52  C   UNL A   1      37.005  33.527  28.960  1.00  0.00     0.135 A 
ATOM     53  C   UNL A   1      35.966  32.268  30.726  1.00  0.00     0.135 A 
ATOM     54  F   UNL A   1      38.074  33.836  28.209  1.00  0.00    -0.206 F 
ATOM     55  C   UNL A   1      35.832  34.248  28.767  1.00  0.00     0.059 A 
ATOM     56  C   UNL A   1      34.775  32.962  30.538  1.00  0.00     0.059 A 
ATOM     57  F   UNL A   1      36.018  31.331  31.686  1.00  0.00    -0.206 F 
ATOM     58  C   UNL A   1      34.729  33.972  29.576  1.00  0.00     0.060 A 
BRANCH  58  59
ATOM     59  S   UNL A   1      33.246  34.981  29.376  1.00  0.00     0.124 S 
ATOM     60  O   UNL A   1      32.696  34.957  30.728  1.00  0.00    -0.237 OA
ATOM     61  O   UNL A   1      33.799  36.257  28.937  1.00  0.00    -0.237 OA
ATOM     62  O   UNL A   1      32.475  34.254  28.372  1.00  0.00    -0.744 OA
ENDBRANCH  58  59
ENDBRANCH  26  51
BRANCH  38  63
ATOM     63  C   UNL A   1      42.547  34.331  33.996  1.00  0.00     0.058 A 
ATOM     64  C   UNL A   1      43.156  35.483  33.475  1.00  0.00     0.135 A 
ATOM     65  C   UNL A   1      42.340  34.265  35.383  1.00  0.00     0.135 A 
ATOM     66  F   UNL A   1      43.376  35.592  32.155  1.00  0.00    -0.206 F 
ATOM     67  C   UNL A   1      43.585  36.515  34.302  1.00  0.00     0.059 A 
ATOM     68  C   UNL A   1      42.745  35.293  36.228  1.00  0.00     0.059 A 
ATOM     69  F   UNL A   1      41.747  33.189  35.924  1.00  0.00    -0.206 F 
ATOM     70  C   UNL A   1      43.390  36.403  35.679  1.00  0.00     0.060 A 
BRANCH  70  71
ATOM     71  S   UNL A   1      43.996  37.729  36.745  1.00  0.00     0.124 S 
ATOM     72  O   UNL A   1      44.060  38.852  35.815  1.00  0.00    -0.237 OA
ATOM     73  O   UNL A   1      42.953  37.807  37.764  1.00  0.00    -0.237 OA
ATOM     74  O   UNL A   1      45.283  37.226  37.215  1.00  0.00    -0.744 OA
ENDBRANCH  70  71
ENDBRANCH  38  63
ENDBRANCH  12  13
ENDBRANCH   5   7
ENDBRANCH   2   3
ENDBRANCH   1   2
BRANCH   1  75
ATOM     75  C   UNL A   1      35.320  21.991  26.067  1.00  0.00     0.023 C 
BRANCH  75  76
ATOM     76  C   UNL A   1      35.252  20.882  25.019  1.00  0.00     0.116 C 
BRANCH  76  77
ATOM     77  N   UNL A   1      34.121  19.987  25.196  1.00  0.00    -0.352 N 
ATOM     78  C   UNL A   1      32.776  20.208  25.035  1.00  0.00     0.252 C 
ATOM     79  H   UNL A   1      34.358  19.074  25.477  1.00  0.00     0.163 HD
ATOM     80  O   UNL A   1      31.982  19.328  25.354  1.00  0.00    -0.269 OA
BRANCH  78  81
ATOM     81  C   UNL A   1      32.317  21.516  24.586  1.00  0.00     0.051 A 
ATOM     82  C   UNL A   1      32.323  21.984  23.287  1.00  0.00     0.080 A 
ATOM     83  C   UNL A   1      31.708  22.482  25.448  1.00  0.00     0.048 A 
ATOM     84  S   UNL A   1      31.888  23.635  23.187  1.00  0.00    -0.130 S 
ATOM     85  C   UNL A   1      31.616  23.736  24.878  1.00  0.00     0.141 A 
BRANCH  85  86
ATOM     86  S   UNL A   1      31.192  25.347  25.509  1.00  0.00     0.271 S 
ATOM     87  O   UNL A   1      29.846  25.625  25.059  1.00  0.00    -0.200 OA
ATOM     88  O   UNL A   1      31.506  25.282  26.923  1.00  0.00    -0.200 OA
BRANCH  86  89
ATOM     89  N   UNL A   1      32.152  26.602  24.879  1.00  0.00    -0.279 N 
ATOM     90  H   UNL A   1      32.418  26.593  23.932  1.00  0.00     0.180 HD
BRANCH  89  91
ATOM     91  C   UNL A   1      32.566  27.663  25.730  1.00  0.00     0.049 A 
ATOM     92  C   UNL A   1      31.638  28.656  26.062  1.00  0.00     0.030 A 
ATOM     93  C   UNL A   1      33.889  27.754  26.171  1.00  0.00     0.030 A 
ATOM     94  C   UNL A   1      32.034  29.749  26.833  1.00  0.00     0.041 A 
ATOM     95  C   UNL A   1      34.279  28.845  26.952  1.00  0.00     0.041 A 
ATOM     96  C   UNL A   1      33.351  29.833  27.272  1.00  0.00     0.123 A 
ATOM     97  F   UNL A   1      33.736  30.885  28.005  1.00  0.00    -0.207 F 
ENDBRANCH  89  91
ENDBRANCH  86  89
ENDBRANCH  85  86
ENDBRANCH  78  81
ENDBRANCH  76  77
ENDBRANCH  75  76
ENDBRANCH   1  75
TORSDOF 17
ENDMDL
MODEL 3
REMARK VINA RESULT:     -11.8      6.689     12.270
REMARK SMILES O=C(NCCCCNC(=O)c1csc(S(=O)(=O)Nc2ccc(F)cc2)c1)c1ccc(-c2c3nc(c(-c4c(F)cc(S(=O)(=O)[O-])cc4F)c4ccc([nH]4)c(-c4c(F)cc(S(=O)(=O)[O-])cc4F)c4nc(c(-c5c(F)cc(S(=O)(=O)[O-])cc5F)c5ccc2[nH]5)C=C4)C=C3)cc1
REMARK SMILES IDX 5 1 4 2 3 3 1 4 2 5 27 7 28 8 92 9 29 10 91 11 30 12 31 13
REMARK SMILES IDX 32 14 85 15 33 16 90 17 84 18 86 19 34 20 89 21 83 22 82 23
REMARK SMILES IDX 35 25 69 26 48 27 68 28 49 29 52 30 67 31 87 32 50 33 51 34
REMARK SMILES IDX 66 36 88 37 53 38 36 39 37 40 46 41 38 42 39 43 45 44 47 45
REMARK SMILES IDX 40 46 41 47 42 48 43 49 44 50 70 51 71 52 80 53 72 54 73 55
REMARK SMILES IDX 79 56 81 57 74 58 75 59 76 60 77 61 78 62 54 63 55 64 64 65
REMARK SMILES IDX 56 66 57 67 63 68 65 69 58 70 59 71 60 72 61 73 62 74 6 75
REMARK SMILES IDX 7 76 8 77 9 78 10 80 11 81 12 82 26 83 13 84 14 85 15 86
REMARK SMILES IDX 16 87 17 88 18 89 19 91 20 92 25 93 21 94 24 95 22 96 23 97
REMARK H PARENT 3 6 86 24 52 35 8 79 18 90
REMARK Flexibility Score: inf
ROOT
ATOM      1  C   UNL A   1      35.029  32.136  27.972  1.00  0.00     0.023 C 
ENDROOT
BRANCH   1   2
ATOM      2  C   UNL A   1      36.038  32.383  29.088  1.00  0.00     0.116 C 
BRANCH   2   3
ATOM      3  N   UNL A   1      35.759  31.619  30.292  1.00  0.00    -0.352 N 
ATOM      4  O   UNL A   1      36.028  30.042  31.868  1.00  0.00    -0.269 OA
ATOM      5  C   UNL A   1      36.501  30.639  30.904  1.00  0.00     0.251 C 
ATOM      6  H   UNL A   1      34.908  31.839  30.737  1.00  0.00     0.163 HD
BRANCH   5   7
ATOM      7  C   UNL A   1      37.840  30.277  30.392  1.00  0.00     0.039 A 
ATOM      8  C   UNL A   1      38.100  30.191  29.020  1.00  0.00     0.014 A 
ATOM      9  C   UNL A   1      38.864  30.041  31.313  1.00  0.00     0.014 A 
ATOM     10  C   UNL A   1      39.346  29.754  28.575  1.00  0.00     0.010 A 
ATOM     11  C   UNL A   1      40.131  29.661  30.864  1.00  0.00     0.010 A 
ATOM     12  C   UNL A   1      40.374  29.488  29.493  1.00  0.00    -0.014 A 
BRANCH  12  13
ATOM     13  C   UNL A   1      41.716  29.072  29.017  1.00  0.00     0.031 A 
ATOM     14  C   UNL A   1      42.847  30.059  28.952  1.00  0.00     0.074 A 
ATOM     15  C   UNL A   1      41.905  27.800  28.619  1.00  0.00     0.049 A 
ATOM     16  N   UNL A   1      44.062  29.888  28.498  1.00  0.00    -0.248 NA
ATOM     17  C   UNL A   1      42.579  31.413  29.458  1.00  0.00     0.031 C 
ATOM     18  C   UNL A   1      40.883  26.754  28.638  1.00  0.00     0.029 A 
ATOM     19  N   UNL A   1      43.016  27.173  28.116  1.00  0.00    -0.354 N 
ATOM     20  C   UNL A   1      44.696  31.116  28.637  1.00  0.00     0.074 A 
ATOM     21  C   UNL A   1      43.727  32.028  29.208  1.00  0.00     0.031 C 
ATOM     22  C   UNL A   1      41.417  25.610  28.184  1.00  0.00     0.029 A 
ATOM     23  C   UNL A   1      42.802  25.856  27.790  1.00  0.00     0.049 A 
ATOM     24  H   UNL A   1      43.884  27.623  27.998  1.00  0.00     0.167 HD
ATOM     25  C   UNL A   1      45.970  31.448  28.319  1.00  0.00     0.037 A 
ATOM     26  C   UNL A   1      43.615  24.949  27.214  1.00  0.00     0.037 A 
ATOM     27  C   UNL A   1      46.933  30.528  27.772  1.00  0.00     0.049 A 
ATOM     28  C   UNL A   1      45.010  25.346  26.837  1.00  0.00     0.074 A 
ATOM     29  C   UNL A   1      48.265  30.757  27.474  1.00  0.00     0.029 A 
ATOM     30  N   UNL A   1      46.668  29.210  27.432  1.00  0.00    -0.354 N 
ATOM     31  N   UNL A   1      45.605  26.503  27.003  1.00  0.00    -0.248 NA
ATOM     32  C   UNL A   1      45.844  24.328  26.185  1.00  0.00     0.031 C 
ATOM     33  C   UNL A   1      48.794  29.589  26.916  1.00  0.00     0.029 A 
ATOM     34  C   UNL A   1      47.801  28.621  26.900  1.00  0.00     0.049 A 
ATOM     35  H   UNL A   1      45.800  28.760  27.551  1.00  0.00     0.167 HD
ATOM     36  C   UNL A   1      46.884  26.352  26.485  1.00  0.00     0.074 A 
ATOM     37  C   UNL A   1      46.981  24.988  26.002  1.00  0.00     0.031 C 
ATOM     38  C   UNL A   1      47.884  27.263  26.418  1.00  0.00     0.037 A 
BRANCH  25  39
ATOM     39  C   UNL A   1      46.393  32.874  28.533  1.00  0.00     0.058 A 
ATOM     40  C   UNL A   1      46.881  33.288  29.783  1.00  0.00     0.135 A 
ATOM     41  C   UNL A   1      46.290  33.836  27.516  1.00  0.00     0.135 A 
ATOM     42  F   UNL A   1      47.004  32.407  30.787  1.00  0.00    -0.206 F 
ATOM     43  C   UNL A   1      47.256  34.608  30.015  1.00  0.00     0.059 A 
ATOM     44  C   UNL A   1      46.677  35.157  27.721  1.00  0.00     0.059 A 
ATOM     45  F   UNL A   1      45.847  33.485  26.298  1.00  0.00    -0.206 F 
ATOM     46  C   UNL A   1      47.153  35.535  28.978  1.00  0.00     0.060 A 
BRANCH  46  47
ATOM     47  S   UNL A   1      47.719  37.225  29.265  1.00  0.00     0.124 S 
ATOM     48  O   UNL A   1      48.897  37.298  28.410  1.00  0.00    -0.237 OA
ATOM     49  O   UNL A   1      46.569  38.016  28.835  1.00  0.00    -0.237 OA
ATOM     50  O   UNL A   1      47.978  37.252  30.703  1.00  0.00    -0.744 OA
ENDBRANCH  46  47
ENDBRANCH  25  39
BRANCH  26  51
ATOM     51  C   UNL A   1      43.093  23.581  26.973  1.00  0.00     0.058 A 
ATOM     52  C   UNL A   1      43.048  22.634  28.008  1.00  0.00     0.135 A 
ATOM     53  C   UNL A   1      42.757  23.160  25.679  1.00  0.00     0.135 A 
ATOM     54  F   UNL A   1      43.372  22.990  29.261  1.00  0.00    -0.206 F 
ATOM     55  C   UNL A   1      42.742  21.301  27.758  1.00  0.00     0.059 A 
ATOM     56  C   UNL A   1      42.428  21.836  25.408  1.00  0.00     0.059 A 
ATOM     57  F   UNL A   1      42.777  24.037  24.663  1.00  0.00    -0.206 F 
ATOM     58  C   UNL A   1      42.454  20.909  26.451  1.00  0.00     0.060 A 
BRANCH  58  59
ATOM     59  S   UNL A   1      42.152  19.158  26.128  1.00  0.00     0.124 S 
ATOM     60  O   UNL A   1      40.726  19.163  25.815  1.00  0.00    -0.237 OA
ATOM     61  O   UNL A   1      43.049  18.893  25.008  1.00  0.00    -0.237 OA
ATOM     62  O   UNL A   1      42.516  18.515  27.387  1.00  0.00    -0.744 OA
ENDBRANCH  58  59
ENDBRANCH  26  51
BRANCH  38  63
ATOM     63  C   UNL A   1      49.186  26.835  25.807  1.00  0.00     0.058 A 
ATOM     64  C   UNL A   1      50.187  26.253  26.600  1.00  0.00     0.135 A 
ATOM     65  C   UNL A   1      49.488  27.120  24.467  1.00  0.00     0.135 A 
ATOM     66  F   UNL A   1      49.945  25.963  27.888  1.00  0.00    -0.206 F 
ATOM     67  C   UNL A   1      51.458  26.002  26.094  1.00  0.00     0.059 A 
ATOM     68  C   UNL A   1      50.748  26.861  23.935  1.00  0.00     0.059 A 
ATOM     69  F   UNL A   1      48.557  27.662  23.667  1.00  0.00    -0.206 F 
ATOM     70  C   UNL A   1      51.734  26.324  24.765  1.00  0.00     0.060 A 
BRANCH  70  71
ATOM     71  S   UNL A   1      53.402  26.037  24.137  1.00  0.00     0.124 S 
ATOM     72  O   UNL A   1      54.131  27.169  24.700  1.00  0.00    -0.237 OA
ATOM     73  O   UNL A   1      53.724  24.730  24.704  1.00  0.00    -0.237 OA
ATOM     74  O   UNL A   1      53.228  26.058  22.689  1.00  0.00    -0.744 OA
ENDBRANCH  70  71
ENDBRANCH  38  63
ENDBRANCH  12  13
ENDBRANCH   5   7
ENDBRANCH   2   3
ENDBRANCH   1   2
BRANCH   1  75
ATOM     75  C   UNL A   1      34.796  30.674  27.590  1.00  0.00     0.023 C 
BRANCH  75  76
ATOM     76  C   UNL A   1      33.494  30.376  26.851  1.00  0.00     0.116 C 
BRANCH  76  77
ATOM     77  N   UNL A   1      32.600  29.496  27.585  1.00  0.00    -0.352 N 
ATOM     78  C   UNL A   1      31.857  28.424  27.158  1.00  0.00     0.252 C 
ATOM     79  H   UNL A   1      32.515  29.702  28.544  1.00  0.00     0.163 HD
ATOM     80  O   UNL A   1      31.074  27.890  27.940  1.00  0.00    -0.269 OA
BRANCH  78  81
ATOM     81  C   UNL A   1      31.938  28.009  25.764  1.00  0.00     0.051 A 
ATOM     82  C   UNL A   1      31.164  28.482  24.723  1.00  0.00     0.080 A 
ATOM     83  C   UNL A   1      32.915  27.090  25.267  1.00  0.00     0.048 A 
ATOM     84  S   UNL A   1      31.423  27.613  23.273  1.00  0.00    -0.130 S 
ATOM     85  C   UNL A   1      32.629  26.631  23.996  1.00  0.00     0.141 A 
BRANCH  85  86
ATOM     86  S   UNL A   1      33.307  25.340  22.972  1.00  0.00     0.271 S 
ATOM     87  O   UNL A   1      32.263  24.354  22.807  1.00  0.00    -0.200 OA
ATOM     88  O   UNL A   1      33.865  26.034  21.827  1.00  0.00    -0.200 OA
BRANCH  86  89
ATOM     89  N   UNL A   1      34.608  24.512  23.689  1.00  0.00    -0.279 N 
ATOM     90  H   UNL A   1      35.534  24.759  23.467  1.00  0.00     0.180 HD
BRANCH  89  91
ATOM     91  C   UNL A   1      34.348  23.462  24.612  1.00  0.00     0.049 A 
ATOM     92  C   UNL A   1      34.548  22.142  24.197  1.00  0.00     0.030 A 
ATOM     93  C   UNL A   1      33.839  23.736  25.884  1.00  0.00     0.030 A 
ATOM     94  C   UNL A   1      34.231  21.087  25.054  1.00  0.00     0.041 A 
ATOM     95  C   UNL A   1      33.533  22.677  26.743  1.00  0.00     0.041 A 
ATOM     96  C   UNL A   1      33.727  21.364  26.320  1.00  0.00     0.123 A 
ATOM     97  F   UNL A   1      33.415  20.354  27.141  1.00  0.00    -0.207 F 
ENDBRANCH  89  91
ENDBRANCH  86  89
ENDBRANCH  85  86
ENDBRANCH  78  81
ENDBRANCH  76  77
ENDBRANCH  75  76
ENDBRANCH   1  75
TORSDOF 17
ENDMDL
