MODEL 1
REMARK VINA RESULT:     -13.0      0.000      0.000
REMARK SMILES O=C(Cc1c(C(=O)c2cc3c(cn2)CCCC3)[nH]c2cc(Cl)ccc12)NCCCCNC(=O)c1ccc(-c2c3nc(c(-c4c(F)cc(S(=O)(=O)[O-])cc4F)c4ccc([nH]4)c(-c4c(F)cc(S(=O)(=O)[O-])cc4F)c4nc(c(-c5c(F)cc(S(=O)(=O)[O-])cc5F)c5ccc2[nH]5)C=C4)C=C3)cc1
REMARK SMILES IDX 28 1 27 2 26 3 1 4 2 5 3 7 4 8 5 9 25 10 18 11 19 12 24 13
REMARK SMILES IDX 20 15 23 16 21 17 22 18 6 19 7 20 8 21 9 22 13 23 10 24
REMARK SMILES IDX 12 25 11 26 17 27 14 28 16 29 15 30 29 31 30 32 31 33 32 34
REMARK SMILES IDX 33 36 34 37 35 38 99 39 36 40 98 41 37 42 38 43 39 44 92 45
REMARK SMILES IDX 40 46 97 47 91 48 93 49 41 50 96 51 90 52 89 53 42 55 76 56
REMARK SMILES IDX 55 57 75 58 56 59 59 60 74 61 94 62 57 63 58 64 73 66 95 67
REMARK SMILES IDX 60 68 43 69 44 70 53 71 45 72 46 73 52 74 54 75 47 76 48 77
REMARK SMILES IDX 49 78 50 79 51 80 77 81 78 82 87 83 79 84 80 85 86 86 88 87
REMARK SMILES IDX 81 88 82 89 83 90 84 91 85 92 61 93 62 94 71 95 63 96 64 97
REMARK SMILES IDX 70 98 72 99 65 100 66 101 67 102 68 103 69 104
REMARK H PARENT 26 6 18 14 31 35 93 54 59 65
REMARK Flexibility Score: inf
ROOT
ATOM      1  C   UNL A   1      32.032  30.102  26.993  1.00  0.00     0.023 C 
ENDROOT
BRANCH   1   2
ATOM      2  C   UNL A   1      32.028  29.236  25.738  1.00  0.00     0.116 C 
BRANCH   2   3
ATOM      3  N   UNL A   1      33.138  28.306  25.664  1.00  0.00    -0.356 N 
ATOM      4  O   UNL A   1      32.068  26.601  26.760  1.00  0.00    -0.275 OA
ATOM      5  C   UNL A   1      32.994  26.988  26.044  1.00  0.00     0.224 C 
ATOM      6  H   UNL A   1      34.010  28.622  25.338  1.00  0.00     0.163 HD
BRANCH   5   7
ATOM      7  C   UNL A   1      34.102  26.036  25.620  1.00  0.00     0.138 C 
BRANCH   7   8
ATOM      8  C   UNL A   1      33.748  24.874  24.717  1.00  0.00    -0.002 A 
ATOM      9  C   UNL A   1      33.311  24.863  23.390  1.00  0.00     0.093 A 
ATOM     10  C   UNL A   1      33.663  23.513  25.184  1.00  0.00     0.004 A 
ATOM     11  N   UNL A   1      33.249  23.537  23.007  1.00  0.00    -0.351 N 
ATOM     12  C   UNL A   1      33.317  22.713  24.100  1.00  0.00     0.048 A 
ATOM     13  C   UNL A   1      33.809  22.898  26.447  1.00  0.00     0.012 A 
ATOM     14  H   UNL A   1      33.167  23.228  22.075  1.00  0.00     0.167 HD
ATOM     15  C   UNL A   1      33.091  21.334  24.205  1.00  0.00     0.047 A 
ATOM     16  C   UNL A   1      33.563  21.524  26.582  1.00  0.00     0.021 A 
ATOM     17  C   UNL A   1      33.204  20.762  25.475  1.00  0.00     0.043 A 
ATOM     18  Cl  UNL A   1      32.866  19.084  25.673  1.00  0.00    -0.084 Cl
BRANCH   9  19
ATOM     19  C   UNL A   1      32.919  25.968  22.525  1.00  0.00     0.227 C 
ATOM     20  O   UNL A   1      33.659  26.478  21.683  1.00  0.00    -0.285 OA
BRANCH  19  21
ATOM     21  C   UNL A   1      31.607  26.611  22.752  1.00  0.00     0.113 A 
ATOM     22  C   UNL A   1      31.395  27.877  22.221  1.00  0.00     0.036 A 
ATOM     23  N   UNL A   1      30.699  25.921  23.483  1.00  0.00    -0.252 NA
ATOM     24  C   UNL A   1      30.151  28.477  22.420  1.00  0.00    -0.041 A 
ATOM     25  C   UNL A   1      29.492  26.511  23.631  1.00  0.00     0.115 A 
ATOM     26  C   UNL A   1      29.168  27.775  23.134  1.00  0.00    -0.026 A 
ATOM     27  C   UNL A   1      29.915  29.877  21.918  1.00  0.00     0.036 C 
ATOM     28  C   UNL A   1      27.770  28.314  23.290  1.00  0.00     0.037 C 
ATOM     29  C   UNL A   1      28.433  30.222  21.792  1.00  0.00     0.005 C 
ATOM     30  C   UNL A   1      27.680  29.822  23.057  1.00  0.00     0.005 C 
ENDBRANCH  19  21
ENDBRANCH   9  19
ENDBRANCH   7   8
ENDBRANCH   5   7
ENDBRANCH   2   3
ENDBRANCH   1   2
BRANCH   1  31
ATOM     31  C   UNL A   1      31.913  31.606  26.749  1.00  0.00     0.023 C 
BRANCH  31  32
ATOM     32  C   UNL A   1      32.992  32.472  27.392  1.00  0.00     0.116 C 
BRANCH  32  33
ATOM     33  N   UNL A   1      32.558  33.833  27.674  1.00  0.00    -0.352 N 
ATOM     34  C   UNL A   1      33.053  34.734  28.590  1.00  0.00     0.251 C 
ATOM     35  H   UNL A   1      31.803  34.156  27.130  1.00  0.00     0.163 HD
ATOM     36  O   UNL A   1      32.496  35.817  28.754  1.00  0.00    -0.269 OA
BRANCH  34  37
ATOM     37  C   UNL A   1      34.237  34.383  29.409  1.00  0.00     0.039 A 
ATOM     38  C   UNL A   1      35.529  34.528  28.898  1.00  0.00     0.014 A 
ATOM     39  C   UNL A   1      34.049  33.864  30.694  1.00  0.00     0.014 A 
ATOM     40  C   UNL A   1      36.609  33.990  29.593  1.00  0.00     0.010 A 
ATOM     41  C   UNL A   1      35.147  33.392  31.422  1.00  0.00     0.010 A 
ATOM     42  C   UNL A   1      36.430  33.397  30.854  1.00  0.00    -0.014 A 
BRANCH  42  43
ATOM     43  C   UNL A   1      37.588  32.753  31.533  1.00  0.00     0.031 A 
ATOM     44  C   UNL A   1      38.038  33.225  32.894  1.00  0.00     0.074 A 
ATOM     45  C   UNL A   1      38.186  31.687  30.963  1.00  0.00     0.049 A 
ATOM     46  N   UNL A   1      39.009  32.768  33.645  1.00  0.00    -0.248 NA
ATOM     47  C   UNL A   1      37.306  34.354  33.491  1.00  0.00     0.031 C 
ATOM     48  C   UNL A   1      37.832  31.118  29.660  1.00  0.00     0.029 A 
ATOM     49  N   UNL A   1      39.193  30.874  31.417  1.00  0.00    -0.354 N 
ATOM     50  C   UNL A   1      39.010  33.554  34.792  1.00  0.00     0.074 A 
ATOM     51  C   UNL A   1      37.963  34.539  34.628  1.00  0.00     0.031 C 
ATOM     52  C   UNL A   1      38.570  30.018  29.446  1.00  0.00     0.029 A 
ATOM     53  C   UNL A   1      39.486  29.832  30.567  1.00  0.00     0.049 A 
ATOM     54  H   UNL A   1      39.662  31.022  32.269  1.00  0.00     0.167 HD
ATOM     55  C   UNL A   1      39.797  33.455  35.890  1.00  0.00     0.037 A 
ATOM     56  C   UNL A   1      40.393  28.842  30.674  1.00  0.00     0.037 A 
ATOM     57  C   UNL A   1      40.821  32.458  36.070  1.00  0.00     0.049 A 
ATOM     58  C   UNL A   1      41.283  28.783  31.882  1.00  0.00     0.074 A 
ATOM     59  C   UNL A   1      41.672  32.284  37.149  1.00  0.00     0.029 A 
ATOM     60  N   UNL A   1      41.125  31.459  35.158  1.00  0.00    -0.354 N 
ATOM     61  N   UNL A   1      41.283  29.554  32.942  1.00  0.00    -0.248 NA
ATOM     62  C   UNL A   1      42.308  27.729  31.903  1.00  0.00     0.031 C 
ATOM     63  C   UNL A   1      42.506  31.194  36.879  1.00  0.00     0.029 A 
ATOM     64  C   UNL A   1      42.153  30.671  35.646  1.00  0.00     0.049 A 
ATOM     65  H   UNL A   1      40.675  31.329  34.291  1.00  0.00     0.167 HD
ATOM     66  C   UNL A   1      42.299  29.071  33.760  1.00  0.00     0.074 A 
ATOM     67  C   UNL A   1      42.879  27.932  33.082  1.00  0.00     0.031 C 
ATOM     68  C   UNL A   1      42.717  29.536  34.962  1.00  0.00     0.037 A 
BRANCH  55  69
ATOM     69  C   UNL A   1      39.586  34.442  37.003  1.00  0.00     0.058 A 
ATOM     70  C   UNL A   1      38.867  34.096  38.156  1.00  0.00     0.135 A 
ATOM     71  C   UNL A   1      40.187  35.711  36.959  1.00  0.00     0.135 A 
ATOM     72  F   UNL A   1      38.260  32.902  38.241  1.00  0.00    -0.206 F 
ATOM     73  C   UNL A   1      38.749  34.974  39.229  1.00  0.00     0.059 A 
ATOM     74  C   UNL A   1      40.098  36.598  38.027  1.00  0.00     0.059 A 
ATOM     75  F   UNL A   1      40.884  36.089  35.876  1.00  0.00    -0.206 F 
ATOM     76  C   UNL A   1      39.374  36.221  39.157  1.00  0.00     0.060 A 
BRANCH  76  77
ATOM     77  S   UNL A   1      39.249  37.330  40.577  1.00  0.00     0.124 S 
ATOM     78  O   UNL A   1      40.643  37.721  40.765  1.00  0.00    -0.237 OA
ATOM     79  O   UNL A   1      38.360  38.374  40.079  1.00  0.00    -0.237 OA
ATOM     80  O   UNL A   1      38.690  36.482  41.625  1.00  0.00    -0.744 OA
ENDBRANCH  76  77
ENDBRANCH  55  69
BRANCH  56  81
ATOM     81  C   UNL A   1      40.510  27.821  29.601  1.00  0.00     0.058 A 
ATOM     82  C   UNL A   1      41.500  27.926  28.612  1.00  0.00     0.135 A 
ATOM     83  C   UNL A   1      39.636  26.725  29.540  1.00  0.00     0.135 A 
ATOM     84  F   UNL A   1      42.354  28.961  28.626  1.00  0.00    -0.206 F 
ATOM     85  C   UNL A   1      41.610  26.990  27.590  1.00  0.00     0.059 A 
ATOM     86  C   UNL A   1      39.741  25.763  28.541  1.00  0.00     0.059 A 
ATOM     87  F   UNL A   1      38.681  26.573  30.471  1.00  0.00    -0.206 F 
ATOM     88  C   UNL A   1      40.724  25.911  27.564  1.00  0.00     0.060 A 
BRANCH  88  89
ATOM     89  S   UNL A   1      40.898  24.676  26.257  1.00  0.00     0.124 S 
ATOM     90  O   UNL A   1      41.663  23.638  26.936  1.00  0.00    -0.237 OA
ATOM     91  O   UNL A   1      39.507  24.350  25.954  1.00  0.00    -0.237 OA
ATOM     92  O   UNL A   1      41.604  25.402  25.206  1.00  0.00    -0.744 OA
ENDBRANCH  88  89
ENDBRANCH  56  81
BRANCH  68  93
ATOM     93  C   UNL A   1      43.846  28.808  35.631  1.00  0.00     0.058 A 
ATOM     94  C   UNL A   1      45.175  29.233  35.485  1.00  0.00     0.135 A 
ATOM     95  C   UNL A   1      43.592  27.713  36.472  1.00  0.00     0.135 A 
ATOM     96  F   UNL A   1      45.468  30.272  34.686  1.00  0.00    -0.206 F 
ATOM     97  C   UNL A   1      46.218  28.587  36.141  1.00  0.00     0.059 A 
ATOM     98  C   UNL A   1      44.617  27.065  37.152  1.00  0.00     0.059 A 
ATOM     99  F   UNL A   1      42.336  27.273  36.647  1.00  0.00    -0.206 F 
ATOM    100  C   UNL A   1      45.930  27.505  36.974  1.00  0.00     0.060 A 
BRANCH 100 101
ATOM    101  S   UNL A   1      47.288  26.703  37.851  1.00  0.00     0.124 S 
ATOM    102  O   UNL A   1      48.450  27.290  37.194  1.00  0.00    -0.237 OA
ATOM    103  O   UNL A   1      47.061  27.121  39.230  1.00  0.00    -0.237 OA
ATOM    104  O   UNL A   1      47.069  25.283  37.589  1.00  0.00    -0.744 OA
ENDBRANCH 100 101
ENDBRANCH  68  93
ENDBRANCH  42  43
ENDBRANCH  34  37
ENDBRANCH  32  33
ENDBRANCH  31  32
ENDBRANCH   1  31
TORSDOF 17
ENDMDL
MODEL 2
REMARK VINA RESULT:     -13.0      2.925      9.025
REMARK SMILES O=C(Cc1c(C(=O)c2cc3c(cn2)CCCC3)[nH]c2cc(Cl)ccc12)NCCCCNC(=O)c1ccc(-c2c3nc(c(-c4c(F)cc(S(=O)(=O)[O-])cc4F)c4ccc([nH]4)c(-c4c(F)cc(S(=O)(=O)[O-])cc4F)c4nc(c(-c5c(F)cc(S(=O)(=O)[O-])cc5F)c5ccc2[nH]5)C=C4)C=C3)cc1
REMARK SMILES IDX 28 1 27 2 26 3 1 4 2 5 3 7 4 8 5 9 25 10 18 11 19 12 24 13
REMARK SMILES IDX 20 15 23 16 21 17 22 18 6 19 7 20 8 21 9 22 13 23 10 24
REMARK SMILES IDX 12 25 11 26 17 27 14 28 16 29 15 30 29 31 30 32 31 33 32 34
REMARK SMILES IDX 33 36 34 37 35 38 99 39 36 40 98 41 37 42 38 43 39 44 92 45
REMARK SMILES IDX 40 46 97 47 91 48 93 49 41 50 96 51 90 52 89 53 42 55 76 56
REMARK SMILES IDX 55 57 75 58 56 59 59 60 74 61 94 62 57 63 58 64 73 66 95 67
REMARK SMILES IDX 60 68 43 69 44 70 53 71 45 72 46 73 52 74 54 75 47 76 48 77
REMARK SMILES IDX 49 78 50 79 51 80 77 81 78 82 87 83 79 84 80 85 86 86 88 87
REMARK SMILES IDX 81 88 82 89 83 90 84 91 85 92 61 93 62 94 71 95 63 96 64 97
REMARK SMILES IDX 70 98 72 99 65 100 66 101 67 102 68 103 69 104
REMARK H PARENT 26 6 18 14 31 35 93 54 59 65
REMARK Flexibility Score: inf
ROOT
ATOM      1  C   UNL A   1      38.910  22.769  26.161  1.00  0.00     0.023 C 
ENDROOT
BRANCH   1   2
ATOM      2  C   UNL A   1      38.004  21.765  25.456  1.00  0.00     0.116 C 
BRANCH   2   3
ATOM      3  N   UNL A   1      36.958  22.378  24.661  1.00  0.00    -0.356 N 
ATOM      4  O   UNL A   1      35.543  22.762  26.422  1.00  0.00    -0.275 OA
ATOM      5  C   UNL A   1      35.870  22.983  25.256  1.00  0.00     0.224 C 
ATOM      6  H   UNL A   1      37.025  22.360  23.680  1.00  0.00     0.163 HD
BRANCH   5   7
ATOM      7  C   UNL A   1      35.018  23.871  24.361  1.00  0.00     0.138 C 
BRANCH   7   8
ATOM      8  C   UNL A   1      33.655  24.300  24.859  1.00  0.00    -0.002 A 
ATOM      9  C   UNL A   1      32.402  23.708  24.679  1.00  0.00     0.093 A 
ATOM     10  C   UNL A   1      33.418  25.561  25.516  1.00  0.00     0.004 A 
ATOM     11  N   UNL A   1      31.509  24.438  25.441  1.00  0.00    -0.351 N 
ATOM     12  C   UNL A   1      32.065  25.627  25.834  1.00  0.00     0.048 A 
ATOM     13  C   UNL A   1      34.232  26.672  25.829  1.00  0.00     0.012 A 
ATOM     14  H   UNL A   1      30.598  24.142  25.671  1.00  0.00     0.167 HD
ATOM     15  C   UNL A   1      31.472  26.746  26.432  1.00  0.00     0.047 A 
ATOM     16  C   UNL A   1      33.655  27.813  26.405  1.00  0.00     0.021 A 
ATOM     17  C   UNL A   1      32.295  27.845  26.693  1.00  0.00     0.043 A 
ATOM     18  Cl  UNL A   1      31.602  29.274  27.362  1.00  0.00    -0.084 Cl
BRANCH   9  19
ATOM     19  C   UNL A   1      32.008  22.588  23.836  1.00  0.00     0.227 C 
ATOM     20  O   UNL A   1      31.325  22.699  22.817  1.00  0.00    -0.285 OA
BRANCH  19  21
ATOM     21  C   UNL A   1      32.328  21.217  24.289  1.00  0.00     0.113 A 
ATOM     22  C   UNL A   1      32.426  20.214  23.334  1.00  0.00     0.036 A 
ATOM     23  N   UNL A   1      32.490  21.028  25.621  1.00  0.00    -0.252 NA
ATOM     24  C   UNL A   1      32.744  18.924  23.759  1.00  0.00    -0.041 A 
ATOM     25  C   UNL A   1      32.832  19.777  26.002  1.00  0.00     0.115 A 
ATOM     26  C   UNL A   1      32.964  18.698  25.126  1.00  0.00    -0.026 A 
ATOM     27  C   UNL A   1      32.788  17.802  22.755  1.00  0.00     0.036 C 
ATOM     28  C   UNL A   1      33.420  17.358  25.641  1.00  0.00     0.037 C 
ATOM     29  C   UNL A   1      33.572  16.590  23.251  1.00  0.00     0.005 C 
ATOM     30  C   UNL A   1      33.141  16.215  24.666  1.00  0.00     0.005 C 
ENDBRANCH  19  21
ENDBRANCH   9  19
ENDBRANCH   7   8
ENDBRANCH   5   7
ENDBRANCH   2   3
ENDBRANCH   1   2
BRANCH   1  31
ATOM     31  C   UNL A   1      40.072  22.161  26.946  1.00  0.00     0.023 C 
BRANCH  31  32
ATOM     32  C   UNL A   1      41.313  23.037  27.084  1.00  0.00     0.116 C 
BRANCH  32  33
ATOM     33  N   UNL A   1      41.458  24.016  26.015  1.00  0.00    -0.352 N 
ATOM     34  C   UNL A   1      41.444  25.392  26.085  1.00  0.00     0.251 C 
ATOM     35  H   UNL A   1      41.585  23.641  25.113  1.00  0.00     0.163 HD
ATOM     36  O   UNL A   1      41.489  26.063  25.056  1.00  0.00    -0.269 OA
BRANCH  34  37
ATOM     37  C   UNL A   1      41.335  26.065  27.400  1.00  0.00     0.039 A 
ATOM     38  C   UNL A   1      40.174  25.954  28.167  1.00  0.00     0.014 A 
ATOM     39  C   UNL A   1      42.398  26.853  27.854  1.00  0.00     0.014 A 
ATOM     40  C   UNL A   1      40.006  26.766  29.286  1.00  0.00     0.010 A 
ATOM     41  C   UNL A   1      42.255  27.611  29.022  1.00  0.00     0.010 A 
ATOM     42  C   UNL A   1      41.035  27.619  29.716  1.00  0.00    -0.014 A 
BRANCH  42  43
ATOM     43  C   UNL A   1      40.796  28.539  30.863  1.00  0.00     0.031 A 
ATOM     44  C   UNL A   1      41.696  28.506  32.073  1.00  0.00     0.074 A 
ATOM     45  C   UNL A   1      39.816  29.462  30.782  1.00  0.00     0.049 A 
ATOM     46  N   UNL A   1      41.655  29.248  33.152  1.00  0.00    -0.248 NA
ATOM     47  C   UNL A   1      42.786  27.516  32.074  1.00  0.00     0.031 C 
ATOM     48  C   UNL A   1      38.890  29.614  29.657  1.00  0.00     0.029 A 
ATOM     49  N   UNL A   1      39.457  30.466  31.645  1.00  0.00    -0.354 N 
ATOM     50  C   UNL A   1      42.698  28.810  33.960  1.00  0.00     0.074 A 
ATOM     51  C   UNL A   1      43.341  27.717  33.262  1.00  0.00     0.031 C 
ATOM     52  C   UNL A   1      38.107  30.682  29.874  1.00  0.00     0.029 A 
ATOM     53  C   UNL A   1      38.436  31.260  31.173  1.00  0.00     0.049 A 
ATOM     54  H   UNL A   1      39.887  30.606  32.519  1.00  0.00     0.167 HD
ATOM     55  C   UNL A   1      43.098  29.286  35.163  1.00  0.00     0.037 A 
ATOM     56  C   UNL A   1      37.829  32.327  31.725  1.00  0.00     0.037 A 
ATOM     57  C   UNL A   1      42.480  30.392  35.848  1.00  0.00     0.049 A 
ATOM     58  C   UNL A   1      38.264  32.805  33.082  1.00  0.00     0.074 A 
ATOM     59  C   UNL A   1      42.816  30.940  37.074  1.00  0.00     0.029 A 
ATOM     60  N   UNL A   1      41.411  31.128  35.361  1.00  0.00    -0.354 N 
ATOM     61  N   UNL A   1      39.236  32.358  33.838  1.00  0.00    -0.248 NA
ATOM     62  C   UNL A   1      37.508  33.923  33.667  1.00  0.00     0.031 C 
ATOM     63  C   UNL A   1      41.935  31.993  37.341  1.00  0.00     0.029 A 
ATOM     64  C   UNL A   1      41.070  32.120  36.266  1.00  0.00     0.049 A 
ATOM     65  H   UNL A   1      40.961  30.969  34.500  1.00  0.00     0.167 HD
ATOM     66  C   UNL A   1      39.217  33.148  34.983  1.00  0.00     0.074 A 
ATOM     67  C   UNL A   1      38.149  34.110  34.813  1.00  0.00     0.031 C 
ATOM     68  C   UNL A   1      40.009  33.074  36.081  1.00  0.00     0.037 A 
BRANCH  55  69
ATOM     69  C   UNL A   1      44.273  28.626  35.830  1.00  0.00     0.058 A 
ATOM     70  C   UNL A   1      44.101  27.536  36.695  1.00  0.00     0.135 A 
ATOM     71  C   UNL A   1      45.585  29.025  35.528  1.00  0.00     0.135 A 
ATOM     72  F   UNL A   1      42.867  27.126  37.029  1.00  0.00    -0.206 F 
ATOM     73  C   UNL A   1      45.190  26.862  37.240  1.00  0.00     0.059 A 
ATOM     74  C   UNL A   1      46.689  28.355  36.046  1.00  0.00     0.059 A 
ATOM     75  F   UNL A   1      45.801  30.064  34.706  1.00  0.00    -0.206 F 
ATOM     76  C   UNL A   1      46.480  27.276  36.904  1.00  0.00     0.060 A 
BRANCH  76  77
ATOM     77  S   UNL A   1      47.882  26.361  37.584  1.00  0.00     0.124 S 
ATOM     78  O   UNL A   1      47.235  25.133  38.039  1.00  0.00    -0.237 OA
ATOM     79  O   UNL A   1      48.756  26.223  36.423  1.00  0.00    -0.237 OA
ATOM     80  O   UNL A   1      48.380  27.235  38.639  1.00  0.00    -0.744 OA
ENDBRANCH  76  77
ENDBRANCH  55  69
BRANCH  56  81
ATOM     81  C   UNL A   1      36.735  33.022  30.997  1.00  0.00     0.058 A 
ATOM     82  C   UNL A   1      35.393  32.818  31.349  1.00  0.00     0.135 A 
ATOM     83  C   UNL A   1      37.010  33.896  29.935  1.00  0.00     0.135 A 
ATOM     84  F   UNL A   1      35.083  31.985  32.355  1.00  0.00    -0.206 F 
ATOM     85  C   UNL A   1      34.358  33.444  30.664  1.00  0.00     0.059 A 
ATOM     86  C   UNL A   1      35.993  34.552  29.250  1.00  0.00     0.059 A 
ATOM     87  F   UNL A   1      38.279  34.133  29.569  1.00  0.00    -0.206 F 
ATOM     88  C   UNL A   1      34.670  34.311  29.615  1.00  0.00     0.060 A 
BRANCH  88  89
ATOM     89  S   UNL A   1      33.323  35.153  28.755  1.00  0.00     0.124 S 
ATOM     90  O   UNL A   1      34.048  36.163  27.993  1.00  0.00    -0.237 OA
ATOM     91  O   UNL A   1      32.728  34.070  27.977  1.00  0.00    -0.237 OA
ATOM     92  O   UNL A   1      32.494  35.655  29.847  1.00  0.00    -0.744 OA
ENDBRANCH  88  89
ENDBRANCH  56  81
BRANCH  68  93
ATOM     93  C   UNL A   1      39.763  34.068  37.178  1.00  0.00     0.058 A 
ATOM     94  C   UNL A   1      38.998  33.735  38.304  1.00  0.00     0.135 A 
ATOM     95  C   UNL A   1      40.347  35.344  37.130  1.00  0.00     0.135 A 
ATOM     96  F   UNL A   1      38.414  32.529  38.392  1.00  0.00    -0.206 F 
ATOM     97  C   UNL A   1      38.808  34.639  39.344  1.00  0.00     0.059 A 
ATOM     98  C   UNL A   1      40.186  36.257  38.167  1.00  0.00     0.059 A 
ATOM     99  F   UNL A   1      41.094  35.706  36.075  1.00  0.00    -0.206 F 
ATOM    100  C   UNL A   1      39.407  35.897  39.268  1.00  0.00     0.060 A 
BRANCH 100 101
ATOM    101  S   UNL A   1      39.186  37.046  40.642  1.00  0.00     0.124 S 
ATOM    102  O   UNL A   1      38.553  36.191  41.641  1.00  0.00    -0.237 OA
ATOM    103  O   UNL A   1      40.557  37.454  40.934  1.00  0.00    -0.237 OA
ATOM    104  O   UNL A   1      38.335  38.091  40.079  1.00  0.00    -0.744 OA
ENDBRANCH 100 101
ENDBRANCH  68  93
ENDBRANCH  42  43
ENDBRANCH  34  37
ENDBRANCH  32  33
ENDBRANCH  31  32
ENDBRANCH   1  31
TORSDOF 17
ENDMDL
MODEL 3
REMARK VINA RESULT:     -13.0      4.930      9.549
REMARK SMILES O=C(Cc1c(C(=O)c2cc3c(cn2)CCCC3)[nH]c2cc(Cl)ccc12)NCCCCNC(=O)c1ccc(-c2c3nc(c(-c4c(F)cc(S(=O)(=O)[O-])cc4F)c4ccc([nH]4)c(-c4c(F)cc(S(=O)(=O)[O-])cc4F)c4nc(c(-c5c(F)cc(S(=O)(=O)[O-])cc5F)c5ccc2[nH]5)C=C4)C=C3)cc1
REMARK SMILES IDX 28 1 27 2 26 3 1 4 2 5 3 7 4 8 5 9 25 10 18 11 19 12 24 13
REMARK SMILES IDX 20 15 23 16 21 17 22 18 6 19 7 20 8 21 9 22 13 23 10 24
REMARK SMILES IDX 12 25 11 26 17 27 14 28 16 29 15 30 29 31 30 32 31 33 32 34
REMARK SMILES IDX 33 36 34 37 35 38 99 39 36 40 98 41 37 42 38 43 39 44 92 45
REMARK SMILES IDX 40 46 97 47 91 48 93 49 41 50 96 51 90 52 89 53 42 55 76 56
REMARK SMILES IDX 55 57 75 58 56 59 59 60 74 61 94 62 57 63 58 64 73 66 95 67
REMARK SMILES IDX 60 68 43 69 44 70 53 71 45 72 46 73 52 74 54 75 47 76 48 77
REMARK SMILES IDX 49 78 50 79 51 80 77 81 78 82 87 83 79 84 80 85 86 86 88 87
REMARK SMILES IDX 81 88 82 89 83 90 84 91 85 92 61 93 62 94 71 95 63 96 64 97
REMARK SMILES IDX 70 98 72 99 65 100 66 101 67 102 68 103 69 104
REMARK H PARENT 26 6 18 14 31 35 93 54 59 65
REMARK Flexibility Score: inf
ROOT
ATOM      1  C   UNL A   1      32.077  28.210  27.573  1.00  0.00     0.023 C 
ENDROOT
BRANCH   1   2
ATOM      2  C   UNL A   1      30.912  27.393  27.023  1.00  0.00     0.116 C 
BRANCH   2   3
ATOM      3  N   UNL A   1      31.319  26.301  26.161  1.00  0.00    -0.356 N 
ATOM      4  O   UNL A   1      29.560  24.933  26.696  1.00  0.00    -0.275 OA
ATOM      5  C   UNL A   1      30.497  25.213  25.947  1.00  0.00     0.224 C 
ATOM      6  H   UNL A   1      32.198  26.336  25.721  1.00  0.00     0.163 HD
BRANCH   5   7
ATOM      7  C   UNL A   1      30.868  24.303  24.787  1.00  0.00     0.138 C 
BRANCH   7   8
ATOM      8  C   UNL A   1      32.226  24.472  24.142  1.00  0.00    -0.002 A 
ATOM      9  C   UNL A   1      32.629  25.302  23.091  1.00  0.00     0.093 A 
ATOM     10  C   UNL A   1      33.353  23.626  24.446  1.00  0.00     0.004 A 
ATOM     11  N   UNL A   1      33.998  25.156  22.977  1.00  0.00    -0.351 N 
ATOM     12  C   UNL A   1      34.429  24.060  23.678  1.00  0.00     0.048 A 
ATOM     13  C   UNL A   1      33.538  22.501  25.279  1.00  0.00     0.012 A 
ATOM     14  H   UNL A   1      34.583  25.758  22.462  1.00  0.00     0.167 HD
ATOM     15  C   UNL A   1      35.677  23.423  23.679  1.00  0.00     0.047 A 
ATOM     16  C   UNL A   1      34.771  21.832  25.277  1.00  0.00     0.021 A 
ATOM     17  C   UNL A   1      35.817  22.289  24.482  1.00  0.00     0.043 A 
ATOM     18  Cl  UNL A   1      37.309  21.426  24.465  1.00  0.00    -0.084 Cl
BRANCH   9  19
ATOM     19  C   UNL A   1      31.834  26.139  22.203  1.00  0.00     0.227 C 
ATOM     20  O   UNL A   1      31.661  25.902  21.007  1.00  0.00    -0.285 OA
BRANCH  19  21
ATOM     21  C   UNL A   1      31.309  27.420  22.722  1.00  0.00     0.113 A 
ATOM     22  C   UNL A   1      30.029  27.806  22.349  1.00  0.00     0.036 A 
ATOM     23  N   UNL A   1      32.128  28.144  23.523  1.00  0.00    -0.252 NA
ATOM     24  C   UNL A   1      29.527  29.006  22.853  1.00  0.00    -0.041 A 
ATOM     25  C   UNL A   1      31.605  29.285  24.024  1.00  0.00     0.115 A 
ATOM     26  C   UNL A   1      30.328  29.763  23.721  1.00  0.00    -0.026 A 
ATOM     27  C   UNL A   1      28.169  29.486  22.410  1.00  0.00     0.036 C 
ATOM     28  C   UNL A   1      29.809  31.009  24.389  1.00  0.00     0.037 C 
ATOM     29  C   UNL A   1      27.570  30.527  23.352  1.00  0.00     0.005 C 
ATOM     30  C   UNL A   1      28.594  31.608  23.681  1.00  0.00     0.005 C 
ENDBRANCH  19  21
ENDBRANCH   9  19
ENDBRANCH   7   8
ENDBRANCH   5   7
ENDBRANCH   2   3
ENDBRANCH   1   2
BRANCH   1  31
ATOM     31  C   UNL A   1      33.425  27.962  26.897  1.00  0.00     0.023 C 
BRANCH  31  32
ATOM     32  C   UNL A   1      34.227  29.207  26.535  1.00  0.00     0.116 C 
BRANCH  32  33
ATOM     33  N   UNL A   1      34.085  30.293  27.495  1.00  0.00    -0.352 N 
ATOM     34  C   UNL A   1      34.969  30.728  28.458  1.00  0.00     0.251 C 
ATOM     35  H   UNL A   1      33.235  30.789  27.448  1.00  0.00     0.163 HD
ATOM     36  O   UNL A   1      34.637  31.609  29.248  1.00  0.00    -0.269 OA
BRANCH  34  37
ATOM     37  C   UNL A   1      36.308  30.105  28.569  1.00  0.00     0.039 A 
ATOM     38  C   UNL A   1      36.724  29.508  29.762  1.00  0.00     0.014 A 
ATOM     39  C   UNL A   1      37.176  30.153  27.474  1.00  0.00     0.014 A 
ATOM     40  C   UNL A   1      38.055  29.129  29.915  1.00  0.00     0.010 A 
ATOM     41  C   UNL A   1      38.493  29.700  27.608  1.00  0.00     0.010 A 
ATOM     42  C   UNL A   1      38.962  29.238  28.848  1.00  0.00    -0.014 A 
BRANCH  42  43
ATOM     43  C   UNL A   1      40.397  28.907  29.067  1.00  0.00     0.031 A 
ATOM     44  C   UNL A   1      40.939  27.554  28.680  1.00  0.00     0.074 A 
ATOM     45  C   UNL A   1      41.233  29.853  29.540  1.00  0.00     0.049 A 
ATOM     46  N   UNL A   1      42.164  27.098  28.774  1.00  0.00    -0.248 NA
ATOM     47  C   UNL A   1      39.987  26.584  28.113  1.00  0.00     0.031 C 
ATOM     48  C   UNL A   1      40.840  31.210  29.931  1.00  0.00     0.029 A 
ATOM     49  N   UNL A   1      42.590  29.832  29.741  1.00  0.00    -0.354 N 
ATOM     50  C   UNL A   1      42.128  25.796  28.291  1.00  0.00     0.074 A 
ATOM     51  C   UNL A   1      40.755  25.518  27.930  1.00  0.00     0.031 C 
ATOM     52  C   UNL A   1      41.936  31.904  30.271  1.00  0.00     0.029 A 
ATOM     53  C   UNL A   1      43.103  31.032  30.175  1.00  0.00     0.049 A 
ATOM     54  H   UNL A   1      43.145  29.033  29.590  1.00  0.00     0.167 HD
ATOM     55  C   UNL A   1      43.147  24.915  28.142  1.00  0.00     0.037 A 
ATOM     56  C   UNL A   1      44.367  31.391  30.469  1.00  0.00     0.037 A 
ATOM     57  C   UNL A   1      44.520  25.197  28.473  1.00  0.00     0.049 A 
ATOM     58  C   UNL A   1      45.471  30.381  30.338  1.00  0.00     0.074 A 
ATOM     59  C   UNL A   1      45.621  24.364  28.360  1.00  0.00     0.029 A 
ATOM     60  N   UNL A   1      44.985  26.406  28.967  1.00  0.00    -0.354 N 
ATOM     61  N   UNL A   1      45.409  29.146  29.903  1.00  0.00    -0.248 NA
ATOM     62  C   UNL A   1      46.816  30.808  30.752  1.00  0.00     0.031 C 
ATOM     63  C   UNL A   1      46.747  25.061  28.807  1.00  0.00     0.029 A 
ATOM     64  C   UNL A   1      46.353  26.339  29.169  1.00  0.00     0.049 A 
ATOM     65  H   UNL A   1      44.426  27.197  29.146  1.00  0.00     0.167 HD
ATOM     66  C   UNL A   1      46.707  28.652  29.981  1.00  0.00     0.074 A 
ATOM     67  C   UNL A   1      47.535  29.726  30.486  1.00  0.00     0.031 C 
ATOM     68  C   UNL A   1      47.167  27.417  29.668  1.00  0.00     0.037 A 
BRANCH  55  69
ATOM     69  C   UNL A   1      42.832  23.555  27.586  1.00  0.00     0.058 A 
ATOM     70  C   UNL A   1      42.933  23.289  26.213  1.00  0.00     0.135 A 
ATOM     71  C   UNL A   1      42.518  22.487  28.442  1.00  0.00     0.135 A 
ATOM     72  F   UNL A   1      43.213  24.280  25.351  1.00  0.00    -0.206 F 
ATOM     73  C   UNL A   1      42.734  22.009  25.704  1.00  0.00     0.059 A 
ATOM     74  C   UNL A   1      42.334  21.195  27.958  1.00  0.00     0.059 A 
ATOM     75  F   UNL A   1      42.409  22.691  29.764  1.00  0.00    -0.206 F 
ATOM     76  C   UNL A   1      42.441  20.968  26.587  1.00  0.00     0.060 A 
BRANCH  76  77
ATOM     77  S   UNL A   1      42.231  19.304  25.915  1.00  0.00     0.124 S 
ATOM     78  O   UNL A   1      42.741  18.482  27.009  1.00  0.00    -0.237 OA
ATOM     79  O   UNL A   1      40.790  19.238  25.692  1.00  0.00    -0.237 OA
ATOM     80  O   UNL A   1      43.049  19.317  24.707  1.00  0.00    -0.744 OA
ENDBRANCH  76  77
ENDBRANCH  55  69
BRANCH  56  81
ATOM     81  C   UNL A   1      44.662  32.776  30.923  1.00  0.00     0.058 A 
ATOM     82  C   UNL A   1      44.606  33.114  32.283  1.00  0.00     0.135 A 
ATOM     83  C   UNL A   1      45.001  33.784  30.009  1.00  0.00     0.135 A 
ATOM     84  F   UNL A   1      44.279  32.183  33.193  1.00  0.00    -0.206 F 
ATOM     85  C   UNL A   1      44.859  34.409  32.721  1.00  0.00     0.059 A 
ATOM     86  C   UNL A   1      45.282  35.081  30.425  1.00  0.00     0.059 A 
ATOM     87  F   UNL A   1      45.081  33.506  28.698  1.00  0.00    -0.206 F 
ATOM     88  C   UNL A   1      45.197  35.386  31.782  1.00  0.00     0.060 A 
BRANCH  88  89
ATOM     89  S   UNL A   1      45.565  37.057  32.361  1.00  0.00     0.124 S 
ATOM     90  O   UNL A   1      44.310  37.745  32.088  1.00  0.00    -0.237 OA
ATOM     91  O   UNL A   1      45.878  36.833  33.770  1.00  0.00    -0.237 OA
ATOM     92  O   UNL A   1      46.700  37.453  31.533  1.00  0.00    -0.744 OA
ENDBRANCH  88  89
ENDBRANCH  56  81
BRANCH  68  93
ATOM     93  C   UNL A   1      48.634  27.160  29.848  1.00  0.00     0.058 A 
ATOM     94  C   UNL A   1      49.557  27.471  28.839  1.00  0.00     0.135 A 
ATOM     95  C   UNL A   1      49.128  26.654  31.060  1.00  0.00     0.135 A 
ATOM     96  F   UNL A   1      49.133  27.952  27.659  1.00  0.00    -0.206 F 
ATOM     97  C   UNL A   1      50.922  27.278  29.021  1.00  0.00     0.059 A 
ATOM     98  C   UNL A   1      50.490  26.470  31.271  1.00  0.00     0.059 A 
ATOM     99  F   UNL A   1      48.283  26.346  32.058  1.00  0.00    -0.206 F 
ATOM    100  C   UNL A   1      51.380  26.778  30.241  1.00  0.00     0.060 A 
BRANCH 100 101
ATOM    101  S   UNL A   1      53.157  26.570  30.479  1.00  0.00     0.124 S 
ATOM    102  O   UNL A   1      53.199  25.465  31.431  1.00  0.00    -0.237 OA
ATOM    103  O   UNL A   1      53.620  26.262  29.130  1.00  0.00    -0.237 OA
ATOM    104  O   UNL A   1      53.584  27.865  31.002  1.00  0.00    -0.744 OA
ENDBRANCH 100 101
ENDBRANCH  68  93
ENDBRANCH  42  43
ENDBRANCH  34  37
ENDBRANCH  32  33
ENDBRANCH  31  32
ENDBRANCH   1  31
TORSDOF 17
ENDMDL
