MODEL 1
REMARK VINA RESULT:     -13.7      0.000      0.000
REMARK SMILES Cc1ccc(NC(=O)C[C@@H](C(=O)NCCCCNC(=O)c2ccc(-c3c4nc(c(-c5c(F)cc(S(=O)(=O)[O-])cc5F)c5ccc([nH]5)c(-c5c(F)cc(S(=O)(=O)[O-])cc5F)c5nc(c(-c6c(F)cc(S(=O)(=O)[O-])cc6F)c6ccc3[nH]6)C=C5)C=C4)cc2)[NH+]2CCOCC2)cc1
REMARK SMILES IDX 15 1 14 2 13 3 11 4 12 5 10 7 9 8 7 9 6 10 8 12 5 13 1 14
REMARK SMILES IDX 2 15 3 16 94 17 4 18 93 19 87 20 88 21 92 22 89 24 91 25
REMARK SMILES IDX 90 26 16 27 17 28 18 29 19 30 20 32 21 33 22 34 86 35 23 36
REMARK SMILES IDX 85 37 24 38 25 39 26 40 79 41 27 42 84 43 78 44 80 45 28 46
REMARK SMILES IDX 83 47 77 48 76 49 29 51 63 52 42 53 62 54 43 55 46 56 61 57
REMARK SMILES IDX 81 58 44 59 45 60 60 62 82 63 47 64 30 65 31 66 40 67 32 68
REMARK SMILES IDX 33 69 39 70 41 71 34 72 35 73 36 74 37 75 38 76 64 77 65 78
REMARK SMILES IDX 74 79 66 80 67 81 73 82 75 83 68 84 69 85 70 86 71 87 72 88
REMARK SMILES IDX 48 89 49 90 58 91 50 92 51 93 57 94 59 95 52 96 53 97 54 98
REMARK SMILES IDX 55 99 56 100
REMARK H PARENT 13 6 6 11 87 23 18 31 80 50 46 61
REMARK Flexibility Score: inf
ROOT
ATOM      1  C   UNL A   1      31.965  29.418  27.223  1.00  0.00     0.023 C 
ENDROOT
BRANCH   1   2
ATOM      2  C   UNL A   1      32.089  28.014  26.601  1.00  0.00     0.116 C 
BRANCH   2   3
ATOM      3  N   UNL A   1      31.078  27.690  25.611  1.00  0.00    -0.351 N 
ATOM      4  C   UNL A   1      30.753  26.572  24.910  1.00  0.00     0.278 C 
ATOM      5  O   UNL A   1      29.682  26.654  24.294  1.00  0.00    -0.268 OA
ATOM      6  H   UNL A   1      30.494  28.455  25.399  1.00  0.00     0.163 HD
BRANCH   4   7
ATOM      7  C   UNL A   1      31.606  25.254  24.921  1.00  0.00     0.283 C 
BRANCH   7   8
ATOM      8  C   UNL A   1      31.932  24.700  26.326  1.00  0.00     0.175 C 
BRANCH   8   9
ATOM      9  C   UNL A   1      31.265  23.464  26.868  1.00  0.00     0.230 C 
ATOM     10  N   UNL A   1      31.848  22.233  26.878  1.00  0.00    -0.326 N 
ATOM     11  H   UNL A   1      31.289  21.532  27.286  1.00  0.00     0.169 HD
ATOM     12  O   UNL A   1      30.106  23.561  27.293  1.00  0.00    -0.274 OA
BRANCH  10  13
ATOM     13  C   UNL A   1      33.092  21.768  26.418  1.00  0.00     0.041 A 
ATOM     14  C   UNL A   1      36.969  21.270  24.626  1.00  0.00     0.044 C 
ATOM     15  C   UNL A   1      35.653  21.344  25.338  1.00  0.00    -0.051 A 
ATOM     16  C   UNL A   1      34.539  20.702  24.796  1.00  0.00     0.005 A 
ATOM     17  C   UNL A   1      35.497  22.091  26.507  1.00  0.00     0.005 A 
ATOM     18  C   UNL A   1      33.268  20.905  25.341  1.00  0.00     0.026 A 
ATOM     19  C   UNL A   1      34.227  22.277  27.058  1.00  0.00     0.026 A 
ENDBRANCH  10  13
ENDBRANCH   8   9
ENDBRANCH   7   8
BRANCH   7  20
ATOM     20  N   UNL A   1      32.874  25.480  24.134  1.00  0.00    -0.320 N 
ATOM     21  C   UNL A   1      32.712  26.327  22.929  1.00  0.00     0.291 C 
ATOM     22  C   UNL A   1      33.755  24.345  23.812  1.00  0.00     0.291 C 
ATOM     23  H   UNL A   1      33.377  25.982  24.865  1.00  0.00     0.348 HD
ATOM     24  C   UNL A   1      32.431  25.547  21.632  1.00  0.00     0.221 C 
ATOM     25  C   UNL A   1      33.432  23.616  22.504  1.00  0.00     0.221 C 
ATOM     26  O   UNL A   1      33.409  24.525  21.402  1.00  0.00    -0.370 OA
ENDBRANCH   7  20
ENDBRANCH   4   7
ENDBRANCH   2   3
ENDBRANCH   1   2
BRANCH   1  27
ATOM     27  C   UNL A   1      33.117  30.403  27.009  1.00  0.00     0.023 C 
BRANCH  27  28
ATOM     28  C   UNL A   1      34.449  29.959  27.599  1.00  0.00     0.116 C 
BRANCH  28  29
ATOM     29  N   UNL A   1      35.186  31.058  28.226  1.00  0.00    -0.352 N 
ATOM     30  C   UNL A   1      36.455  31.011  28.774  1.00  0.00     0.251 C 
ATOM     31  H   UNL A   1      34.727  31.928  28.261  1.00  0.00     0.163 HD
ATOM     32  O   UNL A   1      36.969  31.949  29.373  1.00  0.00    -0.269 OA
BRANCH  30  33
ATOM     33  C   UNL A   1      37.203  29.765  28.545  1.00  0.00     0.039 A 
ATOM     34  C   UNL A   1      37.406  28.935  29.654  1.00  0.00     0.014 A 
ATOM     35  C   UNL A   1      38.001  29.687  27.408  1.00  0.00     0.014 A 
ATOM     36  C   UNL A   1      38.551  28.149  29.701  1.00  0.00     0.010 A 
ATOM     37  C   UNL A   1      39.179  28.969  27.497  1.00  0.00     0.010 A 
ATOM     38  C   UNL A   1      39.478  28.246  28.662  1.00  0.00    -0.014 A 
BRANCH  38  39
ATOM     39  C   UNL A   1      40.831  27.712  28.761  1.00  0.00     0.031 A 
ATOM     40  C   UNL A   1      41.110  26.324  28.338  1.00  0.00     0.074 A 
ATOM     41  C   UNL A   1      41.851  28.474  29.218  1.00  0.00     0.049 A 
ATOM     42  N   UNL A   1      42.059  25.603  28.835  1.00  0.00    -0.248 NA
ATOM     43  C   UNL A   1      40.313  25.621  27.337  1.00  0.00     0.031 C 
ATOM     44  C   UNL A   1      43.277  28.168  29.134  1.00  0.00     0.029 A 
ATOM     45  N   UNL A   1      41.786  29.597  30.046  1.00  0.00    -0.354 N 
ATOM     46  C   UNL A   1      42.182  24.489  28.044  1.00  0.00     0.074 A 
ATOM     47  C   UNL A   1      41.032  24.507  27.170  1.00  0.00     0.031 C 
ATOM     48  C   UNL A   1      43.932  28.885  30.058  1.00  0.00     0.029 A 
ATOM     49  C   UNL A   1      42.940  29.582  30.854  1.00  0.00     0.049 A 
ATOM     50  H   UNL A   1      41.069  30.272  30.062  1.00  0.00     0.167 HD
ATOM     51  C   UNL A   1      43.314  23.734  28.094  1.00  0.00     0.037 A 
ATOM     52  C   UNL A   1      42.862  29.541  32.214  1.00  0.00     0.037 A 
ATOM     53  C   UNL A   1      44.274  24.247  29.064  1.00  0.00     0.049 A 
ATOM     54  C   UNL A   1      43.519  28.329  32.837  1.00  0.00     0.074 A 
ATOM     55  C   UNL A   1      45.400  25.045  28.942  1.00  0.00     0.029 A 
ATOM     56  N   UNL A   1      43.963  24.219  30.421  1.00  0.00    -0.354 N 
ATOM     57  N   UNL A   1      43.868  27.260  32.175  1.00  0.00    -0.248 NA
ATOM     58  C   UNL A   1      43.828  28.221  34.259  1.00  0.00     0.031 C 
ATOM     59  C   UNL A   1      45.762  25.506  30.231  1.00  0.00     0.029 A 
ATOM     60  C   UNL A   1      44.861  24.986  31.140  1.00  0.00     0.049 A 
ATOM     61  H   UNL A   1      43.210  23.722  30.813  1.00  0.00     0.167 HD
ATOM     62  C   UNL A   1      44.392  26.323  33.037  1.00  0.00     0.074 A 
ATOM     63  C   UNL A   1      44.378  26.995  34.323  1.00  0.00     0.031 C 
ATOM     64  C   UNL A   1      44.774  25.082  32.595  1.00  0.00     0.037 A 
BRANCH  51  65
ATOM     65  C   UNL A   1      43.618  22.738  27.006  1.00  0.00     0.058 A 
ATOM     66  C   UNL A   1      42.924  21.516  26.913  1.00  0.00     0.135 A 
ATOM     67  C   UNL A   1      44.657  22.916  26.071  1.00  0.00     0.135 A 
ATOM     68  F   UNL A   1      41.877  21.241  27.701  1.00  0.00    -0.206 F 
ATOM     69  C   UNL A   1      43.301  20.502  26.035  1.00  0.00     0.059 A 
ATOM     70  C   UNL A   1      45.086  21.896  25.215  1.00  0.00     0.059 A 
ATOM     71  F   UNL A   1      45.304  24.091  25.983  1.00  0.00    -0.206 F 
ATOM     72  C   UNL A   1      44.406  20.685  25.213  1.00  0.00     0.060 A 
BRANCH  72  73
ATOM     73  S   UNL A   1      44.962  19.303  24.197  1.00  0.00     0.124 S 
ATOM     74  O   UNL A   1      46.411  19.352  24.367  1.00  0.00    -0.237 OA
ATOM     75  O   UNL A   1      44.288  18.175  24.829  1.00  0.00    -0.237 OA
ATOM     76  O   UNL A   1      44.487  19.654  22.861  1.00  0.00    -0.744 OA
ENDBRANCH  72  73
ENDBRANCH  51  65
BRANCH  52  77
ATOM     77  C   UNL A   1      41.689  30.276  32.758  1.00  0.00     0.058 A 
ATOM     78  C   UNL A   1      40.538  29.528  33.078  1.00  0.00     0.135 A 
ATOM     79  C   UNL A   1      41.823  31.542  33.340  1.00  0.00     0.135 A 
ATOM     80  F   UNL A   1      40.360  28.307  32.546  1.00  0.00    -0.206 F 
ATOM     81  C   UNL A   1      39.636  29.951  34.047  1.00  0.00     0.059 A 
ATOM     82  C   UNL A   1      40.925  31.989  34.312  1.00  0.00     0.059 A 
ATOM     83  F   UNL A   1      42.898  32.299  33.074  1.00  0.00    -0.206 F 
ATOM     84  C   UNL A   1      39.872  31.159  34.700  1.00  0.00     0.060 A 
BRANCH  84  85
ATOM     85  S   UNL A   1      38.889  31.524  36.175  1.00  0.00     0.124 S 
ATOM     86  O   UNL A   1      37.942  32.509  35.666  1.00  0.00    -0.237 OA
ATOM     87  O   UNL A   1      38.327  30.212  36.491  1.00  0.00    -0.237 OA
ATOM     88  O   UNL A   1      39.880  32.024  37.120  1.00  0.00    -0.744 OA
ENDBRANCH  84  85
ENDBRANCH  52  77
BRANCH  64  89
ATOM     89  C   UNL A   1      45.199  23.865  33.412  1.00  0.00     0.058 A 
ATOM     90  C   UNL A   1      46.495  23.619  33.898  1.00  0.00     0.135 A 
ATOM     91  C   UNL A   1      44.225  22.917  33.838  1.00  0.00     0.135 A 
ATOM     92  F   UNL A   1      47.504  24.467  33.679  1.00  0.00    -0.206 F 
ATOM     93  C   UNL A   1      46.809  22.505  34.688  1.00  0.00     0.059 A 
ATOM     94  C   UNL A   1      44.505  21.836  34.672  1.00  0.00     0.059 A 
ATOM     95  F   UNL A   1      42.938  23.009  33.474  1.00  0.00    -0.206 F 
ATOM     96  C   UNL A   1      45.809  21.621  35.075  1.00  0.00     0.060 A 
BRANCH  96  97
ATOM     97  S   UNL A   1      46.203  20.239  36.161  1.00  0.00     0.124 S 
ATOM     98  O   UNL A   1      47.660  20.216  36.090  1.00  0.00    -0.237 OA
ATOM     99  O   UNL A   1      45.639  20.667  37.439  1.00  0.00    -0.237 OA
ATOM    100  O   UNL A   1      45.521  19.111  35.533  1.00  0.00    -0.744 OA
ENDBRANCH  96  97
ENDBRANCH  64  89
ENDBRANCH  38  39
ENDBRANCH  30  33
ENDBRANCH  28  29
ENDBRANCH  27  28
ENDBRANCH   1  27
TORSDOF 18
ENDMDL
MODEL 2
REMARK VINA RESULT:     -13.6      1.411      3.518
REMARK SMILES Cc1ccc(NC(=O)C[C@@H](C(=O)NCCCCNC(=O)c2ccc(-c3c4nc(c(-c5c(F)cc(S(=O)(=O)[O-])cc5F)c5ccc([nH]5)c(-c5c(F)cc(S(=O)(=O)[O-])cc5F)c5nc(c(-c6c(F)cc(S(=O)(=O)[O-])cc6F)c6ccc3[nH]6)C=C5)C=C4)cc2)[NH+]2CCOCC2)cc1
REMARK SMILES IDX 15 1 14 2 13 3 11 4 12 5 10 7 9 8 7 9 6 10 8 12 5 13 1 14
REMARK SMILES IDX 2 15 3 16 94 17 4 18 93 19 87 20 88 21 92 22 89 24 91 25
REMARK SMILES IDX 90 26 16 27 17 28 18 29 19 30 20 32 21 33 22 34 86 35 23 36
REMARK SMILES IDX 85 37 24 38 25 39 26 40 79 41 27 42 84 43 78 44 80 45 28 46
REMARK SMILES IDX 83 47 77 48 76 49 29 51 63 52 42 53 62 54 43 55 46 56 61 57
REMARK SMILES IDX 81 58 44 59 45 60 60 62 82 63 47 64 30 65 31 66 40 67 32 68
REMARK SMILES IDX 33 69 39 70 41 71 34 72 35 73 36 74 37 75 38 76 64 77 65 78
REMARK SMILES IDX 74 79 66 80 67 81 73 82 75 83 68 84 69 85 70 86 71 87 72 88
REMARK SMILES IDX 48 89 49 90 58 91 50 92 51 93 57 94 59 95 52 96 53 97 54 98
REMARK SMILES IDX 55 99 56 100
REMARK H PARENT 13 6 6 11 87 23 18 31 80 50 46 61
REMARK Flexibility Score: inf
ROOT
ATOM      1  C   UNL A   1      31.942  29.339  27.497  1.00  0.00     0.023 C 
ENDROOT
BRANCH   1   2
ATOM      2  C   UNL A   1      32.241  27.855  27.210  1.00  0.00     0.116 C 
BRANCH   2   3
ATOM      3  N   UNL A   1      31.148  27.115  26.605  1.00  0.00    -0.351 N 
ATOM      4  C   UNL A   1      31.055  26.202  25.603  1.00  0.00     0.278 C 
ATOM      5  O   UNL A   1      29.947  25.655  25.518  1.00  0.00    -0.268 OA
ATOM      6  H   UNL A   1      30.277  27.321  27.015  1.00  0.00     0.163 HD
BRANCH   4   7
ATOM      7  C   UNL A   1      32.251  25.805  24.667  1.00  0.00     0.283 C 
BRANCH   7   8
ATOM      8  C   UNL A   1      31.972  25.949  23.155  1.00  0.00     0.175 C 
BRANCH   8   9
ATOM      9  C   UNL A   1      32.622  27.024  22.325  1.00  0.00     0.230 C 
ATOM     10  N   UNL A   1      32.131  28.289  22.205  1.00  0.00    -0.326 N 
ATOM     11  H   UNL A   1      32.684  28.878  21.643  1.00  0.00     0.169 HD
ATOM     12  O   UNL A   1      33.640  26.734  21.682  1.00  0.00    -0.274 OA
BRANCH  10  13
ATOM     13  C   UNL A   1      30.986  28.915  22.728  1.00  0.00     0.041 A 
ATOM     14  C   UNL A   1      27.655  31.492  23.595  1.00  0.00     0.044 C 
ATOM     15  C   UNL A   1      28.745  30.493  23.354  1.00  0.00    -0.051 A 
ATOM     16  C   UNL A   1      29.848  30.456  24.208  1.00  0.00     0.005 A 
ATOM     17  C   UNL A   1      28.714  29.631  22.257  1.00  0.00     0.005 A 
ATOM     18  C   UNL A   1      30.956  29.664  23.901  1.00  0.00     0.026 A 
ATOM     19  C   UNL A   1      29.818  28.826  21.964  1.00  0.00     0.026 A 
ENDBRANCH  10  13
ENDBRANCH   8   9
ENDBRANCH   7   8
BRANCH   7  20
ATOM     20  N   UNL A   1      32.688  24.398  24.994  1.00  0.00    -0.320 N 
ATOM     21  C   UNL A   1      33.739  24.300  26.033  1.00  0.00     0.291 C 
ATOM     22  C   UNL A   1      32.990  23.448  23.911  1.00  0.00     0.291 C 
ATOM     23  H   UNL A   1      31.789  24.079  25.356  1.00  0.00     0.348 HD
ATOM     24  C   UNL A   1      35.177  24.271  25.487  1.00  0.00     0.221 C 
ATOM     25  C   UNL A   1      34.440  23.459  23.417  1.00  0.00     0.221 C 
ATOM     26  O   UNL A   1      35.352  23.250  24.498  1.00  0.00    -0.370 OA
ENDBRANCH   7  20
ENDBRANCH   4   7
ENDBRANCH   2   3
ENDBRANCH   1   2
BRANCH   1  27
ATOM     27  C   UNL A   1      32.958  30.382  27.023  1.00  0.00     0.023 C 
BRANCH  27  28
ATOM     28  C   UNL A   1      34.410  30.035  27.321  1.00  0.00     0.116 C 
BRANCH  28  29
ATOM     29  N   UNL A   1      35.144  31.145  27.934  1.00  0.00    -0.352 N 
ATOM     30  C   UNL A   1      36.406  31.105  28.497  1.00  0.00     0.251 C 
ATOM     31  H   UNL A   1      34.686  32.017  27.946  1.00  0.00     0.163 HD
ATOM     32  O   UNL A   1      36.916  32.054  29.082  1.00  0.00    -0.269 OA
BRANCH  30  33
ATOM     33  C   UNL A   1      37.152  29.853  28.302  1.00  0.00     0.039 A 
ATOM     34  C   UNL A   1      37.299  29.023  29.420  1.00  0.00     0.014 A 
ATOM     35  C   UNL A   1      38.000  29.767  27.202  1.00  0.00     0.014 A 
ATOM     36  C   UNL A   1      38.434  28.226  29.518  1.00  0.00     0.010 A 
ATOM     37  C   UNL A   1      39.166  29.039  27.343  1.00  0.00     0.010 A 
ATOM     38  C   UNL A   1      39.407  28.314  28.521  1.00  0.00    -0.014 A 
BRANCH  38  39
ATOM     39  C   UNL A   1      40.750  27.769  28.681  1.00  0.00     0.031 A 
ATOM     40  C   UNL A   1      41.032  26.374  28.283  1.00  0.00     0.074 A 
ATOM     41  C   UNL A   1      41.758  28.526  29.170  1.00  0.00     0.049 A 
ATOM     42  N   UNL A   1      41.953  25.650  28.827  1.00  0.00    -0.248 NA
ATOM     43  C   UNL A   1      40.269  25.667  27.259  1.00  0.00     0.031 C 
ATOM     44  C   UNL A   1      43.183  28.206  29.147  1.00  0.00     0.029 A 
ATOM     45  N   UNL A   1      41.670  29.659  29.983  1.00  0.00    -0.354 N 
ATOM     46  C   UNL A   1      42.097  24.525  28.053  1.00  0.00     0.074 A 
ATOM     47  C   UNL A   1      40.983  24.545  27.133  1.00  0.00     0.031 C 
ATOM     48  C   UNL A   1      43.807  28.927  30.090  1.00  0.00     0.029 A 
ATOM     49  C   UNL A   1      42.790  29.642  30.837  1.00  0.00     0.049 A 
ATOM     50  H   UNL A   1      40.960  30.341  29.962  1.00  0.00     0.167 HD
ATOM     51  C   UNL A   1      43.218  23.761  28.157  1.00  0.00     0.037 A 
ATOM     52  C   UNL A   1      42.658  29.616  32.193  1.00  0.00     0.037 A 
ATOM     53  C   UNL A   1      44.143  24.275  29.159  1.00  0.00     0.049 A 
ATOM     54  C   UNL A   1      43.277  28.406  32.855  1.00  0.00     0.074 A 
ATOM     55  C   UNL A   1      45.281  25.061  29.075  1.00  0.00     0.029 A 
ATOM     56  N   UNL A   1      43.778  24.265  30.503  1.00  0.00    -0.354 N 
ATOM     57  N   UNL A   1      43.642  27.326  32.219  1.00  0.00    -0.248 NA
ATOM     58  C   UNL A   1      43.527  28.310  34.289  1.00  0.00     0.031 C 
ATOM     59  C   UNL A   1      45.596  25.533  30.372  1.00  0.00     0.029 A 
ATOM     60  C   UNL A   1      44.653  25.031  31.250  1.00  0.00     0.049 A 
ATOM     61  H   UNL A   1      43.004  23.779  30.869  1.00  0.00     0.167 HD
ATOM     62  C   UNL A   1      44.121  26.394  33.111  1.00  0.00     0.074 A 
ATOM     63  C   UNL A   1      44.062  27.080  34.389  1.00  0.00     0.031 C 
ATOM     64  C   UNL A   1      44.508  25.145  32.698  1.00  0.00     0.037 A 
BRANCH  51  65
ATOM     65  C   UNL A   1      43.556  22.750  27.092  1.00  0.00     0.058 A 
ATOM     66  C   UNL A   1      42.868  21.524  26.998  1.00  0.00     0.135 A 
ATOM     67  C   UNL A   1      44.621  22.917  26.185  1.00  0.00     0.135 A 
ATOM     68  F   UNL A   1      41.800  21.258  27.759  1.00  0.00    -0.206 F 
ATOM     69  C   UNL A   1      43.273  20.499  26.146  1.00  0.00     0.059 A 
ATOM     70  C   UNL A   1      45.077  21.887  25.357  1.00  0.00     0.059 A 
ATOM     71  F   UNL A   1      45.267  24.092  26.099  1.00  0.00    -0.206 F 
ATOM     72  C   UNL A   1      44.400  20.673  25.353  1.00  0.00     0.060 A 
BRANCH  72  73
ATOM     73  S   UNL A   1      44.989  19.279  24.374  1.00  0.00     0.124 S 
ATOM     74  O   UNL A   1      44.289  18.151  24.981  1.00  0.00    -0.237 OA
ATOM     75  O   UNL A   1      44.552  19.648  23.032  1.00  0.00    -0.237 OA
ATOM     76  O   UNL A   1      46.433  19.298  24.594  1.00  0.00    -0.744 OA
ENDBRANCH  72  73
ENDBRANCH  51  65
BRANCH  52  77
ATOM     77  C   UNL A   1      41.471  30.368  32.681  1.00  0.00     0.058 A 
ATOM     78  C   UNL A   1      40.280  29.646  32.895  1.00  0.00     0.135 A 
ATOM     79  C   UNL A   1      41.600  31.610  33.316  1.00  0.00     0.135 A 
ATOM     80  F   UNL A   1      40.105  28.450  32.308  1.00  0.00    -0.206 F 
ATOM     81  C   UNL A   1      39.325  30.063  33.814  1.00  0.00     0.059 A 
ATOM     82  C   UNL A   1      40.649  32.051  34.240  1.00  0.00     0.059 A 
ATOM     83  F   UNL A   1      42.711  32.341  33.152  1.00  0.00    -0.206 F 
ATOM     84  C   UNL A   1      39.548  31.241  34.525  1.00  0.00     0.060 A 
BRANCH  84  85
ATOM     85  S   UNL A   1      38.476  31.586  35.940  1.00  0.00     0.124 S 
ATOM     86  O   UNL A   1      38.529  30.325  36.671  1.00  0.00    -0.237 OA
ATOM     87  O   UNL A   1      39.166  32.711  36.570  1.00  0.00    -0.237 OA
ATOM     88  O   UNL A   1      37.197  31.907  35.318  1.00  0.00    -0.744 OA
ENDBRANCH  84  85
ENDBRANCH  52  77
BRANCH  64  89
ATOM     89  C   UNL A   1      44.888  23.932  33.545  1.00  0.00     0.058 A 
ATOM     90  C   UNL A   1      44.066  22.821  33.797  1.00  0.00     0.135 A 
ATOM     91  C   UNL A   1      46.210  23.811  34.064  1.00  0.00     0.135 A 
ATOM     92  F   UNL A   1      42.831  22.728  33.293  1.00  0.00    -0.206 F 
ATOM     93  C   UNL A   1      44.493  21.715  34.543  1.00  0.00     0.059 A 
ATOM     94  C   UNL A   1      46.673  22.694  34.757  1.00  0.00     0.059 A 
ATOM     95  F   UNL A   1      47.126  24.777  33.903  1.00  0.00    -0.206 F 
ATOM     96  C   UNL A   1      45.799  21.655  35.014  1.00  0.00     0.060 A 
BRANCH  96  97
ATOM     97  S   UNL A   1      46.370  20.193  35.898  1.00  0.00     0.124 S 
ATOM     98  O   UNL A   1      45.790  19.121  35.096  1.00  0.00    -0.237 OA
ATOM     99  O   UNL A   1      47.823  20.323  35.823  1.00  0.00    -0.237 OA
ATOM    100  O   UNL A   1      45.803  20.363  37.233  1.00  0.00    -0.744 OA
ENDBRANCH  96  97
ENDBRANCH  64  89
ENDBRANCH  38  39
ENDBRANCH  30  33
ENDBRANCH  28  29
ENDBRANCH  27  28
ENDBRANCH   1  27
TORSDOF 18
ENDMDL
MODEL 3
REMARK VINA RESULT:     -13.5      4.905     11.344
REMARK SMILES Cc1ccc(NC(=O)C[C@@H](C(=O)NCCCCNC(=O)c2ccc(-c3c4nc(c(-c5c(F)cc(S(=O)(=O)[O-])cc5F)c5ccc([nH]5)c(-c5c(F)cc(S(=O)(=O)[O-])cc5F)c5nc(c(-c6c(F)cc(S(=O)(=O)[O-])cc6F)c6ccc3[nH]6)C=C5)C=C4)cc2)[NH+]2CCOCC2)cc1
REMARK SMILES IDX 15 1 14 2 13 3 11 4 12 5 10 7 9 8 7 9 6 10 8 12 5 13 1 14
REMARK SMILES IDX 2 15 3 16 94 17 4 18 93 19 87 20 88 21 92 22 89 24 91 25
REMARK SMILES IDX 90 26 16 27 17 28 18 29 19 30 20 32 21 33 22 34 86 35 23 36
REMARK SMILES IDX 85 37 24 38 25 39 26 40 79 41 27 42 84 43 78 44 80 45 28 46
REMARK SMILES IDX 83 47 77 48 76 49 29 51 63 52 42 53 62 54 43 55 46 56 61 57
REMARK SMILES IDX 81 58 44 59 45 60 60 62 82 63 47 64 30 65 31 66 40 67 32 68
REMARK SMILES IDX 33 69 39 70 41 71 34 72 35 73 36 74 37 75 38 76 64 77 65 78
REMARK SMILES IDX 74 79 66 80 67 81 73 82 75 83 68 84 69 85 70 86 71 87 72 88
REMARK SMILES IDX 48 89 49 90 58 91 50 92 51 93 57 94 59 95 52 96 53 97 54 98
REMARK SMILES IDX 55 99 56 100
REMARK H PARENT 13 6 6 11 87 23 18 31 80 50 46 61
REMARK Flexibility Score: inf
ROOT
ATOM      1  C   UNL A   1      36.451  21.839  25.200  1.00  0.00     0.023 C 
ENDROOT
BRANCH   1   2
ATOM      2  C   UNL A   1      35.462  21.594  26.355  1.00  0.00     0.116 C 
BRANCH   2   3
ATOM      3  N   UNL A   1      34.217  20.954  25.969  1.00  0.00    -0.351 N 
ATOM      4  C   UNL A   1      33.066  21.381  25.387  1.00  0.00     0.278 C 
ATOM      5  O   UNL A   1      32.302  20.468  25.046  1.00  0.00    -0.268 OA
ATOM      6  H   UNL A   1      34.204  19.991  26.176  1.00  0.00     0.163 HD
BRANCH   4   7
ATOM      7  C   UNL A   1      32.740  22.890  25.097  1.00  0.00     0.283 C 
BRANCH   7   8
ATOM      8  C   UNL A   1      31.237  23.247  25.108  1.00  0.00     0.175 C 
BRANCH   8   9
ATOM      9  C   UNL A   1      30.550  23.755  26.347  1.00  0.00     0.230 C 
ATOM     10  N   UNL A   1      30.081  25.026  26.484  1.00  0.00    -0.326 N 
ATOM     11  H   UNL A   1      29.637  25.195  27.347  1.00  0.00     0.169 HD
ATOM     12  O   UNL A   1      30.437  22.987  27.312  1.00  0.00    -0.274 OA
BRANCH  10  13
ATOM     13  C   UNL A   1      30.108  26.145  25.634  1.00  0.00     0.041 A 
ATOM     14  C   UNL A   1      30.581  28.913  22.377  1.00  0.00     0.044 C 
ATOM     15  C   UNL A   1      30.317  28.031  23.559  1.00  0.00    -0.051 A 
ATOM     16  C   UNL A   1      31.147  28.112  24.679  1.00  0.00     0.005 A 
ATOM     17  C   UNL A   1      29.293  27.084  23.548  1.00  0.00     0.005 A 
ATOM     18  C   UNL A   1      31.034  27.181  25.714  1.00  0.00     0.026 A 
ATOM     19  C   UNL A   1      29.173  26.164  24.593  1.00  0.00     0.026 A 
ENDBRANCH  10  13
ENDBRANCH   8   9
ENDBRANCH   7   8
BRANCH   7  20
ATOM     20  N   UNL A   1      33.370  23.286  23.783  1.00  0.00    -0.320 N 
ATOM     21  C   UNL A   1      34.335  24.407  23.872  1.00  0.00     0.291 C 
ATOM     22  C   UNL A   1      32.531  23.465  22.587  1.00  0.00     0.291 C 
ATOM     23  H   UNL A   1      33.853  22.404  23.615  1.00  0.00     0.348 HD
ATOM     24  C   UNL A   1      33.724  25.798  23.627  1.00  0.00     0.221 C 
ATOM     25  C   UNL A   1      31.961  24.874  22.392  1.00  0.00     0.221 C 
ATOM     26  O   UNL A   1      33.002  25.853  22.391  1.00  0.00    -0.370 OA
ENDBRANCH   7  20
ENDBRANCH   4   7
ENDBRANCH   2   3
ENDBRANCH   1   2
BRANCH   1  27
ATOM     27  C   UNL A   1      37.948  21.841  25.524  1.00  0.00     0.023 C 
BRANCH  27  28
ATOM     28  C   UNL A   1      38.467  23.146  26.112  1.00  0.00     0.116 C 
BRANCH  28  29
ATOM     29  N   UNL A   1      39.879  23.073  26.496  1.00  0.00    -0.352 N 
ATOM     30  C   UNL A   1      40.680  24.107  26.945  1.00  0.00     0.251 C 
ATOM     31  H   UNL A   1      40.305  22.188  26.426  1.00  0.00     0.163 HD
ATOM     32  O   UNL A   1      41.883  23.990  27.153  1.00  0.00    -0.269 OA
BRANCH  30  33
ATOM     33  C   UNL A   1      39.988  25.374  27.227  1.00  0.00     0.039 A 
ATOM     34  C   UNL A   1      40.398  26.496  26.498  1.00  0.00     0.014 A 
ATOM     35  C   UNL A   1      39.309  25.487  28.437  1.00  0.00     0.014 A 
ATOM     36  C   UNL A   1      40.298  27.751  27.087  1.00  0.00     0.010 A 
ATOM     37  C   UNL A   1      39.290  26.724  29.051  1.00  0.00     0.010 A 
ATOM     38  C   UNL A   1      39.832  27.843  28.399  1.00  0.00    -0.014 A 
BRANCH  38  39
ATOM     39  C   UNL A   1      39.979  29.051  29.204  1.00  0.00     0.031 A 
ATOM     40  C   UNL A   1      38.924  30.085  29.184  1.00  0.00     0.074 A 
ATOM     41  C   UNL A   1      41.062  29.237  29.993  1.00  0.00     0.049 A 
ATOM     42  N   UNL A   1      39.149  31.338  29.398  1.00  0.00    -0.248 NA
ATOM     43  C   UNL A   1      37.526  29.791  28.883  1.00  0.00     0.031 C 
ATOM     44  C   UNL A   1      41.224  30.253  31.030  1.00  0.00     0.029 A 
ATOM     45  N   UNL A   1      42.330  28.664  29.868  1.00  0.00    -0.354 N 
ATOM     46  C   UNL A   1      37.931  31.951  29.550  1.00  0.00     0.074 A 
ATOM     47  C   UNL A   1      36.951  30.967  29.151  1.00  0.00     0.031 C 
ATOM     48  C   UNL A   1      42.532  30.428  31.269  1.00  0.00     0.029 A 
ATOM     49  C   UNL A   1      43.262  29.624  30.307  1.00  0.00     0.049 A 
ATOM     50  H   UNL A   1      42.533  27.759  29.536  1.00  0.00     0.167 HD
ATOM     51  C   UNL A   1      37.849  33.176  30.137  1.00  0.00     0.037 A 
ATOM     52  C   UNL A   1      44.248  30.092  29.490  1.00  0.00     0.037 A 
ATOM     53  C   UNL A   1      39.157  33.693  30.516  1.00  0.00     0.049 A 
ATOM     54  C   UNL A   1      44.198  31.583  29.247  1.00  0.00     0.074 A 
ATOM     55  C   UNL A   1      39.853  33.709  31.714  1.00  0.00     0.029 A 
ATOM     56  N   UNL A   1      40.083  34.016  29.527  1.00  0.00    -0.354 N 
ATOM     57  N   UNL A   1      43.169  32.338  29.517  1.00  0.00    -0.248 NA
ATOM     58  C   UNL A   1      45.302  32.344  28.670  1.00  0.00     0.031 C 
ATOM     59  C   UNL A   1      41.204  34.034  31.443  1.00  0.00     0.029 A 
ATOM     60  C   UNL A   1      41.333  34.221  30.080  1.00  0.00     0.049 A 
ATOM     61  H   UNL A   1      39.875  34.088  28.568  1.00  0.00     0.167 HD
ATOM     62  C   UNL A   1      43.423  33.636  29.133  1.00  0.00     0.074 A 
ATOM     63  C   UNL A   1      44.789  33.587  28.645  1.00  0.00     0.031 C 
ATOM     64  C   UNL A   1      42.469  34.614  29.251  1.00  0.00     0.037 A 
BRANCH  51  65
ATOM     65  C   UNL A   1      36.525  33.701  30.630  1.00  0.00     0.058 A 
ATOM     66  C   UNL A   1      35.543  34.172  29.738  1.00  0.00     0.135 A 
ATOM     67  C   UNL A   1      36.214  33.834  31.998  1.00  0.00     0.135 A 
ATOM     68  F   UNL A   1      35.683  34.054  28.413  1.00  0.00    -0.206 F 
ATOM     69  C   UNL A   1      34.390  34.826  30.167  1.00  0.00     0.059 A 
ATOM     70  C   UNL A   1      35.089  34.530  32.453  1.00  0.00     0.059 A 
ATOM     71  F   UNL A   1      37.018  33.307  32.937  1.00  0.00    -0.206 F 
ATOM     72  C   UNL A   1      34.186  35.034  31.526  1.00  0.00     0.060 A 
BRANCH  72  73
ATOM     73  S   UNL A   1      32.764  36.013  32.044  1.00  0.00     0.124 S 
ATOM     74  O   UNL A   1      32.387  36.697  30.811  1.00  0.00    -0.237 OA
ATOM     75  O   UNL A   1      31.841  34.982  32.505  1.00  0.00    -0.237 OA
ATOM     76  O   UNL A   1      33.312  36.879  33.085  1.00  0.00    -0.744 OA
ENDBRANCH  72  73
ENDBRANCH  51  65
BRANCH  52  77
ATOM     77  C   UNL A   1      44.758  29.067  28.540  1.00  0.00     0.058 A 
ATOM     78  C   UNL A   1      44.214  29.051  27.240  1.00  0.00     0.135 A 
ATOM     79  C   UNL A   1      45.994  28.437  28.735  1.00  0.00     0.135 A 
ATOM     80  F   UNL A   1      43.031  29.640  26.999  1.00  0.00    -0.206 F 
ATOM     81  C   UNL A   1      44.931  28.565  26.152  1.00  0.00     0.059 A 
ATOM     82  C   UNL A   1      46.728  27.937  27.656  1.00  0.00     0.059 A 
ATOM     83  F   UNL A   1      46.561  28.422  29.949  1.00  0.00    -0.206 F 
ATOM     84  C   UNL A   1      46.213  28.063  26.364  1.00  0.00     0.060 A 
BRANCH  84  85
ATOM     85  S   UNL A   1      47.247  27.754  24.912  1.00  0.00     0.124 S 
ATOM     86  O   UNL A   1      47.001  26.338  24.667  1.00  0.00    -0.237 OA
ATOM     87  O   UNL A   1      46.670  28.675  23.934  1.00  0.00    -0.237 OA
ATOM     88  O   UNL A   1      48.585  28.096  25.379  1.00  0.00    -0.744 OA
ENDBRANCH  84  85
ENDBRANCH  52  77
BRANCH  64  89
ATOM     89  C   UNL A   1      42.497  36.046  28.722  1.00  0.00     0.058 A 
ATOM     90  C   UNL A   1      42.987  37.165  29.417  1.00  0.00     0.135 A 
ATOM     91  C   UNL A   1      42.105  36.317  27.379  1.00  0.00     0.135 A 
ATOM     92  F   UNL A   1      43.493  37.064  30.650  1.00  0.00    -0.206 F 
ATOM     93  C   UNL A   1      43.032  38.447  28.854  1.00  0.00     0.059 A 
ATOM     94  C   UNL A   1      42.197  37.573  26.781  1.00  0.00     0.059 A 
ATOM     95  F   UNL A   1      41.625  35.360  26.573  1.00  0.00    -0.206 F 
ATOM     96  C   UNL A   1      42.641  38.643  27.535  1.00  0.00     0.060 A 
BRANCH  96  97
ATOM     97  S   UNL A   1      42.781  40.276  26.788  1.00  0.00     0.124 S 
ATOM     98  O   UNL A   1      41.420  40.500  26.314  1.00  0.00    -0.237 OA
ATOM     99  O   UNL A   1      43.203  41.106  27.914  1.00  0.00    -0.237 OA
ATOM    100  O   UNL A   1      43.790  40.087  25.750  1.00  0.00    -0.744 OA
ENDBRANCH  96  97
ENDBRANCH  64  89
ENDBRANCH  38  39
ENDBRANCH  30  33
ENDBRANCH  28  29
ENDBRANCH  27  28
ENDBRANCH   1  27
TORSDOF 18
ENDMDL
