MODEL 1
REMARK VINA RESULT:     -12.6      0.000      0.000
REMARK SMILES O=C(COc1ccccc1/C=N/N1[C@@H](S)N=N[C@H]1[C@@H]1C=C(c2ccccc2)N=N1)NCCCCNC(=O)c1ccc(-c2c3nc(c(-c4c(F)cc(S(=O)(=O)[O-])cc4F)c4ccc([nH]4)c(-c4c(F)cc(S(=O)(=O)[O-])cc4F)c4nc(c(-c5c(F)cc(S(=O)(=O)[O-])cc5F)c5ccc2[nH]5)C=C4)C=C3)cc1
REMARK SMILES IDX 31 1 30 2 1 3 2 4 3 6 4 7 5 8 6 9 10 10 7 11 9 12 8 13 11 14
REMARK SMILES IDX 12 15 13 16 14 17 18 18 16 19 17 20 15 21 19 23 20 24 29 25
REMARK SMILES IDX 21 26 28 27 22 28 23 29 27 30 24 31 26 32 25 33 32 34 33 35
REMARK SMILES IDX 34 36 35 37 36 38 37 40 38 41 39 42 103 43 40 44 102 45
REMARK SMILES IDX 41 46 42 47 43 48 96 49 44 50 101 51 95 52 97 53 45 54
REMARK SMILES IDX 100 55 94 56 93 57 46 59 80 60 59 61 79 62 60 63 63 64 78 65
REMARK SMILES IDX 98 66 61 67 62 68 77 70 99 71 64 72 47 73 48 74 57 75 49 76
REMARK SMILES IDX 50 77 56 78 58 79 51 80 52 81 53 82 54 83 55 84 81 85 82 86
REMARK SMILES IDX 91 87 83 88 84 89 90 90 92 91 85 92 86 93 87 94 88 95 89 96
REMARK SMILES IDX 65 97 66 98 75 99 67 100 68 101 74 102 76 103 69 104 70 105
REMARK SMILES IDX 71 106 72 107 73 108
REMARK H PARENT 30 5 15 22 35 39 97 58 63 69
REMARK Flexibility Score: inf
ROOT
ATOM      1  C   UNL A   1      32.922  25.235  26.246  1.00  0.00     0.116 C 
ENDROOT
BRANCH   1   2
ATOM      2  N   UNL A   1      33.364  23.662  26.222  1.00  0.00    -0.353 N 
ATOM      3  O   UNL A   1      32.515  22.422  28.025  1.00  0.00    -0.271 OA
ATOM      4  C   UNL A   1      33.067  22.475  26.933  1.00  0.00     0.257 C 
ATOM      5  H   UNL A   1      34.025  23.491  25.512  1.00  0.00     0.163 HD
BRANCH   4   6
ATOM      6  C   UNL A   1      33.295  20.973  26.564  1.00  0.00     0.329 C 
BRANCH   6   7
ATOM      7  O   UNL A   1      32.741  20.297  25.479  1.00  0.00    -0.483 OA
BRANCH   7   8
ATOM      8  C   UNL A   1      33.266  19.060  25.323  1.00  0.00     0.128 A 
ATOM      9  C   UNL A   1      32.364  18.059  25.679  1.00  0.00     0.047 A 
ATOM     10  C   UNL A   1      34.542  18.806  24.759  1.00  0.00     0.037 A 
ATOM     11  C   UNL A   1      32.700  16.752  25.424  1.00  0.00     0.004 A 
ATOM     12  C   UNL A   1      34.895  17.472  24.594  1.00  0.00     0.013 A 
ATOM     13  C   UNL A   1      33.963  16.454  24.905  1.00  0.00     0.001 A 
BRANCH  10  14
ATOM     14  C   UNL A   1      35.422  19.995  24.393  1.00  0.00     0.145 C 
ATOM     15  N   UNL A   1      36.519  20.387  25.015  1.00  0.00    -0.180 NA
BRANCH  15  16
ATOM     16  N   UNL A   1      36.784  21.787  24.823  1.00  0.00    -0.233 NA
ATOM     17  C   UNL A   1      37.464  22.513  25.898  1.00  0.00     0.298 C 
ATOM     18  C   UNL A   1      35.679  22.897  24.474  1.00  0.00     0.274 C 
ATOM     19  N   UNL A   1      37.305  23.968  25.633  1.00  0.00    -0.153 NA
ATOM     20  N   UNL A   1      36.370  24.188  24.812  1.00  0.00    -0.161 NA
BRANCH  17  21
ATOM     21  S   UNL A   1      39.182  21.928  26.101  1.00  0.00    -0.128 SA
ATOM     22  H   UNL A   1      39.318  20.708  25.515  1.00  0.00     0.106 HD
ENDBRANCH  17  21
BRANCH  18  23
ATOM     23  C   UNL A   1      34.511  23.333  23.081  1.00  0.00     0.202 C 
ATOM     24  C   UNL A   1      34.021  24.724  22.653  1.00  0.00     0.037 C 
ATOM     25  N   UNL A   1      33.110  22.688  23.088  1.00  0.00    -0.177 NA
ATOM     26  C   UNL A   1      32.689  24.835  22.663  1.00  0.00     0.091 C 
ATOM     27  N   UNL A   1      32.168  23.581  22.916  1.00  0.00    -0.155 NA
BRANCH  26  28
ATOM     28  C   UNL A   1      32.038  26.238  22.803  1.00  0.00     0.002 A 
ATOM     29  C   UNL A   1      30.801  26.457  23.444  1.00  0.00     0.010 A 
ATOM     30  C   UNL A   1      32.709  27.444  22.533  1.00  0.00     0.010 A 
ATOM     31  C   UNL A   1      30.266  27.697  23.849  1.00  0.00     0.001 A 
ATOM     32  C   UNL A   1      32.163  28.721  22.875  1.00  0.00     0.001 A 
ATOM     33  C   UNL A   1      30.948  28.848  23.545  1.00  0.00     0.000 A 
ENDBRANCH  26  28
ENDBRANCH  18  23
ENDBRANCH  15  16
ENDBRANCH  10  14
ENDBRANCH   7   8
ENDBRANCH   6   7
ENDBRANCH   4   6
ENDBRANCH   1   2
BRANCH   1  34
ATOM     34  C   UNL A   1      33.679  26.679  25.917  1.00  0.00     0.023 C 
BRANCH  34  35
ATOM     35  C   UNL A   1      33.472  28.088  26.588  1.00  0.00     0.023 C 
BRANCH  35  36
ATOM     36  C   UNL A   1      34.687  28.949  26.796  1.00  0.00     0.116 C 
BRANCH  36  37
ATOM     37  N   UNL A   1      34.351  30.335  27.130  1.00  0.00    -0.352 N 
ATOM     38  C   UNL A   1      34.795  31.027  28.236  1.00  0.00     0.251 C 
ATOM     39  H   UNL A   1      33.756  30.815  26.508  1.00  0.00     0.163 HD
ATOM     40  O   UNL A   1      34.162  31.974  28.709  1.00  0.00    -0.269 OA
BRANCH  38  41
ATOM     41  C   UNL A   1      36.070  30.594  28.810  1.00  0.00     0.039 A 
ATOM     42  C   UNL A   1      36.159  29.562  29.743  1.00  0.00     0.014 A 
ATOM     43  C   UNL A   1      37.203  31.157  28.223  1.00  0.00     0.014 A 
ATOM     44  C   UNL A   1      37.421  29.059  30.036  1.00  0.00     0.010 A 
ATOM     45  C   UNL A   1      38.389  30.494  28.328  1.00  0.00     0.010 A 
ATOM     46  C   UNL A   1      38.528  29.523  29.305  1.00  0.00    -0.014 A 
BRANCH  46  47
ATOM     47  C   UNL A   1      39.852  28.949  29.468  1.00  0.00     0.031 A 
ATOM     48  C   UNL A   1      40.213  28.672  30.881  1.00  0.00     0.074 A 
ATOM     49  C   UNL A   1      40.589  28.527  28.418  1.00  0.00     0.049 A 
ATOM     50  N   UNL A   1      41.008  29.361  31.629  1.00  0.00    -0.248 NA
ATOM     51  C   UNL A   1      39.454  27.646  31.616  1.00  0.00     0.031 C 
ATOM     52  C   UNL A   1      40.222  28.436  26.997  1.00  0.00     0.029 A 
ATOM     53  N   UNL A   1      41.836  27.992  28.425  1.00  0.00    -0.354 N 
ATOM     54  C   UNL A   1      41.068  28.681  32.839  1.00  0.00     0.074 A 
ATOM     55  C   UNL A   1      39.927  27.804  32.856  1.00  0.00     0.031 C 
ATOM     56  C   UNL A   1      41.116  27.665  26.339  1.00  0.00     0.029 A 
ATOM     57  C   UNL A   1      42.213  27.368  27.237  1.00  0.00     0.049 A 
ATOM     58  H   UNL A   1      42.429  28.041  29.209  1.00  0.00     0.167 HD
ATOM     59  C   UNL A   1      42.210  28.691  33.584  1.00  0.00     0.037 A 
ATOM     60  C   UNL A   1      43.338  26.626  27.051  1.00  0.00     0.037 A 
ATOM     61  C   UNL A   1      43.097  29.747  33.145  1.00  0.00     0.049 A 
ATOM     62  C   UNL A   1      44.284  27.012  28.134  1.00  0.00     0.074 A 
ATOM     63  C   UNL A   1      42.961  31.115  32.987  1.00  0.00     0.029 A 
ATOM     64  N   UNL A   1      44.179  29.396  32.370  1.00  0.00    -0.354 N 
ATOM     65  N   UNL A   1      44.825  28.199  28.215  1.00  0.00    -0.248 NA
ATOM     66  C   UNL A   1      44.201  26.274  29.387  1.00  0.00     0.031 C 
ATOM     67  C   UNL A   1      43.598  31.404  31.744  1.00  0.00     0.029 A 
ATOM     68  C   UNL A   1      44.181  30.226  31.276  1.00  0.00     0.049 A 
ATOM     69  H   UNL A   1      44.830  28.683  32.564  1.00  0.00     0.167 HD
ATOM     70  C   UNL A   1      44.749  28.529  29.560  1.00  0.00     0.074 A 
ATOM     71  C   UNL A   1      44.402  27.281  30.241  1.00  0.00     0.031 C 
ATOM     72  C   UNL A   1      44.666  29.829  29.973  1.00  0.00     0.037 A 
BRANCH  59  73
ATOM     73  C   UNL A   1      42.692  27.526  34.419  1.00  0.00     0.058 A 
ATOM     74  C   UNL A   1      42.757  27.671  35.821  1.00  0.00     0.135 A 
ATOM     75  C   UNL A   1      43.345  26.385  33.898  1.00  0.00     0.135 A 
ATOM     76  F   UNL A   1      42.178  28.719  36.427  1.00  0.00    -0.206 F 
ATOM     77  C   UNL A   1      43.478  26.794  36.631  1.00  0.00     0.059 A 
ATOM     78  C   UNL A   1      44.022  25.469  34.694  1.00  0.00     0.059 A 
ATOM     79  F   UNL A   1      43.445  26.145  32.587  1.00  0.00    -0.206 F 
ATOM     80  C   UNL A   1      44.118  25.702  36.054  1.00  0.00     0.060 A 
BRANCH  80  81
ATOM     81  S   UNL A   1      45.119  24.616  37.081  1.00  0.00     0.124 S 
ATOM     82  O   UNL A   1      44.901  23.326  36.437  1.00  0.00    -0.237 OA
ATOM     83  O   UNL A   1      46.449  25.197  36.922  1.00  0.00    -0.237 OA
ATOM     84  O   UNL A   1      44.527  24.771  38.407  1.00  0.00    -0.744 OA
ENDBRANCH  80  81
ENDBRANCH  59  73
BRANCH  60  85
ATOM     85  C   UNL A   1      43.435  25.315  26.354  1.00  0.00     0.058 A 
ATOM     86  C   UNL A   1      44.356  25.098  25.308  1.00  0.00     0.135 A 
ATOM     87  C   UNL A   1      42.868  24.165  26.926  1.00  0.00     0.135 A 
ATOM     88  F   UNL A   1      44.978  26.140  24.738  1.00  0.00    -0.206 F 
ATOM     89  C   UNL A   1      44.715  23.812  24.877  1.00  0.00     0.059 A 
ATOM     90  C   UNL A   1      43.247  22.886  26.543  1.00  0.00     0.059 A 
ATOM     91  F   UNL A   1      42.003  24.242  27.947  1.00  0.00    -0.206 F 
ATOM     92  C   UNL A   1      44.164  22.706  25.519  1.00  0.00     0.060 A 
BRANCH  92  93
ATOM     93  S   UNL A   1      44.692  21.030  25.092  1.00  0.00     0.124 S 
ATOM     94  O   UNL A   1      43.650  20.217  25.707  1.00  0.00    -0.237 OA
ATOM     95  O   UNL A   1      44.701  21.073  23.636  1.00  0.00    -0.237 OA
ATOM     96  O   UNL A   1      46.009  20.927  25.722  1.00  0.00    -0.744 OA
ENDBRANCH  92  93
ENDBRANCH  60  85
BRANCH  72  97
ATOM     97  C   UNL A   1      44.904  30.928  28.967  1.00  0.00     0.058 A 
ATOM     98  C   UNL A   1      46.168  31.395  28.557  1.00  0.00     0.135 A 
ATOM     99  C   UNL A   1      43.791  31.431  28.278  1.00  0.00     0.135 A 
ATOM    100  F   UNL A   1      47.294  30.891  29.082  1.00  0.00    -0.206 F 
ATOM    101  C   UNL A   1      46.311  32.353  27.549  1.00  0.00     0.059 A 
ATOM    102  C   UNL A   1      43.910  32.360  27.250  1.00  0.00     0.059 A 
ATOM    103  F   UNL A   1      42.560  30.984  28.575  1.00  0.00    -0.206 F 
ATOM    104  C   UNL A   1      45.173  32.832  26.901  1.00  0.00     0.060 A 
BRANCH 104 105
ATOM    105  S   UNL A   1      45.350  34.046  25.576  1.00  0.00     0.124 S 
ATOM    106  O   UNL A   1      44.657  33.395  24.470  1.00  0.00    -0.237 OA
ATOM    107  O   UNL A   1      44.690  35.222  26.135  1.00  0.00    -0.237 OA
ATOM    108  O   UNL A   1      46.798  34.171  25.417  1.00  0.00    -0.744 OA
ENDBRANCH 104 105
ENDBRANCH  72  97
ENDBRANCH  46  47
ENDBRANCH  38  41
ENDBRANCH  36  37
ENDBRANCH  35  36
ENDBRANCH  34  35
ENDBRANCH   1  34
TORSDOF 21
ENDMDL
MODEL 2
REMARK VINA RESULT:     -12.1      5.013     12.532
REMARK SMILES O=C(COc1ccccc1/C=N/N1[C@@H](S)N=N[C@H]1[C@@H]1C=C(c2ccccc2)N=N1)NCCCCNC(=O)c1ccc(-c2c3nc(c(-c4c(F)cc(S(=O)(=O)[O-])cc4F)c4ccc([nH]4)c(-c4c(F)cc(S(=O)(=O)[O-])cc4F)c4nc(c(-c5c(F)cc(S(=O)(=O)[O-])cc5F)c5ccc2[nH]5)C=C4)C=C3)cc1
REMARK SMILES IDX 31 1 30 2 1 3 2 4 3 6 4 7 5 8 6 9 10 10 7 11 9 12 8 13 11 14
REMARK SMILES IDX 12 15 13 16 14 17 18 18 16 19 17 20 15 21 19 23 20 24 29 25
REMARK SMILES IDX 21 26 28 27 22 28 23 29 27 30 24 31 26 32 25 33 32 34 33 35
REMARK SMILES IDX 34 36 35 37 36 38 37 40 38 41 39 42 103 43 40 44 102 45
REMARK SMILES IDX 41 46 42 47 43 48 96 49 44 50 101 51 95 52 97 53 45 54
REMARK SMILES IDX 100 55 94 56 93 57 46 59 80 60 59 61 79 62 60 63 63 64 78 65
REMARK SMILES IDX 98 66 61 67 62 68 77 70 99 71 64 72 47 73 48 74 57 75 49 76
REMARK SMILES IDX 50 77 56 78 58 79 51 80 52 81 53 82 54 83 55 84 81 85 82 86
REMARK SMILES IDX 91 87 83 88 84 89 90 90 92 91 85 92 86 93 87 94 88 95 89 96
REMARK SMILES IDX 65 97 66 98 75 99 67 100 68 101 74 102 76 103 69 104 70 105
REMARK SMILES IDX 71 106 72 107 73 108
REMARK H PARENT 30 5 15 22 35 39 97 58 63 69
REMARK Flexibility Score: inf
ROOT
ATOM      1  C   UNL A   1      44.655  26.416  25.385  1.00  0.00     0.116 C 
ENDROOT
BRANCH   1   2
ATOM      2  N   UNL A   1      46.102  26.413  24.627  1.00  0.00    -0.353 N 
ATOM      3  O   UNL A   1      46.904  28.562  24.128  1.00  0.00    -0.271 OA
ATOM      4  C   UNL A   1      47.079  27.354  24.221  1.00  0.00     0.257 C 
ATOM      5  H   UNL A   1      46.372  25.498  24.383  1.00  0.00     0.163 HD
BRANCH   4   6
ATOM      6  C   UNL A   1      48.581  27.169  23.829  1.00  0.00     0.329 C 
BRANCH   6   7
ATOM      7  O   UNL A   1      49.474  28.183  23.488  1.00  0.00    -0.483 OA
BRANCH   7   8
ATOM      8  C   UNL A   1      50.671  27.697  23.083  1.00  0.00     0.128 A 
ATOM      9  C   UNL A   1      50.749  27.584  21.697  1.00  0.00     0.047 A 
ATOM     10  C   UNL A   1      51.757  27.438  23.957  1.00  0.00     0.037 A 
ATOM     11  C   UNL A   1      51.957  27.256  21.132  1.00  0.00     0.004 A 
ATOM     12  C   UNL A   1      52.944  27.019  23.367  1.00  0.00     0.013 A 
ATOM     13  C   UNL A   1      53.044  26.954  21.957  1.00  0.00     0.001 A 
BRANCH  10  14
ATOM     14  C   UNL A   1      51.543  27.623  25.454  1.00  0.00     0.145 C 
ATOM     15  N   UNL A   1      52.320  27.176  26.424  1.00  0.00    -0.180 NA
BRANCH  15  16
ATOM     16  N   UNL A   1      51.605  26.997  27.658  1.00  0.00    -0.233 NA
ATOM     17  C   UNL A   1      52.358  26.557  28.835  1.00  0.00     0.298 C 
ATOM     18  C   UNL A   1      50.322  26.052  27.853  1.00  0.00     0.274 C 
ATOM     19  N   UNL A   1      51.377  26.106  29.858  1.00  0.00    -0.153 NA
ATOM     20  N   UNL A   1      50.245  25.881  29.344  1.00  0.00    -0.161 NA
BRANCH  17  21
ATOM     21  S   UNL A   1      53.536  27.842  29.378  1.00  0.00    -0.128 SA
ATOM     22  H   UNL A   1      54.205  27.408  30.480  1.00  0.00     0.106 HD
ENDBRANCH  17  21
BRANCH  18  23
ATOM     23  C   UNL A   1      48.550  25.944  27.269  1.00  0.00     0.202 C 
ATOM     24  C   UNL A   1      47.266  26.015  28.110  1.00  0.00     0.037 C 
ATOM     25  N   UNL A   1      48.128  24.689  26.478  1.00  0.00    -0.177 NA
ATOM     26  C   UNL A   1      46.484  24.942  27.962  1.00  0.00     0.091 C 
ATOM     27  N   UNL A   1      47.027  24.165  26.957  1.00  0.00    -0.155 NA
BRANCH  26  28
ATOM     28  C   UNL A   1      45.474  24.570  29.081  1.00  0.00     0.002 A 
ATOM     29  C   UNL A   1      44.783  23.341  29.123  1.00  0.00     0.010 A 
ATOM     30  C   UNL A   1      45.328  25.294  30.278  1.00  0.00     0.010 A 
ATOM     31  C   UNL A   1      44.064  22.812  30.215  1.00  0.00     0.001 A 
ATOM     32  C   UNL A   1      44.553  24.812  31.379  1.00  0.00     0.001 A 
ATOM     33  C   UNL A   1      43.931  23.566  31.353  1.00  0.00     0.000 A 
ENDBRANCH  26  28
ENDBRANCH  18  23
ENDBRANCH  15  16
ENDBRANCH  10  14
ENDBRANCH   7   8
ENDBRANCH   6   7
ENDBRANCH   4   6
ENDBRANCH   1   2
BRANCH   1  34
ATOM     34  C   UNL A   1      43.488  25.275  25.706  1.00  0.00     0.023 C 
BRANCH  34  35
ATOM     35  C   UNL A   1      43.324  23.825  25.115  1.00  0.00     0.023 C 
BRANCH  35  36
ATOM     36  C   UNL A   1      42.640  22.794  25.970  1.00  0.00     0.116 C 
BRANCH  36  37
ATOM     37  N   UNL A   1      41.258  22.540  25.558  1.00  0.00    -0.352 N 
ATOM     38  C   UNL A   1      40.132  22.801  26.310  1.00  0.00     0.251 C 
ATOM     39  H   UNL A   1      41.120  22.150  24.664  1.00  0.00     0.163 HD
ATOM     40  O   UNL A   1      39.079  22.183  26.142  1.00  0.00    -0.269 OA
BRANCH  38  41
ATOM     41  C   UNL A   1      40.245  23.867  27.307  1.00  0.00     0.039 A 
ATOM     42  C   UNL A   1      41.291  23.922  28.227  1.00  0.00     0.014 A 
ATOM     43  C   UNL A   1      39.341  24.917  27.153  1.00  0.00     0.014 A 
ATOM     44  C   UNL A   1      41.449  25.094  28.959  1.00  0.00     0.010 A 
ATOM     45  C   UNL A   1      39.657  26.132  27.684  1.00  0.00     0.010 A 
ATOM     46  C   UNL A   1      40.634  26.200  28.663  1.00  0.00    -0.014 A 
BRANCH  46  47
ATOM     47  C   UNL A   1      40.832  27.492  29.295  1.00  0.00     0.031 A 
ATOM     48  C   UNL A   1      41.831  28.347  28.609  1.00  0.00     0.074 A 
ATOM     49  C   UNL A   1      40.032  27.938  30.289  1.00  0.00     0.049 A 
ATOM     50  N   UNL A   1      43.044  28.579  28.985  1.00  0.00    -0.248 NA
ATOM     51  C   UNL A   1      41.534  28.829  27.249  1.00  0.00     0.031 C 
ATOM     52  C   UNL A   1      38.807  27.340  30.840  1.00  0.00     0.029 A 
ATOM     53  N   UNL A   1      40.112  29.106  30.975  1.00  0.00    -0.354 N 
ATOM     54  C   UNL A   1      43.561  29.473  28.055  1.00  0.00     0.074 A 
ATOM     55  C   UNL A   1      42.698  29.389  26.907  1.00  0.00     0.031 C 
ATOM     56  C   UNL A   1      38.143  28.254  31.582  1.00  0.00     0.029 A 
ATOM     57  C   UNL A   1      38.980  29.429  31.719  1.00  0.00     0.049 A 
ATOM     58  H   UNL A   1      40.911  29.682  30.949  1.00  0.00     0.167 HD
ATOM     59  C   UNL A   1      44.479  30.409  28.429  1.00  0.00     0.037 A 
ATOM     60  C   UNL A   1      38.756  30.610  32.355  1.00  0.00     0.037 A 
ATOM     61  C   UNL A   1      45.054  30.076  29.714  1.00  0.00     0.049 A 
ATOM     62  C   UNL A   1      40.086  31.257  32.528  1.00  0.00     0.074 A 
ATOM     63  C   UNL A   1      45.703  28.961  30.219  1.00  0.00     0.029 A 
ATOM     64  N   UNL A   1      44.610  30.771  30.816  1.00  0.00    -0.354 N 
ATOM     65  N   UNL A   1      41.016  30.770  33.306  1.00  0.00    -0.248 NA
ATOM     66  C   UNL A   1      40.556  32.114  31.449  1.00  0.00     0.031 C 
ATOM     67  C   UNL A   1      45.148  28.777  31.521  1.00  0.00     0.029 A 
ATOM     68  C   UNL A   1      44.288  29.844  31.777  1.00  0.00     0.049 A 
ATOM     69  H   UNL A   1      44.539  31.749  30.900  1.00  0.00     0.167 HD
ATOM     70  C   UNL A   1      42.188  30.895  32.574  1.00  0.00     0.074 A 
ATOM     71  C   UNL A   1      41.849  31.779  31.457  1.00  0.00     0.031 C 
ATOM     72  C   UNL A   1      43.236  30.037  32.751  1.00  0.00     0.037 A 
BRANCH  59  73
ATOM     73  C   UNL A   1      44.563  31.800  27.843  1.00  0.00     0.058 A 
ATOM     74  C   UNL A   1      45.670  32.135  27.034  1.00  0.00     0.135 A 
ATOM     75  C   UNL A   1      43.763  32.890  28.253  1.00  0.00     0.135 A 
ATOM     76  F   UNL A   1      46.505  31.182  26.589  1.00  0.00    -0.206 F 
ATOM     77  C   UNL A   1      45.998  33.455  26.724  1.00  0.00     0.059 A 
ATOM     78  C   UNL A   1      44.041  34.208  27.909  1.00  0.00     0.059 A 
ATOM     79  F   UNL A   1      42.726  32.753  29.086  1.00  0.00    -0.206 F 
ATOM     80  C   UNL A   1      45.182  34.485  27.178  1.00  0.00     0.060 A 
BRANCH  80  81
ATOM     81  S   UNL A   1      45.646  36.193  26.853  1.00  0.00     0.124 S 
ATOM     82  O   UNL A   1      46.530  36.039  25.705  1.00  0.00    -0.237 OA
ATOM     83  O   UNL A   1      44.349  36.809  26.588  1.00  0.00    -0.237 OA
ATOM     84  O   UNL A   1      46.288  36.607  28.097  1.00  0.00    -0.744 OA
ENDBRANCH  80  81
ENDBRANCH  59  73
BRANCH  60  85
ATOM     85  C   UNL A   1      37.494  31.398  32.353  1.00  0.00     0.058 A 
ATOM     86  C   UNL A   1      36.974  31.969  33.533  1.00  0.00     0.135 A 
ATOM     87  C   UNL A   1      36.965  31.885  31.146  1.00  0.00     0.135 A 
ATOM     88  F   UNL A   1      37.457  31.594  34.726  1.00  0.00    -0.206 F 
ATOM     89  C   UNL A   1      36.008  32.986  33.514  1.00  0.00     0.059 A 
ATOM     90  C   UNL A   1      36.044  32.922  31.110  1.00  0.00     0.059 A 
ATOM     91  F   UNL A   1      37.402  31.441  29.959  1.00  0.00    -0.206 F 
ATOM     92  C   UNL A   1      35.561  33.470  32.287  1.00  0.00     0.060 A 
BRANCH  92  93
ATOM     93  S   UNL A   1      34.417  34.869  32.206  1.00  0.00     0.124 S 
ATOM     94  O   UNL A   1      33.218  34.317  32.825  1.00  0.00    -0.237 OA
ATOM     95  O   UNL A   1      35.125  35.888  32.969  1.00  0.00    -0.237 OA
ATOM     96  O   UNL A   1      34.310  35.126  30.769  1.00  0.00    -0.744 OA
ENDBRANCH  92  93
ENDBRANCH  60  85
BRANCH  72  97
ATOM     97  C   UNL A   1      43.212  29.092  33.928  1.00  0.00     0.058 A 
ATOM     98  C   UNL A   1      43.537  29.439  35.254  1.00  0.00     0.135 A 
ATOM     99  C   UNL A   1      42.691  27.807  33.719  1.00  0.00     0.135 A 
ATOM    100  F   UNL A   1      43.939  30.679  35.566  1.00  0.00    -0.206 F 
ATOM    101  C   UNL A   1      43.399  28.531  36.309  1.00  0.00     0.059 A 
ATOM    102  C   UNL A   1      42.515  26.899  34.758  1.00  0.00     0.059 A 
ATOM    103  F   UNL A   1      42.303  27.432  32.490  1.00  0.00    -0.206 F 
ATOM    104  C   UNL A   1      42.888  27.261  36.050  1.00  0.00     0.060 A 
BRANCH 104 105
ATOM    105  S   UNL A   1      42.677  26.093  37.412  1.00  0.00     0.124 S 
ATOM    106  O   UNL A   1      41.263  26.248  37.732  1.00  0.00    -0.237 OA
ATOM    107  O   UNL A   1      43.054  24.822  36.800  1.00  0.00    -0.237 OA
ATOM    108  O   UNL A   1      43.604  26.584  38.430  1.00  0.00    -0.744 OA
ENDBRANCH 104 105
ENDBRANCH  72  97
ENDBRANCH  46  47
ENDBRANCH  38  41
ENDBRANCH  36  37
ENDBRANCH  35  36
ENDBRANCH  34  35
ENDBRANCH   1  34
TORSDOF 21
ENDMDL
MODEL 3
REMARK VINA RESULT:     -11.9      5.561     11.065
REMARK SMILES O=C(COc1ccccc1/C=N/N1[C@@H](S)N=N[C@H]1[C@@H]1C=C(c2ccccc2)N=N1)NCCCCNC(=O)c1ccc(-c2c3nc(c(-c4c(F)cc(S(=O)(=O)[O-])cc4F)c4ccc([nH]4)c(-c4c(F)cc(S(=O)(=O)[O-])cc4F)c4nc(c(-c5c(F)cc(S(=O)(=O)[O-])cc5F)c5ccc2[nH]5)C=C4)C=C3)cc1
REMARK SMILES IDX 31 1 30 2 1 3 2 4 3 6 4 7 5 8 6 9 10 10 7 11 9 12 8 13 11 14
REMARK SMILES IDX 12 15 13 16 14 17 18 18 16 19 17 20 15 21 19 23 20 24 29 25
REMARK SMILES IDX 21 26 28 27 22 28 23 29 27 30 24 31 26 32 25 33 32 34 33 35
REMARK SMILES IDX 34 36 35 37 36 38 37 40 38 41 39 42 103 43 40 44 102 45
REMARK SMILES IDX 41 46 42 47 43 48 96 49 44 50 101 51 95 52 97 53 45 54
REMARK SMILES IDX 100 55 94 56 93 57 46 59 80 60 59 61 79 62 60 63 63 64 78 65
REMARK SMILES IDX 98 66 61 67 62 68 77 70 99 71 64 72 47 73 48 74 57 75 49 76
REMARK SMILES IDX 50 77 56 78 58 79 51 80 52 81 53 82 54 83 55 84 81 85 82 86
REMARK SMILES IDX 91 87 83 88 84 89 90 90 92 91 85 92 86 93 87 94 88 95 89 96
REMARK SMILES IDX 65 97 66 98 75 99 67 100 68 101 74 102 76 103 69 104 70 105
REMARK SMILES IDX 71 106 72 107 73 108
REMARK H PARENT 30 5 15 22 35 39 97 58 63 69
REMARK Flexibility Score: inf
ROOT
ATOM      1  C   UNL A   1      44.858  23.931  32.901  1.00  0.00     0.116 C 
ENDROOT
BRANCH   1   2
ATOM      2  N   UNL A   1      44.718  24.873  31.573  1.00  0.00    -0.353 N 
ATOM      3  O   UNL A   1      46.758  25.779  30.847  1.00  0.00    -0.271 OA
ATOM      4  C   UNL A   1      45.572  25.539  30.662  1.00  0.00     0.257 C 
ATOM      5  H   UNL A   1      43.773  25.018  31.340  1.00  0.00     0.163 HD
BRANCH   4   6
ATOM      6  C   UNL A   1      45.303  26.104  29.229  1.00  0.00     0.329 C 
BRANCH   6   7
ATOM      7  O   UNL A   1      44.759  25.403  28.155  1.00  0.00    -0.483 OA
BRANCH   7   8
ATOM      8  C   UNL A   1      45.485  25.554  27.023  1.00  0.00     0.128 A 
ATOM      9  C   UNL A   1      45.958  26.855  26.874  1.00  0.00     0.047 A 
ATOM     10  C   UNL A   1      45.819  24.489  26.148  1.00  0.00     0.037 A 
ATOM     11  C   UNL A   1      46.841  27.120  25.855  1.00  0.00     0.004 A 
ATOM     12  C   UNL A   1      46.642  24.802  25.073  1.00  0.00     0.013 A 
ATOM     13  C   UNL A   1      47.167  26.110  24.947  1.00  0.00     0.001 A 
BRANCH  10  14
ATOM     14  C   UNL A   1      45.251  23.105  26.440  1.00  0.00     0.145 C 
ATOM     15  N   UNL A   1      45.454  22.004  25.740  1.00  0.00    -0.180 NA
BRANCH  15  16
ATOM     16  N   UNL A   1      44.388  21.053  25.897  1.00  0.00    -0.233 NA
ATOM     17  C   UNL A   1      44.331  19.921  24.968  1.00  0.00     0.298 C 
ATOM     18  C   UNL A   1      42.823  21.412  25.901  1.00  0.00     0.274 C 
ATOM     19  N   UNL A   1      42.985  19.301  25.093  1.00  0.00    -0.153 NA
ATOM     20  N   UNL A   1      42.166  20.083  25.652  1.00  0.00    -0.161 NA
BRANCH  17  21
ATOM     21  S   UNL A   1      45.748  18.797  25.218  1.00  0.00    -0.128 SA
ATOM     22  H   UNL A   1      46.897  19.425  24.847  1.00  0.00     0.106 HD
ENDBRANCH  17  21
BRANCH  18  23
ATOM     23  C   UNL A   1      41.598  22.361  26.944  1.00  0.00     0.202 C 
ATOM     24  C   UNL A   1      40.986  23.743  26.670  1.00  0.00     0.037 C 
ATOM     25  N   UNL A   1      41.983  22.667  28.407  1.00  0.00    -0.177 NA
ATOM     26  C   UNL A   1      41.207  24.618  27.657  1.00  0.00     0.091 C 
ATOM     27  N   UNL A   1      41.800  23.931  28.698  1.00  0.00    -0.155 NA
BRANCH  26  28
ATOM     28  C   UNL A   1      41.167  26.140  27.354  1.00  0.00     0.002 A 
ATOM     29  C   UNL A   1      41.960  26.753  26.361  1.00  0.00     0.010 A 
ATOM     30  C   UNL A   1      40.183  27.013  27.850  1.00  0.00     0.010 A 
ATOM     31  C   UNL A   1      41.806  28.053  25.839  1.00  0.00     0.001 A 
ATOM     32  C   UNL A   1      40.042  28.358  27.385  1.00  0.00     0.001 A 
ATOM     33  C   UNL A   1      40.845  28.875  26.371  1.00  0.00     0.000 A 
ENDBRANCH  26  28
ENDBRANCH  18  23
ENDBRANCH  15  16
ENDBRANCH  10  14
ENDBRANCH   7   8
ENDBRANCH   6   7
ENDBRANCH   4   6
ENDBRANCH   1   2
BRANCH   1  34
ATOM     34  C   UNL A   1      43.965  23.702  34.285  1.00  0.00     0.023 C 
BRANCH  34  35
ATOM     35  C   UNL A   1      44.453  23.589  35.778  1.00  0.00     0.023 C 
BRANCH  35  36
ATOM     36  C   UNL A   1      44.034  24.670  36.735  1.00  0.00     0.116 C 
BRANCH  36  37
ATOM     37  N   UNL A   1      42.657  24.510  37.206  1.00  0.00    -0.352 N 
ATOM     38  C   UNL A   1      41.675  25.477  37.167  1.00  0.00     0.251 C 
ATOM     39  H   UNL A   1      42.410  23.635  37.583  1.00  0.00     0.163 HD
ATOM     40  O   UNL A   1      40.722  25.470  37.948  1.00  0.00    -0.269 OA
BRANCH  38  41
ATOM     41  C   UNL A   1      41.811  26.504  36.131  1.00  0.00     0.039 A 
ATOM     42  C   UNL A   1      41.334  26.325  34.834  1.00  0.00     0.014 A 
ATOM     43  C   UNL A   1      42.280  27.737  36.582  1.00  0.00     0.014 A 
ATOM     44  C   UNL A   1      41.283  27.438  34.002  1.00  0.00     0.010 A 
ATOM     45  C   UNL A   1      41.991  28.851  35.851  1.00  0.00     0.010 A 
ATOM     46  C   UNL A   1      41.598  28.701  34.532  1.00  0.00    -0.014 A 
BRANCH  46  47
ATOM     47  C   UNL A   1      41.440  29.920  33.758  1.00  0.00     0.031 A 
ATOM     48  C   UNL A   1      42.542  30.162  32.793  1.00  0.00     0.074 A 
ATOM     49  C   UNL A   1      40.300  30.645  33.779  1.00  0.00     0.049 A 
ATOM     50  N   UNL A   1      43.511  31.004  32.917  1.00  0.00    -0.248 NA
ATOM     51  C   UNL A   1      42.714  29.227  31.668  1.00  0.00     0.031 C 
ATOM     52  C   UNL A   1      39.016  30.345  34.429  1.00  0.00     0.029 A 
ATOM     53  N   UNL A   1      40.025  31.801  33.124  1.00  0.00    -0.354 N 
ATOM     54  C   UNL A   1      44.249  30.903  31.744  1.00  0.00     0.074 A 
ATOM     55  C   UNL A   1      43.869  29.650  31.147  1.00  0.00     0.031 C 
ATOM     56  C   UNL A   1      38.052  31.155  33.938  1.00  0.00     0.029 A 
ATOM     57  C   UNL A   1      38.677  32.149  33.090  1.00  0.00     0.049 A 
ATOM     58  H   UNL A   1      40.726  32.352  32.706  1.00  0.00     0.167 HD
ATOM     59  C   UNL A   1      44.885  31.993  31.228  1.00  0.00     0.037 A 
ATOM     60  C   UNL A   1      38.136  33.166  32.365  1.00  0.00     0.037 A 
ATOM     61  C   UNL A   1      44.984  33.043  32.219  1.00  0.00     0.049 A 
ATOM     62  C   UNL A   1      39.252  34.098  32.045  1.00  0.00     0.074 A 
ATOM     63  C   UNL A   1      45.501  33.110  33.502  1.00  0.00     0.029 A 
ATOM     64  N   UNL A   1      44.114  34.104  32.120  1.00  0.00    -0.354 N 
ATOM     65  N   UNL A   1      39.878  34.796  32.955  1.00  0.00    -0.248 NA
ATOM     66  C   UNL A   1      40.003  33.844  30.823  1.00  0.00     0.031 C 
ATOM     67  C   UNL A   1      44.533  33.848  34.246  1.00  0.00     0.029 A 
ATOM     68  C   UNL A   1      43.548  34.282  33.359  1.00  0.00     0.049 A 
ATOM     69  H   UNL A   1      43.931  34.637  31.312  1.00  0.00     0.167 HD
ATOM     70  C   UNL A   1      41.219  34.696  32.615  1.00  0.00     0.074 A 
ATOM     71  C   UNL A   1      41.230  34.139  31.261  1.00  0.00     0.031 C 
ATOM     72  C   UNL A   1      42.204  34.776  33.559  1.00  0.00     0.037 A 
BRANCH  59  73
ATOM     73  C   UNL A   1      45.053  32.260  29.749  1.00  0.00     0.058 A 
ATOM     74  C   UNL A   1      46.319  32.655  29.266  1.00  0.00     0.135 A 
ATOM     75  C   UNL A   1      43.984  32.411  28.838  1.00  0.00     0.135 A 
ATOM     76  F   UNL A   1      47.408  32.562  30.045  1.00  0.00    -0.206 F 
ATOM     77  C   UNL A   1      46.493  33.227  28.006  1.00  0.00     0.059 A 
ATOM     78  C   UNL A   1      44.145  32.927  27.557  1.00  0.00     0.059 A 
ATOM     79  F   UNL A   1      42.712  32.159  29.166  1.00  0.00    -0.206 F 
ATOM     80  C   UNL A   1      45.395  33.370  27.164  1.00  0.00     0.060 A 
BRANCH  80  81
ATOM     81  S   UNL A   1      45.598  34.183  25.572  1.00  0.00     0.124 S 
ATOM     82  O   UNL A   1      47.050  34.198  25.437  1.00  0.00    -0.237 OA
ATOM     83  O   UNL A   1      44.879  33.277  24.681  1.00  0.00    -0.237 OA
ATOM     84  O   UNL A   1      44.967  35.483  25.778  1.00  0.00    -0.744 OA
ENDBRANCH  80  81
ENDBRANCH  59  73
BRANCH  60  85
ATOM     85  C   UNL A   1      36.897  33.114  31.544  1.00  0.00     0.058 A 
ATOM     86  C   UNL A   1      35.851  34.043  31.721  1.00  0.00     0.135 A 
ATOM     87  C   UNL A   1      36.866  32.368  30.355  1.00  0.00     0.135 A 
ATOM     88  F   UNL A   1      35.829  34.827  32.808  1.00  0.00    -0.206 F 
ATOM     89  C   UNL A   1      34.850  34.241  30.758  1.00  0.00     0.059 A 
ATOM     90  C   UNL A   1      35.910  32.586  29.372  1.00  0.00     0.059 A 
ATOM     91  F   UNL A   1      37.823  31.477  30.060  1.00  0.00    -0.206 F 
ATOM     92  C   UNL A   1      34.901  33.514  29.571  1.00  0.00     0.060 A 
BRANCH  92  93
ATOM     93  S   UNL A   1      33.714  33.827  28.243  1.00  0.00     0.124 S 
ATOM     94  O   UNL A   1      32.644  34.522  28.948  1.00  0.00    -0.237 OA
ATOM     95  O   UNL A   1      34.499  34.628  27.313  1.00  0.00    -0.237 OA
ATOM     96  O   UNL A   1      33.376  32.481  27.777  1.00  0.00    -0.744 OA
ENDBRANCH  92  93
ENDBRANCH  60  85
BRANCH  72  97
ATOM     97  C   UNL A   1      41.839  35.221  34.955  1.00  0.00     0.058 A 
ATOM     98  C   UNL A   1      41.799  36.557  35.396  1.00  0.00     0.135 A 
ATOM     99  C   UNL A   1      41.365  34.246  35.844  1.00  0.00     0.135 A 
ATOM    100  F   UNL A   1      42.129  37.566  34.578  1.00  0.00    -0.206 F 
ATOM    101  C   UNL A   1      41.359  36.898  36.679  1.00  0.00     0.059 A 
ATOM    102  C   UNL A   1      40.892  34.565  37.113  1.00  0.00     0.059 A 
ATOM    103  F   UNL A   1      41.317  32.958  35.466  1.00  0.00    -0.206 F 
ATOM    104  C   UNL A   1      40.908  35.892  37.533  1.00  0.00     0.060 A 
BRANCH 104 105
ATOM    105  S   UNL A   1      40.309  36.327  39.180  1.00  0.00     0.124 S 
ATOM    106  O   UNL A   1      41.544  36.673  39.874  1.00  0.00    -0.237 OA
ATOM    107  O   UNL A   1      39.404  37.439  38.903  1.00  0.00    -0.237 OA
ATOM    108  O   UNL A   1      39.657  35.103  39.640  1.00  0.00    -0.744 OA
ENDBRANCH 104 105
ENDBRANCH  72  97
ENDBRANCH  46  47
ENDBRANCH  38  41
ENDBRANCH  36  37
ENDBRANCH  35  36
ENDBRANCH  34  35
ENDBRANCH   1  34
TORSDOF 21
ENDMDL
