MODEL 1
REMARK VINA RESULT:     -11.4      0.000      0.000
REMARK SMILES Cc1onc(-c2cccc(Br)c2)c1C(=O)NCCCCNC(=O)c1ccc(-c2c3nc(c(-c4c(F)cc(S(=O)(=O)[O-])cc4F)c4ccc([nH]4)c(-c4c(F)cc(S(=O)(=O)[O-])cc4F)c4nc(c(-c5c(F)cc(S(=O)(=O)[O-])cc5F)c5ccc2[nH]5)C=C4)C=C3)cc1
REMARK SMILES IDX 19 1 18 2 17 3 16 4 14 5 15 6 13 8 1 9 2 10 3 11 4 12 5 13
REMARK SMILES IDX 6 14 7 15 12 16 8 17 10 18 9 19 11 20 20 21 21 22 22 23
REMARK SMILES IDX 23 25 24 26 25 27 89 28 26 29 88 30 27 31 28 32 29 33 82 34
REMARK SMILES IDX 30 35 87 36 81 37 83 38 31 39 86 40 80 41 79 42 32 44 66 45
REMARK SMILES IDX 45 46 65 47 46 48 49 49 64 50 84 51 47 52 48 53 63 55 85 56
REMARK SMILES IDX 50 57 33 58 34 59 43 60 35 61 36 62 42 63 44 64 37 65 38 66
REMARK SMILES IDX 39 67 40 68 41 69 67 70 68 71 77 72 69 73 70 74 76 75 78 76
REMARK SMILES IDX 71 77 72 78 73 79 74 80 75 81 51 82 52 83 61 84 53 85 54 86
REMARK SMILES IDX 60 87 62 88 55 89 56 90 57 91 58 92 59 93
REMARK H PARENT 16 7 21 24 83 43 49 54
REMARK Flexibility Score: inf
ROOT
ATOM      1  C   UNL A   1      33.723  28.447  25.514  1.00  0.00     0.023 C 
ENDROOT
BRANCH   1   2
ATOM      2  C   UNL A   1      32.936  27.284  24.902  1.00  0.00     0.023 C 
BRANCH   2   3
ATOM      3  C   UNL A   1      33.770  26.317  24.060  1.00  0.00     0.116 C 
BRANCH   3   4
ATOM      4  N   UNL A   1      32.930  25.321  23.448  1.00  0.00    -0.352 N 
ATOM      5  C   UNL A   1      32.097  24.341  23.907  1.00  0.00     0.257 C 
ATOM      6  O   UNL A   1      31.567  23.701  22.993  1.00  0.00    -0.269 OA
ATOM      7  H   UNL A   1      32.964  25.354  22.465  1.00  0.00     0.163 HD
BRANCH   5   8
ATOM      8  C   UNL A   1      31.788  24.042  25.305  1.00  0.00     0.110 A 
ATOM      9  C   UNL A   1      29.574  25.261  26.223  1.00  0.00     0.092 C 
ATOM     10  C   UNL A   1      30.773  24.403  26.184  1.00  0.00     0.147 A 
ATOM     11  O   UNL A   1      30.959  23.779  27.377  1.00  0.00    -0.360 OA
ATOM     12  N   UNL A   1      32.102  23.039  27.360  1.00  0.00    -0.079 NA
ATOM     13  C   UNL A   1      32.635  23.212  26.146  1.00  0.00     0.126 A 
BRANCH  13  14
ATOM     14  C   UNL A   1      33.915  22.575  25.854  1.00  0.00     0.006 A 
ATOM     15  C   UNL A   1      33.961  21.282  25.314  1.00  0.00     0.010 A 
ATOM     16  C   UNL A   1      35.109  23.273  26.071  1.00  0.00     0.026 A 
ATOM     17  C   UNL A   1      35.187  20.678  25.029  1.00  0.00     0.002 A 
ATOM     18  C   UNL A   1      36.330  22.666  25.777  1.00  0.00     0.018 A 
ATOM     19  C   UNL A   1      36.375  21.370  25.264  1.00  0.00     0.016 A 
ATOM     20  Br  UNL A   1      37.941  23.609  26.078  1.00  0.00    -0.051 Br
ENDBRANCH  13  14
ENDBRANCH   5   8
ENDBRANCH   3   4
ENDBRANCH   2   3
ENDBRANCH   1   2
BRANCH   1  21
ATOM     21  C   UNL A   1      33.723  28.500  27.039  1.00  0.00     0.116 C 
BRANCH  21  22
ATOM     22  N   UNL A   1      33.590  29.847  27.573  1.00  0.00    -0.352 N 
ATOM     23  C   UNL A   1      34.535  30.595  28.235  1.00  0.00     0.251 C 
ATOM     24  H   UNL A   1      32.713  30.277  27.445  1.00  0.00     0.163 HD
ATOM     25  O   UNL A   1      34.239  31.689  28.705  1.00  0.00    -0.269 OA
BRANCH  23  26
ATOM     26  C   UNL A   1      35.892  30.042  28.411  1.00  0.00     0.039 A 
ATOM     27  C   UNL A   1      36.795  30.125  27.349  1.00  0.00     0.014 A 
ATOM     28  C   UNL A   1      36.285  29.499  29.636  1.00  0.00     0.014 A 
ATOM     29  C   UNL A   1      38.120  29.730  27.540  1.00  0.00     0.010 A 
ATOM     30  C   UNL A   1      37.620  29.165  29.844  1.00  0.00     0.010 A 
ATOM     31  C   UNL A   1      38.550  29.284  28.800  1.00  0.00    -0.014 A 
BRANCH  31  32
ATOM     32  C   UNL A   1      39.974  28.949  29.053  1.00  0.00     0.031 A 
ATOM     33  C   UNL A   1      40.904  29.990  29.609  1.00  0.00     0.074 A 
ATOM     34  C   UNL A   1      40.442  27.734  28.706  1.00  0.00     0.049 A 
ATOM     35  N   UNL A   1      42.192  29.919  29.816  1.00  0.00    -0.248 NA
ATOM     36  C   UNL A   1      40.311  31.294  29.949  1.00  0.00     0.031 C 
ATOM     37  C   UNL A   1      39.647  26.659  28.105  1.00  0.00     0.029 A 
ATOM     38  N   UNL A   1      41.703  27.201  28.796  1.00  0.00    -0.354 N 
ATOM     39  C   UNL A   1      42.569  31.169  30.291  1.00  0.00     0.074 A 
ATOM     40  C   UNL A   1      41.380  31.995  30.297  1.00  0.00     0.031 C 
ATOM     41  C   UNL A   1      40.437  25.592  27.898  1.00  0.00     0.029 A 
ATOM     42  C   UNL A   1      41.796  25.915  28.319  1.00  0.00     0.049 A 
ATOM     43  H   UNL A   1      42.470  27.694  29.167  1.00  0.00     0.167 HD
ATOM     44  C   UNL A   1      43.789  31.584  30.706  1.00  0.00     0.037 A 
ATOM     45  C   UNL A   1      42.857  25.090  28.229  1.00  0.00     0.037 A 
ATOM     46  C   UNL A   1      44.959  30.746  30.730  1.00  0.00     0.049 A 
ATOM     47  C   UNL A   1      44.196  25.565  28.721  1.00  0.00     0.074 A 
ATOM     48  C   UNL A   1      46.229  31.054  31.189  1.00  0.00     0.029 A 
ATOM     49  N   UNL A   1      45.003  29.435  30.280  1.00  0.00    -0.354 N 
ATOM     50  N   UNL A   1      44.522  26.732  29.224  1.00  0.00    -0.248 NA
ATOM     51  C   UNL A   1      45.311  24.610  28.642  1.00  0.00     0.031 C 
ATOM     52  C   UNL A   1      47.048  29.937  30.990  1.00  0.00     0.029 A 
ATOM     53  C   UNL A   1      46.279  28.922  30.442  1.00  0.00     0.049 A 
ATOM     54  H   UNL A   1      44.239  28.942  29.903  1.00  0.00     0.167 HD
ATOM     55  C   UNL A   1      45.872  26.643  29.547  1.00  0.00     0.074 A 
ATOM     56  C   UNL A   1      46.299  25.306  29.189  1.00  0.00     0.031 C 
ATOM     57  C   UNL A   1      46.682  27.583  30.093  1.00  0.00     0.037 A 
BRANCH  44  58
ATOM     58  C   UNL A   1      43.915  33.006  31.178  1.00  0.00     0.058 A 
ATOM     59  C   UNL A   1      44.201  34.052  30.286  1.00  0.00     0.135 A 
ATOM     60  C   UNL A   1      43.724  33.330  32.530  1.00  0.00     0.135 A 
ATOM     61  F   UNL A   1      44.410  33.793  28.985  1.00  0.00    -0.206 F 
ATOM     62  C   UNL A   1      44.325  35.365  30.723  1.00  0.00     0.059 A 
ATOM     63  C   UNL A   1      43.818  34.642  32.985  1.00  0.00     0.059 A 
ATOM     64  F   UNL A   1      43.449  32.368  33.424  1.00  0.00    -0.206 F 
ATOM     65  C   UNL A   1      44.136  35.651  32.076  1.00  0.00     0.060 A 
BRANCH  65  66
ATOM     66  S   UNL A   1      44.302  37.361  32.630  1.00  0.00     0.124 S 
ATOM     67  O   UNL A   1      43.162  37.484  33.533  1.00  0.00    -0.237 OA
ATOM     68  O   UNL A   1      45.616  37.360  33.265  1.00  0.00    -0.237 OA
ATOM     69  O   UNL A   1      44.209  38.129  31.392  1.00  0.00    -0.744 OA
ENDBRANCH  65  66
ENDBRANCH  44  58
BRANCH  45  70
ATOM     70  C   UNL A   1      42.688  23.721  27.678  1.00  0.00     0.058 A 
ATOM     71  C   UNL A   1      42.451  22.630  28.527  1.00  0.00     0.135 A 
ATOM     72  C   UNL A   1      42.742  23.476  26.297  1.00  0.00     0.135 A 
ATOM     73  F   UNL A   1      42.394  22.814  29.855  1.00  0.00    -0.206 F 
ATOM     74  C   UNL A   1      42.288  21.341  28.030  1.00  0.00     0.059 A 
ATOM     75  C   UNL A   1      42.561  22.199  25.775  1.00  0.00     0.059 A 
ATOM     76  F   UNL A   1      42.949  24.490  25.443  1.00  0.00    -0.206 F 
ATOM     77  C   UNL A   1      42.344  21.136  26.651  1.00  0.00     0.060 A 
BRANCH  77  78
ATOM     78  S   UNL A   1      42.081  19.468  26.010  1.00  0.00     0.124 S 
ATOM     79  O   UNL A   1      42.904  19.483  24.806  1.00  0.00    -0.237 OA
ATOM     80  O   UNL A   1      42.568  18.637  27.106  1.00  0.00    -0.237 OA
ATOM     81  O   UNL A   1      40.638  19.419  25.790  1.00  0.00    -0.744 OA
ENDBRANCH  77  78
ENDBRANCH  45  70
BRANCH  57  82
ATOM     82  C   UNL A   1      48.105  27.191  30.374  1.00  0.00     0.058 A 
ATOM     83  C   UNL A   1      49.143  27.505  29.485  1.00  0.00     0.135 A 
ATOM     84  C   UNL A   1      48.437  26.545  31.576  1.00  0.00     0.135 A 
ATOM     85  F   UNL A   1      48.875  28.115  28.320  1.00  0.00    -0.206 F 
ATOM     86  C   UNL A   1      50.465  27.180  29.772  1.00  0.00     0.059 A 
ATOM     87  C   UNL A   1      49.754  26.231  31.893  1.00  0.00     0.059 A 
ATOM     88  F   UNL A   1      47.479  26.230  32.462  1.00  0.00    -0.206 F 
ATOM     89  C   UNL A   1      50.761  26.545  30.980  1.00  0.00     0.060 A 
BRANCH  89  90
ATOM     90  S   UNL A   1      52.484  26.167  31.364  1.00  0.00     0.124 S 
ATOM     91  O   UNL A   1      53.089  26.181  30.036  1.00  0.00    -0.237 OA
ATOM     92  O   UNL A   1      52.860  27.270  32.243  1.00  0.00    -0.237 OA
ATOM     93  O   UNL A   1      52.409  24.859  32.006  1.00  0.00    -0.744 OA
ENDBRANCH  89  90
ENDBRANCH  57  82
ENDBRANCH  31  32
ENDBRANCH  23  26
ENDBRANCH  21  22
ENDBRANCH   1  21
TORSDOF 15
ENDMDL
MODEL 2
REMARK VINA RESULT:     -11.2      3.241      4.838
REMARK SMILES Cc1onc(-c2cccc(Br)c2)c1C(=O)NCCCCNC(=O)c1ccc(-c2c3nc(c(-c4c(F)cc(S(=O)(=O)[O-])cc4F)c4ccc([nH]4)c(-c4c(F)cc(S(=O)(=O)[O-])cc4F)c4nc(c(-c5c(F)cc(S(=O)(=O)[O-])cc5F)c5ccc2[nH]5)C=C4)C=C3)cc1
REMARK SMILES IDX 19 1 18 2 17 3 16 4 14 5 15 6 13 8 1 9 2 10 3 11 4 12 5 13
REMARK SMILES IDX 6 14 7 15 12 16 8 17 10 18 9 19 11 20 20 21 21 22 22 23
REMARK SMILES IDX 23 25 24 26 25 27 89 28 26 29 88 30 27 31 28 32 29 33 82 34
REMARK SMILES IDX 30 35 87 36 81 37 83 38 31 39 86 40 80 41 79 42 32 44 66 45
REMARK SMILES IDX 45 46 65 47 46 48 49 49 64 50 84 51 47 52 48 53 63 55 85 56
REMARK SMILES IDX 50 57 33 58 34 59 43 60 35 61 36 62 42 63 44 64 37 65 38 66
REMARK SMILES IDX 39 67 40 68 41 69 67 70 68 71 77 72 69 73 70 74 76 75 78 76
REMARK SMILES IDX 71 77 72 78 73 79 74 80 75 81 51 82 52 83 61 84 53 85 54 86
REMARK SMILES IDX 60 87 62 88 55 89 56 90 57 91 58 92 59 93
REMARK H PARENT 16 7 21 24 83 43 49 54
REMARK Flexibility Score: inf
ROOT
ATOM      1  C   UNL A   1      34.142  29.970  27.427  1.00  0.00     0.023 C 
ENDROOT
BRANCH   1   2
ATOM      2  C   UNL A   1      33.300  28.729  27.114  1.00  0.00     0.023 C 
BRANCH   2   3
ATOM      3  C   UNL A   1      31.788  28.937  27.210  1.00  0.00     0.116 C 
BRANCH   3   4
ATOM      4  N   UNL A   1      31.092  27.686  27.056  1.00  0.00    -0.352 N 
ATOM      5  C   UNL A   1      30.982  26.754  26.064  1.00  0.00     0.257 C 
ATOM      6  O   UNL A   1      30.250  25.811  26.377  1.00  0.00    -0.269 OA
ATOM      7  H   UNL A   1      30.571  27.446  27.855  1.00  0.00     0.163 HD
BRANCH   5   8
ATOM      8  C   UNL A   1      31.652  26.780  24.764  1.00  0.00     0.110 A 
ATOM      9  C   UNL A   1      34.075  25.614  24.755  1.00  0.00     0.092 C 
ATOM     10  C   UNL A   1      32.863  26.302  24.275  1.00  0.00     0.147 A 
ATOM     11  O   UNL A   1      32.954  26.568  22.944  1.00  0.00    -0.360 OA
ATOM     12  N   UNL A   1      31.863  27.262  22.516  1.00  0.00    -0.079 NA
ATOM     13  C   UNL A   1      31.090  27.434  23.594  1.00  0.00     0.126 A 
BRANCH  13  14
ATOM     14  C   UNL A   1      29.860  28.206  23.447  1.00  0.00     0.006 A 
ATOM     15  C   UNL A   1      28.617  27.561  23.381  1.00  0.00     0.010 A 
ATOM     16  C   UNL A   1      29.912  29.605  23.417  1.00  0.00     0.026 A 
ATOM     17  C   UNL A   1      27.442  28.303  23.248  1.00  0.00     0.002 A 
ATOM     18  C   UNL A   1      28.733  30.339  23.292  1.00  0.00     0.018 A 
ATOM     19  C   UNL A   1      27.500  29.695  23.201  1.00  0.00     0.016 A 
ATOM     20  Br  UNL A   1      28.807  32.229  23.245  1.00  0.00    -0.051 Br
ENDBRANCH  13  14
ENDBRANCH   5   8
ENDBRANCH   3   4
ENDBRANCH   2   3
ENDBRANCH   1   2
BRANCH   1  21
ATOM     21  C   UNL A   1      35.348  29.727  28.328  1.00  0.00     0.116 C 
BRANCH  21  22
ATOM     22  N   UNL A   1      35.498  30.722  29.380  1.00  0.00    -0.352 N 
ATOM     23  C   UNL A   1      36.635  31.057  30.075  1.00  0.00     0.251 C 
ATOM     24  H   UNL A   1      34.682  31.215  29.625  1.00  0.00     0.163 HD
ATOM     25  O   UNL A   1      36.578  31.860  31.001  1.00  0.00    -0.269 OA
BRANCH  23  26
ATOM     26  C   UNL A   1      37.910  30.404  29.722  1.00  0.00     0.039 A 
ATOM     27  C   UNL A   1      38.227  30.233  28.373  1.00  0.00     0.014 A 
ATOM     28  C   UNL A   1      38.810  30.017  30.718  1.00  0.00     0.014 A 
ATOM     29  C   UNL A   1      39.484  29.739  28.019  1.00  0.00     0.010 A 
ATOM     30  C   UNL A   1      40.085  29.585  30.362  1.00  0.00     0.010 A 
ATOM     31  C   UNL A   1      40.435  29.449  29.011  1.00  0.00    -0.014 A 
BRANCH  31  32
ATOM     32  C   UNL A   1      41.809  29.015  28.656  1.00  0.00     0.031 A 
ATOM     33  C   UNL A   1      42.925  30.020  28.602  1.00  0.00     0.074 A 
ATOM     34  C   UNL A   1      42.030  27.733  28.305  1.00  0.00     0.049 A 
ATOM     35  N   UNL A   1      44.167  29.854  28.230  1.00  0.00    -0.248 NA
ATOM     36  C   UNL A   1      42.592  31.400  28.989  1.00  0.00     0.031 C 
ATOM     37  C   UNL A   1      41.014  26.678  28.264  1.00  0.00     0.029 A 
ATOM     38  N   UNL A   1      43.179  27.100  27.903  1.00  0.00    -0.354 N 
ATOM     39  C   UNL A   1      44.759  31.107  28.319  1.00  0.00     0.074 A 
ATOM     40  C   UNL A   1      43.728  32.034  28.735  1.00  0.00     0.031 C 
ATOM     41  C   UNL A   1      41.590  25.527  27.876  1.00  0.00     0.029 A 
ATOM     42  C   UNL A   1      43.004  25.768  27.611  1.00  0.00     0.049 A 
ATOM     43  H   UNL A   1      44.048  27.557  27.830  1.00  0.00     0.167 HD
ATOM     44  C   UNL A   1      46.050  31.451  28.097  1.00  0.00     0.037 A 
ATOM     45  C   UNL A   1      43.884  24.845  27.175  1.00  0.00     0.037 A 
ATOM     46  C   UNL A   1      47.078  30.518  27.717  1.00  0.00     0.049 A 
ATOM     47  C   UNL A   1      45.318  25.245  26.962  1.00  0.00     0.074 A 
ATOM     48  C   UNL A   1      48.428  30.755  27.526  1.00  0.00     0.029 A 
ATOM     49  N   UNL A   1      46.870  29.168  27.474  1.00  0.00    -0.354 N 
ATOM     50  N   UNL A   1      45.874  26.424  27.110  1.00  0.00    -0.248 NA
ATOM     51  C   UNL A   1      46.246  24.190  26.530  1.00  0.00     0.031 C 
ATOM     52  C   UNL A   1      49.032  29.554  27.140  1.00  0.00     0.029 A 
ATOM     53  C   UNL A   1      48.065  28.561  27.127  1.00  0.00     0.049 A 
ATOM     54  H   UNL A   1      46.001  28.710  27.540  1.00  0.00     0.167 HD
ATOM     55  C   UNL A   1      47.222  26.247  26.816  1.00  0.00     0.074 A 
ATOM     56  C   UNL A   1      47.398  24.847  26.490  1.00  0.00     0.031 C 
ATOM     57  C   UNL A   1      48.222  27.162  26.819  1.00  0.00     0.037 A 
BRANCH  44  58
ATOM     58  C   UNL A   1      46.422  32.897  28.270  1.00  0.00     0.058 A 
ATOM     59  C   UNL A   1      46.857  33.399  29.507  1.00  0.00     0.135 A 
ATOM     60  C   UNL A   1      46.368  33.785  27.183  1.00  0.00     0.135 A 
ATOM     61  F   UNL A   1      46.910  32.596  30.581  1.00  0.00    -0.206 F 
ATOM     62  C   UNL A   1      47.195  34.738  29.669  1.00  0.00     0.059 A 
ATOM     63  C   UNL A   1      46.727  35.123  27.318  1.00  0.00     0.059 A 
ATOM     64  F   UNL A   1      45.959  33.356  25.979  1.00  0.00    -0.206 F 
ATOM     65  C   UNL A   1      47.122  35.594  28.569  1.00  0.00     0.060 A 
BRANCH  65  66
ATOM     66  S   UNL A   1      47.562  37.330  28.796  1.00  0.00     0.124 S 
ATOM     67  O   UNL A   1      48.618  37.493  27.802  1.00  0.00    -0.237 OA
ATOM     68  O   UNL A   1      46.306  38.013  28.502  1.00  0.00    -0.237 OA
ATOM     69  O   UNL A   1      47.994  37.392  30.188  1.00  0.00    -0.744 OA
ENDBRANCH  65  66
ENDBRANCH  44  58
BRANCH  45  70
ATOM     70  C   UNL A   1      43.439  23.447  26.945  1.00  0.00     0.058 A 
ATOM     71  C   UNL A   1      43.275  22.951  25.643  1.00  0.00     0.135 A 
ATOM     72  C   UNL A   1      43.185  22.575  28.015  1.00  0.00     0.135 A 
ATOM     73  F   UNL A   1      43.503  23.748  24.589  1.00  0.00    -0.206 F 
ATOM     74  C   UNL A   1      42.860  21.645  25.408  1.00  0.00     0.059 A 
ATOM     75  C   UNL A   1      42.789  21.257  27.804  1.00  0.00     0.059 A 
ATOM     76  F   UNL A   1      43.345  22.997  29.278  1.00  0.00    -0.206 F 
ATOM     77  C   UNL A   1      42.620  20.805  26.496  1.00  0.00     0.060 A 
BRANCH  77  78
ATOM     78  S   UNL A   1      42.131  19.094  26.181  1.00  0.00     0.124 S 
ATOM     79  O   UNL A   1      42.405  18.469  27.470  1.00  0.00    -0.237 OA
ATOM     80  O   UNL A   1      40.722  19.237  25.828  1.00  0.00    -0.237 OA
ATOM     81  O   UNL A   1      43.007  18.694  25.084  1.00  0.00    -0.744 OA
ENDBRANCH  77  78
ENDBRANCH  45  70
BRANCH  57  82
ATOM     82  C   UNL A   1      49.607  26.673  26.497  1.00  0.00     0.058 A 
ATOM     83  C   UNL A   1      50.415  26.062  27.467  1.00  0.00     0.135 A 
ATOM     84  C   UNL A   1      50.104  26.766  25.186  1.00  0.00     0.135 A 
ATOM     85  F   UNL A   1      49.988  25.956  28.734  1.00  0.00    -0.206 F 
ATOM     86  C   UNL A   1      51.677  25.571  27.152  1.00  0.00     0.059 A 
ATOM     87  C   UNL A   1      51.353  26.262  24.845  1.00  0.00     0.059 A 
ATOM     88  F   UNL A   1      49.364  27.336  24.221  1.00  0.00    -0.206 F 
ATOM     89  C   UNL A   1      52.137  25.673  25.837  1.00  0.00     0.060 A 
BRANCH  89  90
ATOM     90  S   UNL A   1      53.759  24.992  25.428  1.00  0.00     0.124 S 
ATOM     91  O   UNL A   1      54.535  25.356  26.609  1.00  0.00    -0.237 OA
ATOM     92  O   UNL A   1      53.472  23.569  25.271  1.00  0.00    -0.237 OA
ATOM     93  O   UNL A   1      54.120  25.692  24.199  1.00  0.00    -0.744 OA
ENDBRANCH  89  90
ENDBRANCH  57  82
ENDBRANCH  31  32
ENDBRANCH  23  26
ENDBRANCH  21  22
ENDBRANCH   1  21
TORSDOF 15
ENDMDL
MODEL 3
REMARK VINA RESULT:     -11.2      1.665      2.551
REMARK SMILES Cc1onc(-c2cccc(Br)c2)c1C(=O)NCCCCNC(=O)c1ccc(-c2c3nc(c(-c4c(F)cc(S(=O)(=O)[O-])cc4F)c4ccc([nH]4)c(-c4c(F)cc(S(=O)(=O)[O-])cc4F)c4nc(c(-c5c(F)cc(S(=O)(=O)[O-])cc5F)c5ccc2[nH]5)C=C4)C=C3)cc1
REMARK SMILES IDX 19 1 18 2 17 3 16 4 14 5 15 6 13 8 1 9 2 10 3 11 4 12 5 13
REMARK SMILES IDX 6 14 7 15 12 16 8 17 10 18 9 19 11 20 20 21 21 22 22 23
REMARK SMILES IDX 23 25 24 26 25 27 89 28 26 29 88 30 27 31 28 32 29 33 82 34
REMARK SMILES IDX 30 35 87 36 81 37 83 38 31 39 86 40 80 41 79 42 32 44 66 45
REMARK SMILES IDX 45 46 65 47 46 48 49 49 64 50 84 51 47 52 48 53 63 55 85 56
REMARK SMILES IDX 50 57 33 58 34 59 43 60 35 61 36 62 42 63 44 64 37 65 38 66
REMARK SMILES IDX 39 67 40 68 41 69 67 70 68 71 77 72 69 73 70 74 76 75 78 76
REMARK SMILES IDX 71 77 72 78 73 79 74 80 75 81 51 82 52 83 61 84 53 85 54 86
REMARK SMILES IDX 60 87 62 88 55 89 56 90 57 91 58 92 59 93
REMARK H PARENT 16 7 21 24 83 43 49 54
REMARK Flexibility Score: inf
ROOT
ATOM      1  C   UNL A   1      32.879  28.212  25.890  1.00  0.00     0.023 C 
ENDROOT
BRANCH   1   2
ATOM      2  C   UNL A   1      33.792  27.537  24.861  1.00  0.00     0.023 C 
BRANCH   2   3
ATOM      3  C   UNL A   1      33.836  28.221  23.494  1.00  0.00     0.116 C 
BRANCH   3   4
ATOM      4  N   UNL A   1      33.388  27.324  22.461  1.00  0.00    -0.352 N 
ATOM      5  C   UNL A   1      32.180  26.817  22.074  1.00  0.00     0.257 C 
ATOM      6  O   UNL A   1      32.273  26.054  21.108  1.00  0.00    -0.269 OA
ATOM      7  H   UNL A   1      34.128  26.998  21.902  1.00  0.00     0.163 HD
BRANCH   5   8
ATOM      8  C   UNL A   1      30.876  27.122  22.663  1.00  0.00     0.110 A 
ATOM      9  C   UNL A   1      29.877  29.510  21.936  1.00  0.00     0.092 C 
ATOM     10  C   UNL A   1      29.983  28.184  22.572  1.00  0.00     0.147 A 
ATOM     11  O   UNL A   1      28.874  27.912  23.310  1.00  0.00    -0.360 OA
ATOM     12  N   UNL A   1      29.003  26.716  23.949  1.00  0.00    -0.079 NA
ATOM     13  C   UNL A   1      30.207  26.245  23.609  1.00  0.00     0.126 A 
BRANCH  13  14
ATOM     14  C   UNL A   1      30.649  24.985  24.198  1.00  0.00     0.006 A 
ATOM     15  C   UNL A   1      30.587  24.785  25.585  1.00  0.00     0.010 A 
ATOM     16  C   UNL A   1      31.098  23.946  23.373  1.00  0.00     0.026 A 
ATOM     17  C   UNL A   1      31.005  23.577  26.144  1.00  0.00     0.002 A 
ATOM     18  C   UNL A   1      31.506  22.739  23.939  1.00  0.00     0.018 A 
ATOM     19  C   UNL A   1      31.468  22.551  25.320  1.00  0.00     0.016 A 
ATOM     20  Br  UNL A   1      32.118  21.341  22.822  1.00  0.00    -0.051 Br
ENDBRANCH  13  14
ENDBRANCH   5   8
ENDBRANCH   3   4
ENDBRANCH   2   3
ENDBRANCH   1   2
BRANCH   1  21
ATOM     21  C   UNL A   1      33.520  28.483  27.247  1.00  0.00     0.116 C 
BRANCH  21  22
ATOM     22  N   UNL A   1      33.423  29.874  27.668  1.00  0.00    -0.352 N 
ATOM     23  C   UNL A   1      34.400  30.658  28.234  1.00  0.00     0.251 C 
ATOM     24  H   UNL A   1      32.549  30.306  27.530  1.00  0.00     0.163 HD
ATOM     25  O   UNL A   1      34.134  31.794  28.617  1.00  0.00    -0.269 OA
BRANCH  23  26
ATOM     26  C   UNL A   1      35.753  30.099  28.416  1.00  0.00     0.039 A 
ATOM     27  C   UNL A   1      36.625  30.078  27.325  1.00  0.00     0.014 A 
ATOM     28  C   UNL A   1      36.176  29.654  29.670  1.00  0.00     0.014 A 
ATOM     29  C   UNL A   1      37.949  29.678  27.509  1.00  0.00     0.010 A 
ATOM     30  C   UNL A   1      37.511  29.316  29.866  1.00  0.00     0.010 A 
ATOM     31  C   UNL A   1      38.410  29.331  28.789  1.00  0.00    -0.014 A 
BRANCH  31  32
ATOM     32  C   UNL A   1      39.836  28.994  29.028  1.00  0.00     0.031 A 
ATOM     33  C   UNL A   1      40.778  30.040  29.554  1.00  0.00     0.074 A 
ATOM     34  C   UNL A   1      40.294  27.772  28.694  1.00  0.00     0.049 A 
ATOM     35  N   UNL A   1      42.069  29.967  29.744  1.00  0.00    -0.248 NA
ATOM     36  C   UNL A   1      40.195  31.352  29.881  1.00  0.00     0.031 C 
ATOM     37  C   UNL A   1      39.487  26.691  28.121  1.00  0.00     0.029 A 
ATOM     38  N   UNL A   1      41.554  27.235  28.774  1.00  0.00    -0.354 N 
ATOM     39  C   UNL A   1      42.457  31.222  30.193  1.00  0.00     0.074 A 
ATOM     40  C   UNL A   1      41.272  32.054  30.203  1.00  0.00     0.031 C 
ATOM     41  C   UNL A   1      40.269  25.617  27.920  1.00  0.00     0.029 A 
ATOM     42  C   UNL A   1      41.635  25.941  28.317  1.00  0.00     0.049 A 
ATOM     43  H   UNL A   1      42.329  27.731  29.127  1.00  0.00     0.167 HD
ATOM     44  C   UNL A   1      43.685  31.639  30.585  1.00  0.00     0.037 A 
ATOM     45  C   UNL A   1      42.693  25.110  28.225  1.00  0.00     0.037 A 
ATOM     46  C   UNL A   1      44.852  30.797  30.606  1.00  0.00     0.049 A 
ATOM     47  C   UNL A   1      44.040  25.587  28.691  1.00  0.00     0.074 A 
ATOM     48  C   UNL A   1      46.129  31.106  31.042  1.00  0.00     0.029 A 
ATOM     49  N   UNL A   1      44.884  29.478  30.177  1.00  0.00    -0.354 N 
ATOM     50  N   UNL A   1      44.377  26.761  29.171  1.00  0.00    -0.248 NA
ATOM     51  C   UNL A   1      45.150  24.627  28.612  1.00  0.00     0.031 C 
ATOM     52  C   UNL A   1      46.940  29.983  30.849  1.00  0.00     0.029 A 
ATOM     53  C   UNL A   1      46.160  28.963  30.328  1.00  0.00     0.049 A 
ATOM     54  H   UNL A   1      44.113  28.983  29.818  1.00  0.00     0.167 HD
ATOM     55  C   UNL A   1      45.731  26.671  29.477  1.00  0.00     0.074 A 
ATOM     56  C   UNL A   1      46.148  25.327  29.134  1.00  0.00     0.031 C 
ATOM     57  C   UNL A   1      46.552  27.617  29.995  1.00  0.00     0.037 A 
BRANCH  44  58
ATOM     58  C   UNL A   1      43.823  33.068  31.032  1.00  0.00     0.058 A 
ATOM     59  C   UNL A   1      43.660  33.434  32.377  1.00  0.00     0.135 A 
ATOM     60  C   UNL A   1      44.146  34.077  30.111  1.00  0.00     0.135 A 
ATOM     61  F   UNL A   1      43.334  32.510  33.295  1.00  0.00    -0.206 F 
ATOM     62  C   UNL A   1      43.780  34.756  32.790  1.00  0.00     0.059 A 
ATOM     63  C   UNL A   1      44.296  35.403  30.507  1.00  0.00     0.059 A 
ATOM     64  F   UNL A   1      44.312  33.781  28.813  1.00  0.00    -0.206 F 
ATOM     65  C   UNL A   1      44.095  35.736  31.846  1.00  0.00     0.060 A 
BRANCH  65  66
ATOM     66  S   UNL A   1      44.246  37.448  32.396  1.00  0.00     0.124 S 
ATOM     67  O   UNL A   1      45.659  37.512  32.756  1.00  0.00    -0.237 OA
ATOM     68  O   UNL A   1      43.862  38.196  31.204  1.00  0.00    -0.237 OA
ATOM     69  O   UNL A   1      43.309  37.529  33.513  1.00  0.00    -0.744 OA
ENDBRANCH  65  66
ENDBRANCH  44  58
BRANCH  45  70
ATOM     70  C   UNL A   1      42.509  23.733  27.699  1.00  0.00     0.058 A 
ATOM     71  C   UNL A   1      42.461  23.492  26.319  1.00  0.00     0.135 A 
ATOM     72  C   UNL A   1      42.396  22.631  28.561  1.00  0.00     0.135 A 
ATOM     73  F   UNL A   1      42.561  24.515  25.456  1.00  0.00    -0.206 F 
ATOM     74  C   UNL A   1      42.291  22.210  25.808  1.00  0.00     0.059 A 
ATOM     75  C   UNL A   1      42.247  21.336  28.073  1.00  0.00     0.059 A 
ATOM     76  F   UNL A   1      42.454  22.808  29.889  1.00  0.00    -0.206 F 
ATOM     77  C   UNL A   1      42.186  21.137  26.694  1.00  0.00     0.060 A 
BRANCH  77  78
ATOM     78  S   UNL A   1      42.017  19.469  26.023  1.00  0.00     0.124 S 
ATOM     79  O   UNL A   1      40.587  19.407  25.747  1.00  0.00    -0.237 OA
ATOM     80  O   UNL A   1      42.892  19.518  24.855  1.00  0.00    -0.237 OA
ATOM     81  O   UNL A   1      42.489  18.621  27.114  1.00  0.00    -0.744 OA
ENDBRANCH  77  78
ENDBRANCH  45  70
BRANCH  57  82
ATOM     82  C   UNL A   1      47.978  27.223  30.263  1.00  0.00     0.058 A 
ATOM     83  C   UNL A   1      49.004  27.510  29.350  1.00  0.00     0.135 A 
ATOM     84  C   UNL A   1      48.326  26.604  31.475  1.00  0.00     0.135 A 
ATOM     85  F   UNL A   1      48.720  28.093  28.175  1.00  0.00    -0.206 F 
ATOM     86  C   UNL A   1      50.328  27.184  29.624  1.00  0.00     0.059 A 
ATOM     87  C   UNL A   1      49.646  26.290  31.778  1.00  0.00     0.059 A 
ATOM     88  F   UNL A   1      47.381  26.317  32.384  1.00  0.00    -0.206 F 
ATOM     89  C   UNL A   1      50.639  26.576  30.842  1.00  0.00     0.060 A 
BRANCH  89  90
ATOM     90  S   UNL A   1      52.367  26.197  31.207  1.00  0.00     0.124 S 
ATOM     91  O   UNL A   1      52.935  26.101  29.866  1.00  0.00    -0.237 OA
ATOM     92  O   UNL A   1      52.785  27.357  31.990  1.00  0.00    -0.237 OA
ATOM     93  O   UNL A   1      52.289  24.942  31.948  1.00  0.00    -0.744 OA
ENDBRANCH  89  90
ENDBRANCH  57  82
ENDBRANCH  31  32
ENDBRANCH  23  26
ENDBRANCH  21  22
ENDBRANCH   1  21
TORSDOF 15
ENDMDL
