MODEL 1
REMARK VINA RESULT:     -11.8      0.000      0.000
REMARK SMILES COC(=O)c1cc(F)cc(-c2ccc(C(=O)NCCCCNC(=O)c3ccc(-c4c5nc(c(-c6c(F)cc(S(=O)(=O)[O-])cc6F)c6ccc([nH]6)c(-c6c(F)cc(S(=O)(=O)[O-])cc6F)c6nc(c(-c7c(F)cc(S(=O)(=O)[O-])cc7F)c7ccc4[nH]7)C=C6)C=C5)cc3)cc2C)c1
REMARK SMILES IDX 19 1 18 2 17 3 15 4 16 5 14 7 11 8 12 9 92 10 13 11 91 12
REMARK SMILES IDX 93 13 10 14 5 15 6 16 94 17 7 18 8 19 9 20 3 21 4 22 2 23
REMARK SMILES IDX 1 24 20 25 21 26 22 27 23 28 24 30 25 31 26 32 90 33 27 34
REMARK SMILES IDX 89 35 28 36 29 37 30 38 83 39 31 40 88 41 82 42 84 43 32 44
REMARK SMILES IDX 87 45 81 46 80 47 33 49 67 50 46 51 66 52 47 53 50 54 65 55
REMARK SMILES IDX 85 56 48 57 49 58 64 60 86 61 51 62 34 63 35 64 44 65 36 66
REMARK SMILES IDX 37 67 43 68 45 69 38 70 39 71 40 72 41 73 42 74 68 75 69 76
REMARK SMILES IDX 78 77 70 78 71 79 77 80 79 81 72 82 73 83 74 84 75 85 76 86
REMARK SMILES IDX 52 87 53 88 62 89 54 90 55 91 61 92 63 93 56 94 57 95 58 96
REMARK SMILES IDX 59 97 60 98
REMARK H PARENT 17 6 22 29 84 48 50 59
REMARK Flexibility Score: inf
ROOT
ATOM      1  C   UNL A   1      33.945  28.021  24.460  1.00  0.00     0.023 C 
ENDROOT
BRANCH   1   2
ATOM      2  C   UNL A   1      33.706  28.664  23.096  1.00  0.00     0.116 C 
BRANCH   2   3
ATOM      3  N   UNL A   1      32.373  28.428  22.569  1.00  0.00    -0.352 N 
ATOM      4  C   UNL A   1      31.620  27.287  22.400  1.00  0.00     0.251 C 
ATOM      5  O   UNL A   1      30.535  27.404  21.829  1.00  0.00    -0.269 OA
ATOM      6  H   UNL A   1      31.916  29.248  22.273  1.00  0.00     0.163 HD
BRANCH   4   7
ATOM      7  C   UNL A   1      32.051  25.927  22.838  1.00  0.00     0.040 A 
ATOM      8  C   UNL A   1      32.751  23.326  23.788  1.00  0.00    -0.015 A 
ATOM      9  C   UNL A   1      33.307  23.877  22.614  1.00  0.00     0.010 A 
ATOM     10  C   UNL A   1      31.877  24.136  24.536  1.00  0.00    -0.042 A 
ATOM     11  C   UNL A   1      33.018  25.173  22.189  1.00  0.00     0.014 A 
ATOM     12  C   UNL A   1      31.511  25.408  24.029  1.00  0.00     0.018 A 
ATOM     13  C   UNL A   1      31.355  23.764  25.898  1.00  0.00     0.045 C 
BRANCH   8  14
ATOM     14  C   UNL A   1      33.174  21.960  24.157  1.00  0.00    -0.014 A 
ATOM     15  C   UNL A   1      34.998  20.454  24.786  1.00  0.00     0.063 A 
ATOM     16  C   UNL A   1      34.176  19.347  24.591  1.00  0.00     0.055 A 
ATOM     17  C   UNL A   1      34.490  21.745  24.603  1.00  0.00     0.024 A 
ATOM     18  C   UNL A   1      32.858  19.555  24.199  1.00  0.00     0.124 A 
ATOM     19  F   UNL A   1      32.060  18.496  24.009  1.00  0.00    -0.207 F 
ATOM     20  C   UNL A   1      32.357  20.838  23.966  1.00  0.00     0.048 A 
BRANCH  15  21
ATOM     21  C   UNL A   1      36.434  20.340  25.127  1.00  0.00     0.337 C 
ATOM     22  O   UNL A   1      37.084  19.327  24.964  1.00  0.00    -0.246 OA
BRANCH  21  23
ATOM     23  O   UNL A   1      36.843  21.473  25.753  1.00  0.00    -0.465 OA
ATOM     24  C   UNL A   1      38.201  21.811  25.464  1.00  0.00     0.282 C 
ENDBRANCH  21  23
ENDBRANCH  15  21
ENDBRANCH   8  14
ENDBRANCH   4   7
ENDBRANCH   2   3
ENDBRANCH   1   2
BRANCH   1  25
ATOM     25  C   UNL A   1      33.016  28.451  25.598  1.00  0.00     0.023 C 
BRANCH  25  26
ATOM     26  C   UNL A   1      33.663  28.575  26.976  1.00  0.00     0.116 C 
BRANCH  26  27
ATOM     27  N   UNL A   1      33.544  29.899  27.561  1.00  0.00    -0.352 N 
ATOM     28  C   UNL A   1      34.467  30.646  28.252  1.00  0.00     0.251 C 
ATOM     29  H   UNL A   1      32.665  30.328  27.444  1.00  0.00     0.163 HD
ATOM     30  O   UNL A   1      34.101  31.711  28.749  1.00  0.00    -0.269 OA
BRANCH  28  31
ATOM     31  C   UNL A   1      35.870  30.193  28.438  1.00  0.00     0.039 A 
ATOM     32  C   UNL A   1      36.240  29.689  29.693  1.00  0.00     0.014 A 
ATOM     33  C   UNL A   1      36.842  30.313  27.442  1.00  0.00     0.014 A 
ATOM     34  C   UNL A   1      37.558  29.293  29.938  1.00  0.00     0.010 A 
ATOM     35  C   UNL A   1      38.140  29.853  27.662  1.00  0.00     0.010 A 
ATOM     36  C   UNL A   1      38.519  29.362  28.918  1.00  0.00    -0.014 A 
BRANCH  36  37
ATOM     37  C   UNL A   1      39.931  28.968  29.155  1.00  0.00     0.031 A 
ATOM     38  C   UNL A   1      40.898  29.955  29.753  1.00  0.00     0.074 A 
ATOM     39  C   UNL A   1      40.358  27.748  28.780  1.00  0.00     0.049 A 
ATOM     40  N   UNL A   1      42.180  29.825  29.978  1.00  0.00    -0.248 NA
ATOM     41  C   UNL A   1      40.356  31.272  30.126  1.00  0.00     0.031 C 
ATOM     42  C   UNL A   1      39.524  26.719  28.157  1.00  0.00     0.029 A 
ATOM     43  N   UNL A   1      41.599  27.169  28.859  1.00  0.00    -0.354 N 
ATOM     44  C   UNL A   1      42.600  31.043  30.500  1.00  0.00     0.074 A 
ATOM     45  C   UNL A   1      41.448  31.916  30.511  1.00  0.00     0.031 C 
ATOM     46  C   UNL A   1      40.272  25.627  27.932  1.00  0.00     0.029 A 
ATOM     47  C   UNL A   1      41.643  25.889  28.360  1.00  0.00     0.049 A 
ATOM     48  H   UNL A   1      42.384  27.627  29.239  1.00  0.00     0.167 HD
ATOM     49  C   UNL A   1      43.828  31.393  30.952  1.00  0.00     0.037 A 
ATOM     50  C   UNL A   1      42.671  25.024  28.256  1.00  0.00     0.037 A 
ATOM     51  C   UNL A   1      44.963  30.507  30.961  1.00  0.00     0.049 A 
ATOM     52  C   UNL A   1      44.027  25.430  28.759  1.00  0.00     0.074 A 
ATOM     53  C   UNL A   1      46.234  30.743  31.455  1.00  0.00     0.029 A 
ATOM     54  N   UNL A   1      44.966  29.217  30.449  1.00  0.00    -0.354 N 
ATOM     55  N   UNL A   1      44.397  26.567  29.300  1.00  0.00    -0.248 NA
ATOM     56  C   UNL A   1      45.106  24.439  28.643  1.00  0.00     0.031 C 
ATOM     57  C   UNL A   1      47.018  29.612  31.201  1.00  0.00     0.029 A 
ATOM     58  C   UNL A   1      46.223  28.652  30.593  1.00  0.00     0.049 A 
ATOM     59  H   UNL A   1      44.189  28.768  30.044  1.00  0.00     0.167 HD
ATOM     60  C   UNL A   1      45.745  26.424  29.605  1.00  0.00     0.074 A 
ATOM     61  C   UNL A   1      46.124  25.086  29.197  1.00  0.00     0.031 C 
ATOM     62  C   UNL A   1      46.589  27.321  30.174  1.00  0.00     0.037 A 
BRANCH  49  63
ATOM     63  C   UNL A   1      44.006  32.793  31.475  1.00  0.00     0.058 A 
ATOM     64  C   UNL A   1      43.754  33.091  32.824  1.00  0.00     0.135 A 
ATOM     65  C   UNL A   1      44.401  33.849  30.637  1.00  0.00     0.135 A 
ATOM     66  F   UNL A   1      43.376  32.121  33.672  1.00  0.00    -0.206 F 
ATOM     67  C   UNL A   1      43.891  34.383  33.324  1.00  0.00     0.059 A 
ATOM     68  C   UNL A   1      44.574  35.143  31.122  1.00  0.00     0.059 A 
ATOM     69  F   UNL A   1      44.673  33.619  29.343  1.00  0.00    -0.206 F 
ATOM     70  C   UNL A   1      44.307  35.402  32.467  1.00  0.00     0.060 A 
BRANCH  70  71
ATOM     71  S   UNL A   1      44.552  37.058  33.144  1.00  0.00     0.124 S 
ATOM     72  O   UNL A   1      44.776  36.775  34.557  1.00  0.00    -0.237 OA
ATOM     73  O   UNL A   1      45.714  37.527  32.394  1.00  0.00    -0.237 OA
ATOM     74  O   UNL A   1      43.300  37.739  32.828  1.00  0.00    -0.744 OA
ENDBRANCH  70  71
ENDBRANCH  49  63
BRANCH  50  75
ATOM     75  C   UNL A   1      42.421  23.674  27.689  1.00  0.00     0.058 A 
ATOM     76  C   UNL A   1      42.271  22.550  28.516  1.00  0.00     0.135 A 
ATOM     77  C   UNL A   1      42.429  23.469  26.301  1.00  0.00     0.135 A 
ATOM     78  F   UNL A   1      42.266  22.693  29.850  1.00  0.00    -0.206 F 
ATOM     79  C   UNL A   1      42.185  21.266  27.990  1.00  0.00     0.059 A 
ATOM     80  C   UNL A   1      42.323  22.196  25.749  1.00  0.00     0.059 A 
ATOM     81  F   UNL A   1      42.556  24.516  25.471  1.00  0.00    -0.206 F 
ATOM     82  C   UNL A   1      42.228  21.098  26.605  1.00  0.00     0.060 A 
BRANCH  82  83
ATOM     83  S   UNL A   1      42.197  19.417  25.945  1.00  0.00     0.124 S 
ATOM     84  O   UNL A   1      40.782  19.258  25.623  1.00  0.00    -0.237 OA
ATOM     85  O   UNL A   1      43.100  19.521  24.804  1.00  0.00    -0.237 OA
ATOM     86  O   UNL A   1      42.683  18.608  27.057  1.00  0.00    -0.744 OA
ENDBRANCH  82  83
ENDBRANCH  50  75
BRANCH  62  87
ATOM     87  C   UNL A   1      48.012  26.893  30.401  1.00  0.00     0.058 A 
ATOM     88  C   UNL A   1      48.372  26.212  31.576  1.00  0.00     0.135 A 
ATOM     89  C   UNL A   1      49.034  27.233  29.501  1.00  0.00     0.135 A 
ATOM     90  F   UNL A   1      47.434  25.867  32.472  1.00  0.00    -0.206 F 
ATOM     91  C   UNL A   1      49.697  25.903  31.861  1.00  0.00     0.059 A 
ATOM     92  C   UNL A   1      50.365  26.912  29.754  1.00  0.00     0.059 A 
ATOM     93  F   UNL A   1      48.741  27.874  28.359  1.00  0.00    -0.206 F 
ATOM     94  C   UNL A   1      50.688  26.263  30.946  1.00  0.00     0.060 A 
BRANCH  94  95
ATOM     95  S   UNL A   1      52.404  25.853  31.332  1.00  0.00     0.124 S 
ATOM     96  O   UNL A   1      53.017  25.861  30.008  1.00  0.00    -0.237 OA
ATOM     97  O   UNL A   1      52.790  26.946  32.218  1.00  0.00    -0.237 OA
ATOM     98  O   UNL A   1      52.304  24.544  31.970  1.00  0.00    -0.744 OA
ENDBRANCH  94  95
ENDBRANCH  62  87
ENDBRANCH  36  37
ENDBRANCH  28  31
ENDBRANCH  26  27
ENDBRANCH  25  26
ENDBRANCH   1  25
TORSDOF 17
ENDMDL
MODEL 2
REMARK VINA RESULT:     -11.7      2.681      3.483
REMARK SMILES COC(=O)c1cc(F)cc(-c2ccc(C(=O)NCCCCNC(=O)c3ccc(-c4c5nc(c(-c6c(F)cc(S(=O)(=O)[O-])cc6F)c6ccc([nH]6)c(-c6c(F)cc(S(=O)(=O)[O-])cc6F)c6nc(c(-c7c(F)cc(S(=O)(=O)[O-])cc7F)c7ccc4[nH]7)C=C6)C=C5)cc3)cc2C)c1
REMARK SMILES IDX 19 1 18 2 17 3 15 4 16 5 14 7 11 8 12 9 92 10 13 11 91 12
REMARK SMILES IDX 93 13 10 14 5 15 6 16 94 17 7 18 8 19 9 20 3 21 4 22 2 23
REMARK SMILES IDX 1 24 20 25 21 26 22 27 23 28 24 30 25 31 26 32 90 33 27 34
REMARK SMILES IDX 89 35 28 36 29 37 30 38 83 39 31 40 88 41 82 42 84 43 32 44
REMARK SMILES IDX 87 45 81 46 80 47 33 49 67 50 46 51 66 52 47 53 50 54 65 55
REMARK SMILES IDX 85 56 48 57 49 58 64 60 86 61 51 62 34 63 35 64 44 65 36 66
REMARK SMILES IDX 37 67 43 68 45 69 38 70 39 71 40 72 41 73 42 74 68 75 69 76
REMARK SMILES IDX 78 77 70 78 71 79 77 80 79 81 72 82 73 83 74 84 75 85 76 86
REMARK SMILES IDX 52 87 53 88 62 89 54 90 55 91 61 92 63 93 56 94 57 95 58 96
REMARK SMILES IDX 59 97 60 98
REMARK H PARENT 17 6 22 29 84 48 50 59
REMARK Flexibility Score: inf
ROOT
ATOM      1  C   UNL A   1      33.422  28.338  26.209  1.00  0.00     0.023 C 
ENDROOT
BRANCH   1   2
ATOM      2  C   UNL A   1      32.819  28.740  24.865  1.00  0.00     0.116 C 
BRANCH   2   3
ATOM      3  N   UNL A   1      31.458  28.266  24.676  1.00  0.00    -0.352 N 
ATOM      4  C   UNL A   1      30.919  27.013  24.489  1.00  0.00     0.251 C 
ATOM      5  O   UNL A   1      29.709  26.945  24.263  1.00  0.00    -0.269 OA
ATOM      6  H   UNL A   1      30.787  28.987  24.683  1.00  0.00     0.163 HD
BRANCH   4   7
ATOM      7  C   UNL A   1      31.711  25.748  24.514  1.00  0.00     0.040 A 
ATOM      8  C   UNL A   1      33.269  23.357  24.403  1.00  0.00    -0.015 A 
ATOM      9  C   UNL A   1      32.764  23.874  25.614  1.00  0.00     0.010 A 
ATOM     10  C   UNL A   1      32.919  24.024  23.215  1.00  0.00    -0.042 A 
ATOM     11  C   UNL A   1      31.945  25.002  25.661  1.00  0.00     0.014 A 
ATOM     12  C   UNL A   1      32.178  25.231  23.292  1.00  0.00     0.018 A 
ATOM     13  C   UNL A   1      33.220  23.492  21.839  1.00  0.00     0.045 C 
BRANCH   8  14
ATOM     14  C   UNL A   1      34.084  22.129  24.483  1.00  0.00    -0.014 A 
ATOM     15  C   UNL A   1      34.148  19.697  24.753  1.00  0.00     0.063 A 
ATOM     16  C   UNL A   1      35.527  19.736  24.944  1.00  0.00     0.055 A 
ATOM     17  C   UNL A   1      33.444  20.878  24.491  1.00  0.00     0.024 A 
ATOM     18  C   UNL A   1      36.175  20.965  24.886  1.00  0.00     0.124 A 
ATOM     19  F   UNL A   1      37.501  21.012  25.069  1.00  0.00    -0.207 F 
ATOM     20  C   UNL A   1      35.473  22.154  24.675  1.00  0.00     0.048 A 
BRANCH  15  21
ATOM     21  C   UNL A   1      33.353  18.454  24.872  1.00  0.00     0.337 C 
ATOM     22  O   UNL A   1      32.215  18.423  25.296  1.00  0.00    -0.246 OA
BRANCH  21  23
ATOM     23  O   UNL A   1      34.133  17.386  24.567  1.00  0.00    -0.465 OA
ATOM     24  C   UNL A   1      33.922  16.901  23.239  1.00  0.00     0.282 C 
ENDBRANCH  21  23
ENDBRANCH  15  21
ENDBRANCH   8  14
ENDBRANCH   4   7
ENDBRANCH   2   3
ENDBRANCH   1   2
BRANCH   1  25
ATOM     25  C   UNL A   1      33.632  29.457  27.232  1.00  0.00     0.023 C 
BRANCH  25  26
ATOM     26  C   UNL A   1      35.073  29.685  27.685  1.00  0.00     0.116 C 
BRANCH  26  27
ATOM     27  N   UNL A   1      35.184  30.359  28.967  1.00  0.00    -0.352 N 
ATOM     28  C   UNL A   1      36.267  30.498  29.801  1.00  0.00     0.251 C 
ATOM     29  H   UNL A   1      34.354  30.781  29.288  1.00  0.00     0.163 HD
ATOM     30  O   UNL A   1      36.093  31.027  30.899  1.00  0.00    -0.269 OA
BRANCH  28  31
ATOM     31  C   UNL A   1      37.619  30.005  29.430  1.00  0.00     0.039 A 
ATOM     32  C   UNL A   1      38.497  29.647  30.463  1.00  0.00     0.014 A 
ATOM     33  C   UNL A   1      38.067  29.950  28.109  1.00  0.00     0.014 A 
ATOM     34  C   UNL A   1      39.797  29.223  30.172  1.00  0.00     0.010 A 
ATOM     35  C   UNL A   1      39.339  29.459  27.814  1.00  0.00     0.010 A 
ATOM     36  C   UNL A   1      40.226  29.114  28.842  1.00  0.00    -0.014 A 
BRANCH  36  37
ATOM     37  C   UNL A   1      41.607  28.687  28.503  1.00  0.00     0.031 A 
ATOM     38  C   UNL A   1      42.728  29.693  28.496  1.00  0.00     0.074 A 
ATOM     39  C   UNL A   1      41.844  27.410  28.146  1.00  0.00     0.049 A 
ATOM     40  N   UNL A   1      43.983  29.530  28.169  1.00  0.00    -0.248 NA
ATOM     41  C   UNL A   1      42.384  31.070  28.887  1.00  0.00     0.031 C 
ATOM     42  C   UNL A   1      40.834  26.353  28.080  1.00  0.00     0.029 A 
ATOM     43  N   UNL A   1      43.005  26.787  27.765  1.00  0.00    -0.354 N 
ATOM     44  C   UNL A   1      44.574  30.782  28.296  1.00  0.00     0.074 A 
ATOM     45  C   UNL A   1      43.529  31.704  28.682  1.00  0.00     0.031 C 
ATOM     46  C   UNL A   1      41.424  25.207  27.705  1.00  0.00     0.029 A 
ATOM     47  C   UNL A   1      42.844  25.455  27.468  1.00  0.00     0.049 A 
ATOM     48  H   UNL A   1      43.873  27.251  27.710  1.00  0.00     0.167 HD
ATOM     49  C   UNL A   1      45.874  31.127  28.131  1.00  0.00     0.037 A 
ATOM     50  C   UNL A   1      43.737  24.536  27.051  1.00  0.00     0.037 A 
ATOM     51  C   UNL A   1      46.912  30.195  27.772  1.00  0.00     0.049 A 
ATOM     52  C   UNL A   1      45.174  24.935  26.870  1.00  0.00     0.074 A 
ATOM     53  C   UNL A   1      48.270  30.430  27.641  1.00  0.00     0.029 A 
ATOM     54  N   UNL A   1      46.708  28.853  27.483  1.00  0.00    -0.354 N 
ATOM     55  N   UNL A   1      45.728  26.112  27.047  1.00  0.00    -0.248 NA
ATOM     56  C   UNL A   1      46.108  23.888  26.438  1.00  0.00     0.031 C 
ATOM     57  C   UNL A   1      48.880  29.240  27.229  1.00  0.00     0.029 A 
ATOM     58  C   UNL A   1      47.911  28.252  27.151  1.00  0.00     0.049 A 
ATOM     59  H   UNL A   1      45.837  28.396  27.510  1.00  0.00     0.167 HD
ATOM     60  C   UNL A   1      47.078  25.944  26.764  1.00  0.00     0.074 A 
ATOM     61  C   UNL A   1      47.259  24.550  26.414  1.00  0.00     0.031 C 
ATOM     62  C   UNL A   1      48.075  26.863  26.796  1.00  0.00     0.037 A 
BRANCH  49  63
ATOM     63  C   UNL A   1      46.245  32.570  28.339  1.00  0.00     0.058 A 
ATOM     64  C   UNL A   1      46.623  33.037  29.608  1.00  0.00     0.135 A 
ATOM     65  C   UNL A   1      46.202  33.502  27.288  1.00  0.00     0.135 A 
ATOM     66  F   UNL A   1      46.684  32.192  30.649  1.00  0.00    -0.206 F 
ATOM     67  C   UNL A   1      46.949  34.373  29.827  1.00  0.00     0.059 A 
ATOM     68  C   UNL A   1      46.552  34.836  27.478  1.00  0.00     0.059 A 
ATOM     69  F   UNL A   1      45.865  33.108  26.049  1.00  0.00    -0.206 F 
ATOM     70  C   UNL A   1      46.916  35.264  28.754  1.00  0.00     0.060 A 
BRANCH  70  71
ATOM     71  S   UNL A   1      47.412  36.978  29.037  1.00  0.00     0.124 S 
ATOM     72  O   UNL A   1      46.421  37.710  28.257  1.00  0.00    -0.237 OA
ATOM     73  O   UNL A   1      47.295  37.095  30.488  1.00  0.00    -0.237 OA
ATOM     74  O   UNL A   1      48.778  37.021  28.524  1.00  0.00    -0.744 OA
ENDBRANCH  70  71
ENDBRANCH  49  63
BRANCH  50  75
ATOM     75  C   UNL A   1      43.281  23.139  26.829  1.00  0.00     0.058 A 
ATOM     76  C   UNL A   1      43.010  22.279  27.904  1.00  0.00     0.135 A 
ATOM     77  C   UNL A   1      43.208  22.610  25.532  1.00  0.00     0.135 A 
ATOM     78  F   UNL A   1      43.075  22.736  29.164  1.00  0.00    -0.206 F 
ATOM     79  C   UNL A   1      42.727  20.933  27.704  1.00  0.00     0.059 A 
ATOM     80  C   UNL A   1      42.907  21.270  25.305  1.00  0.00     0.059 A 
ATOM     81  F   UNL A   1      43.447  23.399  24.473  1.00  0.00    -0.206 F 
ATOM     82  C   UNL A   1      42.694  20.434  26.400  1.00  0.00     0.060 A 
BRANCH  82  83
ATOM     83  S   UNL A   1      42.406  18.666  26.167  1.00  0.00     0.124 S 
ATOM     84  O   UNL A   1      42.685  18.148  27.502  1.00  0.00    -0.237 OA
ATOM     85  O   UNL A   1      41.007  18.638  25.752  1.00  0.00    -0.237 OA
ATOM     86  O   UNL A   1      43.372  18.300  25.136  1.00  0.00    -0.744 OA
ENDBRANCH  82  83
ENDBRANCH  50  75
BRANCH  62  87
ATOM     87  C   UNL A   1      49.463  26.399  26.449  1.00  0.00     0.058 A 
ATOM     88  C   UNL A   1      50.302  25.860  27.438  1.00  0.00     0.135 A 
ATOM     89  C   UNL A   1      49.994  26.569  25.161  1.00  0.00     0.135 A 
ATOM     90  F   UNL A   1      49.844  25.680  28.688  1.00  0.00    -0.206 F 
ATOM     91  C   UNL A   1      51.624  25.526  27.168  1.00  0.00     0.059 A 
ATOM     92  C   UNL A   1      51.308  26.219  24.862  1.00  0.00     0.059 A 
ATOM     93  F   UNL A   1      49.230  27.070  24.177  1.00  0.00    -0.206 F 
ATOM     94  C   UNL A   1      52.120  25.715  25.878  1.00  0.00     0.060 A 
BRANCH  94  95
ATOM     95  S   UNL A   1      53.840  25.276  25.545  1.00  0.00     0.124 S 
ATOM     96  O   UNL A   1      54.370  25.106  26.894  1.00  0.00    -0.237 OA
ATOM     97  O   UNL A   1      53.699  24.054  24.759  1.00  0.00    -0.237 OA
ATOM     98  O   UNL A   1      54.348  26.430  24.810  1.00  0.00    -0.744 OA
ENDBRANCH  94  95
ENDBRANCH  62  87
ENDBRANCH  36  37
ENDBRANCH  28  31
ENDBRANCH  26  27
ENDBRANCH  25  26
ENDBRANCH   1  25
TORSDOF 17
ENDMDL
MODEL 3
REMARK VINA RESULT:     -11.7      2.485      3.239
REMARK SMILES COC(=O)c1cc(F)cc(-c2ccc(C(=O)NCCCCNC(=O)c3ccc(-c4c5nc(c(-c6c(F)cc(S(=O)(=O)[O-])cc6F)c6ccc([nH]6)c(-c6c(F)cc(S(=O)(=O)[O-])cc6F)c6nc(c(-c7c(F)cc(S(=O)(=O)[O-])cc7F)c7ccc4[nH]7)C=C6)C=C5)cc3)cc2C)c1
REMARK SMILES IDX 19 1 18 2 17 3 15 4 16 5 14 7 11 8 12 9 92 10 13 11 91 12
REMARK SMILES IDX 93 13 10 14 5 15 6 16 94 17 7 18 8 19 9 20 3 21 4 22 2 23
REMARK SMILES IDX 1 24 20 25 21 26 22 27 23 28 24 30 25 31 26 32 90 33 27 34
REMARK SMILES IDX 89 35 28 36 29 37 30 38 83 39 31 40 88 41 82 42 84 43 32 44
REMARK SMILES IDX 87 45 81 46 80 47 33 49 67 50 46 51 66 52 47 53 50 54 65 55
REMARK SMILES IDX 85 56 48 57 49 58 64 60 86 61 51 62 34 63 35 64 44 65 36 66
REMARK SMILES IDX 37 67 43 68 45 69 38 70 39 71 40 72 41 73 42 74 68 75 69 76
REMARK SMILES IDX 78 77 70 78 71 79 77 80 79 81 72 82 73 83 74 84 75 85 76 86
REMARK SMILES IDX 52 87 53 88 62 89 54 90 55 91 61 92 63 93 56 94 57 95 58 96
REMARK SMILES IDX 59 97 60 98
REMARK H PARENT 17 6 22 29 84 48 50 59
REMARK Flexibility Score: inf
ROOT
ATOM      1  C   UNL A   1      33.142  28.803  26.015  1.00  0.00     0.023 C 
ENDROOT
BRANCH   1   2
ATOM      2  C   UNL A   1      33.046  28.988  24.503  1.00  0.00     0.116 C 
BRANCH   2   3
ATOM      3  N   UNL A   1      31.714  28.751  23.972  1.00  0.00    -0.352 N 
ATOM      4  C   UNL A   1      31.025  27.604  23.647  1.00  0.00     0.251 C 
ATOM      5  O   UNL A   1      29.919  27.738  23.122  1.00  0.00    -0.269 OA
ATOM      6  H   UNL A   1      31.202  29.577  23.813  1.00  0.00     0.163 HD
BRANCH   4   7
ATOM      7  C   UNL A   1      31.548  26.223  23.864  1.00  0.00     0.040 A 
ATOM      8  C   UNL A   1      32.440  23.564  24.407  1.00  0.00    -0.015 A 
ATOM      9  C   UNL A   1      32.820  24.266  23.244  1.00  0.00     0.010 A 
ATOM     10  C   UNL A   1      31.650  24.248  25.350  1.00  0.00    -0.042 A 
ATOM     11  C   UNL A   1      32.441  25.589  23.013  1.00  0.00     0.014 A 
ATOM     12  C   UNL A   1      31.185  25.552  25.046  1.00  0.00     0.018 A 
ATOM     13  C   UNL A   1      31.324  23.704  26.716  1.00  0.00     0.045 C 
BRANCH   8  14
ATOM     14  C   UNL A   1      32.946  22.186  24.557  1.00  0.00    -0.014 A 
ATOM     15  C   UNL A   1      34.867  20.709  24.901  1.00  0.00     0.063 A 
ATOM     16  C   UNL A   1      34.095  19.598  24.569  1.00  0.00     0.055 A 
ATOM     17  C   UNL A   1      34.286  21.982  24.927  1.00  0.00     0.024 A 
ATOM     18  C   UNL A   1      32.754  19.786  24.252  1.00  0.00     0.124 A 
ATOM     19  F   UNL A   1      32.005  18.723  23.931  1.00  0.00    -0.207 F 
ATOM     20  C   UNL A   1      32.180  21.059  24.227  1.00  0.00     0.048 A 
BRANCH  15  21
ATOM     21  C   UNL A   1      36.318  20.627  25.178  1.00  0.00     0.337 C 
ATOM     22  O   UNL A   1      36.991  19.642  24.946  1.00  0.00    -0.246 OA
BRANCH  21  23
ATOM     23  O   UNL A   1      36.719  21.745  25.835  1.00  0.00    -0.465 OA
ATOM     24  C   UNL A   1      37.995  22.220  25.402  1.00  0.00     0.282 C 
ENDBRANCH  21  23
ENDBRANCH  15  21
ENDBRANCH   8  14
ENDBRANCH   4   7
ENDBRANCH   2   3
ENDBRANCH   1   2
BRANCH   1  25
ATOM     25  C   UNL A   1      33.813  29.928  26.807  1.00  0.00     0.023 C 
BRANCH  25  26
ATOM     26  C   UNL A   1      34.941  29.502  27.744  1.00  0.00     0.116 C 
BRANCH  26  27
ATOM     27  N   UNL A   1      35.062  30.332  28.929  1.00  0.00    -0.352 N 
ATOM     28  C   UNL A   1      36.163  30.615  29.702  1.00  0.00     0.251 C 
ATOM     29  H   UNL A   1      34.225  30.758  29.226  1.00  0.00     0.163 HD
ATOM     30  O   UNL A   1      36.000  31.269  30.732  1.00  0.00    -0.269 OA
BRANCH  28  31
ATOM     31  C   UNL A   1      37.523  30.133  29.346  1.00  0.00     0.039 A 
ATOM     32  C   UNL A   1      38.397  29.793  30.388  1.00  0.00     0.014 A 
ATOM     33  C   UNL A   1      37.982  30.072  28.028  1.00  0.00     0.014 A 
ATOM     34  C   UNL A   1      39.703  29.379  30.111  1.00  0.00     0.010 A 
ATOM     35  C   UNL A   1      39.262  29.592  27.747  1.00  0.00     0.010 A 
ATOM     36  C   UNL A   1      40.144  29.264  28.785  1.00  0.00    -0.014 A 
BRANCH  36  37
ATOM     37  C   UNL A   1      41.532  28.848  28.462  1.00  0.00     0.031 A 
ATOM     38  C   UNL A   1      42.645  29.862  28.473  1.00  0.00     0.074 A 
ATOM     39  C   UNL A   1      41.782  27.575  28.102  1.00  0.00     0.049 A 
ATOM     40  N   UNL A   1      43.906  29.710  28.160  1.00  0.00    -0.248 NA
ATOM     41  C   UNL A   1      42.287  31.234  28.866  1.00  0.00     0.031 C 
ATOM     42  C   UNL A   1      40.781  26.511  28.019  1.00  0.00     0.029 A 
ATOM     43  N   UNL A   1      42.952  26.962  27.731  1.00  0.00    -0.354 N 
ATOM     44  C   UNL A   1      44.486  30.965  28.300  1.00  0.00     0.074 A 
ATOM     45  C   UNL A   1      43.430  31.877  28.678  1.00  0.00     0.031 C 
ATOM     46  C   UNL A   1      41.383  25.371  27.644  1.00  0.00     0.029 A 
ATOM     47  C   UNL A   1      42.804  25.630  27.426  1.00  0.00     0.049 A 
ATOM     48  H   UNL A   1      43.817  27.432  27.689  1.00  0.00     0.167 HD
ATOM     49  C   UNL A   1      45.785  31.320  28.153  1.00  0.00     0.037 A 
ATOM     50  C   UNL A   1      43.708  24.719  27.016  1.00  0.00     0.037 A 
ATOM     51  C   UNL A   1      46.834  30.397  27.802  1.00  0.00     0.049 A 
ATOM     52  C   UNL A   1      45.144  25.130  26.854  1.00  0.00     0.074 A 
ATOM     53  C   UNL A   1      48.192  30.642  27.688  1.00  0.00     0.029 A 
ATOM     54  N   UNL A   1      46.644  29.055  27.504  1.00  0.00    -0.354 N 
ATOM     55  N   UNL A   1      45.688  26.309  27.043  1.00  0.00    -0.248 NA
ATOM     56  C   UNL A   1      46.091  24.091  26.428  1.00  0.00     0.031 C 
ATOM     57  C   UNL A   1      48.815  29.459  27.278  1.00  0.00     0.029 A 
ATOM     58  C   UNL A   1      47.855  28.464  27.183  1.00  0.00     0.049 A 
ATOM     59  H   UNL A   1      45.775  28.591  27.519  1.00  0.00     0.167 HD
ATOM     60  C   UNL A   1      47.043  26.152  26.775  1.00  0.00     0.074 A 
ATOM     61  C   UNL A   1      47.237  24.761  26.421  1.00  0.00     0.031 C 
ATOM     62  C   UNL A   1      48.033  27.078  26.824  1.00  0.00     0.037 A 
BRANCH  49  63
ATOM     63  C   UNL A   1      46.143  32.765  28.371  1.00  0.00     0.058 A 
ATOM     64  C   UNL A   1      46.119  33.678  27.304  1.00  0.00     0.135 A 
ATOM     65  C   UNL A   1      46.537  33.246  29.631  1.00  0.00     0.135 A 
ATOM     66  F   UNL A   1      45.749  33.275  26.078  1.00  0.00    -0.206 F 
ATOM     67  C   UNL A   1      46.467  35.014  27.479  1.00  0.00     0.059 A 
ATOM     68  C   UNL A   1      46.861  34.585  29.835  1.00  0.00     0.059 A 
ATOM     69  F   UNL A   1      46.561  32.422  30.691  1.00  0.00    -0.206 F 
ATOM     70  C   UNL A   1      46.832  35.460  28.749  1.00  0.00     0.060 A 
BRANCH  70  71
ATOM     71  S   UNL A   1      47.211  37.211  28.977  1.00  0.00     0.124 S 
ATOM     72  O   UNL A   1      48.652  37.237  28.759  1.00  0.00    -0.237 OA
ATOM     73  O   UNL A   1      46.396  37.838  27.939  1.00  0.00    -0.237 OA
ATOM     74  O   UNL A   1      46.774  37.474  30.345  1.00  0.00    -0.744 OA
ENDBRANCH  70  71
ENDBRANCH  49  63
BRANCH  50  75
ATOM     75  C   UNL A   1      43.265  23.320  26.781  1.00  0.00     0.058 A 
ATOM     76  C   UNL A   1      42.996  22.451  27.849  1.00  0.00     0.135 A 
ATOM     77  C   UNL A   1      43.203  22.800  25.480  1.00  0.00     0.135 A 
ATOM     78  F   UNL A   1      43.051  22.899  29.112  1.00  0.00    -0.206 F 
ATOM     79  C   UNL A   1      42.725  21.103  27.639  1.00  0.00     0.059 A 
ATOM     80  C   UNL A   1      42.914  21.459  25.242  1.00  0.00     0.059 A 
ATOM     81  F   UNL A   1      43.440  23.598  24.428  1.00  0.00    -0.206 F 
ATOM     82  C   UNL A   1      42.703  20.614  26.331  1.00  0.00     0.060 A 
BRANCH  82  83
ATOM     83  S   UNL A   1      42.430  18.845  26.084  1.00  0.00     0.124 S 
ATOM     84  O   UNL A   1      42.741  18.315  27.408  1.00  0.00    -0.237 OA
ATOM     85  O   UNL A   1      41.024  18.805  25.697  1.00  0.00    -0.237 OA
ATOM     86  O   UNL A   1      43.379  18.501  25.030  1.00  0.00    -0.744 OA
ENDBRANCH  82  83
ENDBRANCH  50  75
BRANCH  62  87
ATOM     87  C   UNL A   1      49.428  26.625  26.491  1.00  0.00     0.058 A 
ATOM     88  C   UNL A   1      49.928  26.760  25.185  1.00  0.00     0.135 A 
ATOM     89  C   UNL A   1      50.236  25.978  27.439  1.00  0.00     0.135 A 
ATOM     90  F   UNL A   1      49.193  27.367  24.239  1.00  0.00    -0.206 F 
ATOM     91  C   UNL A   1      51.170  26.250  24.826  1.00  0.00     0.059 A 
ATOM     92  C   UNL A   1      51.493  25.481  27.107  1.00  0.00     0.059 A 
ATOM     93  F   UNL A   1      49.808  25.834  28.704  1.00  0.00    -0.206 F 
ATOM     94  C   UNL A   1      51.944  25.606  25.793  1.00  0.00     0.060 A 
BRANCH  94  95
ATOM     95  S   UNL A   1      53.554  24.950  25.309  1.00  0.00     0.124 S 
ATOM     96  O   UNL A   1      53.706  25.495  23.964  1.00  0.00    -0.237 OA
ATOM     97  O   UNL A   1      54.435  25.514  26.326  1.00  0.00    -0.237 OA
ATOM     98  O   UNL A   1      53.368  23.504  25.384  1.00  0.00    -0.744 OA
ENDBRANCH  94  95
ENDBRANCH  62  87
ENDBRANCH  36  37
ENDBRANCH  28  31
ENDBRANCH  26  27
ENDBRANCH  25  26
ENDBRANCH   1  25
TORSDOF 17
ENDMDL
