MODEL 1
REMARK VINA RESULT:     -13.1      0.000      0.000
REMARK SMILES CC(C)[C@H](NC(=O)[C@H](Cc1ccccc1)n1c(=O)[nH]c2ccccc2c1=O)C(=O)NCCCCNC(=O)c1ccc(-c2c3nc(c(-c4c(F)cc(S(=O)(=O)[O-])cc4F)c4ccc([nH]4)c(-c4c(F)cc(S(=O)(=O)[O-])cc4F)c4nc(c(-c5c(F)cc(S(=O)(=O)[O-])cc5F)c5ccc2[nH]5)C=C4)C=C3)cc1
REMARK SMILES IDX 32 1 31 2 30 3 28 4 29 5 4 7 2 8 1 9 3 10 5 11 6 12 7 14
REMARK SMILES IDX 8 15 16 16 17 17 26 18 18 19 19 20 25 21 27 22 20 23 24 25
REMARK SMILES IDX 21 26 23 27 22 28 9 29 10 30 11 31 15 32 12 33 14 34 13 35
REMARK SMILES IDX 33 36 34 37 35 38 36 39 37 41 38 42 39 43 103 44 40 45
REMARK SMILES IDX 102 46 41 47 42 48 43 49 96 50 44 51 101 52 95 53 97 54
REMARK SMILES IDX 45 55 100 56 94 57 93 58 46 60 80 61 59 62 79 63 60 64 63 65
REMARK SMILES IDX 78 66 98 67 61 68 62 69 77 71 99 72 64 73 47 74 48 75 57 76
REMARK SMILES IDX 49 77 50 78 56 79 58 80 51 81 52 82 53 83 54 84 55 85 81 86
REMARK SMILES IDX 82 87 91 88 83 89 84 90 90 91 92 92 85 93 86 94 87 95 88 96
REMARK SMILES IDX 89 97 65 98 66 99 75 100 67 101 68 102 74 103 76 104 69 105
REMARK SMILES IDX 70 106 71 107 72 108 73 109
REMARK H PARENT 30 6 5 13 19 24 35 40 97 59 63 70
REMARK Flexibility Score: inf
ROOT
ATOM      1  C   UNL A   1      35.148  29.263  27.288  1.00  0.00     0.023 C 
ENDROOT
BRANCH   1   2
ATOM      2  C   UNL A   1      34.103  28.497  26.491  1.00  0.00     0.116 C 
BRANCH   2   3
ATOM      3  N   UNL A   1      32.804  28.500  27.150  1.00  0.00    -0.354 N 
ATOM      4  C   UNL A   1      31.696  27.719  26.987  1.00  0.00     0.242 C 
ATOM      5  O   UNL A   1      30.858  27.736  27.894  1.00  0.00    -0.273 OA
ATOM      6  H   UNL A   1      32.707  29.195  27.841  1.00  0.00     0.163 HD
BRANCH   4   7
ATOM      7  C   UNL A   1      31.552  26.740  25.799  1.00  0.00     0.173 C 
BRANCH   7   8
ATOM      8  C   UNL A   1      30.721  27.392  24.642  1.00  0.00     0.015 C 
ATOM      9  C   UNL A   1      31.316  28.597  23.906  1.00  0.00     0.010 C 
ATOM     10  C   UNL A   1      30.397  26.366  23.533  1.00  0.00     0.010 C 
ENDBRANCH   7   8
BRANCH   7  11
ATOM     11  N   UNL A   1      31.082  25.425  26.308  1.00  0.00    -0.342 N 
ATOM     12  C   UNL A   1      31.600  24.229  26.671  1.00  0.00     0.244 C 
ATOM     13  H   UNL A   1      30.102  25.424  26.411  1.00  0.00     0.164 HD
ATOM     14  O   UNL A   1      30.815  23.546  27.351  1.00  0.00    -0.273 OA
BRANCH  12  15
ATOM     15  C   UNL A   1      33.032  23.690  26.456  1.00  0.00     0.189 C 
BRANCH  15  16
ATOM     16  N   UNL A   1      33.070  22.288  26.006  1.00  0.00    -0.247 N 
ATOM     17  C   UNL A   1      33.545  21.339  26.868  1.00  0.00     0.329 A 
ATOM     18  C   UNL A   1      32.592  21.976  24.730  1.00  0.00     0.264 A 
ATOM     19  O   UNL A   1      33.946  21.579  27.996  1.00  0.00    -0.248 OA
ATOM     20  N   UNL A   1      33.596  20.053  26.455  1.00  0.00    -0.307 N 
ATOM     21  C   UNL A   1      32.605  20.545  24.337  1.00  0.00     0.064 A 
ATOM     22  O   UNL A   1      32.157  22.799  23.928  1.00  0.00    -0.268 OA
ATOM     23  C   UNL A   1      33.134  19.622  25.229  1.00  0.00     0.055 A 
ATOM     24  H   UNL A   1      33.986  19.385  27.064  1.00  0.00     0.171 HD
ATOM     25  C   UNL A   1      32.100  20.101  23.112  1.00  0.00     0.016 A 
ATOM     26  C   UNL A   1      33.186  18.265  24.923  1.00  0.00     0.027 A 
ATOM     27  C   UNL A   1      32.134  18.737  22.802  1.00  0.00     0.001 A 
ATOM     28  C   UNL A   1      32.680  17.822  23.706  1.00  0.00     0.002 A 
ENDBRANCH  15  16
BRANCH  15  29
ATOM     29  C   UNL A   1      33.922  24.721  25.696  1.00  0.00     0.071 C 
BRANCH  29  30
ATOM     30  C   UNL A   1      35.224  24.142  25.167  1.00  0.00    -0.045 A 
ATOM     31  C   UNL A   1      35.350  23.834  23.803  1.00  0.00     0.004 A 
ATOM     32  C   UNL A   1      36.270  23.792  26.025  1.00  0.00     0.004 A 
ATOM     33  C   UNL A   1      36.393  23.039  23.336  1.00  0.00     0.000 A 
ATOM     34  C   UNL A   1      37.359  23.059  25.541  1.00  0.00     0.000 A 
ATOM     35  C   UNL A   1      37.396  22.642  24.210  1.00  0.00     0.000 A 
ENDBRANCH  29  30
ENDBRANCH  15  29
ENDBRANCH  12  15
ENDBRANCH   7  11
ENDBRANCH   4   7
ENDBRANCH   2   3
ENDBRANCH   1   2
BRANCH   1  36
ATOM     36  C   UNL A   1      34.627  30.576  27.871  1.00  0.00     0.023 C 
BRANCH  36  37
ATOM     37  C   UNL A   1      35.699  31.474  28.481  1.00  0.00     0.116 C 
BRANCH  37  38
ATOM     38  N   UNL A   1      35.607  31.549  29.933  1.00  0.00    -0.352 N 
ATOM     39  C   UNL A   1      36.446  30.983  30.864  1.00  0.00     0.251 C 
ATOM     40  H   UNL A   1      34.851  32.068  30.293  1.00  0.00     0.163 HD
ATOM     41  O   UNL A   1      36.165  30.995  32.056  1.00  0.00    -0.269 OA
BRANCH  39  42
ATOM     42  C   UNL A   1      37.679  30.335  30.381  1.00  0.00     0.039 A 
ATOM     43  C   UNL A   1      38.042  30.479  29.041  1.00  0.00     0.014 A 
ATOM     44  C   UNL A   1      38.518  29.683  31.288  1.00  0.00     0.014 A 
ATOM     45  C   UNL A   1      39.293  30.024  28.623  1.00  0.00     0.010 A 
ATOM     46  C   UNL A   1      39.792  29.303  30.885  1.00  0.00     0.010 A 
ATOM     47  C   UNL A   1      40.193  29.470  29.550  1.00  0.00    -0.014 A 
BRANCH  47  48
ATOM     48  C   UNL A   1      41.562  29.060  29.150  1.00  0.00     0.031 A 
ATOM     49  C   UNL A   1      42.664  30.083  29.112  1.00  0.00     0.074 A 
ATOM     50  C   UNL A   1      41.794  27.795  28.748  1.00  0.00     0.049 A 
ATOM     51  N   UNL A   1      43.896  29.953  28.696  1.00  0.00    -0.248 NA
ATOM     52  C   UNL A   1      42.326  31.439  29.576  1.00  0.00     0.031 C 
ATOM     53  C   UNL A   1      40.796  26.724  28.700  1.00  0.00     0.029 A 
ATOM     54  N   UNL A   1      42.940  27.196  28.287  1.00  0.00    -0.354 N 
ATOM     55  C   UNL A   1      44.474  31.210  28.832  1.00  0.00     0.074 A 
ATOM     56  C   UNL A   1      43.443  32.101  29.316  1.00  0.00     0.031 C 
ATOM     57  C   UNL A   1      41.377  25.598  28.253  1.00  0.00     0.029 A 
ATOM     58  C   UNL A   1      42.774  25.876  27.938  1.00  0.00     0.049 A 
ATOM     59  H   UNL A   1      43.800  27.669  28.213  1.00  0.00     0.167 HD
ATOM     60  C   UNL A   1      45.755  31.581  28.597  1.00  0.00     0.037 A 
ATOM     61  C   UNL A   1      43.646  24.993  27.410  1.00  0.00     0.037 A 
ATOM     62  C   UNL A   1      46.779  30.681  28.137  1.00  0.00     0.049 A 
ATOM     63  C   UNL A   1      45.060  25.433  27.140  1.00  0.00     0.074 A 
ATOM     64  C   UNL A   1      48.120  30.944  27.924  1.00  0.00     0.029 A 
ATOM     65  N   UNL A   1      46.577  29.347  27.814  1.00  0.00    -0.354 N 
ATOM     66  N   UNL A   1      45.608  26.610  27.337  1.00  0.00    -0.248 NA
ATOM     67  C   UNL A   1      45.977  24.430  26.581  1.00  0.00     0.031 C 
ATOM     68  C   UNL A   1      48.718  29.784  27.420  1.00  0.00     0.029 A 
ATOM     69  C   UNL A   1      47.763  28.780  27.379  1.00  0.00     0.049 A 
ATOM     70  H   UNL A   1      45.717  28.872  27.885  1.00  0.00     0.167 HD
ATOM     71  C   UNL A   1      46.939  26.478  26.956  1.00  0.00     0.074 A 
ATOM     72  C   UNL A   1      47.116  25.107  26.525  1.00  0.00     0.031 C 
ATOM     73  C   UNL A   1      47.926  27.408  26.967  1.00  0.00     0.037 A 
BRANCH  60  74
ATOM     74  C   UNL A   1      46.120  33.021  28.832  1.00  0.00     0.058 A 
ATOM     75  C   UNL A   1      46.582  33.472  30.080  1.00  0.00     0.135 A 
ATOM     76  C   UNL A   1      46.045  33.956  27.787  1.00  0.00     0.135 A 
ATOM     77  F   UNL A   1      46.659  32.627  31.119  1.00  0.00    -0.206 F 
ATOM     78  C   UNL A   1      46.926  34.804  30.290  1.00  0.00     0.059 A 
ATOM     79  C   UNL A   1      46.415  35.285  27.965  1.00  0.00     0.059 A 
ATOM     80  F   UNL A   1      45.609  33.579  26.573  1.00  0.00    -0.206 F 
ATOM     81  C   UNL A   1      46.841  35.702  29.226  1.00  0.00     0.060 A 
BRANCH  81  82
ATOM     82  S   UNL A   1      47.300  37.424  29.514  1.00  0.00     0.124 S 
ATOM     83  O   UNL A   1      47.493  37.906  28.149  1.00  0.00    -0.237 OA
ATOM     84  O   UNL A   1      46.129  37.946  30.211  1.00  0.00    -0.237 OA
ATOM     85  O   UNL A   1      48.513  37.323  30.320  1.00  0.00    -0.744 OA
ENDBRANCH  81  82
ENDBRANCH  60  74
BRANCH  61  86
ATOM     86  C   UNL A   1      43.208  23.602  27.112  1.00  0.00     0.058 A 
ATOM     87  C   UNL A   1      42.938  23.196  25.797  1.00  0.00     0.135 A 
ATOM     88  C   UNL A   1      43.061  22.648  28.132  1.00  0.00     0.135 A 
ATOM     89  F   UNL A   1      43.057  24.072  24.787  1.00  0.00    -0.206 F 
ATOM     90  C   UNL A   1      42.521  21.902  25.503  1.00  0.00     0.059 A 
ATOM     91  C   UNL A   1      42.672  21.340  27.860  1.00  0.00     0.059 A 
ATOM     92  F   UNL A   1      43.323  22.980  29.405  1.00  0.00    -0.206 F 
ATOM     93  C   UNL A   1      42.394  20.979  26.543  1.00  0.00     0.060 A 
BRANCH  93  94
ATOM     94  S   UNL A   1      41.896  19.289  26.145  1.00  0.00     0.124 S 
ATOM     95  O   UNL A   1      40.462  19.448  25.931  1.00  0.00    -0.237 OA
ATOM     96  O   UNL A   1      42.693  19.010  24.954  1.00  0.00    -0.237 OA
ATOM     97  O   UNL A   1      42.278  18.537  27.336  1.00  0.00    -0.744 OA
ENDBRANCH  93  94
ENDBRANCH  61  86
BRANCH  73  98
ATOM     98  C   UNL A   1      49.303  26.974  26.544  1.00  0.00     0.058 A 
ATOM     99  C   UNL A   1      50.252  26.513  27.470  1.00  0.00     0.135 A 
ATOM    100  C   UNL A   1      49.646  26.941  25.182  1.00  0.00     0.135 A 
ATOM    101  F   UNL A   1      49.979  26.531  28.784  1.00  0.00    -0.206 F 
ATOM    102  C   UNL A   1      51.496  26.042  27.061  1.00  0.00     0.059 A 
ATOM    103  C   UNL A   1      50.871  26.447  24.749  1.00  0.00     0.059 A 
ATOM    104  F   UNL A   1      48.771  27.363  24.255  1.00  0.00    -0.206 F 
ATOM    105  C   UNL A   1      51.793  26.005  25.696  1.00  0.00     0.060 A 
BRANCH 105 106
ATOM    106  S   UNL A   1      53.385  25.334  25.176  1.00  0.00     0.124 S 
ATOM    107  O   UNL A   1      54.297  25.973  26.120  1.00  0.00    -0.237 OA
ATOM    108  O   UNL A   1      53.192  23.899  25.357  1.00  0.00    -0.237 OA
ATOM    109  O   UNL A   1      53.506  25.775  23.790  1.00  0.00    -0.744 OA
ENDBRANCH 105 106
ENDBRANCH  73  98
ENDBRANCH  47  48
ENDBRANCH  39  42
ENDBRANCH  37  38
ENDBRANCH  36  37
ENDBRANCH   1  36
TORSDOF 20
ENDMDL
MODEL 2
REMARK VINA RESULT:     -12.8      6.022     11.606
REMARK SMILES CC(C)[C@H](NC(=O)[C@H](Cc1ccccc1)n1c(=O)[nH]c2ccccc2c1=O)C(=O)NCCCCNC(=O)c1ccc(-c2c3nc(c(-c4c(F)cc(S(=O)(=O)[O-])cc4F)c4ccc([nH]4)c(-c4c(F)cc(S(=O)(=O)[O-])cc4F)c4nc(c(-c5c(F)cc(S(=O)(=O)[O-])cc5F)c5ccc2[nH]5)C=C4)C=C3)cc1
REMARK SMILES IDX 32 1 31 2 30 3 28 4 29 5 4 7 2 8 1 9 3 10 5 11 6 12 7 14
REMARK SMILES IDX 8 15 16 16 17 17 26 18 18 19 19 20 25 21 27 22 20 23 24 25
REMARK SMILES IDX 21 26 23 27 22 28 9 29 10 30 11 31 15 32 12 33 14 34 13 35
REMARK SMILES IDX 33 36 34 37 35 38 36 39 37 41 38 42 39 43 103 44 40 45
REMARK SMILES IDX 102 46 41 47 42 48 43 49 96 50 44 51 101 52 95 53 97 54
REMARK SMILES IDX 45 55 100 56 94 57 93 58 46 60 80 61 59 62 79 63 60 64 63 65
REMARK SMILES IDX 78 66 98 67 61 68 62 69 77 71 99 72 64 73 47 74 48 75 57 76
REMARK SMILES IDX 49 77 50 78 56 79 58 80 51 81 52 82 53 83 54 84 55 85 81 86
REMARK SMILES IDX 82 87 91 88 83 89 84 90 90 91 92 92 85 93 86 94 87 95 88 96
REMARK SMILES IDX 89 97 65 98 66 99 75 100 67 101 68 102 74 103 76 104 69 105
REMARK SMILES IDX 70 106 71 107 72 108 73 109
REMARK H PARENT 30 6 5 13 19 24 35 40 97 59 63 70
REMARK Flexibility Score: inf
ROOT
ATOM      1  C   UNL A   1      37.778  22.485  25.484  1.00  0.00     0.023 C 
ENDROOT
BRANCH   1   2
ATOM      2  C   UNL A   1      36.772  22.775  24.380  1.00  0.00     0.116 C 
BRANCH   2   3
ATOM      3  N   UNL A   1      35.650  21.846  24.408  1.00  0.00    -0.354 N 
ATOM      4  C   UNL A   1      34.310  22.039  24.593  1.00  0.00     0.242 C 
ATOM      5  O   UNL A   1      33.557  21.121  24.252  1.00  0.00    -0.273 OA
ATOM      6  H   UNL A   1      35.904  20.906  24.269  1.00  0.00     0.163 HD
BRANCH   4   7
ATOM      7  C   UNL A   1      33.735  23.393  25.067  1.00  0.00     0.173 C 
BRANCH   7   8
ATOM      8  C   UNL A   1      33.205  23.288  26.537  1.00  0.00     0.015 C 
ATOM      9  C   UNL A   1      31.749  22.867  26.758  1.00  0.00     0.010 C 
ATOM     10  C   UNL A   1      34.041  22.289  27.368  1.00  0.00     0.010 C 
ENDBRANCH   7   8
BRANCH   7  11
ATOM     11  N   UNL A   1      32.785  23.902  24.044  1.00  0.00    -0.342 N 
ATOM     12  C   UNL A   1      32.317  25.088  23.587  1.00  0.00     0.244 C 
ATOM     13  H   UNL A   1      32.373  23.155  23.551  1.00  0.00     0.164 HD
ATOM     14  O   UNL A   1      31.769  24.998  22.475  1.00  0.00    -0.273 OA
BRANCH  12  15
ATOM     15  C   UNL A   1      32.487  26.495  24.201  1.00  0.00     0.189 C 
BRANCH  15  16
ATOM     16  N   UNL A   1      31.652  27.521  23.556  1.00  0.00    -0.247 N 
ATOM     17  C   UNL A   1      32.257  28.438  22.741  1.00  0.00     0.329 A 
ATOM     18  C   UNL A   1      30.271  27.504  23.776  1.00  0.00     0.264 A 
ATOM     19  O   UNL A   1      33.456  28.462  22.511  1.00  0.00    -0.248 OA
ATOM     20  N   UNL A   1      31.496  29.392  22.158  1.00  0.00    -0.307 N 
ATOM     21  C   UNL A   1      29.463  28.528  23.068  1.00  0.00     0.064 A 
ATOM     22  O   UNL A   1      29.691  26.697  24.499  1.00  0.00    -0.268 OA
ATOM     23  C   UNL A   1      30.124  29.462  22.283  1.00  0.00     0.055 A 
ATOM     24  H   UNL A   1      31.947  30.076  21.613  1.00  0.00     0.171 HD
ATOM     25  C   UNL A   1      28.069  28.575  23.161  1.00  0.00     0.016 A 
ATOM     26  C   UNL A   1      29.431  30.455  21.597  1.00  0.00     0.027 A 
ATOM     27  C   UNL A   1      27.362  29.561  22.463  1.00  0.00     0.001 A 
ATOM     28  C   UNL A   1      28.043  30.501  21.687  1.00  0.00     0.002 A 
ENDBRANCH  15  16
BRANCH  15  29
ATOM     29  C   UNL A   1      32.498  26.441  25.759  1.00  0.00     0.071 C 
BRANCH  29  30
ATOM     30  C   UNL A   1      32.874  27.757  26.421  1.00  0.00    -0.045 A 
ATOM     31  C   UNL A   1      31.869  28.626  26.873  1.00  0.00     0.004 A 
ATOM     32  C   UNL A   1      34.202  28.187  26.488  1.00  0.00     0.004 A 
ATOM     33  C   UNL A   1      32.153  29.948  27.204  1.00  0.00     0.000 A 
ATOM     34  C   UNL A   1      34.497  29.492  26.896  1.00  0.00     0.000 A 
ATOM     35  C   UNL A   1      33.470  30.385  27.207  1.00  0.00     0.000 A 
ENDBRANCH  29  30
ENDBRANCH  15  29
ENDBRANCH  12  15
ENDBRANCH   7  11
ENDBRANCH   4   7
ENDBRANCH   2   3
ENDBRANCH   1   2
BRANCH   1  36
ATOM     36  C   UNL A   1      38.142  23.716  26.312  1.00  0.00     0.023 C 
BRANCH  36  37
ATOM     37  C   UNL A   1      39.491  23.632  27.022  1.00  0.00     0.116 C 
BRANCH  37  38
ATOM     38  N   UNL A   1      40.609  23.929  26.136  1.00  0.00    -0.352 N 
ATOM     39  C   UNL A   1      41.522  24.950  26.241  1.00  0.00     0.251 C 
ATOM     40  H   UNL A   1      40.725  23.323  25.368  1.00  0.00     0.163 HD
ATOM     41  O   UNL A   1      42.321  25.177  25.340  1.00  0.00    -0.269 OA
BRANCH  39  42
ATOM     42  C   UNL A   1      41.493  25.783  27.456  1.00  0.00     0.039 A 
ATOM     43  C   UNL A   1      42.464  26.770  27.628  1.00  0.00     0.014 A 
ATOM     44  C   UNL A   1      40.437  25.649  28.361  1.00  0.00     0.014 A 
ATOM     45  C   UNL A   1      42.336  27.676  28.681  1.00  0.00     0.010 A 
ATOM     46  C   UNL A   1      40.270  26.599  29.360  1.00  0.00     0.010 A 
ATOM     47  C   UNL A   1      41.216  27.622  29.530  1.00  0.00    -0.014 A 
BRANCH  47  48
ATOM     48  C   UNL A   1      41.009  28.626  30.603  1.00  0.00     0.031 A 
ATOM     49  C   UNL A   1      41.821  28.544  31.866  1.00  0.00     0.074 A 
ATOM     50  C   UNL A   1      40.043  29.558  30.476  1.00  0.00     0.049 A 
ATOM     51  N   UNL A   1      41.725  29.256  32.958  1.00  0.00    -0.248 NA
ATOM     52  C   UNL A   1      42.861  27.502  31.919  1.00  0.00     0.031 C 
ATOM     53  C   UNL A   1      39.162  29.711  29.316  1.00  0.00     0.029 A 
ATOM     54  N   UNL A   1      39.628  30.543  31.336  1.00  0.00    -0.354 N 
ATOM     55  C   UNL A   1      42.675  28.740  33.830  1.00  0.00     0.074 A 
ATOM     56  C   UNL A   1      43.300  27.620  33.163  1.00  0.00     0.031 C 
ATOM     57  C   UNL A   1      38.324  30.739  29.530  1.00  0.00     0.029 A 
ATOM     58  C   UNL A   1      38.575  31.289  30.858  1.00  0.00     0.049 A 
ATOM     59  H   UNL A   1      40.045  30.701  32.214  1.00  0.00     0.167 HD
ATOM     60  C   UNL A   1      43.013  29.176  35.067  1.00  0.00     0.037 A 
ATOM     61  C   UNL A   1      37.880  32.292  31.432  1.00  0.00     0.037 A 
ATOM     62  C   UNL A   1      42.400  30.306  35.714  1.00  0.00     0.049 A 
ATOM     63  C   UNL A   1      38.261  32.747  32.815  1.00  0.00     0.074 A 
ATOM     64  C   UNL A   1      42.709  30.865  36.941  1.00  0.00     0.029 A 
ATOM     65  N   UNL A   1      41.350  31.048  35.190  1.00  0.00    -0.354 N 
ATOM     66  N   UNL A   1      39.208  32.291  33.601  1.00  0.00    -0.248 NA
ATOM     67  C   UNL A   1      37.486  33.856  33.391  1.00  0.00     0.031 C 
ATOM     68  C   UNL A   1      41.812  31.909  37.184  1.00  0.00     0.029 A 
ATOM     69  C   UNL A   1      40.984  32.043  36.080  1.00  0.00     0.049 A 
ATOM     70  H   UNL A   1      40.930  30.891  34.313  1.00  0.00     0.167 HD
ATOM     71  C   UNL A   1      39.162  33.076  34.749  1.00  0.00     0.074 A 
ATOM     72  C   UNL A   1      38.101  34.041  34.552  1.00  0.00     0.031 C 
ATOM     73  C   UNL A   1      39.933  33.007  35.862  1.00  0.00     0.037 A 
BRANCH  60  74
ATOM     74  C   UNL A   1      44.091  28.429  35.802  1.00  0.00     0.058 A 
ATOM     75  C   UNL A   1      43.794  27.364  36.669  1.00  0.00     0.135 A 
ATOM     76  C   UNL A   1      45.443  28.755  35.608  1.00  0.00     0.135 A 
ATOM     77  F   UNL A   1      42.518  27.019  36.905  1.00  0.00    -0.206 F 
ATOM     78  C   UNL A   1      44.796  26.671  37.341  1.00  0.00     0.059 A 
ATOM     79  C   UNL A   1      46.464  28.055  36.245  1.00  0.00     0.059 A 
ATOM     80  F   UNL A   1      45.785  29.765  34.792  1.00  0.00    -0.206 F 
ATOM     81  C   UNL A   1      46.128  27.023  37.120  1.00  0.00     0.060 A 
BRANCH  81  82
ATOM     82  S   UNL A   1      47.415  26.106  37.993  1.00  0.00     0.124 S 
ATOM     83  O   UNL A   1      46.875  24.749  37.964  1.00  0.00    -0.237 OA
ATOM     84  O   UNL A   1      48.586  26.340  37.154  1.00  0.00    -0.237 OA
ATOM     85  O   UNL A   1      47.452  26.738  39.308  1.00  0.00    -0.744 OA
ENDBRANCH  81  82
ENDBRANCH  60  74
BRANCH  61  86
ATOM     86  C   UNL A   1      36.761  32.939  30.695  1.00  0.00     0.058 A 
ATOM     87  C   UNL A   1      35.431  32.547  30.912  1.00  0.00     0.135 A 
ATOM     88  C   UNL A   1      36.994  33.967  29.768  1.00  0.00     0.135 A 
ATOM     89  F   UNL A   1      35.155  31.564  31.783  1.00  0.00    -0.206 F 
ATOM     90  C   UNL A   1      34.375  33.137  30.225  1.00  0.00     0.059 A 
ATOM     91  C   UNL A   1      35.953  34.592  29.090  1.00  0.00     0.059 A 
ATOM     92  F   UNL A   1      38.246  34.391  29.536  1.00  0.00    -0.206 F 
ATOM     93  C   UNL A   1      34.646  34.162  29.317  1.00  0.00     0.060 A 
BRANCH  93  94
ATOM     94  S   UNL A   1      33.263  34.953  28.466  1.00  0.00     0.124 S 
ATOM     95  O   UNL A   1      32.647  33.817  27.790  1.00  0.00    -0.237 OA
ATOM     96  O   UNL A   1      32.507  35.523  29.577  1.00  0.00    -0.237 OA
ATOM     97  O   UNL A   1      33.917  35.927  27.597  1.00  0.00    -0.744 OA
ENDBRANCH  93  94
ENDBRANCH  61  86
BRANCH  73  98
ATOM     98  C   UNL A   1      39.697  34.025  36.943  1.00  0.00     0.058 A 
ATOM     99  C   UNL A   1      39.016  33.705  38.128  1.00  0.00     0.135 A 
ATOM    100  C   UNL A   1      40.234  35.318  36.825  1.00  0.00     0.135 A 
ATOM    101  F   UNL A   1      38.476  32.487  38.289  1.00  0.00    -0.206 F 
ATOM    102  C   UNL A   1      38.869  34.632  39.154  1.00  0.00     0.059 A 
ATOM    103  C   UNL A   1      40.124  36.252  37.850  1.00  0.00     0.059 A 
ATOM    104  F   UNL A   1      40.901  35.674  35.716  1.00  0.00    -0.206 F 
ATOM    105  C   UNL A   1      39.434  35.902  39.009  1.00  0.00     0.060 A 
BRANCH 105 106
ATOM    106  S   UNL A   1      39.289  37.074  40.374  1.00  0.00     0.124 S 
ATOM    107  O   UNL A   1      38.905  38.295  39.674  1.00  0.00    -0.237 OA
ATOM    108  O   UNL A   1      38.251  36.463  41.199  1.00  0.00    -0.237 OA
ATOM    109  O   UNL A   1      40.625  37.081  40.962  1.00  0.00    -0.744 OA
ENDBRANCH 105 106
ENDBRANCH  73  98
ENDBRANCH  47  48
ENDBRANCH  39  42
ENDBRANCH  37  38
ENDBRANCH  36  37
ENDBRANCH   1  36
TORSDOF 20
ENDMDL
MODEL 3
REMARK VINA RESULT:     -12.8      4.141     10.080
REMARK SMILES CC(C)[C@H](NC(=O)[C@H](Cc1ccccc1)n1c(=O)[nH]c2ccccc2c1=O)C(=O)NCCCCNC(=O)c1ccc(-c2c3nc(c(-c4c(F)cc(S(=O)(=O)[O-])cc4F)c4ccc([nH]4)c(-c4c(F)cc(S(=O)(=O)[O-])cc4F)c4nc(c(-c5c(F)cc(S(=O)(=O)[O-])cc5F)c5ccc2[nH]5)C=C4)C=C3)cc1
REMARK SMILES IDX 32 1 31 2 30 3 28 4 29 5 4 7 2 8 1 9 3 10 5 11 6 12 7 14
REMARK SMILES IDX 8 15 16 16 17 17 26 18 18 19 19 20 25 21 27 22 20 23 24 25
REMARK SMILES IDX 21 26 23 27 22 28 9 29 10 30 11 31 15 32 12 33 14 34 13 35
REMARK SMILES IDX 33 36 34 37 35 38 36 39 37 41 38 42 39 43 103 44 40 45
REMARK SMILES IDX 102 46 41 47 42 48 43 49 96 50 44 51 101 52 95 53 97 54
REMARK SMILES IDX 45 55 100 56 94 57 93 58 46 60 80 61 59 62 79 63 60 64 63 65
REMARK SMILES IDX 78 66 98 67 61 68 62 69 77 71 99 72 64 73 47 74 48 75 57 76
REMARK SMILES IDX 49 77 50 78 56 79 58 80 51 81 52 82 53 83 54 84 55 85 81 86
REMARK SMILES IDX 82 87 91 88 83 89 84 90 90 91 92 92 85 93 86 94 87 95 88 96
REMARK SMILES IDX 89 97 65 98 66 99 75 100 67 101 68 102 74 103 76 104 69 105
REMARK SMILES IDX 70 106 71 107 72 108 73 109
REMARK H PARENT 30 6 5 13 19 24 35 40 97 59 63 70
REMARK Flexibility Score: inf
ROOT
ATOM      1  C   UNL A   1      35.972  21.874  23.933  1.00  0.00     0.023 C 
ENDROOT
BRANCH   1   2
ATOM      2  C   UNL A   1      34.593  21.774  24.568  1.00  0.00     0.116 C 
BRANCH   2   3
ATOM      3  N   UNL A   1      34.588  22.267  25.939  1.00  0.00    -0.354 N 
ATOM      4  C   UNL A   1      33.724  23.086  26.611  1.00  0.00     0.242 C 
ATOM      5  O   UNL A   1      33.789  23.079  27.845  1.00  0.00    -0.273 OA
ATOM      6  H   UNL A   1      35.347  21.954  26.481  1.00  0.00     0.163 HD
BRANCH   4   7
ATOM      7  C   UNL A   1      32.612  23.876  25.885  1.00  0.00     0.173 C 
BRANCH   7   8
ATOM      8  C   UNL A   1      31.291  23.038  25.815  1.00  0.00     0.015 C 
ATOM      9  C   UNL A   1      30.130  23.428  26.736  1.00  0.00     0.010 C 
ATOM     10  C   UNL A   1      30.692  23.045  24.390  1.00  0.00     0.010 C 
ENDBRANCH   7   8
BRANCH   7  11
ATOM     11  N   UNL A   1      33.147  24.397  24.600  1.00  0.00    -0.342 N 
ATOM     12  C   UNL A   1      33.552  25.575  24.067  1.00  0.00     0.244 C 
ATOM     13  H   UNL A   1      33.234  23.671  23.940  1.00  0.00     0.164 HD
ATOM     14  O   UNL A   1      34.236  25.432  23.039  1.00  0.00    -0.273 OA
BRANCH  12  15
ATOM     15  C   UNL A   1      33.376  27.001  24.631  1.00  0.00     0.189 C 
BRANCH  15  16
ATOM     16  N   UNL A   1      32.345  27.786  23.930  1.00  0.00    -0.247 N 
ATOM     17  C   UNL A   1      32.746  28.778  23.078  1.00  0.00     0.329 A 
ATOM     18  C   UNL A   1      30.999  27.469  24.137  1.00  0.00     0.264 A 
ATOM     19  O   UNL A   1      33.913  29.060  22.859  1.00  0.00    -0.248 OA
ATOM     20  N   UNL A   1      31.803  29.511  22.444  1.00  0.00    -0.307 N 
ATOM     21  C   UNL A   1      29.996  28.254  23.375  1.00  0.00     0.064 A 
ATOM     22  O   UNL A   1      30.600  26.585  24.892  1.00  0.00    -0.268 OA
ATOM     23  C   UNL A   1      30.448  29.278  22.553  1.00  0.00     0.055 A 
ATOM     24  H   UNL A   1      32.101  30.254  21.872  1.00  0.00     0.171 HD
ATOM     25  C   UNL A   1      28.626  27.991  23.452  1.00  0.00     0.016 A 
ATOM     26  C   UNL A   1      29.564  30.059  21.815  1.00  0.00     0.027 A 
ATOM     27  C   UNL A   1      27.731  28.762  22.702  1.00  0.00     0.001 A 
ATOM     28  C   UNL A   1      28.200  29.797  21.888  1.00  0.00     0.002 A 
ENDBRANCH  15  16
BRANCH  15  29
ATOM     29  C   UNL A   1      33.354  27.002  26.189  1.00  0.00     0.071 C 
BRANCH  29  30
ATOM     30  C   UNL A   1      33.535  28.377  26.810  1.00  0.00    -0.045 A 
ATOM     31  C   UNL A   1      32.421  29.208  27.010  1.00  0.00     0.004 A 
ATOM     32  C   UNL A   1      34.804  28.894  27.083  1.00  0.00     0.004 A 
ATOM     33  C   UNL A   1      32.572  30.563  27.290  1.00  0.00     0.000 A 
ATOM     34  C   UNL A   1      34.953  30.239  27.441  1.00  0.00     0.000 A 
ATOM     35  C   UNL A   1      33.843  31.082  27.497  1.00  0.00     0.000 A 
ENDBRANCH  29  30
ENDBRANCH  15  29
ENDBRANCH  12  15
ENDBRANCH   7  11
ENDBRANCH   4   7
ENDBRANCH   2   3
ENDBRANCH   1   2
BRANCH   1  36
ATOM     36  C   UNL A   1      36.509  23.303  23.867  1.00  0.00     0.023 C 
BRANCH  36  37
ATOM     37  C   UNL A   1      37.302  23.745  25.093  1.00  0.00     0.116 C 
BRANCH  37  38
ATOM     38  N   UNL A   1      38.261  22.739  25.532  1.00  0.00    -0.352 N 
ATOM     39  C   UNL A   1      39.374  22.918  26.318  1.00  0.00     0.251 C 
ATOM     40  H   UNL A   1      38.090  21.818  25.229  1.00  0.00     0.163 HD
ATOM     41  O   UNL A   1      40.181  22.012  26.485  1.00  0.00    -0.269 OA
BRANCH  39  42
ATOM     42  C   UNL A   1      39.583  24.242  26.931  1.00  0.00     0.039 A 
ATOM     43  C   UNL A   1      39.069  24.491  28.204  1.00  0.00     0.014 A 
ATOM     44  C   UNL A   1      40.380  25.188  26.280  1.00  0.00     0.014 A 
ATOM     45  C   UNL A   1      39.417  25.672  28.859  1.00  0.00     0.010 A 
ATOM     46  C   UNL A   1      40.786  26.325  26.966  1.00  0.00     0.010 A 
ATOM     47  C   UNL A   1      40.311  26.579  28.262  1.00  0.00    -0.014 A 
BRANCH  47  48
ATOM     48  C   UNL A   1      40.766  27.799  28.973  1.00  0.00     0.031 A 
ATOM     49  C   UNL A   1      42.132  27.828  29.601  1.00  0.00     0.074 A 
ATOM     50  C   UNL A   1      39.928  28.844  29.121  1.00  0.00     0.049 A 
ATOM     51  N   UNL A   1      42.679  28.750  30.348  1.00  0.00    -0.248 NA
ATOM     52  C   UNL A   1      42.987  26.648  29.384  1.00  0.00     0.031 C 
ATOM     53  C   UNL A   1      38.563  28.916  28.595  1.00  0.00     0.029 A 
ATOM     54  N   UNL A   1      40.092  30.040  29.773  1.00  0.00    -0.354 N 
ATOM     55  C   UNL A   1      43.929  28.258  30.702  1.00  0.00     0.074 A 
ATOM     56  C   UNL A   1      44.040  26.932  30.135  1.00  0.00     0.031 C 
ATOM     57  C   UNL A   1      38.023  30.099  28.928  1.00  0.00     0.029 A 
ATOM     58  C   UNL A   1      38.981  30.852  29.731  1.00  0.00     0.049 A 
ATOM     59  H   UNL A   1      40.928  30.294  30.228  1.00  0.00     0.167 HD
ATOM     60  C   UNL A   1      44.906  28.866  31.417  1.00  0.00     0.037 A 
ATOM     61  C   UNL A   1      38.756  32.058  30.290  1.00  0.00     0.037 A 
ATOM     62  C   UNL A   1      44.794  30.195  31.957  1.00  0.00     0.049 A 
ATOM     63  C   UNL A   1      39.851  32.707  31.095  1.00  0.00     0.074 A 
ATOM     64  C   UNL A   1      45.747  30.925  32.645  1.00  0.00     0.029 A 
ATOM     65  N   UNL A   1      43.661  30.993  31.877  1.00  0.00    -0.354 N 
ATOM     66  N   UNL A   1      41.053  32.255  31.365  1.00  0.00    -0.248 NA
ATOM     67  C   UNL A   1      39.564  34.029  31.668  1.00  0.00     0.031 C 
ATOM     68  C   UNL A   1      45.173  32.141  33.029  1.00  0.00     0.029 A 
ATOM     69  C   UNL A   1      43.883  32.196  32.525  1.00  0.00     0.049 A 
ATOM     70  H   UNL A   1      42.823  30.741  31.425  1.00  0.00     0.167 HD
ATOM     71  C   UNL A   1      41.675  33.251  32.111  1.00  0.00     0.074 A 
ATOM     72  C   UNL A   1      40.720  34.331  32.244  1.00  0.00     0.031 C 
ATOM     73  C   UNL A   1      42.926  33.269  32.635  1.00  0.00     0.037 A 
BRANCH  60  74
ATOM     74  C   UNL A   1      46.178  28.101  31.654  1.00  0.00     0.058 A 
ATOM     75  C   UNL A   1      46.401  27.391  32.845  1.00  0.00     0.135 A 
ATOM     76  C   UNL A   1      47.172  28.044  30.664  1.00  0.00     0.135 A 
ATOM     77  F   UNL A   1      45.494  27.422  33.833  1.00  0.00    -0.206 F 
ATOM     78  C   UNL A   1      47.577  26.677  33.058  1.00  0.00     0.059 A 
ATOM     79  C   UNL A   1      48.341  27.311  30.841  1.00  0.00     0.059 A 
ATOM     80  F   UNL A   1      47.011  28.706  29.506  1.00  0.00    -0.206 F 
ATOM     81  C   UNL A   1      48.540  26.642  32.048  1.00  0.00     0.060 A 
BRANCH  81  82
ATOM     82  S   UNL A   1      50.055  25.704  32.338  1.00  0.00     0.124 S 
ATOM     83  O   UNL A   1      49.634  24.793  33.399  1.00  0.00    -0.237 OA
ATOM     84  O   UNL A   1      50.295  25.092  31.035  1.00  0.00    -0.237 OA
ATOM     85  O   UNL A   1      51.018  26.726  32.735  1.00  0.00    -0.744 OA
ENDBRANCH  81  82
ENDBRANCH  60  74
BRANCH  61  86
ATOM     86  C   UNL A   1      37.445  32.734  30.098  1.00  0.00     0.058 A 
ATOM     87  C   UNL A   1      36.357  32.452  30.938  1.00  0.00     0.135 A 
ATOM     88  C   UNL A   1      37.253  33.682  29.080  1.00  0.00     0.135 A 
ATOM     89  F   UNL A   1      36.486  31.548  31.921  1.00  0.00    -0.206 F 
ATOM     90  C   UNL A   1      35.122  33.070  30.766  1.00  0.00     0.059 A 
ATOM     91  C   UNL A   1      36.037  34.334  28.906  1.00  0.00     0.059 A 
ATOM     92  F   UNL A   1      38.266  34.001  28.259  1.00  0.00    -0.206 F 
ATOM     93  C   UNL A   1      34.973  34.013  29.748  1.00  0.00     0.060 A 
BRANCH  93  94
ATOM     94  S   UNL A   1      33.380  34.843  29.564  1.00  0.00     0.124 S 
ATOM     95  O   UNL A   1      32.687  33.948  28.645  1.00  0.00    -0.237 OA
ATOM     96  O   UNL A   1      32.884  34.859  30.937  1.00  0.00    -0.237 OA
ATOM     97  O   UNL A   1      33.742  36.149  29.022  1.00  0.00    -0.744 OA
ENDBRANCH  93  94
ENDBRANCH  61  86
BRANCH  73  98
ATOM     98  C   UNL A   1      43.362  34.511  33.364  1.00  0.00     0.058 A 
ATOM     99  C   UNL A   1      43.847  35.638  32.684  1.00  0.00     0.135 A 
ATOM    100  C   UNL A   1      43.212  34.600  34.758  1.00  0.00     0.135 A 
ATOM    101  F   UNL A   1      44.017  35.603  31.353  1.00  0.00    -0.206 F 
ATOM    102  C   UNL A   1      44.176  36.808  33.360  1.00  0.00     0.059 A 
ATOM    103  C   UNL A   1      43.508  35.769  35.451  1.00  0.00     0.059 A 
ATOM    104  F   UNL A   1      42.745  33.552  35.456  1.00  0.00    -0.206 F 
ATOM    105  C   UNL A   1      43.995  36.867  34.745  1.00  0.00     0.060 A 
BRANCH 105 106
ATOM    106  S   UNL A   1      44.367  38.411  35.600  1.00  0.00     0.124 S 
ATOM    107  O   UNL A   1      43.746  39.394  34.719  1.00  0.00    -0.237 OA
ATOM    108  O   UNL A   1      43.714  38.217  36.891  1.00  0.00    -0.237 OA
ATOM    109  O   UNL A   1      45.826  38.437  35.640  1.00  0.00    -0.744 OA
ENDBRANCH 105 106
ENDBRANCH  73  98
ENDBRANCH  47  48
ENDBRANCH  39  42
ENDBRANCH  37  38
ENDBRANCH  36  37
ENDBRANCH   1  36
TORSDOF 20
ENDMDL
