MODEL 1
REMARK VINA RESULT:     -11.2      0.000      0.000
REMARK SMILES CCN1C(=O)/C(=C2/SC(=S)N([C@@H](C)C(=O)NCCCCNC(=O)c3ccc(-c4c5nc(c(-c6c(F)cc(S(=O)(=O)[O-])cc6F)c6ccc([nH]6)c(-c6c(F)cc(S(=O)(=O)[O-])cc6F)c6nc(c(-c7c(F)cc(S(=O)(=O)[O-])cc7F)c7ccc4[nH]7)C=C6)C=C5)cc3)C2=O)c2cc(Br)ccc21
REMARK SMILES IDX 19 1 18 2 17 3 16 4 14 5 15 6 12 8 13 9 11 10 3 11 4 12
REMARK SMILES IDX 98 13 5 14 6 15 92 16 97 17 7 18 93 19 96 20 8 21 90 22
REMARK SMILES IDX 94 23 9 24 91 25 95 26 10 27 2 28 1 29 20 30 21 31 22 32
REMARK SMILES IDX 23 34 24 35 25 36 89 37 26 38 88 39 27 40 28 41 29 42 82 43
REMARK SMILES IDX 30 44 87 45 81 46 83 47 31 48 86 49 80 50 79 51 32 53 66 54
REMARK SMILES IDX 45 55 65 56 46 57 49 58 64 59 84 60 47 61 48 62 63 64 85 65
REMARK SMILES IDX 50 66 33 67 34 68 43 69 35 70 36 71 42 72 44 73 37 74 38 75
REMARK SMILES IDX 39 76 40 77 41 78 67 79 68 80 77 81 69 82 70 83 76 84 78 85
REMARK SMILES IDX 71 86 72 87 73 88 74 89 75 90 51 91 52 92 61 93 53 94 54 95
REMARK SMILES IDX 60 96 62 97 55 98 56 99 57 100 58 101 59 102
REMARK H PARENT 16 7 21 33 83 52 49 63
REMARK Flexibility Score: inf
ROOT
ATOM      1  C   UNL A   1      48.070  24.358  34.200  1.00  0.00     0.023 C 
ENDROOT
BRANCH   1   2
ATOM      2  C   UNL A   1      49.194  23.569  34.860  1.00  0.00     0.023 C 
BRANCH   2   3
ATOM      3  C   UNL A   1      48.746  22.316  35.611  1.00  0.00     0.116 C 
BRANCH   3   4
ATOM      4  N   UNL A   1      48.434  21.229  34.708  1.00  0.00    -0.354 N 
ATOM      5  C   UNL A   1      47.297  20.517  34.475  1.00  0.00     0.242 C 
ATOM      6  O   UNL A   1      47.353  19.711  33.538  1.00  0.00    -0.273 OA
ATOM      7  H   UNL A   1      49.196  20.949  34.150  1.00  0.00     0.163 HD
BRANCH   5   8
ATOM      8  C   UNL A   1      45.953  20.730  35.228  1.00  0.00     0.178 C 
ATOM      9  C   UNL A   1      45.391  22.120  34.938  1.00  0.00     0.042 C 
BRANCH   8  10
ATOM     10  N   UNL A   1      46.013  20.288  36.641  1.00  0.00    -0.280 N 
ATOM     11  N   UNL A   1      44.358  16.031  40.194  1.00  0.00    -0.308 N 
ATOM     12  C   UNL A   1      44.520  16.754  38.992  1.00  0.00     0.260 C 
ATOM     13  C   UNL A   1      45.267  16.479  41.175  1.00  0.00     0.052 A 
ATOM     14  O   UNL A   1      43.799  16.708  38.016  1.00  0.00    -0.269 OA
ATOM     15  C   UNL A   1      45.666  17.701  39.236  1.00  0.00     0.069 C 
ATOM     16  C   UNL A   1      46.090  17.481  40.641  1.00  0.00     0.014 A 
ATOM     17  C   UNL A   1      45.421  16.082  42.497  1.00  0.00     0.028 A 
ATOM     18  C   UNL A   1      46.094  18.645  38.377  1.00  0.00     0.093 C 
ATOM     19  C   UNL A   1      47.082  18.064  41.429  1.00  0.00     0.026 A 
ATOM     20  C   UNL A   1      46.403  16.687  43.292  1.00  0.00     0.018 A 
ATOM     21  S   UNL A   1      47.131  19.943  38.869  1.00  0.00    -0.053 SA
ATOM     22  C   UNL A   1      45.737  18.943  36.941  1.00  0.00     0.267 C 
ATOM     23  C   UNL A   1      47.223  17.675  42.756  1.00  0.00     0.018 A 
ATOM     24  C   UNL A   1      46.390  21.025  37.731  1.00  0.00     0.149 C 
ATOM     25  O   UNL A   1      45.317  18.115  36.150  1.00  0.00    -0.268 OA
ATOM     26  Br  UNL A   1      48.530  18.512  43.835  1.00  0.00    -0.051 Br
ATOM     27  S   UNL A   1      46.139  22.622  38.131  1.00  0.00    -0.052 S 
BRANCH  11  28
ATOM     28  C   UNL A   1      43.246  15.110  40.335  1.00  0.00     0.122 C 
ATOM     29  C   UNL A   1      41.952  15.592  40.971  1.00  0.00     0.028 C 
ENDBRANCH  11  28
ENDBRANCH   8  10
ENDBRANCH   5   8
ENDBRANCH   3   4
ENDBRANCH   2   3
ENDBRANCH   1   2
BRANCH   1  30
ATOM     30  C   UNL A   1      47.343  25.335  35.110  1.00  0.00     0.116 C 
BRANCH  30  31
ATOM     31  N   UNL A   1      48.019  25.614  36.373  1.00  0.00    -0.352 N 
ATOM     32  C   UNL A   1      47.732  26.616  37.281  1.00  0.00     0.251 C 
ATOM     33  H   UNL A   1      48.766  25.019  36.607  1.00  0.00     0.163 HD
ATOM     34  O   UNL A   1      48.427  26.783  38.277  1.00  0.00    -0.269 OA
BRANCH  32  35
ATOM     35  C   UNL A   1      46.598  27.521  36.989  1.00  0.00     0.039 A 
ATOM     36  C   UNL A   1      45.303  27.124  37.316  1.00  0.00     0.014 A 
ATOM     37  C   UNL A   1      46.814  28.682  36.244  1.00  0.00     0.014 A 
ATOM     38  C   UNL A   1      44.230  27.736  36.688  1.00  0.00     0.010 A 
ATOM     39  C   UNL A   1      45.718  29.379  35.722  1.00  0.00     0.010 A 
ATOM     40  C   UNL A   1      44.419  28.867  35.874  1.00  0.00    -0.014 A 
BRANCH  40  41
ATOM     41  C   UNL A   1      43.241  29.461  35.180  1.00  0.00     0.031 A 
ATOM     42  C   UNL A   1      42.504  30.643  35.766  1.00  0.00     0.074 A 
ATOM     43  C   UNL A   1      42.888  28.984  33.968  1.00  0.00     0.049 A 
ATOM     44  N   UNL A   1      41.477  31.294  35.278  1.00  0.00    -0.248 NA
ATOM     45  C   UNL A   1      42.970  31.163  37.063  1.00  0.00     0.031 C 
ATOM     46  C   UNL A   1      43.530  27.854  33.289  1.00  0.00     0.029 A 
ATOM     47  N   UNL A   1      41.936  29.403  33.073  1.00  0.00    -0.354 N 
ATOM     48  C   UNL A   1      41.163  32.277  36.211  1.00  0.00     0.074 A 
ATOM     49  C   UNL A   1      42.085  32.120  37.313  1.00  0.00     0.031 C 
ATOM     50  C   UNL A   1      43.005  27.716  32.064  1.00  0.00     0.029 A 
ATOM     51  C   UNL A   1      41.928  28.684  31.900  1.00  0.00     0.049 A 
ATOM     52  H   UNL A   1      41.316  30.146  33.254  1.00  0.00     0.167 HD
ATOM     53  C   UNL A   1      40.206  33.233  36.146  1.00  0.00     0.037 A 
ATOM     54  C   UNL A   1      41.129  28.770  30.819  1.00  0.00     0.037 A 
ATOM     55  C   UNL A   1      39.317  33.412  35.026  1.00  0.00     0.049 A 
ATOM     56  C   UNL A   1      40.043  29.808  30.799  1.00  0.00     0.074 A 
ATOM     57  C   UNL A   1      38.335  34.373  34.857  1.00  0.00     0.029 A 
ATOM     58  N   UNL A   1      39.303  32.621  33.887  1.00  0.00    -0.354 N 
ATOM     59  N   UNL A   1      39.777  30.735  31.688  1.00  0.00    -0.248 NA
ATOM     60  C   UNL A   1      39.139  29.803  29.641  1.00  0.00     0.031 C 
ATOM     61  C   UNL A   1      37.692  34.132  33.640  1.00  0.00     0.029 A 
ATOM     62  C   UNL A   1      38.309  33.055  33.024  1.00  0.00     0.049 A 
ATOM     63  H   UNL A   1      39.909  31.865  33.716  1.00  0.00     0.167 HD
ATOM     64  C   UNL A   1      38.680  31.430  31.190  1.00  0.00     0.074 A 
ATOM     65  C   UNL A   1      38.353  30.837  29.911  1.00  0.00     0.031 C 
ATOM     66  C   UNL A   1      37.999  32.459  31.750  1.00  0.00     0.037 A 
BRANCH  53  67
ATOM     67  C   UNL A   1      40.054  34.181  37.306  1.00  0.00     0.058 A 
ATOM     68  C   UNL A   1      40.680  35.437  37.318  1.00  0.00     0.135 A 
ATOM     69  C   UNL A   1      39.179  33.877  38.364  1.00  0.00     0.135 A 
ATOM     70  F   UNL A   1      41.537  35.774  36.342  1.00  0.00    -0.206 F 
ATOM     71  C   UNL A   1      40.445  36.358  38.335  1.00  0.00     0.059 A 
ATOM     72  C   UNL A   1      38.909  34.793  39.379  1.00  0.00     0.059 A 
ATOM     73  F   UNL A   1      38.554  32.690  38.403  1.00  0.00    -0.206 F 
ATOM     74  C   UNL A   1      39.549  36.031  39.354  1.00  0.00     0.060 A 
BRANCH  74  75
ATOM     75  S   UNL A   1      39.220  37.262  40.635  1.00  0.00     0.124 S 
ATOM     76  O   UNL A   1      40.545  37.842  40.831  1.00  0.00    -0.237 OA
ATOM     77  O   UNL A   1      38.239  38.127  39.986  1.00  0.00    -0.237 OA
ATOM     78  O   UNL A   1      38.713  36.468  41.750  1.00  0.00    -0.744 OA
ENDBRANCH  74  75
ENDBRANCH  53  67
BRANCH  54  79
ATOM     79  C   UNL A   1      41.309  27.826  29.683  1.00  0.00     0.058 A 
ATOM     80  C   UNL A   1      42.397  27.945  28.806  1.00  0.00     0.135 A 
ATOM     81  C   UNL A   1      40.397  26.784  29.452  1.00  0.00     0.135 A 
ATOM     82  F   UNL A   1      43.296  28.926  28.979  1.00  0.00    -0.206 F 
ATOM     83  C   UNL A   1      42.562  27.079  27.730  1.00  0.00     0.059 A 
ATOM     84  C   UNL A   1      40.558  25.884  28.405  1.00  0.00     0.059 A 
ATOM     85  F   UNL A   1      39.345  26.616  30.271  1.00  0.00    -0.206 F 
ATOM     86  C   UNL A   1      41.637  26.049  27.539  1.00  0.00     0.060 A 
BRANCH  86  87
ATOM     87  S   UNL A   1      41.875  24.919  26.153  1.00  0.00     0.124 S 
ATOM     88  O   UNL A   1      40.752  24.005  26.324  1.00  0.00    -0.237 OA
ATOM     89  O   UNL A   1      41.796  25.822  25.009  1.00  0.00    -0.237 OA
ATOM     90  O   UNL A   1      43.196  24.352  26.404  1.00  0.00    -0.744 OA
ENDBRANCH  86  87
ENDBRANCH  54  79
BRANCH  66  91
ATOM     91  C   UNL A   1      36.835  33.023  30.986  1.00  0.00     0.058 A 
ATOM     92  C   UNL A   1      35.513  32.726  31.348  1.00  0.00     0.135 A 
ATOM     93  C   UNL A   1      37.040  33.940  29.941  1.00  0.00     0.135 A 
ATOM     94  F   UNL A   1      35.262  31.848  32.332  1.00  0.00    -0.206 F 
ATOM     95  C   UNL A   1      34.433  33.313  30.697  1.00  0.00     0.059 A 
ATOM     96  C   UNL A   1      35.976  34.562  29.297  1.00  0.00     0.059 A 
ATOM     97  F   UNL A   1      38.287  34.265  29.562  1.00  0.00    -0.206 F 
ATOM     98  C   UNL A   1      34.675  34.239  29.681  1.00  0.00     0.060 A 
BRANCH  98  99
ATOM     99  S   UNL A   1      33.262  35.039  28.894  1.00  0.00     0.124 S 
ATOM    100  O   UNL A   1      33.889  36.200  28.270  1.00  0.00    -0.237 OA
ATOM    101  O   UNL A   1      32.791  34.004  27.980  1.00  0.00    -0.237 OA
ATOM    102  O   UNL A   1      32.370  35.335  30.012  1.00  0.00    -0.744 OA
ENDBRANCH  98  99
ENDBRANCH  66  91
ENDBRANCH  40  41
ENDBRANCH  32  35
ENDBRANCH  30  31
ENDBRANCH   1  30
TORSDOF 16
ENDMDL
MODEL 2
REMARK VINA RESULT:     -11.2      9.631     19.029
REMARK SMILES CCN1C(=O)/C(=C2/SC(=S)N([C@@H](C)C(=O)NCCCCNC(=O)c3ccc(-c4c5nc(c(-c6c(F)cc(S(=O)(=O)[O-])cc6F)c6ccc([nH]6)c(-c6c(F)cc(S(=O)(=O)[O-])cc6F)c6nc(c(-c7c(F)cc(S(=O)(=O)[O-])cc7F)c7ccc4[nH]7)C=C6)C=C5)cc3)C2=O)c2cc(Br)ccc21
REMARK SMILES IDX 19 1 18 2 17 3 16 4 14 5 15 6 12 8 13 9 11 10 3 11 4 12
REMARK SMILES IDX 98 13 5 14 6 15 92 16 97 17 7 18 93 19 96 20 8 21 90 22
REMARK SMILES IDX 94 23 9 24 91 25 95 26 10 27 2 28 1 29 20 30 21 31 22 32
REMARK SMILES IDX 23 34 24 35 25 36 89 37 26 38 88 39 27 40 28 41 29 42 82 43
REMARK SMILES IDX 30 44 87 45 81 46 83 47 31 48 86 49 80 50 79 51 32 53 66 54
REMARK SMILES IDX 45 55 65 56 46 57 49 58 64 59 84 60 47 61 48 62 63 64 85 65
REMARK SMILES IDX 50 66 33 67 34 68 43 69 35 70 36 71 42 72 44 73 37 74 38 75
REMARK SMILES IDX 39 76 40 77 41 78 67 79 68 80 77 81 69 82 70 83 76 84 78 85
REMARK SMILES IDX 71 86 72 87 73 88 74 89 75 90 51 91 52 92 61 93 53 94 54 95
REMARK SMILES IDX 60 96 62 97 55 98 56 99 57 100 58 101 59 102
REMARK H PARENT 16 7 21 33 83 52 49 63
REMARK Flexibility Score: inf
ROOT
ATOM      1  C   UNL A   1      43.796  37.516  30.301  1.00  0.00     0.023 C 
ENDROOT
BRANCH   1   2
ATOM      2  C   UNL A   1      43.979  39.020  30.466  1.00  0.00     0.023 C 
BRANCH   2   3
ATOM      3  C   UNL A   1      43.066  39.879  29.590  1.00  0.00     0.116 C 
BRANCH   3   4
ATOM      4  N   UNL A   1      43.744  41.060  29.101  1.00  0.00    -0.354 N 
ATOM      5  C   UNL A   1      44.000  41.527  27.848  1.00  0.00     0.242 C 
ATOM      6  O   UNL A   1      44.521  42.648  27.791  1.00  0.00    -0.273 OA
ATOM      7  H   UNL A   1      44.088  41.643  29.817  1.00  0.00     0.163 HD
BRANCH   5   8
ATOM      8  C   UNL A   1      43.593  40.800  26.535  1.00  0.00     0.178 C 
ATOM      9  C   UNL A   1      43.705  39.287  26.704  1.00  0.00     0.042 C 
BRANCH   8  10
ATOM     10  N   UNL A   1      44.206  41.409  25.331  1.00  0.00    -0.280 N 
ATOM     11  N   UNL A   1      42.932  43.463  20.073  1.00  0.00    -0.308 N 
ATOM     12  C   UNL A   1      42.727  42.897  21.350  1.00  0.00     0.260 C 
ATOM     13  C   UNL A   1      44.192  44.093  20.000  1.00  0.00     0.052 A 
ATOM     14  O   UNL A   1      41.815  42.168  21.682  1.00  0.00    -0.269 OA
ATOM     15  C   UNL A   1      43.950  43.254  22.157  1.00  0.00     0.069 C 
ATOM     16  C   UNL A   1      44.842  44.006  21.239  1.00  0.00     0.014 A 
ATOM     17  C   UNL A   1      44.812  44.729  18.932  1.00  0.00     0.028 A 
ATOM     18  C   UNL A   1      44.209  42.830  23.407  1.00  0.00     0.093 C 
ATOM     19  C   UNL A   1      46.102  44.578  21.409  1.00  0.00     0.026 A 
ATOM     20  C   UNL A   1      46.088  45.281  19.101  1.00  0.00     0.018 A 
ATOM     21  S   UNL A   1      45.787  42.942  24.113  1.00  0.00    -0.053 SA
ATOM     22  C   UNL A   1      43.374  42.076  24.414  1.00  0.00     0.267 C 
ATOM     23  C   UNL A   1      46.726  45.200  20.334  1.00  0.00     0.018 A 
ATOM     24  C   UNL A   1      45.535  41.480  25.015  1.00  0.00     0.149 C 
ATOM     25  O   UNL A   1      42.155  42.090  24.446  1.00  0.00    -0.268 OA
ATOM     26  Br  UNL A   1      48.459  45.920  20.556  1.00  0.00    -0.051 Br
ATOM     27  S   UNL A   1      46.786  40.403  25.235  1.00  0.00    -0.052 S 
BRANCH  11  28
ATOM     28  C   UNL A   1      41.984  43.196  19.007  1.00  0.00     0.122 C 
ATOM     29  C   UNL A   1      40.763  44.088  18.853  1.00  0.00     0.028 C 
ENDBRANCH  11  28
ENDBRANCH   8  10
ENDBRANCH   5   8
ENDBRANCH   3   4
ENDBRANCH   2   3
ENDBRANCH   1   2
BRANCH   1  30
ATOM     30  C   UNL A   1      44.817  36.834  29.404  1.00  0.00     0.116 C 
BRANCH  30  31
ATOM     31  N   UNL A   1      46.143  37.445  29.411  1.00  0.00    -0.352 N 
ATOM     32  C   UNL A   1      47.360  36.823  29.207  1.00  0.00     0.251 C 
ATOM     33  H   UNL A   1      46.174  38.414  29.582  1.00  0.00     0.163 HD
ATOM     34  O   UNL A   1      48.411  37.445  29.308  1.00  0.00    -0.269 OA
BRANCH  32  35
ATOM     35  C   UNL A   1      47.364  35.372  28.919  1.00  0.00     0.039 A 
ATOM     36  C   UNL A   1      47.202  34.934  27.606  1.00  0.00     0.014 A 
ATOM     37  C   UNL A   1      47.364  34.457  29.974  1.00  0.00     0.014 A 
ATOM     38  C   UNL A   1      46.786  33.631  27.376  1.00  0.00     0.010 A 
ATOM     39  C   UNL A   1      47.076  33.112  29.719  1.00  0.00     0.010 A 
ATOM     40  C   UNL A   1      46.707  32.701  28.427  1.00  0.00    -0.014 A 
BRANCH  40  41
ATOM     41  C   UNL A   1      46.207  31.327  28.139  1.00  0.00     0.031 A 
ATOM     42  C   UNL A   1      47.153  30.224  27.723  1.00  0.00     0.074 A 
ATOM     43  C   UNL A   1      44.901  31.052  28.339  1.00  0.00     0.049 A 
ATOM     44  N   UNL A   1      46.885  28.969  27.460  1.00  0.00    -0.248 NA
ATOM     45  C   UNL A   1      48.578  30.566  27.579  1.00  0.00     0.031 C 
ATOM     46  C   UNL A   1      43.890  32.029  28.753  1.00  0.00     0.029 A 
ATOM     47  N   UNL A   1      44.204  29.874  28.261  1.00  0.00    -0.354 N 
ATOM     48  C   UNL A   1      48.094  28.382  27.100  1.00  0.00     0.074 A 
ATOM     49  C   UNL A   1      49.096  29.422  27.146  1.00  0.00     0.031 C 
ATOM     50  C   UNL A   1      42.725  31.400  28.960  1.00  0.00     0.029 A 
ATOM     51  C   UNL A   1      42.877  29.994  28.607  1.00  0.00     0.049 A 
ATOM     52  H   UNL A   1      44.612  29.022  27.982  1.00  0.00     0.167 HD
ATOM     53  C   UNL A   1      48.347  27.090  26.781  1.00  0.00     0.037 A 
ATOM     54  C   UNL A   1      41.883  29.086  28.617  1.00  0.00     0.037 A 
ATOM     55  C   UNL A   1      47.353  26.048  26.779  1.00  0.00     0.049 A 
ATOM     56  C   UNL A   1      42.185  27.673  28.207  1.00  0.00     0.074 A 
ATOM     57  C   UNL A   1      47.522  24.703  26.498  1.00  0.00     0.029 A 
ATOM     58  N   UNL A   1      46.010  26.228  27.075  1.00  0.00    -0.354 N 
ATOM     59  N   UNL A   1      43.340  27.140  27.886  1.00  0.00    -0.248 NA
ATOM     60  C   UNL A   1      41.051  26.741  28.144  1.00  0.00     0.031 C 
ATOM     61  C   UNL A   1      46.274  24.080  26.572  1.00  0.00     0.029 A 
ATOM     62  C   UNL A   1      45.334  25.024  26.954  1.00  0.00     0.049 A 
ATOM     63  H   UNL A   1      45.598  27.084  27.333  1.00  0.00     0.167 HD
ATOM     64  C   UNL A   1      43.072  25.808  27.593  1.00  0.00     0.074 A 
ATOM     65  C   UNL A   1      41.653  25.609  27.804  1.00  0.00     0.031 C 
ATOM     66  C   UNL A   1      43.923  24.840  27.175  1.00  0.00     0.037 A 
BRANCH  53  67
ATOM     67  C   UNL A   1      49.754  26.703  26.408  1.00  0.00     0.058 A 
ATOM     68  C   UNL A   1      50.634  26.135  27.343  1.00  0.00     0.135 A 
ATOM     69  C   UNL A   1      50.188  26.793  25.074  1.00  0.00     0.135 A 
ATOM     70  F   UNL A   1      50.278  26.039  28.634  1.00  0.00    -0.206 F 
ATOM     71  C   UNL A   1      51.891  25.670  26.970  1.00  0.00     0.059 A 
ATOM     72  C   UNL A   1      51.432  26.311  24.673  1.00  0.00     0.059 A 
ATOM     73  F   UNL A   1      49.387  27.327  24.138  1.00  0.00    -0.206 F 
ATOM     74  C   UNL A   1      52.277  25.752  25.631  1.00  0.00     0.060 A 
BRANCH  74  75
ATOM     75  S   UNL A   1      53.892  25.094  25.161  1.00  0.00     0.124 S 
ATOM     76  O   UNL A   1      53.594  23.675  24.993  1.00  0.00    -0.237 OA
ATOM     77  O   UNL A   1      54.180  25.831  23.935  1.00  0.00    -0.237 OA
ATOM     78  O   UNL A   1      54.741  25.425  26.303  1.00  0.00    -0.744 OA
ENDBRANCH  74  75
ENDBRANCH  53  67
BRANCH  54  79
ATOM     79  C   UNL A   1      40.504  29.496  28.999  1.00  0.00     0.058 A 
ATOM     80  C   UNL A   1      39.497  29.643  28.035  1.00  0.00     0.135 A 
ATOM     81  C   UNL A   1      40.165  29.746  30.339  1.00  0.00     0.135 A 
ATOM     82  F   UNL A   1      39.770  29.420  26.740  1.00  0.00    -0.206 F 
ATOM     83  C   UNL A   1      38.211  30.045  28.381  1.00  0.00     0.059 A 
ATOM     84  C   UNL A   1      38.879  30.115  30.714  1.00  0.00     0.059 A 
ATOM     85  F   UNL A   1      41.088  29.605  31.305  1.00  0.00    -0.206 F 
ATOM     86  C   UNL A   1      37.911  30.276  29.725  1.00  0.00     0.060 A 
BRANCH  86  87
ATOM     87  S   UNL A   1      36.233  30.776  30.163  1.00  0.00     0.124 S 
ATOM     88  O   UNL A   1      35.505  30.463  28.939  1.00  0.00    -0.237 OA
ATOM     89  O   UNL A   1      35.952  29.920  31.311  1.00  0.00    -0.237 OA
ATOM     90  O   UNL A   1      36.374  32.196  30.468  1.00  0.00    -0.744 OA
ENDBRANCH  86  87
ENDBRANCH  54  79
BRANCH  66  91
ATOM     91  C   UNL A   1      43.355  23.472  26.922  1.00  0.00     0.058 A 
ATOM     92  C   UNL A   1      43.150  22.997  25.618  1.00  0.00     0.135 A 
ATOM     93  C   UNL A   1      43.099  22.595  27.990  1.00  0.00     0.135 A 
ATOM     94  F   UNL A   1      43.370  23.799  24.564  1.00  0.00    -0.206 F 
ATOM     95  C   UNL A   1      42.706  21.701  25.380  1.00  0.00     0.059 A 
ATOM     96  C   UNL A   1      42.683  21.285  27.774  1.00  0.00     0.059 A 
ATOM     97  F   UNL A   1      43.287  22.998  29.257  1.00  0.00    -0.206 F 
ATOM     98  C   UNL A   1      42.486  20.849  26.465  1.00  0.00     0.060 A 
BRANCH  98  99
ATOM     99  S   UNL A   1      41.973  19.151  26.131  1.00  0.00     0.124 S 
ATOM    100  O   UNL A   1      42.217  18.511  27.420  1.00  0.00    -0.237 OA
ATOM    101  O   UNL A   1      40.571  19.319  25.761  1.00  0.00    -0.237 OA
ATOM    102  O   UNL A   1      42.857  18.733  25.047  1.00  0.00    -0.744 OA
ENDBRANCH  98  99
ENDBRANCH  66  91
ENDBRANCH  40  41
ENDBRANCH  32  35
ENDBRANCH  30  31
ENDBRANCH   1  30
TORSDOF 16
ENDMDL
MODEL 3
REMARK VINA RESULT:     -11.2      9.185     18.528
REMARK SMILES CCN1C(=O)/C(=C2/SC(=S)N([C@@H](C)C(=O)NCCCCNC(=O)c3ccc(-c4c5nc(c(-c6c(F)cc(S(=O)(=O)[O-])cc6F)c6ccc([nH]6)c(-c6c(F)cc(S(=O)(=O)[O-])cc6F)c6nc(c(-c7c(F)cc(S(=O)(=O)[O-])cc7F)c7ccc4[nH]7)C=C6)C=C5)cc3)C2=O)c2cc(Br)ccc21
REMARK SMILES IDX 19 1 18 2 17 3 16 4 14 5 15 6 12 8 13 9 11 10 3 11 4 12
REMARK SMILES IDX 98 13 5 14 6 15 92 16 97 17 7 18 93 19 96 20 8 21 90 22
REMARK SMILES IDX 94 23 9 24 91 25 95 26 10 27 2 28 1 29 20 30 21 31 22 32
REMARK SMILES IDX 23 34 24 35 25 36 89 37 26 38 88 39 27 40 28 41 29 42 82 43
REMARK SMILES IDX 30 44 87 45 81 46 83 47 31 48 86 49 80 50 79 51 32 53 66 54
REMARK SMILES IDX 45 55 65 56 46 57 49 58 64 59 84 60 47 61 48 62 63 64 85 65
REMARK SMILES IDX 50 66 33 67 34 68 43 69 35 70 36 71 42 72 44 73 37 74 38 75
REMARK SMILES IDX 39 76 40 77 41 78 67 79 68 80 77 81 69 82 70 83 76 84 78 85
REMARK SMILES IDX 71 86 72 87 73 88 74 89 75 90 51 91 52 92 61 93 53 94 54 95
REMARK SMILES IDX 60 96 62 97 55 98 56 99 57 100 58 101 59 102
REMARK H PARENT 16 7 21 33 83 52 49 63
REMARK Flexibility Score: inf
ROOT
ATOM      1  C   UNL A   1      46.575  39.218  30.662  1.00  0.00     0.023 C 
ENDROOT
BRANCH   1   2
ATOM      2  C   UNL A   1      45.337  39.982  30.206  1.00  0.00     0.023 C 
BRANCH   2   3
ATOM      3  C   UNL A   1      44.127  39.108  29.876  1.00  0.00     0.116 C 
BRANCH   3   4
ATOM      4  N   UNL A   1      42.912  39.886  29.774  1.00  0.00    -0.354 N 
ATOM      5  C   UNL A   1      42.017  40.076  28.765  1.00  0.00     0.242 C 
ATOM      6  O   UNL A   1      41.012  40.735  29.060  1.00  0.00    -0.273 OA
ATOM      7  H   UNL A   1      42.687  40.376  30.599  1.00  0.00     0.163 HD
BRANCH   5   8
ATOM      8  C   UNL A   1      42.137  39.446  27.349  1.00  0.00     0.178 C 
ATOM      9  C   UNL A   1      42.449  37.955  27.451  1.00  0.00     0.042 C 
BRANCH   8  10
ATOM     10  N   UNL A   1      42.959  40.264  26.427  1.00  0.00    -0.280 N 
ATOM     11  N   UNL A   1      42.656  43.445  21.602  1.00  0.00    -0.308 N 
ATOM     12  C   UNL A   1      42.222  42.633  22.673  1.00  0.00     0.260 C 
ATOM     13  C   UNL A   1      43.917  44.012  21.882  1.00  0.00     0.052 A 
ATOM     14  O   UNL A   1      41.256  41.897  22.680  1.00  0.00    -0.269 OA
ATOM     15  C   UNL A   1      43.288  42.749  23.732  1.00  0.00     0.069 C 
ATOM     16  C   UNL A   1      44.337  43.632  23.164  1.00  0.00     0.014 A 
ATOM     17  C   UNL A   1      44.723  44.827  21.097  1.00  0.00     0.028 A 
ATOM     18  C   UNL A   1      43.319  42.058  24.886  1.00  0.00     0.093 C 
ATOM     19  C   UNL A   1      45.555  44.091  23.664  1.00  0.00     0.026 A 
ATOM     20  C   UNL A   1      45.956  45.266  21.595  1.00  0.00     0.018 A 
ATOM     21  S   UNL A   1      44.749  41.937  25.856  1.00  0.00    -0.053 SA
ATOM     22  C   UNL A   1      42.310  41.151  25.550  1.00  0.00     0.267 C 
ATOM     23  C   UNL A   1      46.367  44.893  22.870  1.00  0.00     0.018 A 
ATOM     24  C   UNL A   1      44.324  40.332  26.363  1.00  0.00     0.149 C 
ATOM     25  O   UNL A   1      41.105  41.219  25.378  1.00  0.00    -0.268 OA
ATOM     26  Br  UNL A   1      48.043  45.461  23.532  1.00  0.00    -0.051 Br
ATOM     27  S   UNL A   1      45.503  39.171  26.552  1.00  0.00    -0.052 S 
BRANCH  11  28
ATOM     28  C   UNL A   1      41.905  43.458  20.360  1.00  0.00     0.122 C 
ATOM     29  C   UNL A   1      42.644  43.618  19.042  1.00  0.00     0.028 C 
ENDBRANCH  11  28
ENDBRANCH   8  10
ENDBRANCH   5   8
ENDBRANCH   3   4
ENDBRANCH   2   3
ENDBRANCH   1   2
BRANCH   1  30
ATOM     30  C   UNL A   1      46.798  37.879  29.976  1.00  0.00     0.116 C 
BRANCH  30  31
ATOM     31  N   UNL A   1      48.181  37.609  29.597  1.00  0.00    -0.352 N 
ATOM     32  C   UNL A   1      48.709  36.426  29.114  1.00  0.00     0.251 C 
ATOM     33  H   UNL A   1      48.814  38.356  29.697  1.00  0.00     0.163 HD
ATOM     34  O   UNL A   1      49.909  36.312  28.898  1.00  0.00    -0.269 OA
BRANCH  32  35
ATOM     35  C   UNL A   1      47.792  35.280  28.919  1.00  0.00     0.039 A 
ATOM     36  C   UNL A   1      47.616  34.361  29.952  1.00  0.00     0.014 A 
ATOM     37  C   UNL A   1      47.244  35.039  27.657  1.00  0.00     0.014 A 
ATOM     38  C   UNL A   1      47.122  33.100  29.655  1.00  0.00     0.010 A 
ATOM     39  C   UNL A   1      46.623  33.812  27.400  1.00  0.00     0.010 A 
ATOM     40  C   UNL A   1      46.626  32.801  28.374  1.00  0.00    -0.014 A 
BRANCH  40  41
ATOM     41  C   UNL A   1      46.150  31.417  28.090  1.00  0.00     0.031 A 
ATOM     42  C   UNL A   1      47.114  30.333  27.665  1.00  0.00     0.074 A 
ATOM     43  C   UNL A   1      44.852  31.116  28.302  1.00  0.00     0.049 A 
ATOM     44  N   UNL A   1      46.868  29.073  27.404  1.00  0.00    -0.248 NA
ATOM     45  C   UNL A   1      48.531  30.702  27.508  1.00  0.00     0.031 C 
ATOM     46  C   UNL A   1      43.825  32.073  28.725  1.00  0.00     0.029 A 
ATOM     47  N   UNL A   1      44.177  29.924  28.230  1.00  0.00    -0.354 N 
ATOM     48  C   UNL A   1      48.085  28.510  27.033  1.00  0.00     0.074 A 
ATOM     49  C   UNL A   1      49.067  29.570  27.070  1.00  0.00     0.031 C 
ATOM     50  C   UNL A   1      42.675  31.421  28.943  1.00  0.00     0.029 A 
ATOM     51  C   UNL A   1      42.852  30.019  28.588  1.00  0.00     0.049 A 
ATOM     52  H   UNL A   1      44.599  29.081  27.947  1.00  0.00     0.167 HD
ATOM     53  C   UNL A   1      48.360  27.224  26.711  1.00  0.00     0.037 A 
ATOM     54  C   UNL A   1      41.875  29.091  28.607  1.00  0.00     0.037 A 
ATOM     55  C   UNL A   1      47.387  26.162  26.717  1.00  0.00     0.049 A 
ATOM     56  C   UNL A   1      42.201  27.684  28.193  1.00  0.00     0.074 A 
ATOM     57  C   UNL A   1      47.580  24.820  26.434  1.00  0.00     0.029 A 
ATOM     58  N   UNL A   1      46.044  26.316  27.025  1.00  0.00    -0.354 N 
ATOM     59  N   UNL A   1      43.364  27.174  27.862  1.00  0.00    -0.248 NA
ATOM     60  C   UNL A   1      41.086  26.730  28.140  1.00  0.00     0.031 C 
ATOM     61  C   UNL A   1      46.345  24.173  26.520  1.00  0.00     0.029 A 
ATOM     62  C   UNL A   1      45.391  25.099  26.911  1.00  0.00     0.049 A 
ATOM     63  H   UNL A   1      45.617  27.163  27.288  1.00  0.00     0.167 HD
ATOM     64  C   UNL A   1      43.119  25.837  27.570  1.00  0.00     0.074 A 
ATOM     65  C   UNL A   1      41.706  25.611  27.794  1.00  0.00     0.031 C 
ATOM     66  C   UNL A   1      43.985  24.887  27.144  1.00  0.00     0.037 A 
BRANCH  53  67
ATOM     67  C   UNL A   1      49.772  26.864  26.325  1.00  0.00     0.058 A 
ATOM     68  C   UNL A   1      50.668  26.305  27.249  1.00  0.00     0.135 A 
ATOM     69  C   UNL A   1      50.194  26.971  24.989  1.00  0.00     0.135 A 
ATOM     70  F   UNL A   1      50.324  26.193  28.542  1.00  0.00    -0.206 F 
ATOM     71  C   UNL A   1      51.931  25.865  26.864  1.00  0.00     0.059 A 
ATOM     72  C   UNL A   1      51.443  26.515  24.575  1.00  0.00     0.059 A 
ATOM     73  F   UNL A   1      49.377  27.498  24.063  1.00  0.00    -0.206 F 
ATOM     74  C   UNL A   1      52.305  25.963  25.523  1.00  0.00     0.060 A 
BRANCH  74  75
ATOM     75  S   UNL A   1      53.928  25.339  25.037  1.00  0.00     0.124 S 
ATOM     76  O   UNL A   1      54.209  26.143  23.852  1.00  0.00    -0.237 OA
ATOM     77  O   UNL A   1      54.738  25.639  26.213  1.00  0.00    -0.237 OA
ATOM     78  O   UNL A   1      53.689  23.920  24.789  1.00  0.00    -0.744 OA
ENDBRANCH  74  75
ENDBRANCH  53  67
BRANCH  54  79
ATOM     79  C   UNL A   1      40.492  29.474  29.001  1.00  0.00     0.058 A 
ATOM     80  C   UNL A   1      39.485  29.646  28.041  1.00  0.00     0.135 A 
ATOM     81  C   UNL A   1      40.150  29.673  30.349  1.00  0.00     0.135 A 
ATOM     82  F   UNL A   1      39.761  29.471  26.740  1.00  0.00    -0.206 F 
ATOM     83  C   UNL A   1      38.195  30.022  28.400  1.00  0.00     0.059 A 
ATOM     84  C   UNL A   1      38.859  30.015  30.736  1.00  0.00     0.059 A 
ATOM     85  F   UNL A   1      41.072  29.506  31.310  1.00  0.00    -0.206 F 
ATOM     86  C   UNL A   1      37.891  30.203  29.751  1.00  0.00     0.060 A 
BRANCH  86  87
ATOM     87  S   UNL A   1      36.208  30.670  30.204  1.00  0.00     0.124 S 
ATOM     88  O   UNL A   1      35.985  29.850  31.389  1.00  0.00    -0.237 OA
ATOM     89  O   UNL A   1      36.343  32.104  30.435  1.00  0.00    -0.237 OA
ATOM     90  O   UNL A   1      35.428  30.302  29.026  1.00  0.00    -0.744 OA
ENDBRANCH  86  87
ENDBRANCH  54  79
BRANCH  66  91
ATOM     91  C   UNL A   1      43.442  23.508  26.896  1.00  0.00     0.058 A 
ATOM     92  C   UNL A   1      43.211  23.038  25.594  1.00  0.00     0.135 A 
ATOM     93  C   UNL A   1      43.237  22.617  27.963  1.00  0.00     0.135 A 
ATOM     94  F   UNL A   1      43.383  23.853  24.541  1.00  0.00    -0.206 F 
ATOM     95  C   UNL A   1      42.790  21.734  25.358  1.00  0.00     0.059 A 
ATOM     96  C   UNL A   1      42.845  21.300  27.747  1.00  0.00     0.059 A 
ATOM     97  F   UNL A   1      43.451  23.014  29.227  1.00  0.00    -0.206 F 
ATOM     98  C   UNL A   1      42.621  20.869  26.441  1.00  0.00     0.060 A 
BRANCH  98  99
ATOM     99  S   UNL A   1      42.138  19.162  26.108  1.00  0.00     0.124 S 
ATOM    100  O   UNL A   1      40.703  19.301  25.879  1.00  0.00    -0.237 OA
ATOM    101  O   UNL A   1      42.939  18.838  24.932  1.00  0.00    -0.237 OA
ATOM    102  O   UNL A   1      42.511  18.456  27.330  1.00  0.00    -0.744 OA
ENDBRANCH  98  99
ENDBRANCH  66  91
ENDBRANCH  40  41
ENDBRANCH  32  35
ENDBRANCH  30  31
ENDBRANCH   1  30
TORSDOF 16
ENDMDL
