MODEL 1
REMARK VINA RESULT:     -13.2      0.000      0.000
REMARK SMILES COC(=O)c1ccc(C)c2c1[C@H]1C=CC[C@H]1[C@@H](c1ccc(C(=O)NCCCCNC(=O)c3ccc(-c4c5nc(c(-c6c(F)cc(S(=O)(=O)[O-])cc6F)c6ccc([nH]6)c(-c6c(F)cc(S(=O)(=O)[O-])cc6F)c6nc(c(-c7c(F)cc(S(=O)(=O)[O-])cc7F)c7ccc4[nH]7)C=C6)C=C5)cc3)cc1)N2
REMARK SMILES IDX 26 1 25 2 24 3 22 4 23 5 21 7 18 8 19 9 99 10 20 11 98 12
REMARK SMILES IDX 17 13 5 14 6 15 11 16 7 17 10 18 12 19 8 20 100 21 13 22
REMARK SMILES IDX 16 23 9 24 14 26 15 27 3 28 4 29 2 30 1 31 27 32 28 33 29 34
REMARK SMILES IDX 30 35 31 37 32 38 33 39 97 40 34 41 96 42 35 43 36 44 37 45
REMARK SMILES IDX 90 46 38 47 95 48 89 49 91 50 39 51 94 52 88 53 87 54 40 56
REMARK SMILES IDX 74 57 53 58 73 59 54 60 57 61 72 62 92 63 55 64 56 65 71 67
REMARK SMILES IDX 93 68 58 69 41 70 42 71 51 72 43 73 44 74 50 75 52 76 45 77
REMARK SMILES IDX 46 78 47 79 48 80 49 81 75 82 76 83 85 84 77 85 78 86 84 87
REMARK SMILES IDX 86 88 79 89 80 90 81 91 82 92 83 93 59 94 60 95 69 96 61 97
REMARK SMILES IDX 62 98 68 99 70 100 63 101 64 102 65 103 66 104 67 105
REMARK H PARENT 24 6 100 25 29 36 91 55 57 66
REMARK Flexibility Score: inf
ROOT
ATOM      1  C   UNL A   1      39.623  21.977  26.135  1.00  0.00     0.023 C 
ENDROOT
BRANCH   1   2
ATOM      2  C   UNL A   1      38.224  22.596  26.063  1.00  0.00     0.116 C 
BRANCH   2   3
ATOM      3  N   UNL A   1      37.782  22.678  24.692  1.00  0.00    -0.352 N 
ATOM      4  C   UNL A   1      36.583  23.043  24.146  1.00  0.00     0.251 C 
ATOM      5  O   UNL A   1      36.497  23.025  22.916  1.00  0.00    -0.269 OA
ATOM      6  H   UNL A   1      38.468  22.428  24.030  1.00  0.00     0.163 HD
BRANCH   4   7
ATOM      7  C   UNL A   1      35.404  23.486  24.946  1.00  0.00     0.039 A 
ATOM      8  C   UNL A   1      33.078  24.518  26.239  1.00  0.00    -0.025 A 
ATOM      9  C   UNL A   1      33.868  25.312  25.395  1.00  0.00     0.006 A 
ATOM     10  C   UNL A   1      33.516  23.208  26.466  1.00  0.00     0.006 A 
ATOM     11  C   UNL A   1      35.005  24.810  24.760  1.00  0.00     0.014 A 
ATOM     12  C   UNL A   1      34.639  22.693  25.805  1.00  0.00     0.014 A 
BRANCH   8  13
ATOM     13  C   UNL A   1      31.738  24.971  26.829  1.00  0.00     0.114 C 
ATOM     14  C   UNL A   1      30.931  27.947  23.921  1.00  0.00     0.065 A 
ATOM     15  C   UNL A   1      31.516  29.207  24.074  1.00  0.00     0.016 A 
ATOM     16  C   UNL A   1      30.961  26.998  24.967  1.00  0.00    -0.003 A 
ATOM     17  C   UNL A   1      32.133  29.541  25.273  1.00  0.00     0.006 A 
ATOM     18  C   UNL A   1      31.591  27.347  26.191  1.00  0.00     0.042 A 
ATOM     19  C   UNL A   1      30.341  25.624  24.789  1.00  0.00     0.050 C 
ATOM     20  C   UNL A   1      32.186  28.624  26.335  1.00  0.00    -0.028 A 
ATOM     21  N   UNL A   1      31.753  26.383  27.181  1.00  0.00    -0.377 N 
ATOM     22  C   UNL A   1      30.927  24.739  23.715  1.00  0.00    -0.023 C 
ATOM     23  C   UNL A   1      30.452  24.697  26.016  1.00  0.00     0.031 C 
ATOM     24  C   UNL A   1      32.951  29.060  27.560  1.00  0.00     0.046 C 
ATOM     25  H   UNL A   1      31.878  26.656  28.118  1.00  0.00     0.161 HD
ATOM     26  C   UNL A   1      30.901  23.447  24.068  1.00  0.00    -0.030 C 
ATOM     27  C   UNL A   1      30.340  23.276  25.440  1.00  0.00     0.034 C 
BRANCH  14  28
ATOM     28  C   UNL A   1      30.298  27.638  22.620  1.00  0.00     0.338 C 
ATOM     29  O   UNL A   1      30.901  27.348  21.607  1.00  0.00    -0.246 OA
BRANCH  28  30
ATOM     30  O   UNL A   1      28.959  27.814  22.759  1.00  0.00    -0.465 OA
ATOM     31  C   UNL A   1      28.553  29.182  22.793  1.00  0.00     0.282 C 
ENDBRANCH  28  30
ENDBRANCH  14  28
ENDBRANCH   8  13
ENDBRANCH   4   7
ENDBRANCH   2   3
ENDBRANCH   1   2
BRANCH   1  32
ATOM     32  C   UNL A   1      40.361  22.255  27.443  1.00  0.00     0.023 C 
BRANCH  32  33
ATOM     33  C   UNL A   1      41.528  23.220  27.314  1.00  0.00     0.116 C 
BRANCH  33  34
ATOM     34  N   UNL A   1      41.456  24.054  26.122  1.00  0.00    -0.352 N 
ATOM     35  C   UNL A   1      41.307  25.420  26.084  1.00  0.00     0.251 C 
ATOM     36  H   UNL A   1      41.518  23.593  25.256  1.00  0.00     0.163 HD
ATOM     37  O   UNL A   1      41.190  26.023  25.026  1.00  0.00    -0.269 OA
BRANCH  35  38
ATOM     38  C   UNL A   1      41.251  26.121  27.375  1.00  0.00     0.039 A 
ATOM     39  C   UNL A   1      42.263  27.029  27.689  1.00  0.00     0.014 A 
ATOM     40  C   UNL A   1      40.110  25.993  28.175  1.00  0.00     0.014 A 
ATOM     41  C   UNL A   1      42.105  27.860  28.796  1.00  0.00     0.010 A 
ATOM     42  C   UNL A   1      39.933  26.860  29.245  1.00  0.00     0.010 A 
ATOM     43  C   UNL A   1      40.927  27.799  29.560  1.00  0.00    -0.014 A 
BRANCH  43  44
ATOM     44  C   UNL A   1      40.732  28.708  30.711  1.00  0.00     0.031 A 
ATOM     45  C   UNL A   1      41.601  28.556  31.924  1.00  0.00     0.074 A 
ATOM     46  C   UNL A   1      39.763  29.641  30.669  1.00  0.00     0.049 A 
ATOM     47  N   UNL A   1      41.603  29.257  33.027  1.00  0.00    -0.248 NA
ATOM     48  C   UNL A   1      42.585  27.461  31.903  1.00  0.00     0.031 C 
ATOM     49  C   UNL A   1      38.833  29.847  29.555  1.00  0.00     0.029 A 
ATOM     50  N   UNL A   1      39.397  30.594  31.585  1.00  0.00    -0.354 N 
ATOM     51  C   UNL A   1      42.592  28.697  33.823  1.00  0.00     0.074 A 
ATOM     52  C   UNL A   1      43.123  27.559  33.109  1.00  0.00     0.031 C 
ATOM     53  C   UNL A   1      38.024  30.879  29.843  1.00  0.00     0.029 A 
ATOM     54  C   UNL A   1      38.361  31.395  31.167  1.00  0.00     0.049 A 
ATOM     55  H   UNL A   1      39.835  30.693  32.462  1.00  0.00     0.167 HD
ATOM     56  C   UNL A   1      43.040  29.120  35.028  1.00  0.00     0.037 A 
ATOM     57  C   UNL A   1      37.763  32.436  31.780  1.00  0.00     0.037 A 
ATOM     58  C   UNL A   1      42.512  30.260  35.724  1.00  0.00     0.049 A 
ATOM     59  C   UNL A   1      38.263  32.873  33.131  1.00  0.00     0.074 A 
ATOM     60  C   UNL A   1      42.917  30.791  36.935  1.00  0.00     0.029 A 
ATOM     61  N   UNL A   1      41.461  31.045  35.271  1.00  0.00    -0.354 N 
ATOM     62  N   UNL A   1      39.243  32.372  33.846  1.00  0.00    -0.248 NA
ATOM     63  C   UNL A   1      37.585  34.016  33.757  1.00  0.00     0.031 C 
ATOM     64  C   UNL A   1      42.088  31.878  37.230  1.00  0.00     0.029 A 
ATOM     65  C   UNL A   1      41.194  32.048  36.185  1.00  0.00     0.049 A 
ATOM     66  H   UNL A   1      40.978  30.909  34.424  1.00  0.00     0.167 HD
ATOM     67  C   UNL A   1      39.319  33.157  34.990  1.00  0.00     0.074 A 
ATOM     68  C   UNL A   1      38.286  34.166  34.874  1.00  0.00     0.031 C 
ATOM     69  C   UNL A   1      40.170  33.053  36.040  1.00  0.00     0.037 A 
BRANCH  56  70
ATOM     70  C   UNL A   1      44.171  28.354  35.651  1.00  0.00     0.058 A 
ATOM     71  C   UNL A   1      43.929  27.294  36.540  1.00  0.00     0.135 A 
ATOM     72  C   UNL A   1      45.505  28.661  35.340  1.00  0.00     0.135 A 
ATOM     73  F   UNL A   1      42.672  26.975  36.885  1.00  0.00    -0.206 F 
ATOM     74  C   UNL A   1      44.971  26.578  37.117  1.00  0.00     0.059 A 
ATOM     75  C   UNL A   1      46.563  27.941  35.888  1.00  0.00     0.059 A 
ATOM     76  F   UNL A   1      45.790  29.669  34.502  1.00  0.00    -0.206 F 
ATOM     77  C   UNL A   1      46.285  26.910  36.785  1.00  0.00     0.060 A 
BRANCH  77  78
ATOM     78  S   UNL A   1      47.626  25.965  37.540  1.00  0.00     0.124 S 
ATOM     79  O   UNL A   1      47.272  26.037  38.954  1.00  0.00    -0.237 OA
ATOM     80  O   UNL A   1      47.472  24.654  36.915  1.00  0.00    -0.237 OA
ATOM     81  O   UNL A   1      48.823  26.705  37.154  1.00  0.00    -0.744 OA
ENDBRANCH  77  78
ENDBRANCH  56  70
BRANCH  57  82
ATOM     82  C   UNL A   1      36.666  33.166  31.094  1.00  0.00     0.058 A 
ATOM     83  C   UNL A   1      36.941  34.035  30.026  1.00  0.00     0.135 A 
ATOM     84  C   UNL A   1      35.325  32.987  31.462  1.00  0.00     0.135 A 
ATOM     85  F   UNL A   1      38.209  34.242  29.641  1.00  0.00    -0.206 F 
ATOM     86  C   UNL A   1      35.926  34.704  29.351  1.00  0.00     0.059 A 
ATOM     87  C   UNL A   1      34.289  33.631  30.789  1.00  0.00     0.059 A 
ATOM     88  F   UNL A   1      35.008  32.156  32.467  1.00  0.00    -0.206 F 
ATOM     89  C   UNL A   1      34.602  34.490  29.737  1.00  0.00     0.060 A 
BRANCH  89  90
ATOM     90  S   UNL A   1      33.289  35.316  28.809  1.00  0.00     0.124 S 
ATOM     91  O   UNL A   1      34.053  36.224  27.962  1.00  0.00    -0.237 OA
ATOM     92  O   UNL A   1      32.648  34.195  28.127  1.00  0.00    -0.237 OA
ATOM     93  O   UNL A   1      32.487  35.947  29.852  1.00  0.00    -0.744 OA
ENDBRANCH  89  90
ENDBRANCH  57  82
BRANCH  69  94
ATOM     94  C   UNL A   1      40.052  34.065  37.143  1.00  0.00     0.058 A 
ATOM     95  C   UNL A   1      40.678  35.316  37.057  1.00  0.00     0.135 A 
ATOM     96  C   UNL A   1      39.204  33.824  38.236  1.00  0.00     0.135 A 
ATOM     97  F   UNL A   1      41.504  35.591  36.034  1.00  0.00    -0.206 F 
ATOM     98  C   UNL A   1      40.463  36.300  38.015  1.00  0.00     0.059 A 
ATOM     99  C   UNL A   1      38.956  34.801  39.194  1.00  0.00     0.059 A 
ATOM    100  F   UNL A   1      38.575  32.645  38.356  1.00  0.00    -0.206 F 
ATOM    101  C   UNL A   1      39.591  36.037  39.075  1.00  0.00     0.060 A 
BRANCH 101 102
ATOM    102  S   UNL A   1      39.255  37.355  40.263  1.00  0.00     0.124 S 
ATOM    103  O   UNL A   1      38.608  36.620  41.343  1.00  0.00    -0.237 OA
ATOM    104  O   UNL A   1      40.593  37.861  40.551  1.00  0.00    -0.237 OA
ATOM    105  O   UNL A   1      38.392  38.269  39.520  1.00  0.00    -0.744 OA
ENDBRANCH 101 102
ENDBRANCH  69  94
ENDBRANCH  43  44
ENDBRANCH  35  38
ENDBRANCH  33  34
ENDBRANCH  32  33
ENDBRANCH   1  32
TORSDOF 17
ENDMDL
MODEL 2
REMARK VINA RESULT:     -12.7      5.798      7.840
REMARK SMILES COC(=O)c1ccc(C)c2c1[C@H]1C=CC[C@H]1[C@@H](c1ccc(C(=O)NCCCCNC(=O)c3ccc(-c4c5nc(c(-c6c(F)cc(S(=O)(=O)[O-])cc6F)c6ccc([nH]6)c(-c6c(F)cc(S(=O)(=O)[O-])cc6F)c6nc(c(-c7c(F)cc(S(=O)(=O)[O-])cc7F)c7ccc4[nH]7)C=C6)C=C5)cc3)cc1)N2
REMARK SMILES IDX 26 1 25 2 24 3 22 4 23 5 21 7 18 8 19 9 99 10 20 11 98 12
REMARK SMILES IDX 17 13 5 14 6 15 11 16 7 17 10 18 12 19 8 20 100 21 13 22
REMARK SMILES IDX 16 23 9 24 14 26 15 27 3 28 4 29 2 30 1 31 27 32 28 33 29 34
REMARK SMILES IDX 30 35 31 37 32 38 33 39 97 40 34 41 96 42 35 43 36 44 37 45
REMARK SMILES IDX 90 46 38 47 95 48 89 49 91 50 39 51 94 52 88 53 87 54 40 56
REMARK SMILES IDX 74 57 53 58 73 59 54 60 57 61 72 62 92 63 55 64 56 65 71 67
REMARK SMILES IDX 93 68 58 69 41 70 42 71 51 72 43 73 44 74 50 75 52 76 45 77
REMARK SMILES IDX 46 78 47 79 48 80 49 81 75 82 76 83 85 84 77 85 78 86 84 87
REMARK SMILES IDX 86 88 79 89 80 90 81 91 82 92 83 93 59 94 60 95 69 96 61 97
REMARK SMILES IDX 62 98 68 99 70 100 63 101 64 102 65 103 66 104 67 105
REMARK H PARENT 24 6 100 25 29 36 91 55 57 66
REMARK Flexibility Score: inf
ROOT
ATOM      1  C   UNL A   1      37.483  20.161  25.286  1.00  0.00     0.023 C 
ENDROOT
BRANCH   1   2
ATOM      2  C   UNL A   1      37.756  21.666  25.338  1.00  0.00     0.116 C 
BRANCH   2   3
ATOM      3  N   UNL A   1      37.443  22.276  24.068  1.00  0.00    -0.352 N 
ATOM      4  C   UNL A   1      36.396  23.063  23.673  1.00  0.00     0.251 C 
ATOM      5  O   UNL A   1      36.396  23.453  22.503  1.00  0.00    -0.269 OA
ATOM      6  H   UNL A   1      38.101  22.094  23.358  1.00  0.00     0.163 HD
BRANCH   4   7
ATOM      7  C   UNL A   1      35.291  23.495  24.579  1.00  0.00     0.039 A 
ATOM      8  C   UNL A   1      33.095  24.517  26.086  1.00  0.00    -0.025 A 
ATOM      9  C   UNL A   1      33.840  25.332  25.223  1.00  0.00     0.006 A 
ATOM     10  C   UNL A   1      33.514  23.188  26.221  1.00  0.00     0.006 A 
ATOM     11  C   UNL A   1      34.914  24.835  24.482  1.00  0.00     0.014 A 
ATOM     12  C   UNL A   1      34.572  22.680  25.456  1.00  0.00     0.014 A 
BRANCH   8  13
ATOM     13  C   UNL A   1      31.814  24.972  26.795  1.00  0.00     0.114 C 
ATOM     14  C   UNL A   1      30.844  28.063  24.063  1.00  0.00     0.065 A 
ATOM     15  C   UNL A   1      31.464  29.307  24.213  1.00  0.00     0.016 A 
ATOM     16  C   UNL A   1      30.935  27.078  25.070  1.00  0.00    -0.003 A 
ATOM     17  C   UNL A   1      32.179  29.588  25.370  1.00  0.00     0.006 A 
ATOM     18  C   UNL A   1      31.666  27.372  26.253  1.00  0.00     0.042 A 
ATOM     19  C   UNL A   1      30.277  25.722  24.894  1.00  0.00     0.050 C 
ATOM     20  C   UNL A   1      32.296  28.632  26.393  1.00  0.00    -0.028 A 
ATOM     21  N   UNL A   1      31.885  26.370  27.192  1.00  0.00    -0.377 N 
ATOM     22  C   UNL A   1      30.759  24.866  23.748  1.00  0.00    -0.023 C 
ATOM     23  C   UNL A   1      30.463  24.749  26.076  1.00  0.00     0.031 C 
ATOM     24  C   UNL A   1      33.162  29.011  27.568  1.00  0.00     0.046 C 
ATOM     25  H   UNL A   1      32.088  26.608  28.126  1.00  0.00     0.161 HD
ATOM     26  C   UNL A   1      30.735  23.563  24.057  1.00  0.00    -0.030 C 
ATOM     27  C   UNL A   1      30.279  23.353  25.463  1.00  0.00     0.034 C 
BRANCH  14  28
ATOM     28  C   UNL A   1      30.106  27.812  22.806  1.00  0.00     0.338 C 
ATOM     29  O   UNL A   1      30.620  27.515  21.746  1.00  0.00    -0.246 OA
BRANCH  28  30
ATOM     30  O   UNL A   1      28.790  28.049  23.044  1.00  0.00    -0.465 OA
ATOM     31  C   UNL A   1      28.304  29.260  22.466  1.00  0.00     0.282 C 
ENDBRANCH  28  30
ENDBRANCH  14  28
ENDBRANCH   8  13
ENDBRANCH   4   7
ENDBRANCH   2   3
ENDBRANCH   1   2
BRANCH   1  32
ATOM     32  C   UNL A   1      38.744  19.298  25.312  1.00  0.00     0.023 C 
BRANCH  32  33
ATOM     33  C   UNL A   1      39.891  19.886  26.118  1.00  0.00     0.116 C 
BRANCH  33  34
ATOM     34  N   UNL A   1      41.100  19.074  26.074  1.00  0.00    -0.352 N 
ATOM     35  C   UNL A   1      42.392  19.515  26.237  1.00  0.00     0.251 C 
ATOM     36  H   UNL A   1      40.980  18.112  25.911  1.00  0.00     0.163 HD
ATOM     37  O   UNL A   1      43.347  18.760  26.116  1.00  0.00    -0.269 OA
BRANCH  35  38
ATOM     38  C   UNL A   1      42.577  20.946  26.520  1.00  0.00     0.039 A 
ATOM     39  C   UNL A   1      42.662  21.361  27.849  1.00  0.00     0.014 A 
ATOM     40  C   UNL A   1      42.833  21.826  25.463  1.00  0.00     0.014 A 
ATOM     41  C   UNL A   1      43.060  22.666  28.125  1.00  0.00     0.010 A 
ATOM     42  C   UNL A   1      43.282  23.110  25.744  1.00  0.00     0.010 A 
ATOM     43  C   UNL A   1      43.400  23.537  27.075  1.00  0.00    -0.014 A 
BRANCH  43  44
ATOM     44  C   UNL A   1      43.866  24.911  27.361  1.00  0.00     0.031 A 
ATOM     45  C   UNL A   1      45.310  25.258  27.147  1.00  0.00     0.074 A 
ATOM     46  C   UNL A   1      43.000  25.825  27.837  1.00  0.00     0.049 A 
ATOM     47  N   UNL A   1      45.914  26.404  27.321  1.00  0.00    -0.248 NA
ATOM     48  C   UNL A   1      46.194  24.172  26.692  1.00  0.00     0.031 C 
ATOM     49  C   UNL A   1      41.584  25.581  28.123  1.00  0.00     0.029 A 
ATOM     50  N   UNL A   1      43.180  27.145  28.162  1.00  0.00    -0.354 N 
ATOM     51  C   UNL A   1      47.242  26.179  26.987  1.00  0.00     0.074 A 
ATOM     52  C   UNL A   1      47.372  24.776  26.666  1.00  0.00     0.031 C 
ATOM     53  C   UNL A   1      41.019  26.721  28.554  1.00  0.00     0.029 A 
ATOM     54  C   UNL A   1      42.035  27.770  28.595  1.00  0.00     0.049 A 
ATOM     55  H   UNL A   1      44.050  27.602  28.093  1.00  0.00     0.167 HD
ATOM     56  C   UNL A   1      48.255  27.073  26.921  1.00  0.00     0.037 A 
ATOM     57  C   UNL A   1      41.828  29.048  28.968  1.00  0.00     0.037 A 
ATOM     58  C   UNL A   1      48.113  28.469  27.233  1.00  0.00     0.049 A 
ATOM     59  C   UNL A   1      42.976  30.020  28.910  1.00  0.00     0.074 A 
ATOM     60  C   UNL A   1      49.068  29.466  27.167  1.00  0.00     0.029 A 
ATOM     61  N   UNL A   1      46.938  29.064  27.671  1.00  0.00    -0.354 N 
ATOM     62  N   UNL A   1      44.214  29.808  28.532  1.00  0.00    -0.248 NA
ATOM     63  C   UNL A   1      42.702  31.404  29.320  1.00  0.00     0.031 C 
ATOM     64  C   UNL A   1      48.480  30.659  27.598  1.00  0.00     0.029 A 
ATOM     65  C   UNL A   1      47.148  30.413  27.893  1.00  0.00     0.049 A 
ATOM     66  H   UNL A   1      46.082  28.596  27.803  1.00  0.00     0.167 HD
ATOM     67  C   UNL A   1      44.858  31.035  28.629  1.00  0.00     0.074 A 
ATOM     68  C   UNL A   1      43.874  31.987  29.102  1.00  0.00     0.031 C 
ATOM     69  C   UNL A   1      46.148  31.346  28.349  1.00  0.00     0.037 A 
BRANCH  56  70
ATOM     70  C   UNL A   1      49.596  26.567  26.474  1.00  0.00     0.058 A 
ATOM     71  C   UNL A   1      50.487  25.971  27.381  1.00  0.00     0.135 A 
ATOM     72  C   UNL A   1      49.984  26.652  25.129  1.00  0.00     0.135 A 
ATOM     73  F   UNL A   1      50.171  25.884  28.682  1.00  0.00    -0.206 F 
ATOM     74  C   UNL A   1      51.728  25.497  26.973  1.00  0.00     0.059 A 
ATOM     75  C   UNL A   1      51.212  26.161  24.694  1.00  0.00     0.059 A 
ATOM     76  F   UNL A   1      49.171  27.219  24.224  1.00  0.00    -0.206 F 
ATOM     77  C   UNL A   1      52.082  25.596  25.627  1.00  0.00     0.060 A 
BRANCH  77  78
ATOM     78  S   UNL A   1      53.695  24.969  25.114  1.00  0.00     0.124 S 
ATOM     79  O   UNL A   1      53.455  23.529  25.098  1.00  0.00    -0.237 OA
ATOM     80  O   UNL A   1      53.873  25.596  23.808  1.00  0.00    -0.237 OA
ATOM     81  O   UNL A   1      54.593  25.444  26.162  1.00  0.00    -0.744 OA
ENDBRANCH  77  78
ENDBRANCH  56  70
BRANCH  57  82
ATOM     82  C   UNL A   1      40.469  29.488  29.375  1.00  0.00     0.058 A 
ATOM     83  C   UNL A   1      40.145  29.656  30.730  1.00  0.00     0.135 A 
ATOM     84  C   UNL A   1      39.479  29.783  28.426  1.00  0.00     0.135 A 
ATOM     85  F   UNL A   1      41.057  29.383  31.675  1.00  0.00    -0.206 F 
ATOM     86  C   UNL A   1      38.888  30.097  31.130  1.00  0.00     0.059 A 
ATOM     87  C   UNL A   1      38.220  30.244  28.799  1.00  0.00     0.059 A 
ATOM     88  F   UNL A   1      39.744  29.652  27.116  1.00  0.00    -0.206 F 
ATOM     89  C   UNL A   1      37.934  30.394  30.156  1.00  0.00     0.060 A 
BRANCH  89  90
ATOM     90  S   UNL A   1      36.327  31.026  30.687  1.00  0.00     0.124 S 
ATOM     91  O   UNL A   1      35.974  30.086  31.744  1.00  0.00    -0.237 OA
ATOM     92  O   UNL A   1      36.662  32.379  31.123  1.00  0.00    -0.237 OA
ATOM     93  O   UNL A   1      35.518  30.950  29.475  1.00  0.00    -0.744 OA
ENDBRANCH  89  90
ENDBRANCH  57  82
BRANCH  69  94
ATOM     94  C   UNL A   1      46.578  32.775  28.515  1.00  0.00     0.058 A 
ATOM     95  C   UNL A   1      46.451  33.702  27.470  1.00  0.00     0.135 A 
ATOM     96  C   UNL A   1      47.003  33.245  29.768  1.00  0.00     0.135 A 
ATOM     97  F   UNL A   1      46.055  33.300  26.252  1.00  0.00    -0.206 F 
ATOM     98  C   UNL A   1      46.727  35.051  27.664  1.00  0.00     0.059 A 
ATOM     99  C   UNL A   1      47.263  34.593  29.989  1.00  0.00     0.059 A 
ATOM    100  F   UNL A   1      47.130  32.397  30.800  1.00  0.00    -0.206 F 
ATOM    101  C   UNL A   1      47.121  35.489  28.931  1.00  0.00     0.060 A 
BRANCH 101 102
ATOM    102  S   UNL A   1      47.390  37.256  29.187  1.00  0.00     0.124 S 
ATOM    103  O   UNL A   1      46.069  37.801  28.897  1.00  0.00    -0.237 OA
ATOM    104  O   UNL A   1      47.804  37.307  30.586  1.00  0.00    -0.237 OA
ATOM    105  O   UNL A   1      48.432  37.585  28.220  1.00  0.00    -0.744 OA
ENDBRANCH 101 102
ENDBRANCH  69  94
ENDBRANCH  43  44
ENDBRANCH  35  38
ENDBRANCH  33  34
ENDBRANCH  32  33
ENDBRANCH   1  32
TORSDOF 17
ENDMDL
MODEL 3
REMARK VINA RESULT:     -12.6      1.135      2.093
REMARK SMILES COC(=O)c1ccc(C)c2c1[C@H]1C=CC[C@H]1[C@@H](c1ccc(C(=O)NCCCCNC(=O)c3ccc(-c4c5nc(c(-c6c(F)cc(S(=O)(=O)[O-])cc6F)c6ccc([nH]6)c(-c6c(F)cc(S(=O)(=O)[O-])cc6F)c6nc(c(-c7c(F)cc(S(=O)(=O)[O-])cc7F)c7ccc4[nH]7)C=C6)C=C5)cc3)cc1)N2
REMARK SMILES IDX 26 1 25 2 24 3 22 4 23 5 21 7 18 8 19 9 99 10 20 11 98 12
REMARK SMILES IDX 17 13 5 14 6 15 11 16 7 17 10 18 12 19 8 20 100 21 13 22
REMARK SMILES IDX 16 23 9 24 14 26 15 27 3 28 4 29 2 30 1 31 27 32 28 33 29 34
REMARK SMILES IDX 30 35 31 37 32 38 33 39 97 40 34 41 96 42 35 43 36 44 37 45
REMARK SMILES IDX 90 46 38 47 95 48 89 49 91 50 39 51 94 52 88 53 87 54 40 56
REMARK SMILES IDX 74 57 53 58 73 59 54 60 57 61 72 62 92 63 55 64 56 65 71 67
REMARK SMILES IDX 93 68 58 69 41 70 42 71 51 72 43 73 44 74 50 75 52 76 45 77
REMARK SMILES IDX 46 78 47 79 48 80 49 81 75 82 76 83 85 84 77 85 78 86 84 87
REMARK SMILES IDX 86 88 79 89 80 90 81 91 82 92 83 93 59 94 60 95 69 96 61 97
REMARK SMILES IDX 62 98 68 99 70 100 63 101 64 102 65 103 66 104 67 105
REMARK H PARENT 24 6 100 25 29 36 91 55 57 66
REMARK Flexibility Score: inf
ROOT
ATOM      1  C   UNL A   1      40.388  22.836  27.634  1.00  0.00     0.023 C 
ENDROOT
BRANCH   1   2
ATOM      2  C   UNL A   1      39.258  23.172  26.656  1.00  0.00     0.116 C 
BRANCH   2   3
ATOM      3  N   UNL A   1      38.937  22.022  25.846  1.00  0.00    -0.352 N 
ATOM      4  C   UNL A   1      37.760  21.605  25.289  1.00  0.00     0.251 C 
ATOM      5  O   UNL A   1      37.790  20.565  24.627  1.00  0.00    -0.269 OA
ATOM      6  H   UNL A   1      39.704  21.432  25.660  1.00  0.00     0.163 HD
BRANCH   4   7
ATOM      7  C   UNL A   1      36.471  22.347  25.412  1.00  0.00     0.039 A 
ATOM      8  C   UNL A   1      33.960  23.608  25.910  1.00  0.00    -0.025 A 
ATOM      9  C   UNL A   1      34.196  22.269  26.256  1.00  0.00     0.006 A 
ATOM     10  C   UNL A   1      34.996  24.284  25.255  1.00  0.00     0.006 A 
ATOM     11  C   UNL A   1      35.424  21.650  26.015  1.00  0.00     0.014 A 
ATOM     12  C   UNL A   1      36.239  23.674  25.040  1.00  0.00     0.014 A 
BRANCH   8  13
ATOM     13  C   UNL A   1      32.693  24.378  26.296  1.00  0.00     0.114 C 
ATOM     14  C   UNL A   1      32.639  26.920  22.905  1.00  0.00     0.065 A 
ATOM     15  C   UNL A   1      33.437  28.067  22.918  1.00  0.00     0.016 A 
ATOM     16  C   UNL A   1      32.426  26.169  24.082  1.00  0.00    -0.003 A 
ATOM     17  C   UNL A   1      34.027  28.486  24.103  1.00  0.00     0.006 A 
ATOM     18  C   UNL A   1      33.030  26.603  25.292  1.00  0.00     0.042 A 
ATOM     19  C   UNL A   1      31.575  24.912  24.060  1.00  0.00     0.050 C 
ATOM     20  C   UNL A   1      33.841  27.764  25.294  1.00  0.00    -0.028 A 
ATOM     21  N   UNL A   1      32.947  25.805  26.428  1.00  0.00    -0.377 N 
ATOM     22  C   UNL A   1      32.054  23.772  23.193  1.00  0.00    -0.023 C 
ATOM     23  C   UNL A   1      31.432  24.198  25.419  1.00  0.00     0.031 C 
ATOM     24  C   UNL A   1      34.594  28.260  26.503  1.00  0.00     0.046 C 
ATOM     25  H   UNL A   1      33.060  26.205  27.320  1.00  0.00     0.161 HD
ATOM     26  C   UNL A   1      31.766  22.582  23.735  1.00  0.00    -0.030 C 
ATOM     27  C   UNL A   1      31.097  22.742  25.059  1.00  0.00     0.034 C 
BRANCH  14  28
ATOM     28  C   UNL A   1      32.045  26.512  21.614  1.00  0.00     0.338 C 
ATOM     29  O   UNL A   1      30.870  26.620  21.326  1.00  0.00    -0.246 OA
BRANCH  28  30
ATOM     30  O   UNL A   1      33.025  25.939  20.869  1.00  0.00    -0.465 OA
ATOM     31  C   UNL A   1      32.550  25.260  19.707  1.00  0.00     0.282 C 
ENDBRANCH  28  30
ENDBRANCH  14  28
ENDBRANCH   8  13
ENDBRANCH   4   7
ENDBRANCH   2   3
ENDBRANCH   1   2
BRANCH   1  32
ATOM     32  C   UNL A   1      41.708  22.471  26.958  1.00  0.00     0.023 C 
BRANCH  32  33
ATOM     33  C   UNL A   1      42.743  23.585  26.957  1.00  0.00     0.116 C 
BRANCH  33  34
ATOM     34  N   UNL A   1      42.641  24.464  25.800  1.00  0.00    -0.352 N 
ATOM     35  C   UNL A   1      42.351  25.807  25.811  1.00  0.00     0.251 C 
ATOM     36  H   UNL A   1      42.796  24.053  24.919  1.00  0.00     0.163 HD
ATOM     37  O   UNL A   1      42.223  26.444  24.775  1.00  0.00    -0.269 OA
BRANCH  35  38
ATOM     38  C   UNL A   1      42.155  26.435  27.126  1.00  0.00     0.039 A 
ATOM     39  C   UNL A   1      43.046  27.429  27.532  1.00  0.00     0.014 A 
ATOM     40  C   UNL A   1      40.998  26.149  27.857  1.00  0.00     0.014 A 
ATOM     41  C   UNL A   1      42.745  28.184  28.663  1.00  0.00     0.010 A 
ATOM     42  C   UNL A   1      40.675  26.941  28.952  1.00  0.00     0.010 A 
ATOM     43  C   UNL A   1      41.545  27.963  29.360  1.00  0.00    -0.014 A 
BRANCH  43  44
ATOM     44  C   UNL A   1      41.197  28.790  30.535  1.00  0.00     0.031 A 
ATOM     45  C   UNL A   1      41.987  28.639  31.802  1.00  0.00     0.074 A 
ATOM     46  C   UNL A   1      40.161  29.647  30.467  1.00  0.00     0.049 A 
ATOM     47  N   UNL A   1      41.854  29.277  32.934  1.00  0.00    -0.248 NA
ATOM     48  C   UNL A   1      43.055  27.625  31.800  1.00  0.00     0.031 C 
ATOM     49  C   UNL A   1      39.299  29.841  29.298  1.00  0.00     0.029 A 
ATOM     50  N   UNL A   1      39.655  30.517  31.399  1.00  0.00    -0.354 N 
ATOM     51  C   UNL A   1      42.827  28.752  33.774  1.00  0.00     0.074 A 
ATOM     52  C   UNL A   1      43.497  27.698  33.047  1.00  0.00     0.031 C 
ATOM     53  C   UNL A   1      38.390  30.791  29.575  1.00  0.00     0.029 A 
ATOM     54  C   UNL A   1      38.591  31.258  30.944  1.00  0.00     0.049 A 
ATOM     55  H   UNL A   1      40.021  30.602  32.309  1.00  0.00     0.167 HD
ATOM     56  C   UNL A   1      43.153  29.141  35.028  1.00  0.00     0.037 A 
ATOM     57  C   UNL A   1      37.869  32.215  31.560  1.00  0.00     0.037 A 
ATOM     58  C   UNL A   1      42.487  30.198  35.738  1.00  0.00     0.049 A 
ATOM     59  C   UNL A   1      38.235  32.614  32.965  1.00  0.00     0.074 A 
ATOM     60  C   UNL A   1      42.761  30.692  37.000  1.00  0.00     0.029 A 
ATOM     61  N   UNL A   1      41.411  30.923  35.246  1.00  0.00    -0.354 N 
ATOM     62  N   UNL A   1      39.199  32.152  33.725  1.00  0.00    -0.248 NA
ATOM     63  C   UNL A   1      37.425  33.666  33.593  1.00  0.00     0.031 C 
ATOM     64  C   UNL A   1      41.828  31.693  37.285  1.00  0.00     0.029 A 
ATOM     65  C   UNL A   1      41.000  31.852  36.185  1.00  0.00     0.049 A 
ATOM     66  H   UNL A   1      41.001  30.797  34.359  1.00  0.00     0.167 HD
ATOM     67  C   UNL A   1      39.131  32.877  34.909  1.00  0.00     0.074 A 
ATOM     68  C   UNL A   1      38.031  33.809  34.766  1.00  0.00     0.031 C 
ATOM     69  C   UNL A   1      39.911  32.781  36.013  1.00  0.00     0.037 A 
BRANCH  56  70
ATOM     70  C   UNL A   1      44.295  28.431  35.696  1.00  0.00     0.058 A 
ATOM     71  C   UNL A   1      45.615  28.893  35.564  1.00  0.00     0.135 A 
ATOM     72  C   UNL A   1      44.070  27.299  36.493  1.00  0.00     0.135 A 
ATOM     73  F   UNL A   1      45.885  29.959  34.796  1.00  0.00    -0.206 F 
ATOM     74  C   UNL A   1      46.676  28.243  36.183  1.00  0.00     0.059 A 
ATOM     75  C   UNL A   1      45.115  26.647  37.142  1.00  0.00     0.059 A 
ATOM     76  F   UNL A   1      42.828  26.813  36.644  1.00  0.00    -0.206 F 
ATOM     77  C   UNL A   1      46.416  27.120  36.970  1.00  0.00     0.060 A 
BRANCH  77  78
ATOM     78  S   UNL A   1      47.806  26.293  37.771  1.00  0.00     0.124 S 
ATOM     79  O   UNL A   1      48.741  27.400  37.946  1.00  0.00    -0.237 OA
ATOM     80  O   UNL A   1      47.199  25.778  38.995  1.00  0.00    -0.237 OA
ATOM     81  O   UNL A   1      48.206  25.281  36.799  1.00  0.00    -0.744 OA
ENDBRANCH  77  78
ENDBRANCH  56  70
BRANCH  57  82
ATOM     82  C   UNL A   1      36.768  32.895  30.831  1.00  0.00     0.058 A 
ATOM     83  C   UNL A   1      35.428  32.558  31.078  1.00  0.00     0.135 A 
ATOM     84  C   UNL A   1      37.025  33.915  29.902  1.00  0.00     0.135 A 
ATOM     85  F   UNL A   1      35.133  31.587  31.954  1.00  0.00    -0.206 F 
ATOM     86  C   UNL A   1      34.382  33.204  30.428  1.00  0.00     0.059 A 
ATOM     87  C   UNL A   1      35.995  34.590  29.252  1.00  0.00     0.059 A 
ATOM     88  F   UNL A   1      38.288  34.284  29.641  1.00  0.00    -0.206 F 
ATOM     89  C   UNL A   1      34.676  34.224  29.521  1.00  0.00     0.060 A 
BRANCH  89  90
ATOM     90  S   UNL A   1      33.306  35.098  28.732  1.00  0.00     0.124 S 
ATOM     91  O   UNL A   1      32.712  34.044  27.918  1.00  0.00    -0.237 OA
ATOM     92  O   UNL A   1      32.520  35.533  29.884  1.00  0.00    -0.237 OA
ATOM     93  O   UNL A   1      33.969  36.168  27.995  1.00  0.00    -0.744 OA
ENDBRANCH  89  90
ENDBRANCH  57  82
BRANCH  69  94
ATOM     94  C   UNL A   1      39.634  33.720  37.153  1.00  0.00     0.058 A 
ATOM     95  C   UNL A   1      38.781  33.359  38.205  1.00  0.00     0.135 A 
ATOM     96  C   UNL A   1      40.326  34.938  37.250  1.00  0.00     0.135 A 
ATOM     97  F   UNL A   1      38.093  32.208  38.154  1.00  0.00    -0.206 F 
ATOM     98  C   UNL A   1      38.626  34.173  39.322  1.00  0.00     0.059 A 
ATOM     99  C   UNL A   1      40.204  35.757  38.367  1.00  0.00     0.059 A 
ATOM    100  F   UNL A   1      41.161  35.321  36.272  1.00  0.00    -0.206 F 
ATOM    101  C   UNL A   1      39.351  35.365  39.399  1.00  0.00     0.060 A 
BRANCH 101 102
ATOM    102  S   UNL A   1      39.207  36.367  40.894  1.00  0.00     0.124 S 
ATOM    103  O   UNL A   1      38.413  35.498  41.756  1.00  0.00    -0.237 OA
ATOM    104  O   UNL A   1      40.602  36.545  41.285  1.00  0.00    -0.237 OA
ATOM    105  O   UNL A   1      38.534  37.576  40.429  1.00  0.00    -0.744 OA
ENDBRANCH 101 102
ENDBRANCH  69  94
ENDBRANCH  43  44
ENDBRANCH  35  38
ENDBRANCH  33  34
ENDBRANCH  32  33
ENDBRANCH   1  32
TORSDOF 17
ENDMDL
