MODEL 1
REMARK VINA RESULT:     -11.6      0.000      0.000
REMARK SMILES COc1ccc([C@H](CC(=O)NCCCCNC(=O)c2ccc(-c3c4nc(c(-c5c(F)cc(S(=O)(=O)[O-])cc5F)c5ccc([nH]5)c(-c5c(F)cc(S(=O)(=O)[O-])cc5F)c5nc(c(-c6c(F)cc(S(=O)(=O)[O-])cc6F)c6ccc3[nH]6)C=C5)C=C4)cc2)NC(C)=O)cc1
REMARK SMILES IDX 13 1 12 2 11 3 9 4 10 5 8 7 7 8 6 9 3 10 4 11 90 12 5 13
REMARK SMILES IDX 89 14 2 15 1 16 85 17 86 18 87 20 88 21 14 22 15 23 16 24
REMARK SMILES IDX 17 25 18 27 19 28 20 29 84 30 21 31 83 32 22 33 23 34 24 35
REMARK SMILES IDX 77 36 25 37 82 38 76 39 78 40 26 41 81 42 75 43 74 44 27 46
REMARK SMILES IDX 61 47 40 48 60 49 41 50 44 51 59 52 79 53 42 54 43 55 58 57
REMARK SMILES IDX 80 58 45 59 28 60 29 61 38 62 30 63 31 64 37 65 39 66 32 67
REMARK SMILES IDX 33 68 34 69 35 70 36 71 62 72 63 73 72 74 64 75 65 76 71 77
REMARK SMILES IDX 73 78 66 79 67 80 68 81 69 82 70 83 46 84 47 85 56 86 48 87
REMARK SMILES IDX 49 88 55 89 57 90 50 91 51 92 52 93 53 94 54 95
REMARK H PARENT 11 6 85 19 16 26 78 45 44 56
REMARK Flexibility Score: inf
ROOT
ATOM      1  C   UNL A   1      39.564  21.845  26.139  1.00  0.00     0.023 C 
ENDROOT
BRANCH   1   2
ATOM      2  C   UNL A   1      38.153  22.417  25.971  1.00  0.00     0.116 C 
BRANCH   2   3
ATOM      3  N   UNL A   1      37.811  22.535  24.565  1.00  0.00    -0.356 N 
ATOM      4  C   UNL A   1      36.758  23.135  23.948  1.00  0.00     0.222 C 
ATOM      5  O   UNL A   1      36.661  23.020  22.725  1.00  0.00    -0.275 OA
ATOM      6  H   UNL A   1      38.453  22.107  23.952  1.00  0.00     0.163 HD
BRANCH   4   7
ATOM      7  C   UNL A   1      35.755  23.963  24.723  1.00  0.00     0.129 C 
BRANCH   7   8
ATOM      8  C   UNL A   1      34.309  23.743  24.246  1.00  0.00     0.121 C 
BRANCH   8   9
ATOM      9  C   UNL A   1      33.739  22.363  24.549  1.00  0.00    -0.025 A 
ATOM     10  C   UNL A   1      32.657  19.806  25.057  1.00  0.00     0.118 A 
ATOM     11  C   UNL A   1      32.461  20.426  23.821  1.00  0.00     0.047 A 
ATOM     12  C   UNL A   1      33.346  20.486  26.058  1.00  0.00     0.047 A 
ATOM     13  C   UNL A   1      32.990  21.695  23.568  1.00  0.00     0.010 A 
ATOM     14  C   UNL A   1      33.865  21.761  25.811  1.00  0.00     0.010 A 
BRANCH  10  15
ATOM     15  O   UNL A   1      32.130  18.552  25.164  1.00  0.00    -0.497 OA
ATOM     16  C   UNL A   1      32.719  17.536  24.358  1.00  0.00     0.278 C 
ENDBRANCH  10  15
ENDBRANCH   8   9
BRANCH   8  17
ATOM     17  N   UNL A   1      33.398  24.704  24.869  1.00  0.00    -0.349 N 
ATOM     18  C   UNL A   1      33.074  25.894  24.262  1.00  0.00     0.217 C 
ATOM     19  H   UNL A   1      33.006  24.492  25.747  1.00  0.00     0.164 HD
ATOM     20  C   UNL A   1      31.953  26.640  24.933  1.00  0.00     0.114 C 
ATOM     21  O   UNL A   1      33.633  26.333  23.262  1.00  0.00    -0.275 OA
ENDBRANCH   8  17
ENDBRANCH   7   8
ENDBRANCH   4   7
ENDBRANCH   2   3
ENDBRANCH   1   2
BRANCH   1  22
ATOM     22  C   UNL A   1      40.310  22.351  27.370  1.00  0.00     0.023 C 
BRANCH  22  23
ATOM     23  C   UNL A   1      41.628  23.055  27.061  1.00  0.00     0.116 C 
BRANCH  23  24
ATOM     24  N   UNL A   1      41.548  24.034  25.985  1.00  0.00    -0.352 N 
ATOM     25  C   UNL A   1      41.436  25.408  26.085  1.00  0.00     0.251 C 
ATOM     26  H   UNL A   1      41.576  23.671  25.070  1.00  0.00     0.163 HD
ATOM     27  O   UNL A   1      41.309  26.105  25.092  1.00  0.00    -0.269 OA
BRANCH  25  28
ATOM     28  C   UNL A   1      41.407  26.036  27.425  1.00  0.00     0.039 A 
ATOM     29  C   UNL A   1      42.509  26.803  27.815  1.00  0.00     0.014 A 
ATOM     30  C   UNL A   1      40.283  25.942  28.245  1.00  0.00     0.014 A 
ATOM     31  C   UNL A   1      42.427  27.580  28.969  1.00  0.00     0.010 A 
ATOM     32  C   UNL A   1      40.170  26.779  29.348  1.00  0.00     0.010 A 
ATOM     33  C   UNL A   1      41.230  27.627  29.700  1.00  0.00    -0.014 A 
BRANCH  33  34
ATOM     34  C   UNL A   1      41.039  28.619  30.784  1.00  0.00     0.031 A 
ATOM     35  C   UNL A   1      41.864  28.548  32.034  1.00  0.00     0.074 A 
ATOM     36  C   UNL A   1      40.041  29.518  30.672  1.00  0.00     0.049 A 
ATOM     37  N   UNL A   1      41.793  29.283  33.112  1.00  0.00    -0.248 NA
ATOM     38  C   UNL A   1      42.878  27.483  32.095  1.00  0.00     0.031 C 
ATOM     39  C   UNL A   1      39.117  29.615  29.537  1.00  0.00     0.029 A 
ATOM     40  N   UNL A   1      39.623  30.508  31.522  1.00  0.00    -0.354 N 
ATOM     41  C   UNL A   1      42.733  28.759  33.989  1.00  0.00     0.074 A 
ATOM     42  C   UNL A   1      43.329  27.613  33.334  1.00  0.00     0.031 C 
ATOM     43  C   UNL A   1      38.257  30.621  29.754  1.00  0.00     0.029 A 
ATOM     44  C   UNL A   1      38.546  31.221  31.051  1.00  0.00     0.049 A 
ATOM     45  H   UNL A   1      40.054  30.692  32.388  1.00  0.00     0.167 HD
ATOM     46  C   UNL A   1      43.081  29.205  35.219  1.00  0.00     0.037 A 
ATOM     47  C   UNL A   1      37.868  32.244  31.603  1.00  0.00     0.037 A 
ATOM     48  C   UNL A   1      42.492  30.358  35.847  1.00  0.00     0.049 A 
ATOM     49  C   UNL A   1      38.312  32.770  32.937  1.00  0.00     0.074 A 
ATOM     50  C   UNL A   1      42.815  30.943  37.059  1.00  0.00     0.029 A 
ATOM     51  N   UNL A   1      41.450  31.103  35.308  1.00  0.00    -0.354 N 
ATOM     52  N   UNL A   1      39.265  32.319  33.719  1.00  0.00    -0.248 NA
ATOM     53  C   UNL A   1      37.606  33.945  33.459  1.00  0.00     0.031 C 
ATOM     54  C   UNL A   1      41.947  32.023  37.266  1.00  0.00     0.029 A 
ATOM     55  C   UNL A   1      41.106  32.133  36.168  1.00  0.00     0.049 A 
ATOM     56  H   UNL A   1      41.019  30.924  34.442  1.00  0.00     0.167 HD
ATOM     57  C   UNL A   1      39.280  33.159  34.824  1.00  0.00     0.074 A 
ATOM     58  C   UNL A   1      38.252  34.157  34.600  1.00  0.00     0.031 C 
ATOM     59  C   UNL A   1      40.072  33.110  35.924  1.00  0.00     0.037 A 
BRANCH  46  60
ATOM     60  C   UNL A   1      44.138  28.427  35.953  1.00  0.00     0.058 A 
ATOM     61  C   UNL A   1      45.507  28.683  35.762  1.00  0.00     0.135 A 
ATOM     62  C   UNL A   1      43.784  27.381  36.820  1.00  0.00     0.135 A 
ATOM     63  F   UNL A   1      45.902  29.661  34.931  1.00  0.00    -0.206 F 
ATOM     64  C   UNL A   1      46.486  27.890  36.353  1.00  0.00     0.059 A 
ATOM     65  C   UNL A   1      44.747  26.593  37.445  1.00  0.00     0.059 A 
ATOM     66  F   UNL A   1      42.492  27.095  37.043  1.00  0.00    -0.206 F 
ATOM     67  C   UNL A   1      46.095  26.837  37.181  1.00  0.00     0.060 A 
BRANCH  67  68
ATOM     68  S   UNL A   1      47.368  25.773  37.890  1.00  0.00     0.124 S 
ATOM     69  O   UNL A   1      48.563  26.590  37.703  1.00  0.00    -0.237 OA
ATOM     70  O   UNL A   1      46.920  25.616  39.270  1.00  0.00    -0.237 OA
ATOM     71  O   UNL A   1      47.296  24.567  37.071  1.00  0.00    -0.744 OA
ENDBRANCH  67  68
ENDBRANCH  46  60
BRANCH  47  72
ATOM     72  C   UNL A   1      36.731  32.848  30.860  1.00  0.00     0.058 A 
ATOM     73  C   UNL A   1      35.410  32.661  31.291  1.00  0.00     0.135 A 
ATOM     74  C   UNL A   1      36.949  33.697  29.765  1.00  0.00     0.135 A 
ATOM     75  F   UNL A   1      35.151  31.856  32.333  1.00  0.00    -0.206 F 
ATOM     76  C   UNL A   1      34.343  33.301  30.668  1.00  0.00     0.059 A 
ATOM     77  C   UNL A   1      35.901  34.364  29.136  1.00  0.00     0.059 A 
ATOM     78  F   UNL A   1      38.198  33.925  29.328  1.00  0.00    -0.206 F 
ATOM     79  C   UNL A   1      34.600  34.160  29.598  1.00  0.00     0.060 A 
BRANCH  79  80
ATOM     80  S   UNL A   1      33.222  35.073  28.867  1.00  0.00     0.124 S 
ATOM     81  O   UNL A   1      32.745  34.129  27.863  1.00  0.00    -0.237 OA
ATOM     82  O   UNL A   1      32.347  35.279  30.016  1.00  0.00    -0.237 OA
ATOM     83  O   UNL A   1      33.858  36.280  28.349  1.00  0.00    -0.744 OA
ENDBRANCH  79  80
ENDBRANCH  47  72
BRANCH  59  84
ATOM     84  C   UNL A   1      39.857  34.168  36.967  1.00  0.00     0.058 A 
ATOM     85  C   UNL A   1      39.099  33.913  38.120  1.00  0.00     0.135 A 
ATOM     86  C   UNL A   1      40.459  35.428  36.837  1.00  0.00     0.135 A 
ATOM     87  F   UNL A   1      38.497  32.725  38.285  1.00  0.00    -0.206 F 
ATOM     88  C   UNL A   1      38.932  34.881  39.104  1.00  0.00     0.059 A 
ATOM     89  C   UNL A   1      40.324  36.404  37.818  1.00  0.00     0.059 A 
ATOM     90  F   UNL A   1      41.201  35.716  35.755  1.00  0.00    -0.206 F 
ATOM     91  C   UNL A   1      39.550  36.124  38.945  1.00  0.00     0.060 A 
BRANCH  91  92
ATOM     92  S   UNL A   1      39.362  37.360  40.247  1.00  0.00     0.124 S 
ATOM     93  O   UNL A   1      38.572  38.382  39.568  1.00  0.00    -0.237 OA
ATOM     94  O   UNL A   1      38.667  36.612  41.292  1.00  0.00    -0.237 OA
ATOM     95  O   UNL A   1      40.737  37.732  40.561  1.00  0.00    -0.744 OA
ENDBRANCH  91  92
ENDBRANCH  59  84
ENDBRANCH  33  34
ENDBRANCH  25  28
ENDBRANCH  23  24
ENDBRANCH  22  23
ENDBRANCH   1  22
TORSDOF 18
ENDMDL
MODEL 2
REMARK VINA RESULT:     -11.5      4.930     10.519
REMARK SMILES COc1ccc([C@H](CC(=O)NCCCCNC(=O)c2ccc(-c3c4nc(c(-c5c(F)cc(S(=O)(=O)[O-])cc5F)c5ccc([nH]5)c(-c5c(F)cc(S(=O)(=O)[O-])cc5F)c5nc(c(-c6c(F)cc(S(=O)(=O)[O-])cc6F)c6ccc3[nH]6)C=C5)C=C4)cc2)NC(C)=O)cc1
REMARK SMILES IDX 13 1 12 2 11 3 9 4 10 5 8 7 7 8 6 9 3 10 4 11 90 12 5 13
REMARK SMILES IDX 89 14 2 15 1 16 85 17 86 18 87 20 88 21 14 22 15 23 16 24
REMARK SMILES IDX 17 25 18 27 19 28 20 29 84 30 21 31 83 32 22 33 23 34 24 35
REMARK SMILES IDX 77 36 25 37 82 38 76 39 78 40 26 41 81 42 75 43 74 44 27 46
REMARK SMILES IDX 61 47 40 48 60 49 41 50 44 51 59 52 79 53 42 54 43 55 58 57
REMARK SMILES IDX 80 58 45 59 28 60 29 61 38 62 30 63 31 64 37 65 39 66 32 67
REMARK SMILES IDX 33 68 34 69 35 70 36 71 62 72 63 73 72 74 64 75 65 76 71 77
REMARK SMILES IDX 73 78 66 79 67 80 68 81 69 82 70 83 46 84 47 85 56 86 48 87
REMARK SMILES IDX 49 88 55 89 57 90 50 91 51 92 52 93 53 94 54 95
REMARK H PARENT 11 6 85 19 16 26 78 45 44 56
REMARK Flexibility Score: inf
ROOT
ATOM      1  C   UNL A   1      31.961  27.198  25.925  1.00  0.00     0.023 C 
ENDROOT
BRANCH   1   2
ATOM      2  C   UNL A   1      30.872  26.143  26.153  1.00  0.00     0.116 C 
BRANCH   2   3
ATOM      3  N   UNL A   1      31.390  25.033  26.933  1.00  0.00    -0.356 N 
ATOM      4  C   UNL A   1      31.280  23.690  26.756  1.00  0.00     0.222 C 
ATOM      5  O   UNL A   1      31.754  22.951  27.622  1.00  0.00    -0.275 OA
ATOM      6  H   UNL A   1      31.911  25.299  27.725  1.00  0.00     0.163 HD
BRANCH   4   7
ATOM      7  C   UNL A   1      30.639  23.104  25.515  1.00  0.00     0.129 C 
BRANCH   7   8
ATOM      8  C   UNL A   1      31.665  22.777  24.416  1.00  0.00     0.121 C 
BRANCH   8   9
ATOM      9  C   UNL A   1      32.272  23.992  23.726  1.00  0.00    -0.025 A 
ATOM     10  C   UNL A   1      33.347  26.249  22.415  1.00  0.00     0.118 A 
ATOM     11  C   UNL A   1      32.048  25.819  22.136  1.00  0.00     0.047 A 
ATOM     12  C   UNL A   1      34.128  25.519  23.308  1.00  0.00     0.047 A 
ATOM     13  C   UNL A   1      31.515  24.698  22.779  1.00  0.00     0.010 A 
ATOM     14  C   UNL A   1      33.601  24.390  23.942  1.00  0.00     0.010 A 
BRANCH  10  15
ATOM     15  O   UNL A   1      33.735  27.380  21.757  1.00  0.00    -0.497 OA
ATOM     16  C   UNL A   1      34.051  28.514  22.559  1.00  0.00     0.278 C 
ENDBRANCH  10  15
ENDBRANCH   8   9
BRANCH   8  17
ATOM     17  N   UNL A   1      32.790  22.014  24.956  1.00  0.00    -0.349 N 
ATOM     18  C   UNL A   1      33.084  20.745  24.513  1.00  0.00     0.217 C 
ATOM     19  H   UNL A   1      33.351  22.419  25.657  1.00  0.00     0.164 HD
ATOM     20  C   UNL A   1      34.402  20.214  25.009  1.00  0.00     0.114 C 
ATOM     21  O   UNL A   1      32.356  20.084  23.781  1.00  0.00    -0.275 OA
ENDBRANCH   8  17
ENDBRANCH   7   8
ENDBRANCH   4   7
ENDBRANCH   2   3
ENDBRANCH   1   2
BRANCH   1  22
ATOM     22  C   UNL A   1      32.191  28.136  27.106  1.00  0.00     0.023 C 
BRANCH  22  23
ATOM     23  C   UNL A   1      33.549  28.832  27.101  1.00  0.00     0.116 C 
BRANCH  23  24
ATOM     24  N   UNL A   1      33.547  30.155  27.710  1.00  0.00    -0.352 N 
ATOM     25  C   UNL A   1      34.571  30.784  28.393  1.00  0.00     0.251 C 
ATOM     26  H   UNL A   1      32.710  30.667  27.624  1.00  0.00     0.163 HD
ATOM     27  O   UNL A   1      34.406  31.875  28.913  1.00  0.00    -0.269 OA
BRANCH  25  28
ATOM     28  C   UNL A   1      35.869  30.091  28.548  1.00  0.00     0.039 A 
ATOM     29  C   UNL A   1      36.742  30.078  27.457  1.00  0.00     0.014 A 
ATOM     30  C   UNL A   1      36.255  29.541  29.771  1.00  0.00     0.014 A 
ATOM     31  C   UNL A   1      38.049  29.629  27.630  1.00  0.00     0.010 A 
ATOM     32  C   UNL A   1      37.580  29.172  29.965  1.00  0.00     0.010 A 
ATOM     33  C   UNL A   1      38.494  29.241  28.905  1.00  0.00    -0.014 A 
BRANCH  33  34
ATOM     34  C   UNL A   1      39.931  28.989  29.164  1.00  0.00     0.031 A 
ATOM     35  C   UNL A   1      40.814  30.085  29.683  1.00  0.00     0.074 A 
ATOM     36  C   UNL A   1      40.451  27.793  28.825  1.00  0.00     0.049 A 
ATOM     37  N   UNL A   1      42.102  30.071  29.904  1.00  0.00    -0.248 NA
ATOM     38  C   UNL A   1      40.169  31.380  29.952  1.00  0.00     0.031 C 
ATOM     39  C   UNL A   1      39.699  26.686  28.225  1.00  0.00     0.029 A 
ATOM     40  N   UNL A   1      41.730  27.309  28.918  1.00  0.00    -0.354 N 
ATOM     41  C   UNL A   1      42.428  31.356  30.316  1.00  0.00     0.074 A 
ATOM     42  C   UNL A   1      41.209  32.137  30.267  1.00  0.00     0.031 C 
ATOM     43  C   UNL A   1      40.526  25.649  28.024  1.00  0.00     0.029 A 
ATOM     44  C   UNL A   1      41.869  26.024  28.451  1.00  0.00     0.049 A 
ATOM     45  H   UNL A   1      42.479  27.833  29.285  1.00  0.00     0.167 HD
ATOM     46  C   UNL A   1      43.629  31.835  30.716  1.00  0.00     0.037 A 
ATOM     47  C   UNL A   1      42.957  25.235  28.375  1.00  0.00     0.037 A 
ATOM     48  C   UNL A   1      44.827  31.039  30.777  1.00  0.00     0.049 A 
ATOM     49  C   UNL A   1      44.267  25.760  28.888  1.00  0.00     0.074 A 
ATOM     50  C   UNL A   1      46.083  31.399  31.233  1.00  0.00     0.029 A 
ATOM     51  N   UNL A   1      44.915  29.716  30.364  1.00  0.00    -0.354 N 
ATOM     52  N   UNL A   1      44.542  26.954  29.360  1.00  0.00    -0.248 NA
ATOM     53  C   UNL A   1      45.406  24.836  28.874  1.00  0.00     0.031 C 
ATOM     54  C   UNL A   1      46.937  30.302  31.067  1.00  0.00     0.029 A 
ATOM     55  C   UNL A   1      46.207  29.247  30.539  1.00  0.00     0.049 A 
ATOM     56  H   UNL A   1      44.168  29.188  29.999  1.00  0.00     0.167 HD
ATOM     57  C   UNL A   1      45.886  26.924  29.707  1.00  0.00     0.074 A 
ATOM     58  C   UNL A   1      46.363  25.587  29.408  1.00  0.00     0.031 C 
ATOM     59  C   UNL A   1      46.657  27.912  30.226  1.00  0.00     0.037 A 
BRANCH  46  60
ATOM     60  C   UNL A   1      43.689  33.287  31.104  1.00  0.00     0.058 A 
ATOM     61  C   UNL A   1      43.938  34.293  30.155  1.00  0.00     0.135 A 
ATOM     62  C   UNL A   1      43.544  33.676  32.445  1.00  0.00     0.135 A 
ATOM     63  F   UNL A   1      44.101  33.976  28.861  1.00  0.00    -0.206 F 
ATOM     64  C   UNL A   1      44.104  35.623  30.530  1.00  0.00     0.059 A 
ATOM     65  C   UNL A   1      43.677  35.005  32.839  1.00  0.00     0.059 A 
ATOM     66  F   UNL A   1      43.300  32.757  33.393  1.00  0.00    -0.206 F 
ATOM     67  C   UNL A   1      43.988  35.966  31.877  1.00  0.00     0.060 A 
BRANCH  67  68
ATOM     68  S   UNL A   1      44.272  37.681  32.363  1.00  0.00     0.124 S 
ATOM     69  O   UNL A   1      44.078  38.375  31.094  1.00  0.00    -0.237 OA
ATOM     70  O   UNL A   1      43.238  37.901  33.369  1.00  0.00    -0.237 OA
ATOM     71  O   UNL A   1      45.640  37.666  32.871  1.00  0.00    -0.744 OA
ENDBRANCH  67  68
ENDBRANCH  46  60
BRANCH  47  72
ATOM     72  C   UNL A   1      42.822  23.860  27.828  1.00  0.00     0.058 A 
ATOM     73  C   UNL A   1      42.603  22.766  28.676  1.00  0.00     0.135 A 
ATOM     74  C   UNL A   1      42.815  23.628  26.444  1.00  0.00     0.135 A 
ATOM     75  F   UNL A   1      42.603  22.939  30.007  1.00  0.00    -0.206 F 
ATOM     76  C   UNL A   1      42.373  21.489  28.174  1.00  0.00     0.059 A 
ATOM     77  C   UNL A   1      42.569  22.363  25.916  1.00  0.00     0.059 A 
ATOM     78  F   UNL A   1      42.999  24.647  25.589  1.00  0.00    -0.206 F 
ATOM     79  C   UNL A   1      42.347  21.300  26.791  1.00  0.00     0.060 A 
BRANCH  79  80
ATOM     80  S   UNL A   1      41.938  19.662  26.147  1.00  0.00     0.124 S 
ATOM     81  O   UNL A   1      42.719  19.627  24.916  1.00  0.00    -0.237 OA
ATOM     82  O   UNL A   1      42.397  18.786  27.219  1.00  0.00    -0.237 OA
ATOM     83  O   UNL A   1      40.489  19.722  25.976  1.00  0.00    -0.744 OA
ENDBRANCH  79  80
ENDBRANCH  47  72
BRANCH  59  84
ATOM     84  C   UNL A   1      48.094  27.581  30.504  1.00  0.00     0.058 A 
ATOM     85  C   UNL A   1      48.486  26.991  31.715  1.00  0.00     0.135 A 
ATOM     86  C   UNL A   1      49.078  27.808  29.530  1.00  0.00     0.135 A 
ATOM     87  F   UNL A   1      47.582  26.762  32.680  1.00  0.00    -0.206 F 
ATOM     88  C   UNL A   1      49.812  26.649  31.958  1.00  0.00     0.059 A 
ATOM     89  C   UNL A   1      50.407  27.454  29.743  1.00  0.00     0.059 A 
ATOM     90  F   UNL A   1      48.751  28.363  28.353  1.00  0.00    -0.206 F 
ATOM     91  C   UNL A   1      50.765  26.883  30.964  1.00  0.00     0.060 A 
BRANCH  91  92
ATOM     92  S   UNL A   1      52.476  26.399  31.272  1.00  0.00     0.124 S 
ATOM     93  O   UNL A   1      52.300  25.204  32.091  1.00  0.00    -0.237 OA
ATOM     94  O   UNL A   1      52.987  26.173  29.922  1.00  0.00    -0.237 OA
ATOM     95  O   UNL A   1      53.037  27.557  31.960  1.00  0.00    -0.744 OA
ENDBRANCH  91  92
ENDBRANCH  59  84
ENDBRANCH  33  34
ENDBRANCH  25  28
ENDBRANCH  23  24
ENDBRANCH  22  23
ENDBRANCH   1  22
TORSDOF 18
ENDMDL
MODEL 3
REMARK VINA RESULT:     -11.4      2.883      9.098
REMARK SMILES COc1ccc([C@H](CC(=O)NCCCCNC(=O)c2ccc(-c3c4nc(c(-c5c(F)cc(S(=O)(=O)[O-])cc5F)c5ccc([nH]5)c(-c5c(F)cc(S(=O)(=O)[O-])cc5F)c5nc(c(-c6c(F)cc(S(=O)(=O)[O-])cc6F)c6ccc3[nH]6)C=C5)C=C4)cc2)NC(C)=O)cc1
REMARK SMILES IDX 13 1 12 2 11 3 9 4 10 5 8 7 7 8 6 9 3 10 4 11 90 12 5 13
REMARK SMILES IDX 89 14 2 15 1 16 85 17 86 18 87 20 88 21 14 22 15 23 16 24
REMARK SMILES IDX 17 25 18 27 19 28 20 29 84 30 21 31 83 32 22 33 23 34 24 35
REMARK SMILES IDX 77 36 25 37 82 38 76 39 78 40 26 41 81 42 75 43 74 44 27 46
REMARK SMILES IDX 61 47 40 48 60 49 41 50 44 51 59 52 79 53 42 54 43 55 58 57
REMARK SMILES IDX 80 58 45 59 28 60 29 61 38 62 30 63 31 64 37 65 39 66 32 67
REMARK SMILES IDX 33 68 34 69 35 70 36 71 62 72 63 73 72 74 64 75 65 76 71 77
REMARK SMILES IDX 73 78 66 79 67 80 68 81 69 82 70 83 46 84 47 85 56 86 48 87
REMARK SMILES IDX 49 88 55 89 57 90 50 91 51 92 52 93 53 94 54 95
REMARK H PARENT 11 6 85 19 16 26 78 45 44 56
REMARK Flexibility Score: inf
ROOT
ATOM      1  C   UNL A   1      35.595  22.145  26.073  1.00  0.00     0.023 C 
ENDROOT
BRANCH   1   2
ATOM      2  C   UNL A   1      35.272  21.394  24.777  1.00  0.00     0.116 C 
BRANCH   2   3
ATOM      3  N   UNL A   1      34.026  20.661  24.906  1.00  0.00    -0.356 N 
ATOM      4  C   UNL A   1      32.749  21.008  24.596  1.00  0.00     0.222 C 
ATOM      5  O   UNL A   1      31.847  20.218  24.884  1.00  0.00    -0.275 OA
ATOM      6  H   UNL A   1      34.122  19.756  25.284  1.00  0.00     0.163 HD
BRANCH   4   7
ATOM      7  C   UNL A   1      32.434  22.301  23.874  1.00  0.00     0.129 C 
BRANCH   7   8
ATOM      8  C   UNL A   1      31.837  23.371  24.805  1.00  0.00     0.121 C 
BRANCH   8   9
ATOM      9  C   UNL A   1      31.404  24.655  24.107  1.00  0.00    -0.025 A 
ATOM     10  C   UNL A   1      30.634  27.017  22.768  1.00  0.00     0.118 A 
ATOM     11  C   UNL A   1      31.421  26.061  22.123  1.00  0.00     0.047 A 
ATOM     12  C   UNL A   1      30.277  26.819  24.099  1.00  0.00     0.047 A 
ATOM     13  C   UNL A   1      31.809  24.893  22.786  1.00  0.00     0.010 A 
ATOM     14  C   UNL A   1      30.675  25.657  24.768  1.00  0.00     0.010 A 
BRANCH  10  15
ATOM     15  O   UNL A   1      30.284  28.090  22.000  1.00  0.00    -0.497 OA
ATOM     16  C   UNL A   1      29.650  29.178  22.666  1.00  0.00     0.278 C 
ENDBRANCH  10  15
ENDBRANCH   8   9
BRANCH   8  17
ATOM     17  N   UNL A   1      30.651  22.865  25.495  1.00  0.00    -0.349 N 
ATOM     18  C   UNL A   1      30.510  22.964  26.860  1.00  0.00     0.217 C 
ATOM     19  H   UNL A   1      29.934  22.442  24.969  1.00  0.00     0.164 HD
ATOM     20  C   UNL A   1      29.137  22.607  27.362  1.00  0.00     0.114 C 
ATOM     21  O   UNL A   1      31.406  23.310  27.623  1.00  0.00    -0.275 OA
ENDBRANCH   8  17
ENDBRANCH   7   8
ENDBRANCH   4   7
ENDBRANCH   2   3
ENDBRANCH   1   2
BRANCH   1  22
ATOM     22  C   UNL A   1      36.093  23.573  25.870  1.00  0.00     0.023 C 
BRANCH  22  23
ATOM     23  C   UNL A   1      37.331  23.687  24.985  1.00  0.00     0.116 C 
BRANCH  23  24
ATOM     24  N   UNL A   1      38.431  22.816  25.376  1.00  0.00    -0.352 N 
ATOM     25  C   UNL A   1      39.467  23.086  26.252  1.00  0.00     0.251 C 
ATOM     26  H   UNL A   1      38.439  21.922  24.965  1.00  0.00     0.163 HD
ATOM     27  O   UNL A   1      40.364  22.281  26.435  1.00  0.00    -0.269 OA
BRANCH  25  28
ATOM     28  C   UNL A   1      39.518  24.401  26.928  1.00  0.00     0.039 A 
ATOM     29  C   UNL A   1      38.867  24.533  28.158  1.00  0.00     0.014 A 
ATOM     30  C   UNL A   1      40.264  25.457  26.404  1.00  0.00     0.014 A 
ATOM     31  C   UNL A   1      39.072  25.681  28.922  1.00  0.00     0.010 A 
ATOM     32  C   UNL A   1      40.535  26.562  27.201  1.00  0.00     0.010 A 
ATOM     33  C   UNL A   1      39.965  26.668  28.478  1.00  0.00    -0.014 A 
BRANCH  33  34
ATOM     34  C   UNL A   1      40.382  27.774  29.372  1.00  0.00     0.031 A 
ATOM     35  C   UNL A   1      39.497  28.969  29.566  1.00  0.00     0.074 A 
ATOM     36  C   UNL A   1      41.612  27.736  29.920  1.00  0.00     0.049 A 
ATOM     37  N   UNL A   1      39.722  30.059  30.251  1.00  0.00    -0.248 NA
ATOM     38  C   UNL A   1      38.204  28.953  28.864  1.00  0.00     0.031 C 
ATOM     39  C   UNL A   1      42.592  26.663  29.721  1.00  0.00     0.029 A 
ATOM     40  N   UNL A   1      42.259  28.623  30.741  1.00  0.00    -0.354 N 
ATOM     41  C   UNL A   1      38.612  30.868  30.047  1.00  0.00     0.074 A 
ATOM     42  C   UNL A   1      37.737  30.163  29.135  1.00  0.00     0.031 C 
ATOM     43  C   UNL A   1      43.703  26.946  30.417  1.00  0.00     0.029 A 
ATOM     44  C   UNL A   1      43.530  28.229  31.086  1.00  0.00     0.049 A 
ATOM     45  H   UNL A   1      41.851  29.463  31.054  1.00  0.00     0.167 HD
ATOM     46  C   UNL A   1      38.340  32.080  30.588  1.00  0.00     0.037 A 
ATOM     47  C   UNL A   1      44.453  28.836  31.856  1.00  0.00     0.037 A 
ATOM     48  C   UNL A   1      39.213  32.758  31.510  1.00  0.00     0.049 A 
ATOM     49  C   UNL A   1      44.107  30.145  32.502  1.00  0.00     0.074 A 
ATOM     50  C   UNL A   1      39.009  33.954  32.174  1.00  0.00     0.029 A 
ATOM     51  N   UNL A   1      40.466  32.294  31.895  1.00  0.00    -0.354 N 
ATOM     52  N   UNL A   1      43.013  30.860  32.371  1.00  0.00    -0.248 NA
ATOM     53  C   UNL A   1      45.104  30.726  33.409  1.00  0.00     0.031 C 
ATOM     54  C   UNL A   1      40.151  34.228  32.938  1.00  0.00     0.029 A 
ATOM     55  C   UNL A   1      41.053  33.187  32.777  1.00  0.00     0.049 A 
ATOM     56  H   UNL A   1      40.875  31.454  31.586  1.00  0.00     0.167 HD
ATOM     57  C   UNL A   1      43.187  31.972  33.184  1.00  0.00     0.074 A 
ATOM     58  C   UNL A   1      44.484  31.826  33.817  1.00  0.00     0.031 C 
ATOM     59  C   UNL A   1      42.350  33.020  33.387  1.00  0.00     0.037 A 
BRANCH  46  60
ATOM     60  C   UNL A   1      37.051  32.735  30.176  1.00  0.00     0.058 A 
ATOM     61  C   UNL A   1      36.992  33.630  29.094  1.00  0.00     0.135 A 
ATOM     62  C   UNL A   1      35.870  32.506  30.900  1.00  0.00     0.135 A 
ATOM     63  F   UNL A   1      38.096  33.898  28.378  1.00  0.00    -0.206 F 
ATOM     64  C   UNL A   1      35.825  34.321  28.783  1.00  0.00     0.059 A 
ATOM     65  C   UNL A   1      34.683  33.165  30.588  1.00  0.00     0.059 A 
ATOM     66  F   UNL A   1      35.867  31.658  31.940  1.00  0.00    -0.206 F 
ATOM     67  C   UNL A   1      34.680  34.093  29.547  1.00  0.00     0.060 A 
BRANCH  67  68
ATOM     68  S   UNL A   1      33.190  35.044  29.180  1.00  0.00     0.124 S 
ATOM     69  O   UNL A   1      32.544  34.195  28.184  1.00  0.00    -0.237 OA
ATOM     70  O   UNL A   1      32.528  35.110  30.479  1.00  0.00    -0.237 OA
ATOM     71  O   UNL A   1      33.712  36.313  28.683  1.00  0.00    -0.744 OA
ENDBRANCH  67  68
ENDBRANCH  46  60
BRANCH  47  72
ATOM     72  C   UNL A   1      45.765  28.173  32.077  1.00  0.00     0.058 A 
ATOM     73  C   UNL A   1      45.944  27.265  33.129  1.00  0.00     0.135 A 
ATOM     74  C   UNL A   1      46.832  28.363  31.186  1.00  0.00     0.135 A 
ATOM     75  F   UNL A   1      44.953  27.051  34.007  1.00  0.00    -0.206 F 
ATOM     76  C   UNL A   1      47.133  26.560  33.288  1.00  0.00     0.059 A 
ATOM     77  C   UNL A   1      48.025  27.656  31.312  1.00  0.00     0.059 A 
ATOM     78  F   UNL A   1      46.702  29.207  30.150  1.00  0.00    -0.206 F 
ATOM     79  C   UNL A   1      48.164  26.755  32.367  1.00  0.00     0.060 A 
BRANCH  79  80
ATOM     80  S   UNL A   1      49.662  25.754  32.516  1.00  0.00     0.124 S 
ATOM     81  O   UNL A   1      50.009  25.534  31.117  1.00  0.00    -0.237 OA
ATOM     82  O   UNL A   1      50.550  26.639  33.262  1.00  0.00    -0.237 OA
ATOM     83  O   UNL A   1      49.205  24.577  33.248  1.00  0.00    -0.744 OA
ENDBRANCH  79  80
ENDBRANCH  47  72
BRANCH  59  84
ATOM     84  C   UNL A   1      42.812  34.088  34.336  1.00  0.00     0.058 A 
ATOM     85  C   UNL A   1      43.560  35.187  33.890  1.00  0.00     0.135 A 
ATOM     86  C   UNL A   1      42.456  34.037  35.693  1.00  0.00     0.135 A 
ATOM     87  F   UNL A   1      43.931  35.276  32.603  1.00  0.00    -0.206 F 
ATOM     88  C   UNL A   1      43.956  36.196  34.762  1.00  0.00     0.059 A 
ATOM     89  C   UNL A   1      42.822  35.044  36.578  1.00  0.00     0.059 A 
ATOM     90  F   UNL A   1      41.734  33.009  36.165  1.00  0.00    -0.206 F 
ATOM     91  C   UNL A   1      43.580  36.116  36.105  1.00  0.00     0.060 A 
BRANCH  91  92
ATOM     92  S   UNL A   1      44.062  37.450  37.222  1.00  0.00     0.124 S 
ATOM     93  O   UNL A   1      44.160  38.579  36.304  1.00  0.00    -0.237 OA
ATOM     94  O   UNL A   1      42.946  37.491  38.162  1.00  0.00    -0.237 OA
ATOM     95  O   UNL A   1      45.326  36.981  37.782  1.00  0.00    -0.744 OA
ENDBRANCH  91  92
ENDBRANCH  59  84
ENDBRANCH  33  34
ENDBRANCH  25  28
ENDBRANCH  23  24
ENDBRANCH  22  23
ENDBRANCH   1  22
TORSDOF 18
ENDMDL
