MODEL 1
REMARK VINA RESULT:     -13.1      0.000      0.000
REMARK SMILES CC1CCN(S(=O)(=O)c2ccc3c(ccn3CC(=O)NCCCCNC(=O)c3ccc(-c4c5nc(c(-c6c(F)cc(S(=O)(=O)[O-])cc6F)c6ccc([nH]6)c(-c6c(F)cc(S(=O)(=O)[O-])cc6F)c6nc(c(-c7c(F)cc(S(=O)(=O)[O-])cc7F)c7ccc4[nH]7)C=C6)C=C5)cc3)c2)CC1
REMARK SMILES IDX 22 1 21 2 20 3 18 4 19 5 17 7 16 8 9 9 10 10 94 11 11 12
REMARK SMILES IDX 13 13 12 14 14 15 15 16 6 17 7 18 8 19 5 20 1 21 2 22 3 23
REMARK SMILES IDX 96 24 4 25 95 26 23 27 24 28 25 29 26 30 27 32 28 33 29 34
REMARK SMILES IDX 93 35 30 36 92 37 31 38 32 39 33 40 86 41 34 42 91 43 85 44
REMARK SMILES IDX 87 45 35 46 90 47 84 48 83 49 36 51 70 52 49 53 69 54 50 55
REMARK SMILES IDX 53 56 68 57 88 58 51 59 52 60 67 62 89 63 54 64 37 65 38 66
REMARK SMILES IDX 47 67 39 68 40 69 46 70 48 71 41 72 42 73 43 74 44 75 45 76
REMARK SMILES IDX 71 77 72 78 81 79 73 80 74 81 80 82 82 83 75 84 76 85 77 86
REMARK SMILES IDX 78 87 79 88 55 89 56 90 65 91 57 92 58 93 64 94 66 95 59 96
REMARK SMILES IDX 60 97 61 98 62 99 63 100
REMARK H PARENT 20 6 25 31 87 50 53 61
REMARK Flexibility Score: inf
ROOT
ATOM      1  C   UNL A   1      36.729  21.856  25.035  1.00  0.00     0.023 C 
ENDROOT
BRANCH   1   2
ATOM      2  C   UNL A   1      35.549  21.074  25.609  1.00  0.00     0.116 C 
BRANCH   2   3
ATOM      3  N   UNL A   1      35.378  19.777  24.983  1.00  0.00    -0.355 N 
ATOM      4  C   UNL A   1      34.231  19.070  24.757  1.00  0.00     0.239 C 
ATOM      5  O   UNL A   1      34.320  17.991  24.165  1.00  0.00    -0.273 OA
ATOM      6  H   UNL A   1      36.208  19.344  24.675  1.00  0.00     0.163 HD
BRANCH   4   7
ATOM      7  C   UNL A   1      32.877  19.635  25.138  1.00  0.00     0.222 C 
BRANCH   7   8
ATOM      8  N   UNL A   1      32.435  20.727  24.283  1.00  0.00    -0.338 N 
ATOM      9  C   UNL A   1      31.242  24.620  24.994  1.00  0.00     0.083 A 
ATOM     10  C   UNL A   1      31.609  23.875  26.114  1.00  0.00     0.024 A 
ATOM     11  C   UNL A   1      31.280  24.053  23.714  1.00  0.00     0.032 A 
ATOM     12  C   UNL A   1      32.126  22.588  25.981  1.00  0.00     0.028 A 
ATOM     13  C   UNL A   1      31.704  22.716  23.571  1.00  0.00     0.001 A 
ATOM     14  C   UNL A   1      32.129  22.010  24.702  1.00  0.00     0.049 A 
ATOM     15  C   UNL A   1      31.786  21.828  22.466  1.00  0.00     0.028 A 
ATOM     16  C   UNL A   1      32.254  20.620  22.928  1.00  0.00     0.087 A 
BRANCH   9  17
ATOM     17  S   UNL A   1      30.536  26.236  25.221  1.00  0.00     0.243 S 
ATOM     18  O   UNL A   1      30.700  26.569  26.616  1.00  0.00    -0.207 OA
ATOM     19  O   UNL A   1      29.218  26.231  24.611  1.00  0.00    -0.207 OA
BRANCH  17  20
ATOM     20  N   UNL A   1      31.497  27.310  24.276  1.00  0.00    -0.198 NA
ATOM     21  C   UNL A   1      33.936  28.885  27.409  1.00  0.00     0.008 C 
ATOM     22  C   UNL A   1      33.413  28.754  25.978  1.00  0.00    -0.012 C 
ATOM     23  C   UNL A   1      31.922  29.134  25.918  1.00  0.00     0.020 C 
ATOM     24  C   UNL A   1      33.695  27.343  25.440  1.00  0.00     0.020 C 
ATOM     25  C   UNL A   1      31.260  28.749  24.596  1.00  0.00     0.103 C 
ATOM     26  C   UNL A   1      32.954  27.075  24.137  1.00  0.00     0.103 C 
ENDBRANCH  17  20
ENDBRANCH   9  17
ENDBRANCH   7   8
ENDBRANCH   4   7
ENDBRANCH   2   3
ENDBRANCH   1   2
BRANCH   1  27
ATOM     27  C   UNL A   1      38.110  21.274  25.372  1.00  0.00     0.023 C 
BRANCH  27  28
ATOM     28  C   UNL A   1      39.014  22.183  26.208  1.00  0.00     0.116 C 
BRANCH  28  29
ATOM     29  N   UNL A   1      40.428  22.030  25.933  1.00  0.00    -0.352 N 
ATOM     30  C   UNL A   1      41.563  22.669  26.355  1.00  0.00     0.251 C 
ATOM     31  H   UNL A   1      40.616  21.302  25.298  1.00  0.00     0.163 HD
ATOM     32  O   UNL A   1      42.622  22.073  26.130  1.00  0.00    -0.269 OA
BRANCH  30  33
ATOM     33  C   UNL A   1      41.619  24.021  26.977  1.00  0.00     0.039 A 
ATOM     34  C   UNL A   1      42.198  24.324  28.207  1.00  0.00     0.014 A 
ATOM     35  C   UNL A   1      40.935  25.047  26.290  1.00  0.00     0.014 A 
ATOM     36  C   UNL A   1      42.007  25.581  28.777  1.00  0.00     0.010 A 
ATOM     37  C   UNL A   1      40.747  26.308  26.854  1.00  0.00     0.010 A 
ATOM     38  C   UNL A   1      41.243  26.560  28.125  1.00  0.00    -0.014 A 
BRANCH  38  39
ATOM     39  C   UNL A   1      41.118  27.868  28.771  1.00  0.00     0.031 A 
ATOM     40  C   UNL A   1      42.158  28.838  28.330  1.00  0.00     0.074 A 
ATOM     41  C   UNL A   1      40.172  28.230  29.666  1.00  0.00     0.049 A 
ATOM     42  N   UNL A   1      43.201  29.214  28.991  1.00  0.00    -0.248 NA
ATOM     43  C   UNL A   1      42.141  29.293  26.933  1.00  0.00     0.031 C 
ATOM     44  C   UNL A   1      38.952  27.519  30.050  1.00  0.00     0.029 A 
ATOM     45  N   UNL A   1      40.099  29.373  30.411  1.00  0.00    -0.354 N 
ATOM     46  C   UNL A   1      43.866  30.129  28.181  1.00  0.00     0.074 A 
ATOM     47  C   UNL A   1      43.269  30.005  26.878  1.00  0.00     0.031 C 
ATOM     48  C   UNL A   1      38.167  28.335  30.797  1.00  0.00     0.029 A 
ATOM     49  C   UNL A   1      38.890  29.564  31.078  1.00  0.00     0.049 A 
ATOM     50  H   UNL A   1      40.844  30.014  30.473  1.00  0.00     0.167 HD
ATOM     51  C   UNL A   1      44.702  31.059  28.722  1.00  0.00     0.037 A 
ATOM     52  C   UNL A   1      38.518  30.646  31.816  1.00  0.00     0.037 A 
ATOM     53  C   UNL A   1      45.095  30.673  30.058  1.00  0.00     0.049 A 
ATOM     54  C   UNL A   1      39.768  31.310  32.262  1.00  0.00     0.074 A 
ATOM     55  C   UNL A   1      45.782  29.608  30.606  1.00  0.00     0.029 A 
ATOM     56  N   UNL A   1      44.441  31.275  31.105  1.00  0.00    -0.354 N 
ATOM     57  N   UNL A   1      40.609  30.782  33.107  1.00  0.00    -0.248 NA
ATOM     58  C   UNL A   1      40.303  32.374  31.428  1.00  0.00     0.031 C 
ATOM     59  C   UNL A   1      45.133  29.347  31.850  1.00  0.00     0.029 A 
ATOM     60  C   UNL A   1      44.133  30.306  32.022  1.00  0.00     0.049 A 
ATOM     61  H   UNL A   1      44.233  32.235  31.183  1.00  0.00     0.167 HD
ATOM     62  C   UNL A   1      41.860  31.122  32.614  1.00  0.00     0.074 A 
ATOM     63  C   UNL A   1      41.606  32.173  31.631  1.00  0.00     0.031 C 
ATOM     64  C   UNL A   1      42.949  30.334  32.853  1.00  0.00     0.037 A 
BRANCH  51  65
ATOM     65  C   UNL A   1      44.837  32.487  28.230  1.00  0.00     0.058 A 
ATOM     66  C   UNL A   1      46.105  32.941  27.801  1.00  0.00     0.135 A 
ATOM     67  C   UNL A   1      43.879  33.502  28.448  1.00  0.00     0.135 A 
ATOM     68  F   UNL A   1      47.092  32.071  27.533  1.00  0.00    -0.206 F 
ATOM     69  C   UNL A   1      46.430  34.295  27.717  1.00  0.00     0.059 A 
ATOM     70  C   UNL A   1      44.170  34.856  28.325  1.00  0.00     0.059 A 
ATOM     71  F   UNL A   1      42.637  33.246  28.871  1.00  0.00    -0.206 F 
ATOM     72  C   UNL A   1      45.458  35.246  28.006  1.00  0.00     0.060 A 
BRANCH  72  73
ATOM     73  S   UNL A   1      45.906  36.989  28.012  1.00  0.00     0.124 S 
ATOM     74  O   UNL A   1      45.785  37.316  29.428  1.00  0.00    -0.237 OA
ATOM     75  O   UNL A   1      47.262  36.952  27.476  1.00  0.00    -0.237 OA
ATOM     76  O   UNL A   1      44.908  37.594  27.135  1.00  0.00    -0.744 OA
ENDBRANCH  72  73
ENDBRANCH  51  65
BRANCH  52  77
ATOM     77  C   UNL A   1      37.203  31.353  31.863  1.00  0.00     0.058 A 
ATOM     78  C   UNL A   1      36.642  31.777  33.087  1.00  0.00     0.135 A 
ATOM     79  C   UNL A   1      36.631  31.910  30.703  1.00  0.00     0.135 A 
ATOM     80  F   UNL A   1      37.127  31.313  34.249  1.00  0.00    -0.206 F 
ATOM     81  C   UNL A   1      35.629  32.745  33.157  1.00  0.00     0.059 A 
ATOM     82  C   UNL A   1      35.617  32.870  30.749  1.00  0.00     0.059 A 
ATOM     83  F   UNL A   1      37.109  31.605  29.488  1.00  0.00    -0.206 F 
ATOM     84  C   UNL A   1      35.141  33.306  31.979  1.00  0.00     0.060 A 
BRANCH  84  85
ATOM     85  S   UNL A   1      33.969  34.685  32.067  1.00  0.00     0.124 S 
ATOM     86  O   UNL A   1      32.972  34.178  33.004  1.00  0.00    -0.237 OA
ATOM     87  O   UNL A   1      34.808  35.774  32.558  1.00  0.00    -0.237 OA
ATOM     88  O   UNL A   1      33.511  34.830  30.688  1.00  0.00    -0.744 OA
ENDBRANCH  84  85
ENDBRANCH  52  77
BRANCH  64  89
ATOM     89  C   UNL A   1      42.851  29.274  33.921  1.00  0.00     0.058 A 
ATOM     90  C   UNL A   1      43.086  29.487  35.292  1.00  0.00     0.135 A 
ATOM     91  C   UNL A   1      42.333  28.024  33.548  1.00  0.00     0.135 A 
ATOM     92  F   UNL A   1      43.498  30.681  35.744  1.00  0.00    -0.206 F 
ATOM     93  C   UNL A   1      42.836  28.493  36.242  1.00  0.00     0.059 A 
ATOM     94  C   UNL A   1      42.046  27.033  34.480  1.00  0.00     0.059 A 
ATOM     95  F   UNL A   1      42.039  27.776  32.261  1.00  0.00    -0.206 F 
ATOM     96  C   UNL A   1      42.306  27.271  35.827  1.00  0.00     0.060 A 
BRANCH  96  97
ATOM     97  S   UNL A   1      41.890  26.020  37.063  1.00  0.00     0.124 S 
ATOM     98  O   UNL A   1      42.897  26.256  38.092  1.00  0.00    -0.237 OA
ATOM     99  O   UNL A   1      40.519  26.374  37.421  1.00  0.00    -0.237 OA
ATOM    100  O   UNL A   1      42.027  24.761  36.335  1.00  0.00    -0.744 OA
ENDBRANCH  96  97
ENDBRANCH  64  89
ENDBRANCH  38  39
ENDBRANCH  30  33
ENDBRANCH  28  29
ENDBRANCH  27  28
ENDBRANCH   1  27
TORSDOF 17
ENDMDL
MODEL 2
REMARK VINA RESULT:     -13.0      2.957      9.667
REMARK SMILES CC1CCN(S(=O)(=O)c2ccc3c(ccn3CC(=O)NCCCCNC(=O)c3ccc(-c4c5nc(c(-c6c(F)cc(S(=O)(=O)[O-])cc6F)c6ccc([nH]6)c(-c6c(F)cc(S(=O)(=O)[O-])cc6F)c6nc(c(-c7c(F)cc(S(=O)(=O)[O-])cc7F)c7ccc4[nH]7)C=C6)C=C5)cc3)c2)CC1
REMARK SMILES IDX 22 1 21 2 20 3 18 4 19 5 17 7 16 8 9 9 10 10 94 11 11 12
REMARK SMILES IDX 13 13 12 14 14 15 15 16 6 17 7 18 8 19 5 20 1 21 2 22 3 23
REMARK SMILES IDX 96 24 4 25 95 26 23 27 24 28 25 29 26 30 27 32 28 33 29 34
REMARK SMILES IDX 93 35 30 36 92 37 31 38 32 39 33 40 86 41 34 42 91 43 85 44
REMARK SMILES IDX 87 45 35 46 90 47 84 48 83 49 36 51 70 52 49 53 69 54 50 55
REMARK SMILES IDX 53 56 68 57 88 58 51 59 52 60 67 62 89 63 54 64 37 65 38 66
REMARK SMILES IDX 47 67 39 68 40 69 46 70 48 71 41 72 42 73 43 74 44 75 45 76
REMARK SMILES IDX 71 77 72 78 81 79 73 80 74 81 80 82 82 83 75 84 76 85 77 86
REMARK SMILES IDX 78 87 79 88 55 89 56 90 65 91 57 92 58 93 64 94 66 95 59 96
REMARK SMILES IDX 60 97 61 98 62 99 63 100
REMARK H PARENT 20 6 25 31 87 50 53 61
REMARK Flexibility Score: inf
ROOT
ATOM      1  C   UNL A   1      31.799  29.661  26.611  1.00  0.00     0.023 C 
ENDROOT
BRANCH   1   2
ATOM      2  C   UNL A   1      31.801  29.900  25.102  1.00  0.00     0.116 C 
BRANCH   2   3
ATOM      3  N   UNL A   1      30.593  30.555  24.636  1.00  0.00    -0.355 N 
ATOM      4  C   UNL A   1      29.883  30.344  23.489  1.00  0.00     0.239 C 
ATOM      5  O   UNL A   1      28.851  30.998  23.315  1.00  0.00    -0.273 OA
ATOM      6  H   UNL A   1      30.234  31.251  25.233  1.00  0.00     0.163 HD
BRANCH   4   7
ATOM      7  C   UNL A   1      30.296  29.272  22.499  1.00  0.00     0.222 C 
BRANCH   7   8
ATOM      8  N   UNL A   1      30.100  27.915  22.987  1.00  0.00    -0.338 N 
ATOM      9  C   UNL A   1      32.482  24.539  23.102  1.00  0.00     0.083 A 
ATOM     10  C   UNL A   1      33.059  25.680  22.546  1.00  0.00     0.024 A 
ATOM     11  C   UNL A   1      31.167  24.564  23.583  1.00  0.00     0.032 A 
ATOM     12  C   UNL A   1      32.385  26.900  22.552  1.00  0.00     0.028 A 
ATOM     13  C   UNL A   1      30.433  25.766  23.502  1.00  0.00     0.001 A 
ATOM     14  C   UNL A   1      31.054  26.914  22.998  1.00  0.00     0.049 A 
ATOM     15  C   UNL A   1      29.091  26.115  23.810  1.00  0.00     0.028 A 
ATOM     16  C   UNL A   1      28.920  27.444  23.501  1.00  0.00     0.087 A 
BRANCH   9  17
ATOM     17  S   UNL A   1      33.361  22.996  23.022  1.00  0.00     0.243 S 
ATOM     18  O   UNL A   1      34.686  23.297  22.534  1.00  0.00    -0.207 OA
ATOM     19  O   UNL A   1      32.515  22.043  22.325  1.00  0.00    -0.207 OA
BRANCH  17  20
ATOM     20  N   UNL A   1      33.480  22.432  24.645  1.00  0.00    -0.198 NA
ATOM     21  C   UNL A   1      37.481  23.695  25.453  1.00  0.00     0.008 C 
ATOM     22  C   UNL A   1      36.142  23.017  25.752  1.00  0.00    -0.012 C 
ATOM     23  C   UNL A   1      35.900  21.857  24.770  1.00  0.00     0.020 C 
ATOM     24  C   UNL A   1      35.011  24.057  25.743  1.00  0.00     0.020 C 
ATOM     25  C   UNL A   1      34.469  21.326  24.814  1.00  0.00     0.103 C 
ATOM     26  C   UNL A   1      33.637  23.400  25.757  1.00  0.00     0.103 C 
ENDBRANCH  17  20
ENDBRANCH   9  17
ENDBRANCH   7   8
ENDBRANCH   4   7
ENDBRANCH   2   3
ENDBRANCH   1   2
BRANCH   1  27
ATOM     27  C   UNL A   1      33.193  29.591  27.252  1.00  0.00     0.023 C 
BRANCH  27  28
ATOM     28  C   UNL A   1      33.983  30.902  27.237  1.00  0.00     0.116 C 
BRANCH  28  29
ATOM     29  N   UNL A   1      33.941  31.635  28.486  1.00  0.00    -0.352 N 
ATOM     30  C   UNL A   1      34.866  31.954  29.444  1.00  0.00     0.251 C 
ATOM     31  H   UNL A   1      33.044  31.984  28.693  1.00  0.00     0.163 HD
ATOM     32  O   UNL A   1      34.529  32.844  30.232  1.00  0.00    -0.269 OA
BRANCH  30  33
ATOM     33  C   UNL A   1      36.175  31.273  29.648  1.00  0.00     0.039 A 
ATOM     34  C   UNL A   1      37.427  31.861  29.489  1.00  0.00     0.014 A 
ATOM     35  C   UNL A   1      36.117  29.891  29.929  1.00  0.00     0.014 A 
ATOM     36  C   UNL A   1      38.576  31.072  29.506  1.00  0.00     0.010 A 
ATOM     37  C   UNL A   1      37.265  29.099  29.953  1.00  0.00     0.010 A 
ATOM     38  C   UNL A   1      38.494  29.684  29.691  1.00  0.00    -0.014 A 
BRANCH  38  39
ATOM     39  C   UNL A   1      39.748  28.929  29.732  1.00  0.00     0.031 A 
ATOM     40  C   UNL A   1      40.239  28.689  31.116  1.00  0.00     0.074 A 
ATOM     41  C   UNL A   1      40.429  28.453  28.666  1.00  0.00     0.049 A 
ATOM     42  N   UNL A   1      41.212  29.293  31.712  1.00  0.00    -0.248 NA
ATOM     43  C   UNL A   1      39.444  27.823  31.999  1.00  0.00     0.031 C 
ATOM     44  C   UNL A   1      40.009  28.380  27.266  1.00  0.00     0.029 A 
ATOM     45  N   UNL A   1      41.671  27.883  28.635  1.00  0.00    -0.354 N 
ATOM     46  C   UNL A   1      41.302  28.728  32.981  1.00  0.00     0.074 A 
ATOM     47  C   UNL A   1      40.094  27.965  33.157  1.00  0.00     0.031 C 
ATOM     48  C   UNL A   1      40.889  27.621  26.566  1.00  0.00     0.029 A 
ATOM     49  C   UNL A   1      42.014  27.284  27.424  1.00  0.00     0.049 A 
ATOM     50  H   UNL A   1      42.278  27.893  29.410  1.00  0.00     0.167 HD
ATOM     51  C   UNL A   1      42.470  28.771  33.681  1.00  0.00     0.037 A 
ATOM     52  C   UNL A   1      43.144  26.578  27.145  1.00  0.00     0.037 A 
ATOM     53  C   UNL A   1      43.347  29.787  33.146  1.00  0.00     0.049 A 
ATOM     54  C   UNL A   1      44.175  27.018  28.117  1.00  0.00     0.074 A 
ATOM     55  C   UNL A   1      43.281  31.159  33.002  1.00  0.00     0.029 A 
ATOM     56  N   UNL A   1      44.357  29.371  32.313  1.00  0.00    -0.354 N 
ATOM     57  N   UNL A   1      44.695  28.213  28.132  1.00  0.00    -0.248 NA
ATOM     58  C   UNL A   1      44.306  26.262  29.351  1.00  0.00     0.031 C 
ATOM     59  C   UNL A   1      43.922  31.432  31.756  1.00  0.00     0.029 A 
ATOM     60  C   UNL A   1      44.400  30.225  31.243  1.00  0.00     0.049 A 
ATOM     61  H   UNL A   1      44.947  28.597  32.460  1.00  0.00     0.167 HD
ATOM     62  C   UNL A   1      44.816  28.525  29.477  1.00  0.00     0.074 A 
ATOM     63  C   UNL A   1      44.641  27.254  30.178  1.00  0.00     0.031 C 
ATOM     64  C   UNL A   1      44.775  29.821  29.906  1.00  0.00     0.037 A 
BRANCH  51  65
ATOM     65  C   UNL A   1      42.989  27.650  34.561  1.00  0.00     0.058 A 
ATOM     66  C   UNL A   1      43.248  27.920  35.924  1.00  0.00     0.135 A 
ATOM     67  C   UNL A   1      43.529  26.437  34.077  1.00  0.00     0.135 A 
ATOM     68  F   UNL A   1      42.763  29.027  36.509  1.00  0.00    -0.206 F 
ATOM     69  C   UNL A   1      44.078  27.116  36.705  1.00  0.00     0.059 A 
ATOM     70  C   UNL A   1      44.322  25.599  34.853  1.00  0.00     0.059 A 
ATOM     71  F   UNL A   1      43.392  26.039  32.809  1.00  0.00    -0.206 F 
ATOM     72  C   UNL A   1      44.631  25.969  36.150  1.00  0.00     0.060 A 
BRANCH  72  73
ATOM     73  S   UNL A   1      45.794  24.994  37.118  1.00  0.00     0.124 S 
ATOM     74  O   UNL A   1      46.047  25.881  38.248  1.00  0.00    -0.237 OA
ATOM     75  O   UNL A   1      45.014  23.796  37.406  1.00  0.00    -0.237 OA
ATOM     76  O   UNL A   1      46.914  24.802  36.201  1.00  0.00    -0.744 OA
ENDBRANCH  72  73
ENDBRANCH  51  65
BRANCH  52  77
ATOM     77  C   UNL A   1      43.301  25.315  26.363  1.00  0.00     0.058 A 
ATOM     78  C   UNL A   1      44.338  25.162  25.417  1.00  0.00     0.135 A 
ATOM     79  C   UNL A   1      42.648  24.129  26.752  1.00  0.00     0.135 A 
ATOM     80  F   UNL A   1      45.028  26.232  24.993  1.00  0.00    -0.206 F 
ATOM     81  C   UNL A   1      44.748  23.907  24.944  1.00  0.00     0.059 A 
ATOM     82  C   UNL A   1      43.036  22.869  26.288  1.00  0.00     0.059 A 
ATOM     83  F   UNL A   1      41.672  24.152  27.670  1.00  0.00    -0.206 F 
ATOM     84  C   UNL A   1      44.106  22.762  25.408  1.00  0.00     0.060 A 
BRANCH  84  85
ATOM     85  S   UNL A   1      44.748  21.131  24.949  1.00  0.00     0.124 S 
ATOM     86  O   UNL A   1      46.133  21.210  25.401  1.00  0.00    -0.237 OA
ATOM     87  O   UNL A   1      43.882  20.233  25.706  1.00  0.00    -0.237 OA
ATOM     88  O   UNL A   1      44.568  21.089  23.500  1.00  0.00    -0.744 OA
ENDBRANCH  84  85
ENDBRANCH  52  77
BRANCH  64  89
ATOM     89  C   UNL A   1      44.926  30.922  28.888  1.00  0.00     0.058 A 
ATOM     90  C   UNL A   1      46.147  31.335  28.323  1.00  0.00     0.135 A 
ATOM     91  C   UNL A   1      43.754  31.467  28.343  1.00  0.00     0.135 A 
ATOM     92  F   UNL A   1      47.310  30.800  28.725  1.00  0.00    -0.206 F 
ATOM     93  C   UNL A   1      46.195  32.262  27.279  1.00  0.00     0.059 A 
ATOM     94  C   UNL A   1      43.777  32.366  27.282  1.00  0.00     0.059 A 
ATOM     95  F   UNL A   1      42.553  31.075  28.803  1.00  0.00    -0.206 F 
ATOM     96  C   UNL A   1      45.003  32.765  26.758  1.00  0.00     0.060 A 
BRANCH  96  97
ATOM     97  S   UNL A   1      45.058  33.889  25.344  1.00  0.00     0.124 S 
ATOM     98  O   UNL A   1      44.199  34.983  25.785  1.00  0.00    -0.237 OA
ATOM     99  O   UNL A   1      46.481  34.199  25.243  1.00  0.00    -0.237 OA
ATOM    100  O   UNL A   1      44.527  33.085  24.246  1.00  0.00    -0.744 OA
ENDBRANCH  96  97
ENDBRANCH  64  89
ENDBRANCH  38  39
ENDBRANCH  30  33
ENDBRANCH  28  29
ENDBRANCH  27  28
ENDBRANCH   1  27
TORSDOF 17
ENDMDL
MODEL 3
REMARK VINA RESULT:     -12.9      1.419      2.303
REMARK SMILES CC1CCN(S(=O)(=O)c2ccc3c(ccn3CC(=O)NCCCCNC(=O)c3ccc(-c4c5nc(c(-c6c(F)cc(S(=O)(=O)[O-])cc6F)c6ccc([nH]6)c(-c6c(F)cc(S(=O)(=O)[O-])cc6F)c6nc(c(-c7c(F)cc(S(=O)(=O)[O-])cc7F)c7ccc4[nH]7)C=C6)C=C5)cc3)c2)CC1
REMARK SMILES IDX 22 1 21 2 20 3 18 4 19 5 17 7 16 8 9 9 10 10 94 11 11 12
REMARK SMILES IDX 13 13 12 14 14 15 15 16 6 17 7 18 8 19 5 20 1 21 2 22 3 23
REMARK SMILES IDX 96 24 4 25 95 26 23 27 24 28 25 29 26 30 27 32 28 33 29 34
REMARK SMILES IDX 93 35 30 36 92 37 31 38 32 39 33 40 86 41 34 42 91 43 85 44
REMARK SMILES IDX 87 45 35 46 90 47 84 48 83 49 36 51 70 52 49 53 69 54 50 55
REMARK SMILES IDX 53 56 68 57 88 58 51 59 52 60 67 62 89 63 54 64 37 65 38 66
REMARK SMILES IDX 47 67 39 68 40 69 46 70 48 71 41 72 42 73 43 74 44 75 45 76
REMARK SMILES IDX 71 77 72 78 81 79 73 80 74 81 80 82 82 83 75 84 76 85 77 86
REMARK SMILES IDX 78 87 79 88 55 89 56 90 65 91 57 92 58 93 64 94 66 95 59 96
REMARK SMILES IDX 60 97 61 98 62 99 63 100
REMARK H PARENT 20 6 25 31 87 50 53 61
REMARK Flexibility Score: inf
ROOT
ATOM      1  C   UNL A   1      38.139  23.648  25.874  1.00  0.00     0.023 C 
ENDROOT
BRANCH   1   2
ATOM      2  C   UNL A   1      36.623  23.732  25.708  1.00  0.00     0.116 C 
BRANCH   2   3
ATOM      3  N   UNL A   1      35.919  22.712  26.464  1.00  0.00    -0.355 N 
ATOM      4  C   UNL A   1      34.777  22.034  26.145  1.00  0.00     0.239 C 
ATOM      5  O   UNL A   1      34.375  21.172  26.930  1.00  0.00    -0.273 OA
ATOM      6  H   UNL A   1      36.323  22.475  27.329  1.00  0.00     0.163 HD
BRANCH   4   7
ATOM      7  C   UNL A   1      34.073  22.267  24.822  1.00  0.00     0.222 C 
BRANCH   7   8
ATOM      8  N   UNL A   1      32.910  23.136  24.921  1.00  0.00    -0.338 N 
ATOM      9  C   UNL A   1      32.362  27.226  24.682  1.00  0.00     0.083 A 
ATOM     10  C   UNL A   1      33.669  26.770  24.520  1.00  0.00     0.024 A 
ATOM     11  C   UNL A   1      31.314  26.326  24.916  1.00  0.00     0.032 A 
ATOM     12  C   UNL A   1      33.953  25.407  24.477  1.00  0.00     0.028 A 
ATOM     13  C   UNL A   1      31.601  24.946  24.979  1.00  0.00     0.001 A 
ATOM     14  C   UNL A   1      32.909  24.509  24.749  1.00  0.00     0.049 A 
ATOM     15  C   UNL A   1      30.818  23.797  25.271  1.00  0.00     0.028 A 
ATOM     16  C   UNL A   1      31.644  22.699  25.211  1.00  0.00     0.087 A 
BRANCH   9  17
ATOM     17  S   UNL A   1      32.060  28.974  24.784  1.00  0.00     0.243 S 
ATOM     18  O   UNL A   1      30.840  29.229  24.055  1.00  0.00    -0.207 OA
ATOM     19  O   UNL A   1      33.291  29.656  24.426  1.00  0.00    -0.207 OA
BRANCH  17  20
ATOM     20  N   UNL A   1      31.792  29.314  26.452  1.00  0.00    -0.198 NA
ATOM     21  C   UNL A   1      35.759  30.513  27.489  1.00  0.00     0.008 C 
ATOM     22  C   UNL A   1      34.287  30.185  27.745  1.00  0.00    -0.012 C 
ATOM     23  C   UNL A   1      34.005  28.707  27.420  1.00  0.00     0.020 C 
ATOM     24  C   UNL A   1      33.387  31.154  26.961  1.00  0.00     0.020 C 
ATOM     25  C   UNL A   1      32.513  28.381  27.367  1.00  0.00     0.103 C 
ATOM     26  C   UNL A   1      31.933  30.700  26.959  1.00  0.00     0.103 C 
ENDBRANCH  17  20
ENDBRANCH   9  17
ENDBRANCH   7   8
ENDBRANCH   4   7
ENDBRANCH   2   3
ENDBRANCH   1   2
BRANCH   1  27
ATOM     27  C   UNL A   1      38.678  22.237  26.156  1.00  0.00     0.023 C 
BRANCH  27  28
ATOM     28  C   UNL A   1      40.079  22.186  26.769  1.00  0.00     0.116 C 
BRANCH  28  29
ATOM     29  N   UNL A   1      41.147  22.483  25.836  1.00  0.00    -0.352 N 
ATOM     30  C   UNL A   1      42.111  23.452  25.756  1.00  0.00     0.251 C 
ATOM     31  H   UNL A   1      41.189  21.843  25.089  1.00  0.00     0.163 HD
ATOM     32  O   UNL A   1      43.035  23.218  24.970  1.00  0.00    -0.269 OA
BRANCH  30  33
ATOM     33  C   UNL A   1      42.088  24.762  26.467  1.00  0.00     0.039 A 
ATOM     34  C   UNL A   1      42.719  25.037  27.678  1.00  0.00     0.014 A 
ATOM     35  C   UNL A   1      41.271  25.761  25.897  1.00  0.00     0.014 A 
ATOM     36  C   UNL A   1      42.455  26.231  28.345  1.00  0.00     0.010 A 
ATOM     37  C   UNL A   1      41.010  26.960  26.559  1.00  0.00     0.010 A 
ATOM     38  C   UNL A   1      41.566  27.175  27.811  1.00  0.00    -0.014 A 
BRANCH  38  39
ATOM     39  C   UNL A   1      41.369  28.421  28.555  1.00  0.00     0.031 A 
ATOM     40  C   UNL A   1      42.514  29.363  28.426  1.00  0.00     0.074 A 
ATOM     41  C   UNL A   1      40.280  28.753  29.283  1.00  0.00     0.049 A 
ATOM     42  N   UNL A   1      43.421  29.611  29.311  1.00  0.00    -0.248 NA
ATOM     43  C   UNL A   1      42.793  29.948  27.107  1.00  0.00     0.031 C 
ATOM     44  C   UNL A   1      38.980  28.085  29.348  1.00  0.00     0.029 A 
ATOM     45  N   UNL A   1      40.108  29.823  30.115  1.00  0.00    -0.354 N 
ATOM     46  C   UNL A   1      44.269  30.557  28.745  1.00  0.00     0.074 A 
ATOM     47  C   UNL A   1      43.937  30.593  27.345  1.00  0.00     0.031 C 
ATOM     48  C   UNL A   1      38.096  28.873  30.011  1.00  0.00     0.029 A 
ATOM     49  C   UNL A   1      38.800  30.024  30.552  1.00  0.00     0.049 A 
ATOM     50  H   UNL A   1      40.852  30.409  30.386  1.00  0.00     0.167 HD
ATOM     51  C   UNL A   1      45.019  31.379  29.531  1.00  0.00     0.037 A 
ATOM     52  C   UNL A   1      38.334  31.052  31.314  1.00  0.00     0.037 A 
ATOM     53  C   UNL A   1      45.124  30.846  30.870  1.00  0.00     0.049 A 
ATOM     54  C   UNL A   1      39.497  31.594  32.059  1.00  0.00     0.074 A 
ATOM     55  C   UNL A   1      45.645  29.694  31.426  1.00  0.00     0.029 A 
ATOM     56  N   UNL A   1      44.301  31.385  31.829  1.00  0.00    -0.354 N 
ATOM     57  N   UNL A   1      40.132  30.938  32.991  1.00  0.00    -0.248 NA
ATOM     58  C   UNL A   1      40.229  32.698  31.460  1.00  0.00     0.031 C 
ATOM     59  C   UNL A   1      44.752  29.357  32.487  1.00  0.00     0.029 A 
ATOM     60  C   UNL A   1      43.778  30.354  32.562  1.00  0.00     0.049 A 
ATOM     61  H   UNL A   1      44.121  32.344  31.964  1.00  0.00     0.167 HD
ATOM     62  C   UNL A   1      41.468  31.247  32.787  1.00  0.00     0.074 A 
ATOM     63  C   UNL A   1      41.457  32.400  31.888  1.00  0.00     0.031 C 
ATOM     64  C   UNL A   1      42.455  30.375  33.148  1.00  0.00     0.037 A 
BRANCH  51  65
ATOM     65  C   UNL A   1      45.307  32.836  29.226  1.00  0.00     0.058 A 
ATOM     66  C   UNL A   1      44.224  33.698  28.937  1.00  0.00     0.135 A 
ATOM     67  C   UNL A   1      46.583  33.349  28.902  1.00  0.00     0.135 A 
ATOM     68  F   UNL A   1      42.963  33.336  29.226  1.00  0.00    -0.206 F 
ATOM     69  C   UNL A   1      44.386  34.911  28.268  1.00  0.00     0.059 A 
ATOM     70  C   UNL A   1      46.769  34.577  28.276  1.00  0.00     0.059 A 
ATOM     71  F   UNL A   1      47.711  32.658  29.095  1.00  0.00    -0.206 F 
ATOM     72  C   UNL A   1      45.664  35.330  27.920  1.00  0.00     0.060 A 
BRANCH  72  73
ATOM     73  S   UNL A   1      45.866  36.836  26.956  1.00  0.00     0.124 S 
ATOM     74  O   UNL A   1      46.489  36.323  25.742  1.00  0.00    -0.237 OA
ATOM     75  O   UNL A   1      44.487  37.294  26.824  1.00  0.00    -0.237 OA
ATOM     76  O   UNL A   1      46.718  37.665  27.804  1.00  0.00    -0.744 OA
ENDBRANCH  72  73
ENDBRANCH  51  65
BRANCH  52  77
ATOM     77  C   UNL A   1      37.065  31.830  31.180  1.00  0.00     0.058 A 
ATOM     78  C   UNL A   1      36.110  31.859  32.219  1.00  0.00     0.135 A 
ATOM     79  C   UNL A   1      36.911  32.808  30.180  1.00  0.00     0.135 A 
ATOM     80  F   UNL A   1      36.180  30.975  33.226  1.00  0.00    -0.206 F 
ATOM     81  C   UNL A   1      35.112  32.841  32.298  1.00  0.00     0.059 A 
ATOM     82  C   UNL A   1      35.920  33.792  30.234  1.00  0.00     0.059 A 
ATOM     83  F   UNL A   1      37.782  32.896  29.164  1.00  0.00    -0.206 F 
ATOM     84  C   UNL A   1      35.042  33.822  31.311  1.00  0.00     0.060 A 
BRANCH  84  85
ATOM     85  S   UNL A   1      33.879  35.198  31.501  1.00  0.00     0.124 S 
ATOM     86  O   UNL A   1      32.814  34.589  32.293  1.00  0.00    -0.237 OA
ATOM     87  O   UNL A   1      34.691  36.197  32.189  1.00  0.00    -0.237 OA
ATOM     88  O   UNL A   1      33.519  35.532  30.126  1.00  0.00    -0.744 OA
ENDBRANCH  84  85
ENDBRANCH  52  77
BRANCH  64  89
ATOM     89  C   UNL A   1      42.104  29.227  34.060  1.00  0.00     0.058 A 
ATOM     90  C   UNL A   1      41.622  27.976  33.632  1.00  0.00     0.135 A 
ATOM     91  C   UNL A   1      42.432  29.355  35.418  1.00  0.00     0.135 A 
ATOM     92  F   UNL A   1      41.366  27.741  32.337  1.00  0.00    -0.206 F 
ATOM     93  C   UNL A   1      41.456  26.912  34.522  1.00  0.00     0.059 A 
ATOM     94  C   UNL A   1      42.306  28.299  36.314  1.00  0.00     0.059 A 
ATOM     95  F   UNL A   1      42.946  30.508  35.880  1.00  0.00    -0.206 F 
ATOM     96  C   UNL A   1      41.810  27.080  35.860  1.00  0.00     0.060 A 
BRANCH  96  97
ATOM     97  S   UNL A   1      41.689  25.677  36.993  1.00  0.00     0.124 S 
ATOM     98  O   UNL A   1      41.634  24.543  36.075  1.00  0.00    -0.237 OA
ATOM     99  O   UNL A   1      42.912  25.800  37.780  1.00  0.00    -0.237 OA
ATOM    100  O   UNL A   1      40.456  25.939  37.732  1.00  0.00    -0.744 OA
ENDBRANCH  96  97
ENDBRANCH  64  89
ENDBRANCH  38  39
ENDBRANCH  30  33
ENDBRANCH  28  29
ENDBRANCH  27  28
ENDBRANCH   1  27
TORSDOF 17
ENDMDL
