MODEL 1
REMARK VINA RESULT:     -10.8      0.000      0.000
REMARK SMILES CCCC[C@@H](Sc1nc(OCCC2CCCCC2)cc(OCCC2CCCCC2)n1)C(=O)NCCCCNC(=O)c1ccc(-c2c3nc(c(-c4c(F)cc(S(=O)(=O)[O-])cc4F)c4ccc([nH]4)c(-c4c(F)cc(S(=O)(=O)[O-])cc4F)c4nc(c(-c5c(F)cc(S(=O)(=O)[O-])cc5F)c5ccc2[nH]5)C=C4)C=C3)cc1
REMARK SMILES IDX 34 1 33 2 31 3 32 4 5 6 4 7 3 8 2 9 1 10 6 11 7 12 8 13
REMARK SMILES IDX 30 14 9 15 20 16 19 17 10 18 11 19 12 20 13 21 14 22 18 23
REMARK SMILES IDX 15 24 17 25 16 26 21 27 22 28 23 29 24 30 25 31 29 32 26 33
REMARK SMILES IDX 28 34 27 35 35 36 36 37 37 38 38 39 39 40 40 42 41 43 42 44
REMARK SMILES IDX 106 45 43 46 105 47 44 48 45 49 46 50 99 51 47 52 104 53
REMARK SMILES IDX 98 54 100 55 48 56 103 57 97 58 96 59 49 61 83 62 62 63
REMARK SMILES IDX 82 64 63 65 66 66 81 67 101 68 64 69 65 70 80 72 102 73
REMARK SMILES IDX 67 74 50 75 51 76 60 77 52 78 53 79 59 80 61 81 54 82 55 83
REMARK SMILES IDX 56 84 57 85 58 86 84 87 85 88 94 89 86 90 87 91 93 92 95 93
REMARK SMILES IDX 88 94 89 95 90 96 91 97 92 98 68 99 69 100 78 101 70 102
REMARK SMILES IDX 71 103 77 104 79 105 72 106 73 107 74 108 75 109 76 110
REMARK H PARENT 33 5 38 41 100 60 66 71
REMARK Flexibility Score: inf
ROOT
ATOM      1  C   UNL A   1      35.487  23.769  24.856  1.00  0.00     0.116 C 
ENDROOT
BRANCH   1   2
ATOM      2  N   UNL A   1      34.925  23.038  25.984  1.00  0.00    -0.355 N 
ATOM      3  C   UNL A   1      34.508  21.733  26.074  1.00  0.00     0.233 C 
ATOM      4  O   UNL A   1      34.074  21.334  27.158  1.00  0.00    -0.274 OA
ATOM      5  H   UNL A   1      34.832  23.562  26.813  1.00  0.00     0.163 HD
BRANCH   3   6
ATOM      6  C   UNL A   1      34.561  20.799  24.844  1.00  0.00     0.144 C 
BRANCH   6   7
ATOM      7  C   UNL A   1      35.644  19.730  25.170  1.00  0.00     0.025 C 
BRANCH   7   8
ATOM      8  C   UNL A   1      35.837  18.464  24.341  1.00  0.00     0.001 C 
BRANCH   8   9
ATOM      9  C   UNL A   1      34.823  17.338  24.529  1.00  0.00    -0.003 C 
ATOM     10  C   UNL A   1      33.935  17.115  23.320  1.00  0.00     0.004 C 
ENDBRANCH   8   9
ENDBRANCH   7   8
ENDBRANCH   6   7
BRANCH   6  11
ATOM     11  S   UNL A   1      32.738  20.444  24.526  1.00  0.00    -0.073 SA
BRANCH  11  12
ATOM     12  C   UNL A   1      32.037  22.010  24.158  1.00  0.00     0.195 A 
ATOM     13  N   UNL A   1      32.514  22.666  23.082  1.00  0.00    -0.187 NA
ATOM     14  N   UNL A   1      31.260  22.544  25.090  1.00  0.00    -0.187 NA
ATOM     15  C   UNL A   1      32.349  23.994  23.072  1.00  0.00     0.221 A 
ATOM     16  C   UNL A   1      31.161  23.867  25.075  1.00  0.00     0.221 A 
ATOM     17  C   UNL A   1      31.794  24.634  24.144  1.00  0.00     0.136 A 
BRANCH  15  18
ATOM     18  O   UNL A   1      32.737  24.629  21.917  1.00  0.00    -0.477 OA
BRANCH  18  19
ATOM     19  C   UNL A   1      31.942  25.712  21.422  1.00  0.00     0.231 C 
BRANCH  19  20
ATOM     20  C   UNL A   1      31.971  27.017  22.264  1.00  0.00     0.045 C 
BRANCH  20  21
ATOM     21  C   UNL A   1      30.676  27.844  22.273  1.00  0.00    -0.008 C 
ATOM     22  C   UNL A   1      29.655  27.442  23.347  1.00  0.00     0.004 C 
ATOM     23  C   UNL A   1      30.923  29.348  22.370  1.00  0.00     0.004 C 
ATOM     24  C   UNL A   1      28.317  28.152  23.088  1.00  0.00     0.000 C 
ATOM     25  C   UNL A   1      29.637  30.086  22.006  1.00  0.00     0.000 C 
ATOM     26  C   UNL A   1      28.448  29.661  22.872  1.00  0.00     0.000 C 
ENDBRANCH  20  21
ENDBRANCH  19  20
ENDBRANCH  18  19
ENDBRANCH  15  18
BRANCH  16  27
ATOM     27  O   UNL A   1      30.639  24.393  26.218  1.00  0.00    -0.477 OA
BRANCH  27  28
ATOM     28  C   UNL A   1      30.006  25.663  26.122  1.00  0.00     0.231 C 
BRANCH  28  29
ATOM     29  C   UNL A   1      30.685  26.609  27.134  1.00  0.00     0.045 C 
BRANCH  29  30
ATOM     30  C   UNL A   1      31.569  27.667  26.445  1.00  0.00    -0.008 C 
ATOM     31  C   UNL A   1      31.709  28.927  27.296  1.00  0.00     0.004 C 
ATOM     32  C   UNL A   1      32.990  27.202  26.103  1.00  0.00     0.004 C 
ATOM     33  C   UNL A   1      32.268  30.048  26.432  1.00  0.00     0.000 C 
ATOM     34  C   UNL A   1      33.729  28.299  25.315  1.00  0.00     0.000 C 
ATOM     35  C   UNL A   1      33.667  29.688  25.964  1.00  0.00     0.000 C 
ENDBRANCH  29  30
ENDBRANCH  28  29
ENDBRANCH  27  28
ENDBRANCH  16  27
ENDBRANCH  11  12
ENDBRANCH   6  11
ENDBRANCH   3   6
ENDBRANCH   1   2
BRANCH   1  36
ATOM     36  C   UNL A   1      36.953  23.402  24.623  1.00  0.00     0.023 C 
BRANCH  36  37
ATOM     37  C   UNL A   1      37.712  23.072  25.904  1.00  0.00     0.023 C 
BRANCH  37  38
ATOM     38  C   UNL A   1      38.569  24.212  26.437  1.00  0.00     0.116 C 
BRANCH  38  39
ATOM     39  N   UNL A   1      39.986  24.044  26.142  1.00  0.00    -0.352 N 
ATOM     40  C   UNL A   1      41.031  24.831  26.563  1.00  0.00     0.251 C 
ATOM     41  H   UNL A   1      40.223  23.277  25.572  1.00  0.00     0.163 HD
ATOM     42  O   UNL A   1      42.164  24.659  26.123  1.00  0.00    -0.269 OA
BRANCH  40  43
ATOM     43  C   UNL A   1      40.750  25.911  27.528  1.00  0.00     0.039 A 
ATOM     44  C   UNL A   1      39.781  25.709  28.510  1.00  0.00     0.014 A 
ATOM     45  C   UNL A   1      41.515  27.081  27.506  1.00  0.00     0.014 A 
ATOM     46  C   UNL A   1      39.626  26.660  29.520  1.00  0.00     0.010 A 
ATOM     47  C   UNL A   1      41.417  27.982  28.558  1.00  0.00     0.010 A 
ATOM     48  C   UNL A   1      40.471  27.783  29.574  1.00  0.00    -0.014 A 
BRANCH  48  49
ATOM     49  C   UNL A   1      40.381  28.762  30.686  1.00  0.00     0.031 A 
ATOM     50  C   UNL A   1      41.278  28.619  31.884  1.00  0.00     0.074 A 
ATOM     51  C   UNL A   1      39.451  29.738  30.644  1.00  0.00     0.049 A 
ATOM     52  N   UNL A   1      41.310  29.329  32.981  1.00  0.00    -0.248 NA
ATOM     53  C   UNL A   1      42.249  27.512  31.857  1.00  0.00     0.031 C 
ATOM     54  C   UNL A   1      38.491  29.948  29.557  1.00  0.00     0.029 A 
ATOM     55  N   UNL A   1      39.155  30.732  31.542  1.00  0.00    -0.354 N 
ATOM     56  C   UNL A   1      42.293  28.752  33.775  1.00  0.00     0.074 A 
ATOM     57  C   UNL A   1      42.789  27.595  33.063  1.00  0.00     0.031 C 
ATOM     58  C   UNL A   1      37.735  31.021  29.839  1.00  0.00     0.029 A 
ATOM     59  C   UNL A   1      38.124  31.549  31.143  1.00  0.00     0.049 A 
ATOM     60  H   UNL A   1      39.635  30.848  32.394  1.00  0.00     0.167 HD
ATOM     61  C   UNL A   1      42.761  29.166  34.978  1.00  0.00     0.037 A 
ATOM     62  C   UNL A   1      37.553  32.602  31.760  1.00  0.00     0.037 A 
ATOM     63  C   UNL A   1      42.272  30.329  35.672  1.00  0.00     0.049 A 
ATOM     64  C   UNL A   1      38.076  33.031  33.106  1.00  0.00     0.074 A 
ATOM     65  C   UNL A   1      42.711  30.861  36.870  1.00  0.00     0.029 A 
ATOM     66  N   UNL A   1      41.234  31.136  35.231  1.00  0.00    -0.354 N 
ATOM     67  N   UNL A   1      39.051  32.513  33.815  1.00  0.00    -0.248 NA
ATOM     68  C   UNL A   1      37.426  34.190  33.732  1.00  0.00     0.031 C 
ATOM     69  C   UNL A   1      41.905  31.962  37.179  1.00  0.00     0.029 A 
ATOM     70  C   UNL A   1      41.002  32.151  36.145  1.00  0.00     0.049 A 
ATOM     71  H   UNL A   1      40.735  31.008  34.392  1.00  0.00     0.167 HD
ATOM     72  C   UNL A   1      39.152  33.301  34.956  1.00  0.00     0.074 A 
ATOM     73  C   UNL A   1      38.145  34.337  34.837  1.00  0.00     0.031 C 
ATOM     74  C   UNL A   1      40.000  33.180  36.007  1.00  0.00     0.037 A 
BRANCH  61  75
ATOM     75  C   UNL A   1      43.859  28.356  35.611  1.00  0.00     0.058 A 
ATOM     76  C   UNL A   1      45.213  28.595  35.320  1.00  0.00     0.135 A 
ATOM     77  C   UNL A   1      43.561  27.343  36.537  1.00  0.00     0.135 A 
ATOM     78  F   UNL A   1      45.557  29.541  34.430  1.00  0.00    -0.206 F 
ATOM     79  C   UNL A   1      46.227  27.837  35.896  1.00  0.00     0.059 A 
ATOM     80  C   UNL A   1      44.561  26.593  37.149  1.00  0.00     0.059 A 
ATOM     81  F   UNL A   1      42.285  27.070  36.852  1.00  0.00    -0.206 F 
ATOM     82  C   UNL A   1      45.891  26.837  36.808  1.00  0.00     0.060 A 
BRANCH  82  83
ATOM     83  S   UNL A   1      47.220  25.862  37.545  1.00  0.00     0.124 S 
ATOM     84  O   UNL A   1      48.395  26.638  37.163  1.00  0.00    -0.237 OA
ATOM     85  O   UNL A   1      46.876  25.889  38.963  1.00  0.00    -0.237 OA
ATOM     86  O   UNL A   1      47.088  24.561  36.895  1.00  0.00    -0.744 OA
ENDBRANCH  82  83
ENDBRANCH  61  75
BRANCH  62  87
ATOM     87  C   UNL A   1      36.442  33.340  31.102  1.00  0.00     0.058 A 
ATOM     88  C   UNL A   1      36.684  34.173  29.999  1.00  0.00     0.135 A 
ATOM     89  C   UNL A   1      35.116  33.221  31.550  1.00  0.00     0.135 A 
ATOM     90  F   UNL A   1      37.934  34.326  29.537  1.00  0.00    -0.206 F 
ATOM     91  C   UNL A   1      35.658  34.874  29.374  1.00  0.00     0.059 A 
ATOM     92  C   UNL A   1      34.069  33.891  30.925  1.00  0.00     0.059 A 
ATOM     93  F   UNL A   1      34.827  32.425  32.591  1.00  0.00    -0.206 F 
ATOM     94  C   UNL A   1      34.352  34.725  29.844  1.00  0.00     0.060 A 
BRANCH  94  95
ATOM     95  S   UNL A   1      33.022  35.603  28.994  1.00  0.00     0.124 S 
ATOM     96  O   UNL A   1      32.260  36.139  30.117  1.00  0.00    -0.237 OA
ATOM     97  O   UNL A   1      33.760  36.579  28.200  1.00  0.00    -0.237 OA
ATOM     98  O   UNL A   1      32.362  34.552  28.226  1.00  0.00    -0.744 OA
ENDBRANCH  94  95
ENDBRANCH  62  87
BRANCH  74  99
ATOM     99  C   UNL A   1      39.909  34.212  37.096  1.00  0.00     0.058 A 
ATOM    100  C   UNL A   1      39.161  33.994  38.263  1.00  0.00     0.135 A 
ATOM    101  C   UNL A   1      40.628  35.416  36.994  1.00  0.00     0.135 A 
ATOM    102  F   UNL A   1      38.450  32.864  38.409  1.00  0.00    -0.206 F 
ATOM    103  C   UNL A   1      39.112  34.939  39.283  1.00  0.00     0.059 A 
ATOM    104  C   UNL A   1      40.617  36.362  38.014  1.00  0.00     0.059 A 
ATOM    105  F   UNL A   1      41.368  35.671  35.903  1.00  0.00    -0.206 F 
ATOM    106  C   UNL A   1      39.847  36.120  39.150  1.00  0.00     0.060 A 
BRANCH 106 107
ATOM    107  S   UNL A   1      39.807  37.319  40.498  1.00  0.00     0.124 S 
ATOM    108  O   UNL A   1      39.673  38.577  39.769  1.00  0.00    -0.237 OA
ATOM    109  O   UNL A   1      38.633  36.898  41.256  1.00  0.00    -0.237 OA
ATOM    110  O   UNL A   1      41.086  37.119  41.171  1.00  0.00    -0.744 OA
ENDBRANCH 106 107
ENDBRANCH  74  99
ENDBRANCH  48  49
ENDBRANCH  40  43
ENDBRANCH  38  39
ENDBRANCH  37  38
ENDBRANCH  36  37
ENDBRANCH   1  36
TORSDOF 27
ENDMDL
MODEL 2
REMARK VINA RESULT:     -10.1      4.818      5.760
REMARK SMILES CCCC[C@@H](Sc1nc(OCCC2CCCCC2)cc(OCCC2CCCCC2)n1)C(=O)NCCCCNC(=O)c1ccc(-c2c3nc(c(-c4c(F)cc(S(=O)(=O)[O-])cc4F)c4ccc([nH]4)c(-c4c(F)cc(S(=O)(=O)[O-])cc4F)c4nc(c(-c5c(F)cc(S(=O)(=O)[O-])cc5F)c5ccc2[nH]5)C=C4)C=C3)cc1
REMARK SMILES IDX 34 1 33 2 31 3 32 4 5 6 4 7 3 8 2 9 1 10 6 11 7 12 8 13
REMARK SMILES IDX 30 14 9 15 20 16 19 17 10 18 11 19 12 20 13 21 14 22 18 23
REMARK SMILES IDX 15 24 17 25 16 26 21 27 22 28 23 29 24 30 25 31 29 32 26 33
REMARK SMILES IDX 28 34 27 35 35 36 36 37 37 38 38 39 39 40 40 42 41 43 42 44
REMARK SMILES IDX 106 45 43 46 105 47 44 48 45 49 46 50 99 51 47 52 104 53
REMARK SMILES IDX 98 54 100 55 48 56 103 57 97 58 96 59 49 61 83 62 62 63
REMARK SMILES IDX 82 64 63 65 66 66 81 67 101 68 64 69 65 70 80 72 102 73
REMARK SMILES IDX 67 74 50 75 51 76 60 77 52 78 53 79 59 80 61 81 54 82 55 83
REMARK SMILES IDX 56 84 57 85 58 86 84 87 85 88 94 89 86 90 87 91 93 92 95 93
REMARK SMILES IDX 88 94 89 95 90 96 91 97 92 98 68 99 69 100 78 101 70 102
REMARK SMILES IDX 71 103 77 104 79 105 72 106 73 107 74 108 75 109 76 110
REMARK H PARENT 33 5 38 41 100 60 66 71
REMARK Flexibility Score: inf
ROOT
ATOM      1  C   UNL A   1      35.308  23.347  24.624  1.00  0.00     0.116 C 
ENDROOT
BRANCH   1   2
ATOM      2  N   UNL A   1      34.750  22.664  25.785  1.00  0.00    -0.355 N 
ATOM      3  C   UNL A   1      33.523  22.072  25.959  1.00  0.00     0.233 C 
ATOM      4  O   UNL A   1      33.284  21.537  27.045  1.00  0.00    -0.274 OA
ATOM      5  H   UNL A   1      35.348  22.618  26.566  1.00  0.00     0.163 HD
BRANCH   3   6
ATOM      6  C   UNL A   1      32.466  22.097  24.832  1.00  0.00     0.144 C 
BRANCH   6   7
ATOM      7  C   UNL A   1      32.666  20.774  24.035  1.00  0.00     0.025 C 
BRANCH   7   8
ATOM      8  C   UNL A   1      32.599  19.396  24.685  1.00  0.00     0.001 C 
BRANCH   8   9
ATOM      9  C   UNL A   1      33.703  18.399  24.340  1.00  0.00    -0.003 C 
ATOM     10  C   UNL A   1      33.360  17.494  23.172  1.00  0.00     0.004 C 
ENDBRANCH   8   9
ENDBRANCH   7   8
ENDBRANCH   6   7
BRANCH   6  11
ATOM     11  S   UNL A   1      30.900  22.587  25.756  1.00  0.00    -0.073 SA
BRANCH  11  12
ATOM     12  C   UNL A   1      30.752  24.317  25.495  1.00  0.00     0.195 A 
ATOM     13  N   UNL A   1      30.631  24.744  24.223  1.00  0.00    -0.187 NA
ATOM     14  N   UNL A   1      31.008  25.096  26.536  1.00  0.00    -0.187 NA
ATOM     15  C   UNL A   1      30.991  26.010  23.983  1.00  0.00     0.221 A 
ATOM     16  C   UNL A   1      31.408  26.328  26.255  1.00  0.00     0.221 A 
ATOM     17  C   UNL A   1      31.525  26.782  24.976  1.00  0.00     0.136 A 
BRANCH  15  18
ATOM     18  O   UNL A   1      30.752  26.461  22.707  1.00  0.00    -0.477 OA
BRANCH  18  19
ATOM     19  C   UNL A   1      30.425  27.841  22.511  1.00  0.00     0.231 C 
BRANCH  19  20
ATOM     20  C   UNL A   1      29.098  28.325  23.158  1.00  0.00     0.045 C 
BRANCH  20  21
ATOM     21  C   UNL A   1      28.609  29.719  22.737  1.00  0.00    -0.008 C 
ATOM     22  C   UNL A   1      28.916  30.845  23.735  1.00  0.00     0.004 C 
ATOM     23  C   UNL A   1      29.106  30.139  21.355  1.00  0.00     0.004 C 
ATOM     24  C   UNL A   1      28.159  32.119  23.334  1.00  0.00     0.000 C 
ATOM     25  C   UNL A   1      28.292  31.339  20.879  1.00  0.00     0.000 C 
ATOM     26  C   UNL A   1      28.335  32.509  21.865  1.00  0.00     0.000 C 
ENDBRANCH  20  21
ENDBRANCH  19  20
ENDBRANCH  18  19
ENDBRANCH  15  18
BRANCH  16  27
ATOM     27  O   UNL A   1      31.967  26.980  27.312  1.00  0.00    -0.477 OA
BRANCH  27  28
ATOM     28  C   UNL A   1      31.410  28.240  27.671  1.00  0.00     0.231 C 
BRANCH  28  29
ATOM     29  C   UNL A   1      32.124  29.327  26.841  1.00  0.00     0.045 C 
BRANCH  29  30
ATOM     30  C   UNL A   1      33.464  29.757  27.468  1.00  0.00    -0.008 C 
ATOM     31  C   UNL A   1      34.644  29.017  26.842  1.00  0.00     0.004 C 
ATOM     32  C   UNL A   1      33.777  31.254  27.368  1.00  0.00     0.004 C 
ATOM     33  C   UNL A   1      35.869  29.199  27.726  1.00  0.00     0.000 C 
ATOM     34  C   UNL A   1      35.075  31.575  28.132  1.00  0.00     0.000 C 
ATOM     35  C   UNL A   1      36.256  30.667  27.770  1.00  0.00     0.000 C 
ENDBRANCH  29  30
ENDBRANCH  28  29
ENDBRANCH  27  28
ENDBRANCH  16  27
ENDBRANCH  11  12
ENDBRANCH   6  11
ENDBRANCH   3   6
ENDBRANCH   1   2
BRANCH   1  36
ATOM     36  C   UNL A   1      36.768  23.736  24.850  1.00  0.00     0.023 C 
BRANCH  36  37
ATOM     37  C   UNL A   1      37.117  23.979  26.315  1.00  0.00     0.023 C 
BRANCH  37  38
ATOM     38  C   UNL A   1      38.562  24.395  26.556  1.00  0.00     0.116 C 
BRANCH  38  39
ATOM     39  N   UNL A   1      39.509  23.306  26.353  1.00  0.00    -0.352 N 
ATOM     40  C   UNL A   1      40.880  23.358  26.438  1.00  0.00     0.251 C 
ATOM     41  H   UNL A   1      39.121  22.430  26.128  1.00  0.00     0.163 HD
ATOM     42  O   UNL A   1      41.566  22.398  26.101  1.00  0.00    -0.269 OA
BRANCH  40  43
ATOM     43  C   UNL A   1      41.505  24.610  26.905  1.00  0.00     0.039 A 
ATOM     44  C   UNL A   1      41.599  25.691  26.029  1.00  0.00     0.014 A 
ATOM     45  C   UNL A   1      41.911  24.731  28.238  1.00  0.00     0.014 A 
ATOM     46  C   UNL A   1      42.040  26.923  26.513  1.00  0.00     0.010 A 
ATOM     47  C   UNL A   1      42.267  25.977  28.734  1.00  0.00     0.010 A 
ATOM     48  C   UNL A   1      42.338  27.086  27.877  1.00  0.00    -0.014 A 
BRANCH  48  49
ATOM     49  C   UNL A   1      42.726  28.408  28.430  1.00  0.00     0.031 A 
ATOM     50  C   UNL A   1      44.178  28.789  28.509  1.00  0.00     0.074 A 
ATOM     51  C   UNL A   1      41.777  29.234  28.916  1.00  0.00     0.049 A 
ATOM     52  N   UNL A   1      44.723  29.864  29.015  1.00  0.00    -0.248 NA
ATOM     53  C   UNL A   1      45.149  27.818  27.976  1.00  0.00     0.031 C 
ATOM     54  C   UNL A   1      40.339  28.954  28.939  1.00  0.00     0.029 A 
ATOM     55  N   UNL A   1      41.880  30.475  29.492  1.00  0.00    -0.354 N 
ATOM     56  C   UNL A   1      46.095  29.696  28.869  1.00  0.00     0.074 A 
ATOM     57  C   UNL A   1      46.302  28.389  28.288  1.00  0.00     0.031 C 
ATOM     58  C   UNL A   1      39.695  30.003  29.472  1.00  0.00     0.029 A 
ATOM     59  C   UNL A   1      40.672  31.012  29.868  1.00  0.00     0.049 A 
ATOM     60  H   UNL A   1      42.740  30.937  29.625  1.00  0.00     0.167 HD
ATOM     61  C   UNL A   1      47.091  30.565  29.166  1.00  0.00     0.037 A 
ATOM     62  C   UNL A   1      40.385  32.183  30.469  1.00  0.00     0.037 A 
ATOM     63  C   UNL A   1      46.873  31.872  29.729  1.00  0.00     0.049 A 
ATOM     64  C   UNL A   1      41.510  33.125  30.809  1.00  0.00     0.074 A 
ATOM     65  C   UNL A   1      47.808  32.848  30.022  1.00  0.00     0.029 A 
ATOM     66  N   UNL A   1      45.634  32.384  30.088  1.00  0.00    -0.354 N 
ATOM     67  N   UNL A   1      42.798  32.978  30.605  1.00  0.00    -0.248 NA
ATOM     68  C   UNL A   1      41.143  34.392  31.454  1.00  0.00     0.031 C 
ATOM     69  C   UNL A   1      47.141  33.931  30.604  1.00  0.00     0.029 A 
ATOM     70  C   UNL A   1      45.783  33.655  30.620  1.00  0.00     0.049 A 
ATOM     71  H   UNL A   1      44.776  31.915  29.979  1.00  0.00     0.167 HD
ATOM     72  C   UNL A   1      43.392  34.147  31.069  1.00  0.00     0.074 A 
ATOM     73  C   UNL A   1      42.321  34.994  31.554  1.00  0.00     0.031 C 
ATOM     74  C   UNL A   1      44.704  34.489  31.091  1.00  0.00     0.037 A 
BRANCH  61  75
ATOM     75  C   UNL A   1      48.502  30.129  28.880  1.00  0.00     0.058 A 
ATOM     76  C   UNL A   1      49.238  29.365  29.802  1.00  0.00     0.135 A 
ATOM     77  C   UNL A   1      49.122  30.459  27.664  1.00  0.00     0.135 A 
ATOM     78  F   UNL A   1      48.701  29.033  30.987  1.00  0.00    -0.206 F 
ATOM     79  C   UNL A   1      50.547  28.974  29.543  1.00  0.00     0.059 A 
ATOM     80  C   UNL A   1      50.421  30.052  27.371  1.00  0.00     0.059 A 
ATOM     81  F   UNL A   1      48.468  31.188  26.747  1.00  0.00    -0.206 F 
ATOM     82  C   UNL A   1      51.131  29.324  28.325  1.00  0.00     0.060 A 
BRANCH  82  83
ATOM     83  S   UNL A   1      52.832  28.809  28.007  1.00  0.00     0.124 S 
ATOM     84  O   UNL A   1      52.728  28.292  26.646  1.00  0.00    -0.237 OA
ATOM     85  O   UNL A   1      53.567  30.062  28.154  1.00  0.00    -0.237 OA
ATOM     86  O   UNL A   1      53.085  27.812  29.041  1.00  0.00    -0.744 OA
ENDBRANCH  82  83
ENDBRANCH  61  75
BRANCH  62  87
ATOM     87  C   UNL A   1      38.972  32.544  30.764  1.00  0.00     0.058 A 
ATOM     88  C   UNL A   1      38.257  33.407  29.919  1.00  0.00     0.135 A 
ATOM     89  C   UNL A   1      38.302  32.027  31.884  1.00  0.00     0.135 A 
ATOM     90  F   UNL A   1      38.855  33.933  28.839  1.00  0.00    -0.206 F 
ATOM     91  C   UNL A   1      36.938  33.759  30.182  1.00  0.00     0.059 A 
ATOM     92  C   UNL A   1      36.973  32.342  32.153  1.00  0.00     0.059 A 
ATOM     93  F   UNL A   1      38.934  31.184  32.716  1.00  0.00    -0.206 F 
ATOM     94  C   UNL A   1      36.303  33.218  31.301  1.00  0.00     0.060 A 
BRANCH  94  95
ATOM     95  S   UNL A   1      34.574  33.645  31.605  1.00  0.00     0.124 S 
ATOM     96  O   UNL A   1      34.078  33.844  30.248  1.00  0.00    -0.237 OA
ATOM     97  O   UNL A   1      34.084  32.458  32.297  1.00  0.00    -0.237 OA
ATOM     98  O   UNL A   1      34.665  34.848  32.427  1.00  0.00    -0.744 OA
ENDBRANCH  94  95
ENDBRANCH  62  87
BRANCH  74  99
ATOM     99  C   UNL A   1      45.058  35.851  31.621  1.00  0.00     0.058 A 
ATOM    100  C   UNL A   1      45.078  36.984  30.794  1.00  0.00     0.135 A 
ATOM    101  C   UNL A   1      45.326  36.032  32.988  1.00  0.00     0.135 A 
ATOM    102  F   UNL A   1      44.837  36.866  29.478  1.00  0.00    -0.206 F 
ATOM    103  C   UNL A   1      45.371  38.247  31.299  1.00  0.00     0.059 A 
ATOM    104  C   UNL A   1      45.592  37.290  33.520  1.00  0.00     0.059 A 
ATOM    105  F   UNL A   1      45.311  34.983  33.826  1.00  0.00    -0.206 F 
ATOM    106  C   UNL A   1      45.624  38.390  32.665  1.00  0.00     0.060 A 
BRANCH 106 107
ATOM    107  S   UNL A   1      45.962  40.040  33.314  1.00  0.00     0.124 S 
ATOM    108  O   UNL A   1      46.489  39.733  34.640  1.00  0.00    -0.237 OA
ATOM    109  O   UNL A   1      46.930  40.561  32.353  1.00  0.00    -0.237 OA
ATOM    110  O   UNL A   1      44.655  40.689  33.293  1.00  0.00    -0.744 OA
ENDBRANCH 106 107
ENDBRANCH  74  99
ENDBRANCH  48  49
ENDBRANCH  40  43
ENDBRANCH  38  39
ENDBRANCH  37  38
ENDBRANCH  36  37
ENDBRANCH   1  36
TORSDOF 27
ENDMDL
MODEL 3
REMARK VINA RESULT:      -9.5      5.775      7.706
REMARK SMILES CCCC[C@@H](Sc1nc(OCCC2CCCCC2)cc(OCCC2CCCCC2)n1)C(=O)NCCCCNC(=O)c1ccc(-c2c3nc(c(-c4c(F)cc(S(=O)(=O)[O-])cc4F)c4ccc([nH]4)c(-c4c(F)cc(S(=O)(=O)[O-])cc4F)c4nc(c(-c5c(F)cc(S(=O)(=O)[O-])cc5F)c5ccc2[nH]5)C=C4)C=C3)cc1
REMARK SMILES IDX 34 1 33 2 31 3 32 4 5 6 4 7 3 8 2 9 1 10 6 11 7 12 8 13
REMARK SMILES IDX 30 14 9 15 20 16 19 17 10 18 11 19 12 20 13 21 14 22 18 23
REMARK SMILES IDX 15 24 17 25 16 26 21 27 22 28 23 29 24 30 25 31 29 32 26 33
REMARK SMILES IDX 28 34 27 35 35 36 36 37 37 38 38 39 39 40 40 42 41 43 42 44
REMARK SMILES IDX 106 45 43 46 105 47 44 48 45 49 46 50 99 51 47 52 104 53
REMARK SMILES IDX 98 54 100 55 48 56 103 57 97 58 96 59 49 61 83 62 62 63
REMARK SMILES IDX 82 64 63 65 66 66 81 67 101 68 64 69 65 70 80 72 102 73
REMARK SMILES IDX 67 74 50 75 51 76 60 77 52 78 53 79 59 80 61 81 54 82 55 83
REMARK SMILES IDX 56 84 57 85 58 86 84 87 85 88 94 89 86 90 87 91 93 92 95 93
REMARK SMILES IDX 88 94 89 95 90 96 91 97 92 98 68 99 69 100 78 101 70 102
REMARK SMILES IDX 71 103 77 104 79 105 72 106 73 107 74 108 75 109 76 110
REMARK H PARENT 33 5 38 41 100 60 66 71
REMARK Flexibility Score: inf
ROOT
ATOM      1  C   UNL A   1      35.070  23.173  25.226  1.00  0.00     0.116 C 
ENDROOT
BRANCH   1   2
ATOM      2  N   UNL A   1      34.510  22.809  26.521  1.00  0.00    -0.355 N 
ATOM      3  C   UNL A   1      33.242  22.399  26.854  1.00  0.00     0.233 C 
ATOM      4  O   UNL A   1      33.010  22.130  28.036  1.00  0.00    -0.274 OA
ATOM      5  H   UNL A   1      35.141  22.864  27.276  1.00  0.00     0.163 HD
BRANCH   3   6
ATOM      6  C   UNL A   1      32.136  22.300  25.781  1.00  0.00     0.144 C 
BRANCH   6   7
ATOM      7  C   UNL A   1      32.157  20.824  25.286  1.00  0.00     0.025 C 
BRANCH   7   8
ATOM      8  C   UNL A   1      33.198  20.292  24.306  1.00  0.00     0.001 C 
BRANCH   8   9
ATOM      9  C   UNL A   1      33.606  18.827  24.439  1.00  0.00    -0.003 C 
ATOM     10  C   UNL A   1      32.775  18.055  25.446  1.00  0.00     0.004 C 
ENDBRANCH   8   9
ENDBRANCH   7   8
ENDBRANCH   6   7
BRANCH   6  11
ATOM     11  S   UNL A   1      30.679  23.149  26.621  1.00  0.00    -0.073 SA
BRANCH  11  12
ATOM     12  C   UNL A   1      30.800  24.830  26.130  1.00  0.00     0.195 A 
ATOM     13  N   UNL A   1      30.242  25.174  24.952  1.00  0.00    -0.187 NA
ATOM     14  N   UNL A   1      31.629  25.591  26.828  1.00  0.00    -0.187 NA
ATOM     15  C   UNL A   1      30.722  26.276  24.366  1.00  0.00     0.221 A 
ATOM     16  C   UNL A   1      32.120  26.648  26.195  1.00  0.00     0.221 A 
ATOM     17  C   UNL A   1      31.775  26.954  24.913  1.00  0.00     0.136 A 
BRANCH  15  18
ATOM     18  O   UNL A   1      30.064  26.673  23.227  1.00  0.00    -0.477 OA
BRANCH  18  19
ATOM     19  C   UNL A   1      29.874  28.073  22.990  1.00  0.00     0.231 C 
BRANCH  19  20
ATOM     20  C   UNL A   1      28.400  28.562  22.951  1.00  0.00     0.045 C 
BRANCH  20  21
ATOM     21  C   UNL A   1      28.192  30.062  22.694  1.00  0.00    -0.008 C 
ATOM     22  C   UNL A   1      29.011  30.997  23.596  1.00  0.00     0.004 C 
ATOM     23  C   UNL A   1      28.423  30.461  21.237  1.00  0.00     0.004 C 
ATOM     24  C   UNL A   1      28.526  32.444  23.426  1.00  0.00     0.000 C 
ATOM     25  C   UNL A   1      27.848  31.857  21.008  1.00  0.00     0.000 C 
ATOM     26  C   UNL A   1      28.428  32.898  21.968  1.00  0.00     0.000 C 
ENDBRANCH  20  21
ENDBRANCH  19  20
ENDBRANCH  18  19
ENDBRANCH  15  18
BRANCH  16  27
ATOM     27  O   UNL A   1      33.198  27.208  26.811  1.00  0.00    -0.477 OA
BRANCH  27  28
ATOM     28  C   UNL A   1      33.119  28.591  27.135  1.00  0.00     0.231 C 
BRANCH  28  29
ATOM     29  C   UNL A   1      34.384  29.281  26.583  1.00  0.00     0.045 C 
BRANCH  29  30
ATOM     30  C   UNL A   1      35.216  29.951  27.693  1.00  0.00    -0.008 C 
ATOM     31  C   UNL A   1      36.715  29.775  27.460  1.00  0.00     0.004 C 
ATOM     32  C   UNL A   1      34.969  31.454  27.871  1.00  0.00     0.004 C 
ATOM     33  C   UNL A   1      37.459  30.123  28.741  1.00  0.00     0.000 C 
ATOM     34  C   UNL A   1      35.763  31.980  29.081  1.00  0.00     0.000 C 
ATOM     35  C   UNL A   1      37.246  31.589  29.076  1.00  0.00     0.000 C 
ENDBRANCH  29  30
ENDBRANCH  28  29
ENDBRANCH  27  28
ENDBRANCH  16  27
ENDBRANCH  11  12
ENDBRANCH   6  11
ENDBRANCH   3   6
ENDBRANCH   1   2
BRANCH   1  36
ATOM     36  C   UNL A   1      36.587  22.993  25.200  1.00  0.00     0.023 C 
BRANCH  36  37
ATOM     37  C   UNL A   1      37.308  23.707  26.339  1.00  0.00     0.023 C 
BRANCH  37  38
ATOM     38  C   UNL A   1      38.826  23.712  26.217  1.00  0.00     0.116 C 
BRANCH  38  39
ATOM     39  N   UNL A   1      39.396  22.373  26.153  1.00  0.00    -0.352 N 
ATOM     40  C   UNL A   1      40.711  22.011  26.320  1.00  0.00     0.251 C 
ATOM     41  H   UNL A   1      38.765  21.641  25.966  1.00  0.00     0.163 HD
ATOM     42  O   UNL A   1      41.079  20.862  26.098  1.00  0.00    -0.269 OA
BRANCH  40  43
ATOM     43  C   UNL A   1      41.675  23.048  26.736  1.00  0.00     0.039 A 
ATOM     44  C   UNL A   1      42.015  24.059  25.838  1.00  0.00     0.014 A 
ATOM     45  C   UNL A   1      42.164  23.060  28.046  1.00  0.00     0.014 A 
ATOM     46  C   UNL A   1      42.797  25.128  26.279  1.00  0.00     0.010 A 
ATOM     47  C   UNL A   1      42.868  24.165  28.504  1.00  0.00     0.010 A 
ATOM     48  C   UNL A   1      43.195  25.209  27.625  1.00  0.00    -0.014 A 
BRANCH  48  49
ATOM     49  C   UNL A   1      43.954  26.378  28.135  1.00  0.00     0.031 A 
ATOM     50  C   UNL A   1      45.424  26.499  27.850  1.00  0.00     0.074 A 
ATOM     51  C   UNL A   1      43.333  27.293  28.907  1.00  0.00     0.049 A 
ATOM     52  N   UNL A   1      46.274  27.405  28.258  1.00  0.00    -0.248 NA
ATOM     53  C   UNL A   1      46.027  25.444  27.018  1.00  0.00     0.031 C 
ATOM     54  C   UNL A   1      41.919  27.258  29.293  1.00  0.00     0.029 A 
ATOM     55  N   UNL A   1      43.811  28.429  29.511  1.00  0.00    -0.354 N 
ATOM     56  C   UNL A   1      47.507  27.026  27.742  1.00  0.00     0.074 A 
ATOM     57  C   UNL A   1      47.309  25.774  27.046  1.00  0.00     0.031 C 
ATOM     58  C   UNL A   1      41.641  28.336  30.043  1.00  0.00     0.029 A 
ATOM     59  C   UNL A   1      42.860  29.117  30.227  1.00  0.00     0.049 A 
ATOM     60  H   UNL A   1      44.748  28.723  29.439  1.00  0.00     0.167 HD
ATOM     61  C   UNL A   1      48.692  27.678  27.817  1.00  0.00     0.037 A 
ATOM     62  C   UNL A   1      42.962  30.246  30.955  1.00  0.00     0.037 A 
ATOM     63  C   UNL A   1      48.876  28.933  28.498  1.00  0.00     0.049 A 
ATOM     64  C   UNL A   1      44.294  30.943  31.041  1.00  0.00     0.074 A 
ATOM     65  C   UNL A   1      50.023  29.700  28.592  1.00  0.00     0.029 A 
ATOM     66  N   UNL A   1      47.888  29.603  29.204  1.00  0.00    -0.354 N 
ATOM     67  N   UNL A   1      45.438  30.604  30.493  1.00  0.00    -0.248 NA
ATOM     68  C   UNL A   1      44.350  32.175  31.838  1.00  0.00     0.031 C 
ATOM     69  C   UNL A   1      49.742  30.809  29.396  1.00  0.00     0.029 A 
ATOM     70  C   UNL A   1      48.404  30.764  29.756  1.00  0.00     0.049 A 
ATOM     71  H   UNL A   1      46.956  29.299  29.299  1.00  0.00     0.167 HD
ATOM     72  C   UNL A   1      46.341  31.599  30.855  1.00  0.00     0.074 A 
ATOM     73  C   UNL A   1      45.608  32.555  31.659  1.00  0.00     0.031 C 
ATOM     74  C   UNL A   1      47.657  31.711  30.548  1.00  0.00     0.037 A 
BRANCH  61  75
ATOM     75  C   UNL A   1      49.877  27.045  27.140  1.00  0.00     0.058 A 
ATOM     76  C   UNL A   1      50.174  27.293  25.789  1.00  0.00     0.135 A 
ATOM     77  C   UNL A   1      50.740  26.195  27.851  1.00  0.00     0.135 A 
ATOM     78  F   UNL A   1      49.375  28.084  25.055  1.00  0.00    -0.206 F 
ATOM     79  C   UNL A   1      51.262  26.696  25.160  1.00  0.00     0.059 A 
ATOM     80  C   UNL A   1      51.853  25.612  27.251  1.00  0.00     0.059 A 
ATOM     81  F   UNL A   1      50.505  25.921  29.144  1.00  0.00    -0.206 F 
ATOM     82  C   UNL A   1      52.095  25.856  25.900  1.00  0.00     0.060 A 
BRANCH  82  83
ATOM     83  S   UNL A   1      53.501  25.088  25.067  1.00  0.00     0.124 S 
ATOM     84  O   UNL A   1      54.620  25.623  25.835  1.00  0.00    -0.237 OA
ATOM     85  O   UNL A   1      53.230  23.666  25.249  1.00  0.00    -0.237 OA
ATOM     86  O   UNL A   1      53.391  25.574  23.695  1.00  0.00    -0.744 OA
ENDBRANCH  82  83
ENDBRANCH  61  75
BRANCH  62  87
ATOM     87  C   UNL A   1      41.763  30.804  31.636  1.00  0.00     0.058 A 
ATOM     88  C   UNL A   1      41.408  30.385  32.928  1.00  0.00     0.135 A 
ATOM     89  C   UNL A   1      40.955  31.774  31.021  1.00  0.00     0.135 A 
ATOM     90  F   UNL A   1      42.144  29.455  33.556  1.00  0.00    -0.206 F 
ATOM     91  C   UNL A   1      40.288  30.892  33.578  1.00  0.00     0.059 A 
ATOM     92  C   UNL A   1      39.845  32.316  31.662  1.00  0.00     0.059 A 
ATOM     93  F   UNL A   1      41.259  32.222  29.793  1.00  0.00    -0.206 F 
ATOM     94  C   UNL A   1      39.513  31.860  32.937  1.00  0.00     0.060 A 
BRANCH  94  95
ATOM     95  S   UNL A   1      38.089  32.546  33.812  1.00  0.00     0.124 S 
ATOM     96  O   UNL A   1      37.163  32.795  32.713  1.00  0.00    -0.237 OA
ATOM     97  O   UNL A   1      37.731  31.455  34.713  1.00  0.00    -0.237 OA
ATOM     98  O   UNL A   1      38.634  33.733  34.461  1.00  0.00    -0.744 OA
ENDBRANCH  94  95
ENDBRANCH  62  87
BRANCH  74  99
ATOM     99  C   UNL A   1      48.386  32.928  31.048  1.00  0.00     0.058 A 
ATOM    100  C   UNL A   1      48.420  34.123  30.314  1.00  0.00     0.135 A 
ATOM    101  C   UNL A   1      49.011  32.913  32.306  1.00  0.00     0.135 A 
ATOM    102  F   UNL A   1      47.845  34.190  29.103  1.00  0.00    -0.206 F 
ATOM    103  C   UNL A   1      49.065  35.256  30.801  1.00  0.00     0.059 A 
ATOM    104  C   UNL A   1      49.636  34.042  32.825  1.00  0.00     0.059 A 
ATOM    105  F   UNL A   1      48.999  31.797  33.054  1.00  0.00    -0.206 F 
ATOM    106  C   UNL A   1      49.668  35.206  32.060  1.00  0.00     0.060 A 
BRANCH 106 107
ATOM    107  S   UNL A   1      50.466  36.694  32.696  1.00  0.00     0.124 S 
ATOM    108  O   UNL A   1      50.722  36.321  34.084  1.00  0.00    -0.237 OA
ATOM    109  O   UNL A   1      51.644  36.806  31.842  1.00  0.00    -0.237 OA
ATOM    110  O   UNL A   1      49.458  37.731  32.502  1.00  0.00    -0.744 OA
ENDBRANCH 106 107
ENDBRANCH  74  99
ENDBRANCH  48  49
ENDBRANCH  40  43
ENDBRANCH  38  39
ENDBRANCH  37  38
ENDBRANCH  36  37
ENDBRANCH   1  36
TORSDOF 27
ENDMDL
