MODEL 1
REMARK VINA RESULT:     -12.4      0.000      0.000
REMARK SMILES CC(C)(C)c1cc2c(cc1Cl)C=C(C(=O)NCCCCNC(=O)c1ccc(-c3c4nc(c(-c5c(F)cc(S(=O)(=O)[O-])cc5F)c5ccc([nH]5)c(-c5c(F)cc(S(=O)(=O)[O-])cc5F)c5nc(c(-c6c(F)cc(S(=O)(=O)[O-])cc6F)c6ccc3[nH]6)C=C5)C=C4)cc1)[C@H](C(F)(F)F)O2
REMARK SMILES IDX 19 1 18 2 17 3 16 4 14 5 15 6 13 8 5 9 6 10 10 11 7 12 9 13
REMARK SMILES IDX 11 14 8 15 95 16 12 17 90 18 2 19 1 20 3 21 4 22 91 23 92 24
REMARK SMILES IDX 93 25 94 26 20 27 21 28 22 29 23 31 24 32 25 33 89 34 26 35
REMARK SMILES IDX 88 36 27 37 28 38 29 39 82 40 30 41 87 42 81 43 83 44 31 45
REMARK SMILES IDX 86 46 80 47 79 48 32 50 66 51 45 52 65 53 46 54 49 55 64 56
REMARK SMILES IDX 84 57 47 58 48 59 63 61 85 62 50 63 33 64 34 65 43 66 35 67
REMARK SMILES IDX 36 68 42 69 44 70 37 71 38 72 39 73 40 74 41 75 67 76 68 77
REMARK SMILES IDX 77 78 69 79 70 80 76 81 78 82 71 83 72 84 73 85 74 86 75 87
REMARK SMILES IDX 51 88 52 89 61 90 53 91 54 92 60 93 62 94 55 95 56 96 57 97
REMARK SMILES IDX 58 98 59 99
REMARK H PARENT 16 7 21 30 83 49 49 60
REMARK Flexibility Score: inf
ROOT
ATOM      1  C   UNL A   1      33.710  28.491  25.903  1.00  0.00     0.023 C 
ENDROOT
BRANCH   1   2
ATOM      2  C   UNL A   1      33.002  29.503  25.000  1.00  0.00     0.023 C 
BRANCH   2   3
ATOM      3  C   UNL A   1      33.244  29.310  23.502  1.00  0.00     0.116 C 
BRANCH   3   4
ATOM      4  N   UNL A   1      32.009  29.045  22.785  1.00  0.00    -0.352 N 
ATOM      5  C   UNL A   1      31.189  27.984  22.605  1.00  0.00     0.251 C 
ATOM      6  O   UNL A   1      30.143  28.223  21.991  1.00  0.00    -0.270 OA
ATOM      7  H   UNL A   1      31.686  29.843  22.308  1.00  0.00     0.163 HD
BRANCH   5   8
ATOM      8  C   UNL A   1      31.456  26.592  23.075  1.00  0.00     0.067 C 
ATOM      9  C   UNL A   1      33.760  22.221  24.298  1.00  0.00    -0.020 A 
ATOM     10  C   UNL A   1      32.428  22.712  24.309  1.00  0.00     0.053 A 
ATOM     11  C   UNL A   1      34.716  23.058  23.678  1.00  0.00     0.045 A 
ATOM     12  C   UNL A   1      32.090  23.976  23.826  1.00  0.00     0.128 A 
ATOM     13  C   UNL A   1      34.359  24.325  23.173  1.00  0.00     0.032 A 
ATOM     14  Cl  UNL A   1      36.373  22.646  23.411  1.00  0.00    -0.084 Cl
ATOM     15  C   UNL A   1      33.051  24.793  23.256  1.00  0.00     0.019 A 
ATOM     16  O   UNL A   1      30.777  24.349  23.916  1.00  0.00    -0.475 OA
ATOM     17  C   UNL A   1      32.663  26.097  22.737  1.00  0.00     0.025 C 
ATOM     18  C   UNL A   1      30.549  25.791  23.972  1.00  0.00     0.314 C 
BRANCH   9  19
ATOM     19  C   UNL A   1      34.002  20.820  24.920  1.00  0.00    -0.012 C 
ATOM     20  C   UNL A   1      35.450  20.285  24.896  1.00  0.00     0.016 C 
ATOM     21  C   UNL A   1      33.113  19.806  24.172  1.00  0.00     0.016 C 
ATOM     22  C   UNL A   1      33.608  20.808  26.426  1.00  0.00     0.016 C 
ENDBRANCH   9  19
BRANCH  18  23
ATOM     23  C   UNL A   1      30.546  26.266  25.436  1.00  0.00     0.429 C 
ATOM     24  F   UNL A   1      30.463  27.611  25.551  1.00  0.00    -0.167 F 
ATOM     25  F   UNL A   1      29.526  25.746  26.153  1.00  0.00    -0.167 F 
ATOM     26  F   UNL A   1      31.696  25.885  26.050  1.00  0.00    -0.167 F 
ENDBRANCH  18  23
ENDBRANCH   5   8
ENDBRANCH   3   4
ENDBRANCH   2   3
ENDBRANCH   1   2
BRANCH   1  27
ATOM     27  C   UNL A   1      33.539  28.726  27.400  1.00  0.00     0.116 C 
BRANCH  27  28
ATOM     28  N   UNL A   1      33.637  30.124  27.801  1.00  0.00    -0.352 N 
ATOM     29  C   UNL A   1      34.753  30.783  28.273  1.00  0.00     0.251 C 
ATOM     30  H   UNL A   1      32.813  30.658  27.728  1.00  0.00     0.163 HD
ATOM     31  O   UNL A   1      34.685  31.951  28.641  1.00  0.00    -0.269 OA
BRANCH  29  32
ATOM     32  C   UNL A   1      36.015  30.025  28.389  1.00  0.00     0.039 A 
ATOM     33  C   UNL A   1      36.372  29.450  29.609  1.00  0.00     0.014 A 
ATOM     34  C   UNL A   1      36.904  30.021  27.312  1.00  0.00     0.014 A 
ATOM     35  C   UNL A   1      37.687  29.055  29.814  1.00  0.00     0.010 A 
ATOM     36  C   UNL A   1      38.205  29.545  27.498  1.00  0.00     0.010 A 
ATOM     37  C   UNL A   1      38.627  29.130  28.770  1.00  0.00    -0.014 A 
BRANCH  37  38
ATOM     38  C   UNL A   1      40.055  28.845  29.068  1.00  0.00     0.031 A 
ATOM     39  C   UNL A   1      40.669  27.527  28.666  1.00  0.00     0.074 A 
ATOM     40  C   UNL A   1      40.825  29.813  29.599  1.00  0.00     0.049 A 
ATOM     41  N   UNL A   1      41.912  27.129  28.783  1.00  0.00    -0.248 NA
ATOM     42  C   UNL A   1      39.780  26.527  28.052  1.00  0.00     0.031 C 
ATOM     43  C   UNL A   1      40.349  31.138  30.006  1.00  0.00     0.029 A 
ATOM     44  N   UNL A   1      42.173  29.855  29.844  1.00  0.00    -0.354 N 
ATOM     45  C   UNL A   1      41.946  25.832  28.284  1.00  0.00     0.074 A 
ATOM     46  C   UNL A   1      40.599  25.498  27.880  1.00  0.00     0.031 C 
ATOM     47  C   UNL A   1      41.399  31.886  30.377  1.00  0.00     0.029 A 
ATOM     48  C   UNL A   1      42.613  31.079  30.289  1.00  0.00     0.049 A 
ATOM     49  H   UNL A   1      42.768  29.082  29.713  1.00  0.00     0.167 HD
ATOM     50  C   UNL A   1      43.008  24.999  28.160  1.00  0.00     0.037 A 
ATOM     51  C   UNL A   1      43.853  31.506  30.591  1.00  0.00     0.037 A 
ATOM     52  C   UNL A   1      44.357  25.347  28.517  1.00  0.00     0.049 A 
ATOM     53  C   UNL A   1      45.007  30.553  30.475  1.00  0.00     0.074 A 
ATOM     54  C   UNL A   1      45.504  24.581  28.398  1.00  0.00     0.029 A 
ATOM     55  N   UNL A   1      44.743  26.565  29.054  1.00  0.00    -0.354 N 
ATOM     56  N   UNL A   1      45.015  29.324  30.021  1.00  0.00    -0.248 NA
ATOM     57  C   UNL A   1      46.315  31.036  30.940  1.00  0.00     0.031 C 
ATOM     58  C   UNL A   1      46.580  25.327  28.889  1.00  0.00     0.029 A 
ATOM     59  C   UNL A   1      46.107  26.565  29.292  1.00  0.00     0.049 A 
ATOM     60  H   UNL A   1      44.137  27.318  29.240  1.00  0.00     0.167 HD
ATOM     61  C   UNL A   1      46.323  28.879  30.159  1.00  0.00     0.074 A 
ATOM     62  C   UNL A   1      47.086  29.980  30.712  1.00  0.00     0.031 C 
ATOM     63  C   UNL A   1      46.842  27.663  29.864  1.00  0.00     0.037 A 
BRANCH  50  64
ATOM     64  C   UNL A   1      42.758  23.622  27.614  1.00  0.00     0.058 A 
ATOM     65  C   UNL A   1      42.863  23.348  26.243  1.00  0.00     0.135 A 
ATOM     66  C   UNL A   1      42.464  22.557  28.479  1.00  0.00     0.135 A 
ATOM     67  F   UNL A   1      43.125  24.335  25.373  1.00  0.00    -0.206 F 
ATOM     68  C   UNL A   1      42.673  22.062  25.745  1.00  0.00     0.059 A 
ATOM     69  C   UNL A   1      42.286  21.261  28.005  1.00  0.00     0.059 A 
ATOM     70  F   UNL A   1      42.350  22.771  29.799  1.00  0.00    -0.206 F 
ATOM     71  C   UNL A   1      42.383  21.025  26.634  1.00  0.00     0.060 A 
BRANCH  71  72
ATOM     72  S   UNL A   1      42.150  19.360  25.974  1.00  0.00     0.124 S 
ATOM     73  O   UNL A   1      42.975  19.408  24.771  1.00  0.00    -0.237 OA
ATOM     74  O   UNL A   1      42.655  18.520  27.054  1.00  0.00    -0.237 OA
ATOM     75  O   UNL A   1      40.711  19.284  25.746  1.00  0.00    -0.744 OA
ENDBRANCH  71  72
ENDBRANCH  50  64
BRANCH  51  76
ATOM     76  C   UNL A   1      44.058  32.905  31.039  1.00  0.00     0.058 A 
ATOM     77  C   UNL A   1      44.407  33.907  30.123  1.00  0.00     0.135 A 
ATOM     78  C   UNL A   1      43.864  33.275  32.378  1.00  0.00     0.135 A 
ATOM     79  F   UNL A   1      44.608  33.597  28.833  1.00  0.00    -0.206 F 
ATOM     80  C   UNL A   1      44.555  35.231  30.519  1.00  0.00     0.059 A 
ATOM     81  C   UNL A   1      43.987  34.595  32.795  1.00  0.00     0.059 A 
ATOM     82  F   UNL A   1      43.516  32.351  33.286  1.00  0.00    -0.206 F 
ATOM     83  C   UNL A   1      44.337  35.567  31.856  1.00  0.00     0.060 A 
BRANCH  83  84
ATOM     84  S   UNL A   1      44.451  37.300  32.351  1.00  0.00     0.124 S 
ATOM     85  O   UNL A   1      45.886  37.447  32.571  1.00  0.00    -0.237 OA
ATOM     86  O   UNL A   1      43.909  37.992  31.185  1.00  0.00    -0.237 OA
ATOM     87  O   UNL A   1      43.617  37.360  33.547  1.00  0.00    -0.744 OA
ENDBRANCH  83  84
ENDBRANCH  51  76
BRANCH  63  88
ATOM     88  C   UNL A   1      48.295  27.442  30.164  1.00  0.00     0.058 A 
ATOM     89  C   UNL A   1      48.700  26.927  31.405  1.00  0.00     0.135 A 
ATOM     90  C   UNL A   1      49.276  27.670  29.189  1.00  0.00     0.135 A 
ATOM     91  F   UNL A   1      47.795  26.701  32.371  1.00  0.00    -0.206 F 
ATOM     92  C   UNL A   1      50.035  26.644  31.669  1.00  0.00     0.059 A 
ATOM     93  C   UNL A   1      50.616  27.380  29.426  1.00  0.00     0.059 A 
ATOM     94  F   UNL A   1      48.934  28.157  27.986  1.00  0.00    -0.206 F 
ATOM     95  C   UNL A   1      50.985  26.868  30.671  1.00  0.00     0.060 A 
BRANCH  95  96
ATOM     96  S   UNL A   1      52.707  26.439  31.005  1.00  0.00     0.124 S 
ATOM     97  O   UNL A   1      53.247  26.317  29.655  1.00  0.00    -0.237 OA
ATOM     98  O   UNL A   1      53.173  27.590  31.772  1.00  0.00    -0.237 OA
ATOM     99  O   UNL A   1      52.605  25.192  31.758  1.00  0.00    -0.744 OA
ENDBRANCH  95  96
ENDBRANCH  63  88
ENDBRANCH  37  38
ENDBRANCH  29  32
ENDBRANCH  27  28
ENDBRANCH   1  27
TORSDOF 16
ENDMDL
MODEL 2
REMARK VINA RESULT:     -12.3      1.409      2.153
REMARK SMILES CC(C)(C)c1cc2c(cc1Cl)C=C(C(=O)NCCCCNC(=O)c1ccc(-c3c4nc(c(-c5c(F)cc(S(=O)(=O)[O-])cc5F)c5ccc([nH]5)c(-c5c(F)cc(S(=O)(=O)[O-])cc5F)c5nc(c(-c6c(F)cc(S(=O)(=O)[O-])cc6F)c6ccc3[nH]6)C=C5)C=C4)cc1)[C@H](C(F)(F)F)O2
REMARK SMILES IDX 19 1 18 2 17 3 16 4 14 5 15 6 13 8 5 9 6 10 10 11 7 12 9 13
REMARK SMILES IDX 11 14 8 15 95 16 12 17 90 18 2 19 1 20 3 21 4 22 91 23 92 24
REMARK SMILES IDX 93 25 94 26 20 27 21 28 22 29 23 31 24 32 25 33 89 34 26 35
REMARK SMILES IDX 88 36 27 37 28 38 29 39 82 40 30 41 87 42 81 43 83 44 31 45
REMARK SMILES IDX 86 46 80 47 79 48 32 50 66 51 45 52 65 53 46 54 49 55 64 56
REMARK SMILES IDX 84 57 47 58 48 59 63 61 85 62 50 63 33 64 34 65 43 66 35 67
REMARK SMILES IDX 36 68 42 69 44 70 37 71 38 72 39 73 40 74 41 75 67 76 68 77
REMARK SMILES IDX 77 78 69 79 70 80 76 81 78 82 71 83 72 84 73 85 74 86 75 87
REMARK SMILES IDX 51 88 52 89 61 90 53 91 54 92 60 93 62 94 55 95 56 96 57 97
REMARK SMILES IDX 58 98 59 99
REMARK H PARENT 16 7 21 30 83 49 49 60
REMARK Flexibility Score: inf
ROOT
ATOM      1  C   UNL A   1      32.104  28.283  27.175  1.00  0.00     0.023 C 
ENDROOT
BRANCH   1   2
ATOM      2  C   UNL A   1      32.060  26.836  26.676  1.00  0.00     0.023 C 
BRANCH   2   3
ATOM      3  C   UNL A   1      30.837  26.484  25.829  1.00  0.00     0.116 C 
BRANCH   3   4
ATOM      4  N   UNL A   1      31.160  26.417  24.415  1.00  0.00    -0.352 N 
ATOM      5  C   UNL A   1      31.626  25.478  23.560  1.00  0.00     0.251 C 
ATOM      6  O   UNL A   1      31.651  25.813  22.370  1.00  0.00    -0.270 OA
ATOM      7  H   UNL A   1      30.996  27.276  23.962  1.00  0.00     0.163 HD
BRANCH   5   8
ATOM      8  C   UNL A   1      32.102  24.116  23.943  1.00  0.00     0.067 C 
ATOM      9  C   UNL A   1      33.205  19.147  23.887  1.00  0.00    -0.020 A 
ATOM     10  C   UNL A   1      33.331  20.211  24.818  1.00  0.00     0.053 A 
ATOM     11  C   UNL A   1      32.476  19.444  22.712  1.00  0.00     0.045 A 
ATOM     12  C   UNL A   1      32.852  21.495  24.559  1.00  0.00     0.128 A 
ATOM     13  C   UNL A   1      31.976  20.740  22.471  1.00  0.00     0.032 A 
ATOM     14  Cl  UNL A   1      32.062  18.300  21.485  1.00  0.00    -0.084 Cl
ATOM     15  C   UNL A   1      32.173  21.771  23.385  1.00  0.00     0.019 A 
ATOM     16  O   UNL A   1      33.058  22.444  25.522  1.00  0.00    -0.475 OA
ATOM     17  C   UNL A   1      31.662  23.115  23.155  1.00  0.00     0.025 C 
ATOM     18  C   UNL A   1      33.101  23.820  25.030  1.00  0.00     0.314 C 
BRANCH   9  19
ATOM     19  C   UNL A   1      33.835  17.784  24.281  1.00  0.00    -0.012 C 
ATOM     20  C   UNL A   1      33.970  16.726  23.164  1.00  0.00     0.016 C 
ATOM     21  C   UNL A   1      32.980  17.171  25.409  1.00  0.00     0.016 C 
ATOM     22  C   UNL A   1      35.286  17.979  24.810  1.00  0.00     0.016 C 
ENDBRANCH   9  19
BRANCH  18  23
ATOM     23  C   UNL A   1      34.546  24.204  24.668  1.00  0.00     0.429 C 
ATOM     24  F   UNL A   1      35.457  23.315  25.128  1.00  0.00    -0.167 F 
ATOM     25  F   UNL A   1      34.741  24.312  23.336  1.00  0.00    -0.167 F 
ATOM     26  F   UNL A   1      34.857  25.409  25.213  1.00  0.00    -0.167 F 
ENDBRANCH  18  23
ENDBRANCH   5   8
ENDBRANCH   3   4
ENDBRANCH   2   3
ENDBRANCH   1   2
BRANCH   1  27
ATOM     27  C   UNL A   1      33.484  28.930  27.169  1.00  0.00     0.116 C 
BRANCH  27  28
ATOM     28  N   UNL A   1      33.525  30.258  27.770  1.00  0.00    -0.352 N 
ATOM     29  C   UNL A   1      34.594  30.861  28.398  1.00  0.00     0.251 C 
ATOM     30  H   UNL A   1      32.694  30.784  27.721  1.00  0.00     0.163 HD
ATOM     31  O   UNL A   1      34.476  31.963  28.922  1.00  0.00    -0.269 OA
BRANCH  29  32
ATOM     32  C   UNL A   1      35.865  30.113  28.485  1.00  0.00     0.039 A 
ATOM     33  C   UNL A   1      36.268  29.565  29.703  1.00  0.00     0.014 A 
ATOM     34  C   UNL A   1      36.716  30.094  27.378  1.00  0.00     0.014 A 
ATOM     35  C   UNL A   1      37.592  29.183  29.869  1.00  0.00     0.010 A 
ATOM     36  C   UNL A   1      38.026  29.631  27.527  1.00  0.00     0.010 A 
ATOM     37  C   UNL A   1      38.495  29.243  28.792  1.00  0.00    -0.014 A 
BRANCH  37  38
ATOM     38  C   UNL A   1      39.934  28.973  29.046  1.00  0.00     0.031 A 
ATOM     39  C   UNL A   1      40.544  27.653  28.647  1.00  0.00     0.074 A 
ATOM     40  C   UNL A   1      40.715  29.957  29.531  1.00  0.00     0.049 A 
ATOM     41  N   UNL A   1      41.793  27.265  28.729  1.00  0.00    -0.248 NA
ATOM     42  C   UNL A   1      39.642  26.635  28.084  1.00  0.00     0.031 C 
ATOM     43  C   UNL A   1      40.244  31.286  29.930  1.00  0.00     0.029 A 
ATOM     44  N   UNL A   1      42.071  30.012  29.728  1.00  0.00    -0.354 N 
ATOM     45  C   UNL A   1      41.820  25.959  28.254  1.00  0.00     0.074 A 
ATOM     46  C   UNL A   1      40.462  25.608  27.903  1.00  0.00     0.031 C 
ATOM     47  C   UNL A   1      41.301  32.048  30.249  1.00  0.00     0.029 A 
ATOM     48  C   UNL A   1      42.516  31.248  30.135  1.00  0.00     0.049 A 
ATOM     49  H   UNL A   1      42.667  29.241  29.592  1.00  0.00     0.167 HD
ATOM     50  C   UNL A   1      42.882  25.131  28.108  1.00  0.00     0.037 A 
ATOM     51  C   UNL A   1      43.764  31.689  30.386  1.00  0.00     0.037 A 
ATOM     52  C   UNL A   1      44.241  25.495  28.412  1.00  0.00     0.049 A 
ATOM     53  C   UNL A   1      44.920  30.742  30.248  1.00  0.00     0.074 A 
ATOM     54  C   UNL A   1      45.388  24.735  28.268  1.00  0.00     0.029 A 
ATOM     55  N   UNL A   1      44.636  26.726  28.913  1.00  0.00    -0.354 N 
ATOM     56  N   UNL A   1      44.921  29.504  29.817  1.00  0.00    -0.248 NA
ATOM     57  C   UNL A   1      46.240  31.242  30.658  1.00  0.00     0.031 C 
ATOM     58  C   UNL A   1      46.475  25.497  28.707  1.00  0.00     0.029 A 
ATOM     59  C   UNL A   1      46.007  26.739  29.103  1.00  0.00     0.049 A 
ATOM     60  H   UNL A   1      44.031  27.478  29.105  1.00  0.00     0.167 HD
ATOM     61  C   UNL A   1      46.236  29.071  29.917  1.00  0.00     0.074 A 
ATOM     62  C   UNL A   1      47.010  30.187  30.423  1.00  0.00     0.031 C 
ATOM     63  C   UNL A   1      46.754  27.853  29.628  1.00  0.00     0.037 A 
BRANCH  50  64
ATOM     64  C   UNL A   1      42.624  23.742  27.598  1.00  0.00     0.058 A 
ATOM     65  C   UNL A   1      42.623  23.455  26.225  1.00  0.00     0.135 A 
ATOM     66  C   UNL A   1      42.430  22.679  28.494  1.00  0.00     0.135 A 
ATOM     67  F   UNL A   1      42.786  24.439  25.328  1.00  0.00    -0.206 F 
ATOM     68  C   UNL A   1      42.426  22.160  25.756  1.00  0.00     0.059 A 
ATOM     69  C   UNL A   1      42.247  21.374  28.047  1.00  0.00     0.059 A 
ATOM     70  F   UNL A   1      42.420  22.905  29.817  1.00  0.00    -0.206 F 
ATOM     71  C   UNL A   1      42.237  21.126  26.676  1.00  0.00     0.060 A 
BRANCH  71  72
ATOM     72  S   UNL A   1      41.993  19.448  26.052  1.00  0.00     0.124 S 
ATOM     73  O   UNL A   1      42.370  18.650  27.216  1.00  0.00    -0.237 OA
ATOM     74  O   UNL A   1      40.574  19.442  25.714  1.00  0.00    -0.237 OA
ATOM     75  O   UNL A   1      42.906  19.372  24.916  1.00  0.00    -0.744 OA
ENDBRANCH  71  72
ENDBRANCH  50  64
BRANCH  51  76
ATOM     76  C   UNL A   1      43.973  33.097  30.799  1.00  0.00     0.058 A 
ATOM     77  C   UNL A   1      44.146  34.108  29.843  1.00  0.00     0.135 A 
ATOM     78  C   UNL A   1      43.959  33.467  32.153  1.00  0.00     0.135 A 
ATOM     79  F   UNL A   1      44.172  33.798  28.537  1.00  0.00    -0.206 F 
ATOM     80  C   UNL A   1      44.295  35.439  30.214  1.00  0.00     0.059 A 
ATOM     81  C   UNL A   1      44.086  34.794  32.547  1.00  0.00     0.059 A 
ATOM     82  F   UNL A   1      43.783  32.534  33.101  1.00  0.00    -0.206 F 
ATOM     83  C   UNL A   1      44.258  35.773  31.568  1.00  0.00     0.060 A 
BRANCH  83  84
ATOM     84  S   UNL A   1      44.371  37.513  32.042  1.00  0.00     0.124 S 
ATOM     85  O   UNL A   1      43.524  37.547  33.229  1.00  0.00    -0.237 OA
ATOM     86  O   UNL A   1      45.803  37.679  32.273  1.00  0.00    -0.237 OA
ATOM     87  O   UNL A   1      43.850  38.211  30.870  1.00  0.00    -0.744 OA
ENDBRANCH  83  84
ENDBRANCH  51  76
BRANCH  63  88
ATOM     88  C   UNL A   1      48.218  27.648  29.882  1.00  0.00     0.058 A 
ATOM     89  C   UNL A   1      48.666  27.129  31.105  1.00  0.00     0.135 A 
ATOM     90  C   UNL A   1      49.166  27.894  28.879  1.00  0.00     0.135 A 
ATOM     91  F   UNL A   1      47.795  26.886  32.098  1.00  0.00    -0.206 F 
ATOM     92  C   UNL A   1      50.013  26.860  31.326  1.00  0.00     0.059 A 
ATOM     93  C   UNL A   1      50.515  27.618  29.072  1.00  0.00     0.059 A 
ATOM     94  F   UNL A   1      48.780  28.385  27.690  1.00  0.00    -0.206 F 
ATOM     95  C   UNL A   1      50.929  27.102  30.301  1.00  0.00     0.060 A 
BRANCH  95  96
ATOM     96  S   UNL A   1      52.665  26.692  30.579  1.00  0.00     0.124 S 
ATOM     97  O   UNL A   1      52.558  25.586  31.525  1.00  0.00    -0.237 OA
ATOM     98  O   UNL A   1      53.122  26.337  29.239  1.00  0.00    -0.237 OA
ATOM     99  O   UNL A   1      53.223  27.929  31.118  1.00  0.00    -0.744 OA
ENDBRANCH  95  96
ENDBRANCH  63  88
ENDBRANCH  37  38
ENDBRANCH  29  32
ENDBRANCH  27  28
ENDBRANCH   1  27
TORSDOF 16
ENDMDL
MODEL 3
REMARK VINA RESULT:     -12.0      4.961      9.811
REMARK SMILES CC(C)(C)c1cc2c(cc1Cl)C=C(C(=O)NCCCCNC(=O)c1ccc(-c3c4nc(c(-c5c(F)cc(S(=O)(=O)[O-])cc5F)c5ccc([nH]5)c(-c5c(F)cc(S(=O)(=O)[O-])cc5F)c5nc(c(-c6c(F)cc(S(=O)(=O)[O-])cc6F)c6ccc3[nH]6)C=C5)C=C4)cc1)[C@H](C(F)(F)F)O2
REMARK SMILES IDX 19 1 18 2 17 3 16 4 14 5 15 6 13 8 5 9 6 10 10 11 7 12 9 13
REMARK SMILES IDX 11 14 8 15 95 16 12 17 90 18 2 19 1 20 3 21 4 22 91 23 92 24
REMARK SMILES IDX 93 25 94 26 20 27 21 28 22 29 23 31 24 32 25 33 89 34 26 35
REMARK SMILES IDX 88 36 27 37 28 38 29 39 82 40 30 41 87 42 81 43 83 44 31 45
REMARK SMILES IDX 86 46 80 47 79 48 32 50 66 51 45 52 65 53 46 54 49 55 64 56
REMARK SMILES IDX 84 57 47 58 48 59 63 61 85 62 50 63 33 64 34 65 43 66 35 67
REMARK SMILES IDX 36 68 42 69 44 70 37 71 38 72 39 73 40 74 41 75 67 76 68 77
REMARK SMILES IDX 77 78 69 79 70 80 76 81 78 82 71 83 72 84 73 85 74 86 75 87
REMARK SMILES IDX 51 88 52 89 61 90 53 91 54 92 60 93 62 94 55 95 56 96 57 97
REMARK SMILES IDX 58 98 59 99
REMARK H PARENT 16 7 21 30 83 49 49 60
REMARK Flexibility Score: inf
ROOT
ATOM      1  C   UNL A   1      37.774  23.722  25.403  1.00  0.00     0.023 C 
ENDROOT
BRANCH   1   2
ATOM      2  C   UNL A   1      36.310  23.888  25.815  1.00  0.00     0.023 C 
BRANCH   2   3
ATOM      3  C   UNL A   1      35.458  22.624  25.689  1.00  0.00     0.116 C 
BRANCH   3   4
ATOM      4  N   UNL A   1      34.561  22.462  26.819  1.00  0.00    -0.352 N 
ATOM      5  C   UNL A   1      33.320  22.883  27.154  1.00  0.00     0.251 C 
ATOM      6  O   UNL A   1      32.864  22.405  28.199  1.00  0.00    -0.270 OA
ATOM      7  H   UNL A   1      34.959  21.900  27.523  1.00  0.00     0.163 HD
BRANCH   5   8
ATOM      8  C   UNL A   1      32.495  23.855  26.377  1.00  0.00     0.067 C 
ATOM      9  C   UNL A   1      30.708  28.124  24.257  1.00  0.00    -0.020 A 
ATOM     10  C   UNL A   1      30.314  26.761  24.297  1.00  0.00     0.053 A 
ATOM     11  C   UNL A   1      31.781  28.477  25.108  1.00  0.00     0.045 A 
ATOM     12  C   UNL A   1      30.994  25.805  25.052  1.00  0.00     0.128 A 
ATOM     13  C   UNL A   1      32.447  27.507  25.884  1.00  0.00     0.032 A 
ATOM     14  Cl  UNL A   1      32.368  30.084  25.351  1.00  0.00    -0.084 Cl
ATOM     15  C   UNL A   1      32.065  26.169  25.850  1.00  0.00     0.019 A 
ATOM     16  O   UNL A   1      30.537  24.518  24.989  1.00  0.00    -0.475 OA
ATOM     17  C   UNL A   1      32.739  25.154  26.647  1.00  0.00     0.025 C 
ATOM     18  C   UNL A   1      31.541  23.494  25.269  1.00  0.00     0.314 C 
BRANCH   9  19
ATOM     19  C   UNL A   1      29.896  29.067  23.330  1.00  0.00    -0.012 C 
ATOM     20  C   UNL A   1      29.576  30.477  23.873  1.00  0.00     0.016 C 
ATOM     21  C   UNL A   1      28.558  28.375  22.999  1.00  0.00     0.016 C 
ATOM     22  C   UNL A   1      30.661  29.327  21.999  1.00  0.00     0.016 C 
ENDBRANCH   9  19
BRANCH  18  23
ATOM     23  C   UNL A   1      32.237  23.069  23.964  1.00  0.00     0.429 C 
ATOM     24  F   UNL A   1      33.284  23.864  23.644  1.00  0.00    -0.167 F 
ATOM     25  F   UNL A   1      32.705  21.803  24.008  1.00  0.00    -0.167 F 
ATOM     26  F   UNL A   1      31.360  23.132  22.929  1.00  0.00    -0.167 F 
ENDBRANCH  18  23
ENDBRANCH   5   8
ENDBRANCH   3   4
ENDBRANCH   2   3
ENDBRANCH   1   2
BRANCH   1  27
ATOM     27  C   UNL A   1      38.751  23.498  26.551  1.00  0.00     0.116 C 
BRANCH  27  28
ATOM     28  N   UNL A   1      40.155  23.615  26.175  1.00  0.00    -0.352 N 
ATOM     29  C   UNL A   1      41.035  24.618  26.525  1.00  0.00     0.251 C 
ATOM     30  H   UNL A   1      40.515  22.898  25.605  1.00  0.00     0.163 HD
ATOM     31  O   UNL A   1      42.179  24.632  26.085  1.00  0.00    -0.269 OA
BRANCH  29  32
ATOM     32  C   UNL A   1      40.542  25.710  27.389  1.00  0.00     0.039 A 
ATOM     33  C   UNL A   1      41.127  26.974  27.314  1.00  0.00     0.014 A 
ATOM     34  C   UNL A   1      39.594  25.420  28.373  1.00  0.00     0.014 A 
ATOM     35  C   UNL A   1      40.917  27.880  28.345  1.00  0.00     0.010 A 
ATOM     36  C   UNL A   1      39.322  26.366  29.364  1.00  0.00     0.010 A 
ATOM     37  C   UNL A   1      40.038  27.573  29.399  1.00  0.00    -0.014 A 
BRANCH  37  38
ATOM     38  C   UNL A   1      39.956  28.499  30.558  1.00  0.00     0.031 A 
ATOM     39  C   UNL A   1      40.979  28.429  31.665  1.00  0.00     0.074 A 
ATOM     40  C   UNL A   1      39.029  29.476  30.559  1.00  0.00     0.049 A 
ATOM     41  N   UNL A   1      41.106  29.197  32.718  1.00  0.00    -0.248 NA
ATOM     42  C   UNL A   1      41.992  27.364  31.581  1.00  0.00     0.031 C 
ATOM     43  C   UNL A   1      38.001  29.660  29.531  1.00  0.00     0.029 A 
ATOM     44  N   UNL A   1      38.827  30.521  31.423  1.00  0.00    -0.354 N 
ATOM     45  C   UNL A   1      42.189  28.695  33.430  1.00  0.00     0.074 A 
ATOM     46  C   UNL A   1      42.676  27.544  32.703  1.00  0.00     0.031 C 
ATOM     47  C   UNL A   1      37.329  30.794  29.783  1.00  0.00     0.029 A 
ATOM     48  C   UNL A   1      37.837  31.385  31.017  1.00  0.00     0.049 A 
ATOM     49  H   UNL A   1      39.341  30.640  32.254  1.00  0.00     0.167 HD
ATOM     50  C   UNL A   1      42.738  29.159  34.578  1.00  0.00     0.037 A 
ATOM     51  C   UNL A   1      37.390  32.526  31.574  1.00  0.00     0.037 A 
ATOM     52  C   UNL A   1      42.285  30.333  35.277  1.00  0.00     0.049 A 
ATOM     53  C   UNL A   1      37.994  33.001  32.863  1.00  0.00     0.074 A 
ATOM     54  C   UNL A   1      42.798  30.899  36.431  1.00  0.00     0.029 A 
ATOM     55  N   UNL A   1      41.218  31.124  34.882  1.00  0.00    -0.354 N 
ATOM     56  N   UNL A   1      39.004  32.500  33.531  1.00  0.00    -0.248 NA
ATOM     57  C   UNL A   1      37.380  34.180  33.489  1.00  0.00     0.031 C 
ATOM     58  C   UNL A   1      42.024  32.019  36.749  1.00  0.00     0.029 A 
ATOM     59  C   UNL A   1      41.044  32.163  35.781  1.00  0.00     0.049 A 
ATOM     60  H   UNL A   1      40.666  30.970  34.082  1.00  0.00     0.167 HD
ATOM     61  C   UNL A   1      39.138  33.291  34.664  1.00  0.00     0.074 A 
ATOM     62  C   UNL A   1      38.124  34.323  34.578  1.00  0.00     0.031 C 
ATOM     63  C   UNL A   1      40.015  33.166  35.689  1.00  0.00     0.037 A 
BRANCH  50  64
ATOM     64  C   UNL A   1      43.896  28.398  35.159  1.00  0.00     0.058 A 
ATOM     65  C   UNL A   1      43.700  27.365  36.087  1.00  0.00     0.135 A 
ATOM     66  C   UNL A   1      45.208  28.670  34.741  1.00  0.00     0.135 A 
ATOM     67  F   UNL A   1      42.467  27.078  36.531  1.00  0.00    -0.206 F 
ATOM     68  C   UNL A   1      44.771  26.633  36.592  1.00  0.00     0.059 A 
ATOM     69  C   UNL A   1      46.291  27.940  35.221  1.00  0.00     0.059 A 
ATOM     70  F   UNL A   1      45.445  29.651  33.857  1.00  0.00    -0.206 F 
ATOM     71  C   UNL A   1      46.063  26.929  36.153  1.00  0.00     0.060 A 
BRANCH  71  72
ATOM     72  S   UNL A   1      47.441  25.963  36.809  1.00  0.00     0.124 S 
ATOM     73  O   UNL A   1      47.033  25.785  38.200  1.00  0.00    -0.237 OA
ATOM     74  O   UNL A   1      47.406  24.763  35.981  1.00  0.00    -0.237 OA
ATOM     75  O   UNL A   1      48.595  26.832  36.599  1.00  0.00    -0.744 OA
ENDBRANCH  71  72
ENDBRANCH  50  64
BRANCH  51  76
ATOM     76  C   UNL A   1      36.305  33.289  30.910  1.00  0.00     0.058 A 
ATOM     77  C   UNL A   1      35.003  33.282  31.427  1.00  0.00     0.135 A 
ATOM     78  C   UNL A   1      36.560  34.074  29.775  1.00  0.00     0.135 A 
ATOM     79  F   UNL A   1      34.713  32.541  32.507  1.00  0.00    -0.206 F 
ATOM     80  C   UNL A   1      33.988  34.031  30.843  1.00  0.00     0.059 A 
ATOM     81  C   UNL A   1      35.567  34.846  29.185  1.00  0.00     0.059 A 
ATOM     82  F   UNL A   1      37.796  34.120  29.254  1.00  0.00    -0.206 F 
ATOM     83  C   UNL A   1      34.280  34.814  29.725  1.00  0.00     0.060 A 
BRANCH  83  84
ATOM     84  S   UNL A   1      32.979  35.848  29.018  1.00  0.00     0.124 S 
ATOM     85  O   UNL A   1      33.758  36.914  28.398  1.00  0.00    -0.237 OA
ATOM     86  O   UNL A   1      32.314  34.926  28.101  1.00  0.00    -0.237 OA
ATOM     87  O   UNL A   1      32.190  36.234  30.184  1.00  0.00    -0.744 OA
ENDBRANCH  83  84
ENDBRANCH  51  76
BRANCH  63  88
ATOM     88  C   UNL A   1      39.898  34.145  36.819  1.00  0.00     0.058 A 
ATOM     89  C   UNL A   1      40.460  35.426  36.717  1.00  0.00     0.135 A 
ATOM     90  C   UNL A   1      39.160  33.835  37.969  1.00  0.00     0.135 A 
ATOM     91  F   UNL A   1      41.183  35.765  35.637  1.00  0.00    -0.206 F 
ATOM     92  C   UNL A   1      40.293  36.371  37.724  1.00  0.00     0.059 A 
ATOM     93  C   UNL A   1      38.967  34.768  38.982  1.00  0.00     0.059 A 
ATOM     94  F   UNL A   1      38.600  32.622  38.107  1.00  0.00    -0.206 F 
ATOM     95  C   UNL A   1      39.540  36.034  38.850  1.00  0.00     0.060 A 
BRANCH  95  96
ATOM     96  S   UNL A   1      39.279  37.289  40.122  1.00  0.00     0.124 S 
ATOM     97  O   UNL A   1      40.650  37.663  40.451  1.00  0.00    -0.237 OA
ATOM     98  O   UNL A   1      38.501  38.300  39.410  1.00  0.00    -0.237 OA
ATOM     99  O   UNL A   1      38.554  36.569  41.164  1.00  0.00    -0.744 OA
ENDBRANCH  95  96
ENDBRANCH  63  88
ENDBRANCH  37  38
ENDBRANCH  29  32
ENDBRANCH  27  28
ENDBRANCH   1  27
TORSDOF 16
ENDMDL
