MODEL 1
REMARK VINA RESULT:     -11.3      0.000      0.000
REMARK SMILES C=CCCC[C@@]1(C(=O)NCCCCNC(=O)c2ccc(-c3c4nc(c(-c5c(F)cc(S(=O)(=O)[O-])cc5F)c5ccc([nH]5)c(-c5c(F)cc(S(=O)(=O)[O-])cc5F)c5nc(c(-c6c(F)cc(S(=O)(=O)[O-])cc6F)c6ccc3[nH]6)C=C5)C=C4)cc2)CCCN(C(=O)OC(C)(C)C)C1
REMARK SMILES IDX 11 1 10 2 9 3 7 4 8 5 6 7 83 8 94 9 84 10 86 11 85 12 5 13
REMARK SMILES IDX 4 14 3 15 2 16 1 17 87 18 88 19 89 20 90 21 91 22 92 23
REMARK SMILES IDX 93 24 12 25 13 26 14 27 15 28 16 30 17 31 18 32 82 33 19 34
REMARK SMILES IDX 81 35 20 36 21 37 22 38 75 39 23 40 80 41 74 42 76 43 24 44
REMARK SMILES IDX 79 45 73 46 72 47 25 49 59 50 38 51 58 52 39 53 42 54 57 55
REMARK SMILES IDX 77 56 40 57 41 58 56 60 78 61 43 62 26 63 27 64 36 65 28 66
REMARK SMILES IDX 29 67 35 68 37 69 30 70 31 71 32 72 33 73 34 74 60 75 61 76
REMARK SMILES IDX 70 77 62 78 63 79 69 80 71 81 64 82 65 83 66 84 67 85 68 86
REMARK SMILES IDX 44 87 45 88 54 89 46 90 47 91 53 92 55 93 48 94 49 95 50 96
REMARK SMILES IDX 51 97 52 98
REMARK H PARENT 9 6 14 29 76 48 42 59
REMARK Flexibility Score: inf
ROOT
ATOM      1  C   UNL A   1      37.569  22.351  24.950  1.00  0.00     0.023 C 
ENDROOT
BRANCH   1   2
ATOM      2  C   UNL A   1      36.120  21.916  24.815  1.00  0.00     0.116 C 
BRANCH   2   3
ATOM      3  N   UNL A   1      35.429  22.598  23.741  1.00  0.00    -0.356 N 
ATOM      4  C   UNL A   1      34.424  23.495  23.650  1.00  0.00     0.228 C 
ATOM      5  O   UNL A   1      34.221  23.893  22.491  1.00  0.00    -0.274 OA
ATOM      6  H   UNL A   1      35.779  22.344  22.856  1.00  0.00     0.163 HD
BRANCH   4   7
ATOM      7  C   UNL A   1      33.501  24.025  24.788  1.00  0.00     0.067 C 
ATOM      8  C   UNL A   1      33.969  23.998  26.262  1.00  0.00     0.020 C 
ATOM      9  C   UNL A   1      32.224  23.174  24.674  1.00  0.00     0.140 C 
ATOM     10  C   UNL A   1      33.759  22.718  27.087  1.00  0.00     0.023 C 
ATOM     11  N   UNL A   1      32.448  21.821  25.156  1.00  0.00    -0.307 N 
ATOM     12  C   UNL A   1      32.718  21.709  26.580  1.00  0.00     0.123 C 
BRANCH   7  13
ATOM     13  C   UNL A   1      33.272  25.557  24.425  1.00  0.00     0.019 C 
BRANCH  13  14
ATOM     14  C   UNL A   1      34.071  26.658  25.149  1.00  0.00     0.005 C 
BRANCH  14  15
ATOM     15  C   UNL A   1      33.315  27.790  25.865  1.00  0.00     0.027 C 
BRANCH  15  16
ATOM     16  C   UNL A   1      32.117  27.386  26.672  1.00  0.00    -0.035 C 
ATOM     17  C   UNL A   1      31.612  28.133  27.662  1.00  0.00     0.004 C 
ENDBRANCH  15  16
ENDBRANCH  14  15
ENDBRANCH  13  14
ENDBRANCH   7  13
BRANCH  11  18
ATOM     18  C   UNL A   1      32.241  20.767  24.273  1.00  0.00     0.410 C 
ATOM     19  O   UNL A   1      32.267  20.917  23.061  1.00  0.00    -0.224 OA
BRANCH  18  20
ATOM     20  O   UNL A   1      32.029  19.563  24.882  1.00  0.00    -0.444 OA
BRANCH  20  21
ATOM     21  C   UNL A   1      32.830  18.410  24.475  1.00  0.00     0.106 C 
ATOM     22  C   UNL A   1      32.589  17.226  25.420  1.00  0.00     0.056 C 
ATOM     23  C   UNL A   1      32.603  17.997  23.007  1.00  0.00     0.056 C 
ATOM     24  C   UNL A   1      34.302  18.839  24.628  1.00  0.00     0.056 C 
ENDBRANCH  20  21
ENDBRANCH  18  20
ENDBRANCH  11  18
ENDBRANCH   4   7
ENDBRANCH   2   3
ENDBRANCH   1   2
BRANCH   1  25
ATOM     25  C   UNL A   1      37.774  23.735  25.525  1.00  0.00     0.023 C 
BRANCH  25  26
ATOM     26  C   UNL A   1      38.742  23.747  26.684  1.00  0.00     0.116 C 
BRANCH  26  27
ATOM     27  N   UNL A   1      40.143  23.784  26.261  1.00  0.00    -0.352 N 
ATOM     28  C   UNL A   1      41.094  24.743  26.548  1.00  0.00     0.251 C 
ATOM     29  H   UNL A   1      40.445  23.031  25.703  1.00  0.00     0.163 HD
ATOM     30  O   UNL A   1      42.206  24.700  26.032  1.00  0.00    -0.269 OA
BRANCH  28  31
ATOM     31  C   UNL A   1      40.716  25.854  27.447  1.00  0.00     0.039 A 
ATOM     32  C   UNL A   1      39.825  25.627  28.499  1.00  0.00     0.014 A 
ATOM     33  C   UNL A   1      41.365  27.080  27.324  1.00  0.00     0.014 A 
ATOM     34  C   UNL A   1      39.671  26.605  29.487  1.00  0.00     0.010 A 
ATOM     35  C   UNL A   1      41.333  27.970  28.382  1.00  0.00     0.010 A 
ATOM     36  C   UNL A   1      40.470  27.759  29.468  1.00  0.00    -0.014 A 
BRANCH  36  37
ATOM     37  C   UNL A   1      40.412  28.811  30.517  1.00  0.00     0.031 A 
ATOM     38  C   UNL A   1      41.331  28.688  31.708  1.00  0.00     0.074 A 
ATOM     39  C   UNL A   1      39.473  29.777  30.480  1.00  0.00     0.049 A 
ATOM     40  N   UNL A   1      41.286  29.303  32.859  1.00  0.00    -0.248 NA
ATOM     41  C   UNL A   1      42.399  27.674  31.615  1.00  0.00     0.031 C 
ATOM     42  C   UNL A   1      38.483  29.969  29.417  1.00  0.00     0.029 A 
ATOM     43  N   UNL A   1      39.183  30.772  31.380  1.00  0.00    -0.354 N 
ATOM     44  C   UNL A   1      42.265  28.701  33.642  1.00  0.00     0.074 A 
ATOM     45  C   UNL A   1      42.840  27.632  32.862  1.00  0.00     0.031 C 
ATOM     46  C   UNL A   1      37.718  31.034  29.712  1.00  0.00     0.029 A 
ATOM     47  C   UNL A   1      38.125  31.569  31.006  1.00  0.00     0.049 A 
ATOM     48  H   UNL A   1      39.685  30.903  32.217  1.00  0.00     0.167 HD
ATOM     49  C   UNL A   1      42.676  29.035  34.888  1.00  0.00     0.037 A 
ATOM     50  C   UNL A   1      37.546  32.605  31.644  1.00  0.00     0.037 A 
ATOM     51  C   UNL A   1      42.173  30.173  35.607  1.00  0.00     0.049 A 
ATOM     52  C   UNL A   1      38.077  33.016  32.992  1.00  0.00     0.074 A 
ATOM     53  C   UNL A   1      42.585  30.668  36.830  1.00  0.00     0.029 A 
ATOM     54  N   UNL A   1      41.166  31.010  35.149  1.00  0.00    -0.354 N 
ATOM     55  N   UNL A   1      39.032  32.464  33.704  1.00  0.00    -0.248 NA
ATOM     56  C   UNL A   1      37.459  34.189  33.625  1.00  0.00     0.031 C 
ATOM     57  C   UNL A   1      41.813  31.797  37.122  1.00  0.00     0.029 A 
ATOM     58  C   UNL A   1      40.945  32.023  36.064  1.00  0.00     0.049 A 
ATOM     59  H   UNL A   1      40.682  30.899  34.299  1.00  0.00     0.167 HD
ATOM     60  C   UNL A   1      39.149  33.240  34.852  1.00  0.00     0.074 A 
ATOM     61  C   UNL A   1      38.171  34.304  34.738  1.00  0.00     0.031 C 
ATOM     62  C   UNL A   1      39.988  33.088  35.906  1.00  0.00     0.037 A 
BRANCH  49  63
ATOM     63  C   UNL A   1      43.741  28.186  35.526  1.00  0.00     0.058 A 
ATOM     64  C   UNL A   1      43.421  27.101  36.359  1.00  0.00     0.135 A 
ATOM     65  C   UNL A   1      45.100  28.453  35.294  1.00  0.00     0.135 A 
ATOM     66  F   UNL A   1      42.139  26.811  36.628  1.00  0.00    -0.206 F 
ATOM     67  C   UNL A   1      44.408  26.339  36.972  1.00  0.00     0.059 A 
ATOM     68  C   UNL A   1      46.105  27.682  35.871  1.00  0.00     0.059 A 
ATOM     69  F   UNL A   1      45.464  29.479  34.508  1.00  0.00    -0.206 F 
ATOM     70  C   UNL A   1      45.749  26.638  36.724  1.00  0.00     0.060 A 
BRANCH  70  71
ATOM     71  S   UNL A   1      47.017  25.637  37.527  1.00  0.00     0.124 S 
ATOM     72  O   UNL A   1      46.402  24.314  37.501  1.00  0.00    -0.237 OA
ATOM     73  O   UNL A   1      48.165  25.818  36.644  1.00  0.00    -0.237 OA
ATOM     74  O   UNL A   1      47.143  26.245  38.848  1.00  0.00    -0.744 OA
ENDBRANCH  70  71
ENDBRANCH  49  63
BRANCH  50  75
ATOM     75  C   UNL A   1      36.428  33.350  31.004  1.00  0.00     0.058 A 
ATOM     76  C   UNL A   1      36.660  34.164  29.885  1.00  0.00     0.135 A 
ATOM     77  C   UNL A   1      35.112  33.259  31.481  1.00  0.00     0.135 A 
ATOM     78  F   UNL A   1      37.902  34.289  29.392  1.00  0.00    -0.206 F 
ATOM     79  C   UNL A   1      35.632  34.877  29.274  1.00  0.00     0.059 A 
ATOM     80  C   UNL A   1      34.063  33.944  30.873  1.00  0.00     0.059 A 
ATOM     81  F   UNL A   1      34.832  32.479  32.537  1.00  0.00    -0.206 F 
ATOM     82  C   UNL A   1      34.336  34.759  29.775  1.00  0.00     0.060 A 
BRANCH  82  83
ATOM     83  S   UNL A   1      33.004  35.656  28.948  1.00  0.00     0.124 S 
ATOM     84  O   UNL A   1      33.750  36.641  28.173  1.00  0.00    -0.237 OA
ATOM     85  O   UNL A   1      32.354  34.600  28.178  1.00  0.00    -0.237 OA
ATOM     86  O   UNL A   1      32.218  36.187  30.057  1.00  0.00    -0.744 OA
ENDBRANCH  82  83
ENDBRANCH  50  75
BRANCH  62  87
ATOM     87  C   UNL A   1      39.932  34.118  36.995  1.00  0.00     0.058 A 
ATOM     88  C   UNL A   1      40.581  35.355  36.870  1.00  0.00     0.135 A 
ATOM     89  C   UNL A   1      39.135  33.900  38.130  1.00  0.00     0.135 A 
ATOM     90  F   UNL A   1      41.357  35.607  35.805  1.00  0.00    -0.206 F 
ATOM     91  C   UNL A   1      40.443  36.344  37.838  1.00  0.00     0.059 A 
ATOM     92  C   UNL A   1      38.966  34.883  39.099  1.00  0.00     0.059 A 
ATOM     93  F   UNL A   1      38.487  32.735  38.288  1.00  0.00    -0.206 F 
ATOM     94  C   UNL A   1      39.627  36.101  38.945  1.00  0.00     0.060 A 
BRANCH  94  95
ATOM     95  S   UNL A   1      39.398  37.418  40.157  1.00  0.00     0.124 S 
ATOM     96  O   UNL A   1      38.509  38.326  39.439  1.00  0.00    -0.237 OA
ATOM     97  O   UNL A   1      38.803  36.706  41.284  1.00  0.00    -0.237 OA
ATOM     98  O   UNL A   1      40.753  37.912  40.381  1.00  0.00    -0.744 OA
ENDBRANCH  94  95
ENDBRANCH  62  87
ENDBRANCH  36  37
ENDBRANCH  28  31
ENDBRANCH  26  27
ENDBRANCH  25  26
ENDBRANCH   1  25
TORSDOF 21
ENDMDL
MODEL 2
REMARK VINA RESULT:     -11.0      6.718     11.903
REMARK SMILES C=CCCC[C@@]1(C(=O)NCCCCNC(=O)c2ccc(-c3c4nc(c(-c5c(F)cc(S(=O)(=O)[O-])cc5F)c5ccc([nH]5)c(-c5c(F)cc(S(=O)(=O)[O-])cc5F)c5nc(c(-c6c(F)cc(S(=O)(=O)[O-])cc6F)c6ccc3[nH]6)C=C5)C=C4)cc2)CCCN(C(=O)OC(C)(C)C)C1
REMARK SMILES IDX 11 1 10 2 9 3 7 4 8 5 6 7 83 8 94 9 84 10 86 11 85 12 5 13
REMARK SMILES IDX 4 14 3 15 2 16 1 17 87 18 88 19 89 20 90 21 91 22 92 23
REMARK SMILES IDX 93 24 12 25 13 26 14 27 15 28 16 30 17 31 18 32 82 33 19 34
REMARK SMILES IDX 81 35 20 36 21 37 22 38 75 39 23 40 80 41 74 42 76 43 24 44
REMARK SMILES IDX 79 45 73 46 72 47 25 49 59 50 38 51 58 52 39 53 42 54 57 55
REMARK SMILES IDX 77 56 40 57 41 58 56 60 78 61 43 62 26 63 27 64 36 65 28 66
REMARK SMILES IDX 29 67 35 68 37 69 30 70 31 71 32 72 33 73 34 74 60 75 61 76
REMARK SMILES IDX 70 77 62 78 63 79 69 80 71 81 64 82 65 83 66 84 67 85 68 86
REMARK SMILES IDX 44 87 45 88 54 89 46 90 47 91 53 92 55 93 48 94 49 95 50 96
REMARK SMILES IDX 51 97 52 98
REMARK H PARENT 9 6 14 29 76 48 42 59
REMARK Flexibility Score: inf
ROOT
ATOM      1  C   UNL A   1      34.214  28.196  25.217  1.00  0.00     0.023 C 
ENDROOT
BRANCH   1   2
ATOM      2  C   UNL A   1      33.719  28.639  23.851  1.00  0.00     0.116 C 
BRANCH   2   3
ATOM      3  N   UNL A   1      33.294  27.530  23.024  1.00  0.00    -0.356 N 
ATOM      4  C   UNL A   1      32.157  26.821  22.862  1.00  0.00     0.228 C 
ATOM      5  O   UNL A   1      32.216  25.996  21.935  1.00  0.00    -0.274 OA
ATOM      6  H   UNL A   1      34.014  27.214  22.431  1.00  0.00     0.163 HD
BRANCH   4   7
ATOM      7  C   UNL A   1      30.850  26.891  23.708  1.00  0.00     0.067 C 
ATOM      8  C   UNL A   1      30.856  27.523  25.120  1.00  0.00     0.020 C 
ATOM      9  C   UNL A   1      30.399  25.426  23.841  1.00  0.00     0.140 C 
ATOM     10  C   UNL A   1      31.242  26.652  26.325  1.00  0.00     0.023 C 
ATOM     11  N   UNL A   1      31.248  24.696  24.768  1.00  0.00    -0.307 N 
ATOM     12  C   UNL A   1      31.164  25.127  26.154  1.00  0.00     0.123 C 
BRANCH   7  13
ATOM     13  C   UNL A   1      29.862  27.777  22.831  1.00  0.00     0.019 C 
BRANCH  13  14
ATOM     14  C   UNL A   1      30.096  29.293  22.683  1.00  0.00     0.005 C 
BRANCH  14  15
ATOM     15  C   UNL A   1      29.013  30.161  22.022  1.00  0.00     0.027 C 
BRANCH  15  16
ATOM     16  C   UNL A   1      27.747  30.360  22.802  1.00  0.00    -0.035 C 
ATOM     17  C   UNL A   1      27.515  31.436  23.566  1.00  0.00     0.004 C 
ENDBRANCH  15  16
ENDBRANCH  14  15
ENDBRANCH  13  14
ENDBRANCH   7  13
BRANCH  11  18
ATOM     18  C   UNL A   1      31.932  23.581  24.294  1.00  0.00     0.410 C 
ATOM     19  O   UNL A   1      31.889  23.240  23.122  1.00  0.00    -0.224 OA
BRANCH  18  20
ATOM     20  O   UNL A   1      32.660  22.928  25.246  1.00  0.00    -0.444 OA
BRANCH  20  21
ATOM     21  C   UNL A   1      34.108  23.121  25.290  1.00  0.00     0.106 C 
ATOM     22  C   UNL A   1      34.830  21.928  24.650  1.00  0.00     0.056 C 
ATOM     23  C   UNL A   1      34.566  24.447  24.651  1.00  0.00     0.056 C 
ATOM     24  C   UNL A   1      34.489  23.154  26.781  1.00  0.00     0.056 C 
ENDBRANCH  20  21
ENDBRANCH  18  20
ENDBRANCH  11  18
ENDBRANCH   4   7
ENDBRANCH   2   3
ENDBRANCH   1   2
BRANCH   1  25
ATOM     25  C   UNL A   1      34.057  29.219  26.321  1.00  0.00     0.023 C 
BRANCH  25  26
ATOM     26  C   UNL A   1      34.780  28.827  27.587  1.00  0.00     0.116 C 
BRANCH  26  27
ATOM     27  N   UNL A   1      34.937  29.938  28.526  1.00  0.00    -0.352 N 
ATOM     28  C   UNL A   1      36.087  30.357  29.166  1.00  0.00     0.251 C 
ATOM     29  H   UNL A   1      34.121  30.451  28.727  1.00  0.00     0.163 HD
ATOM     30  O   UNL A   1      36.048  31.240  30.016  1.00  0.00    -0.269 OA
BRANCH  28  31
ATOM     31  C   UNL A   1      37.356  29.672  28.839  1.00  0.00     0.039 A 
ATOM     32  C   UNL A   1      37.889  29.769  27.553  1.00  0.00     0.014 A 
ATOM     33  C   UNL A   1      38.080  29.059  29.859  1.00  0.00     0.014 A 
ATOM     34  C   UNL A   1      39.200  29.339  27.322  1.00  0.00     0.010 A 
ATOM     35  C   UNL A   1      39.422  28.787  29.665  1.00  0.00     0.010 A 
ATOM     36  C   UNL A   1      39.997  28.900  28.391  1.00  0.00    -0.014 A 
BRANCH  36  37
ATOM     37  C   UNL A   1      41.418  28.491  28.236  1.00  0.00     0.031 A 
ATOM     38  C   UNL A   1      42.482  29.560  28.286  1.00  0.00     0.074 A 
ATOM     39  C   UNL A   1      41.743  27.220  27.926  1.00  0.00     0.049 A 
ATOM     40  N   UNL A   1      43.733  29.504  27.914  1.00  0.00    -0.248 NA
ATOM     41  C   UNL A   1      42.055  30.896  28.741  1.00  0.00     0.031 C 
ATOM     42  C   UNL A   1      40.804  26.104  27.786  1.00  0.00     0.029 A 
ATOM     43  N   UNL A   1      42.964  26.656  27.648  1.00  0.00    -0.354 N 
ATOM     44  C   UNL A   1      44.213  30.804  28.024  1.00  0.00     0.074 A 
ATOM     45  C   UNL A   1      43.105  31.636  28.428  1.00  0.00     0.031 C 
ATOM     46  C   UNL A   1      41.486  24.987  27.480  1.00  0.00     0.029 A 
ATOM     47  C   UNL A   1      42.901  25.314  27.350  1.00  0.00     0.049 A 
ATOM     48  H   UNL A   1      43.807  27.166  27.660  1.00  0.00     0.167 HD
ATOM     49  C   UNL A   1      45.475  31.259  27.840  1.00  0.00     0.037 A 
ATOM     50  C   UNL A   1      43.877  24.452  27.000  1.00  0.00     0.037 A 
ATOM     51  C   UNL A   1      46.589  30.401  27.548  1.00  0.00     0.049 A 
ATOM     52  C   UNL A   1      45.290  24.962  26.887  1.00  0.00     0.074 A 
ATOM     53  C   UNL A   1      47.927  30.733  27.442  1.00  0.00     0.029 A 
ATOM     54  N   UNL A   1      46.495  29.031  27.347  1.00  0.00    -0.354 N 
ATOM     55  N   UNL A   1      45.737  26.187  27.033  1.00  0.00    -0.248 NA
ATOM     56  C   UNL A   1      46.332  23.977  26.565  1.00  0.00     0.031 C 
ATOM     57  C   UNL A   1      48.642  29.565  27.157  1.00  0.00     0.029 A 
ATOM     58  C   UNL A   1      47.752  28.501  27.122  1.00  0.00     0.049 A 
ATOM     59  H   UNL A   1      45.658  28.514  27.364  1.00  0.00     0.167 HD
ATOM     60  C   UNL A   1      47.114  26.115  26.853  1.00  0.00     0.074 A 
ATOM     61  C   UNL A   1      47.428  24.725  26.591  1.00  0.00     0.031 C 
ATOM     62  C   UNL A   1      48.036  27.107  26.898  1.00  0.00     0.037 A 
BRANCH  49  63
ATOM     63  C   UNL A   1      45.716  32.736  27.989  1.00  0.00     0.058 A 
ATOM     64  C   UNL A   1      46.141  33.298  29.204  1.00  0.00     0.135 A 
ATOM     65  C   UNL A   1      45.528  33.603  26.900  1.00  0.00     0.135 A 
ATOM     66  F   UNL A   1      46.318  32.518  30.283  1.00  0.00    -0.206 F 
ATOM     67  C   UNL A   1      46.331  34.666  29.347  1.00  0.00     0.059 A 
ATOM     68  C   UNL A   1      45.745  34.973  27.010  1.00  0.00     0.059 A 
ATOM     69  F   UNL A   1      45.121  33.121  25.714  1.00  0.00    -0.206 F 
ATOM     70  C   UNL A   1      46.128  35.498  28.244  1.00  0.00     0.060 A 
BRANCH  70  71
ATOM     71  S   UNL A   1      46.381  37.273  28.446  1.00  0.00     0.124 S 
ATOM     72  O   UNL A   1      47.230  37.577  27.299  1.00  0.00    -0.237 OA
ATOM     73  O   UNL A   1      45.019  37.793  28.380  1.00  0.00    -0.237 OA
ATOM     74  O   UNL A   1      47.026  37.377  29.751  1.00  0.00    -0.744 OA
ENDBRANCH  70  71
ENDBRANCH  49  63
BRANCH  50  75
ATOM     75  C   UNL A   1      43.562  23.017  26.770  1.00  0.00     0.058 A 
ATOM     76  C   UNL A   1      43.610  22.472  25.478  1.00  0.00     0.135 A 
ATOM     77  C   UNL A   1      43.219  22.158  27.827  1.00  0.00     0.135 A 
ATOM     78  F   UNL A   1      43.928  23.252  24.433  1.00  0.00    -0.206 F 
ATOM     79  C   UNL A   1      43.312  21.134  25.237  1.00  0.00     0.059 A 
ATOM     80  C   UNL A   1      42.939  20.810  27.614  1.00  0.00     0.059 A 
ATOM     81  F   UNL A   1      43.177  22.624  29.085  1.00  0.00    -0.206 F 
ATOM     82  C   UNL A   1      42.978  20.310  26.313  1.00  0.00     0.060 A 
BRANCH  82  83
ATOM     83  S   UNL A   1      42.634  18.566  25.992  1.00  0.00     0.124 S 
ATOM     84  O   UNL A   1      41.197  18.590  25.746  1.00  0.00    -0.237 OA
ATOM     85  O   UNL A   1      43.475  18.296  24.830  1.00  0.00    -0.237 OA
ATOM     86  O   UNL A   1      43.054  17.909  27.226  1.00  0.00    -0.744 OA
ENDBRANCH  82  83
ENDBRANCH  50  75
BRANCH  62  87
ATOM     87  C   UNL A   1      49.477  26.728  26.717  1.00  0.00     0.058 A 
ATOM     88  C   UNL A   1      50.242  26.222  27.777  1.00  0.00     0.135 A 
ATOM     89  C   UNL A   1      50.063  26.778  25.442  1.00  0.00     0.135 A 
ATOM     90  F   UNL A   1      49.726  26.160  29.014  1.00  0.00    -0.206 F 
ATOM     91  C   UNL A   1      51.545  25.779  27.580  1.00  0.00     0.059 A 
ATOM     92  C   UNL A   1      51.356  26.320  25.218  1.00  0.00     0.059 A 
ATOM     93  F   UNL A   1      49.365  27.245  24.394  1.00  0.00    -0.206 F 
ATOM     94  C   UNL A   1      52.091  25.825  26.295  1.00  0.00     0.060 A 
BRANCH  94  95
ATOM     95  S   UNL A   1      53.757  25.180  26.039  1.00  0.00     0.124 S 
ATOM     96  O   UNL A   1      54.325  25.296  27.378  1.00  0.00    -0.237 OA
ATOM     97  O   UNL A   1      53.497  23.820  25.576  1.00  0.00    -0.237 OA
ATOM     98  O   UNL A   1      54.319  26.080  25.037  1.00  0.00    -0.744 OA
ENDBRANCH  94  95
ENDBRANCH  62  87
ENDBRANCH  36  37
ENDBRANCH  28  31
ENDBRANCH  26  27
ENDBRANCH  25  26
ENDBRANCH   1  25
TORSDOF 21
ENDMDL
MODEL 3
REMARK VINA RESULT:     -10.9      1.067      3.506
REMARK SMILES C=CCCC[C@@]1(C(=O)NCCCCNC(=O)c2ccc(-c3c4nc(c(-c5c(F)cc(S(=O)(=O)[O-])cc5F)c5ccc([nH]5)c(-c5c(F)cc(S(=O)(=O)[O-])cc5F)c5nc(c(-c6c(F)cc(S(=O)(=O)[O-])cc6F)c6ccc3[nH]6)C=C5)C=C4)cc2)CCCN(C(=O)OC(C)(C)C)C1
REMARK SMILES IDX 11 1 10 2 9 3 7 4 8 5 6 7 83 8 94 9 84 10 86 11 85 12 5 13
REMARK SMILES IDX 4 14 3 15 2 16 1 17 87 18 88 19 89 20 90 21 91 22 92 23
REMARK SMILES IDX 93 24 12 25 13 26 14 27 15 28 16 30 17 31 18 32 82 33 19 34
REMARK SMILES IDX 81 35 20 36 21 37 22 38 75 39 23 40 80 41 74 42 76 43 24 44
REMARK SMILES IDX 79 45 73 46 72 47 25 49 59 50 38 51 58 52 39 53 42 54 57 55
REMARK SMILES IDX 77 56 40 57 41 58 56 60 78 61 43 62 26 63 27 64 36 65 28 66
REMARK SMILES IDX 29 67 35 68 37 69 30 70 31 71 32 72 33 73 34 74 60 75 61 76
REMARK SMILES IDX 70 77 62 78 63 79 69 80 71 81 64 82 65 83 66 84 67 85 68 86
REMARK SMILES IDX 44 87 45 88 54 89 46 90 47 91 53 92 55 93 48 94 49 95 50 96
REMARK SMILES IDX 51 97 52 98
REMARK H PARENT 9 6 14 29 76 48 42 59
REMARK Flexibility Score: inf
ROOT
ATOM      1  C   UNL A   1      36.498  23.041  25.891  1.00  0.00     0.023 C 
ENDROOT
BRANCH   1   2
ATOM      2  C   UNL A   1      35.650  21.788  26.023  1.00  0.00     0.116 C 
BRANCH   2   3
ATOM      3  N   UNL A   1      34.351  22.051  26.608  1.00  0.00    -0.356 N 
ATOM      4  C   UNL A   1      33.085  22.154  26.151  1.00  0.00     0.228 C 
ATOM      5  O   UNL A   1      32.244  22.293  27.055  1.00  0.00    -0.274 OA
ATOM      6  H   UNL A   1      34.405  22.188  27.581  1.00  0.00     0.163 HD
BRANCH   4   7
ATOM      7  C   UNL A   1      32.593  22.166  24.673  1.00  0.00     0.067 C 
ATOM      8  C   UNL A   1      33.554  22.549  23.523  1.00  0.00     0.020 C 
ATOM      9  C   UNL A   1      31.418  23.159  24.667  1.00  0.00     0.140 C 
ATOM     10  C   UNL A   1      33.736  24.033  23.167  1.00  0.00     0.023 C 
ATOM     11  N   UNL A   1      31.888  24.531  24.775  1.00  0.00    -0.307 N 
ATOM     12  C   UNL A   1      32.652  25.014  23.637  1.00  0.00     0.123 C 
BRANCH   7  13
ATOM     13  C   UNL A   1      32.149  20.664  24.396  1.00  0.00     0.019 C 
BRANCH  13  14
ATOM     14  C   UNL A   1      33.133  19.502  24.636  1.00  0.00     0.005 C 
BRANCH  14  15
ATOM     15  C   UNL A   1      32.915  18.168  23.903  1.00  0.00     0.027 C 
BRANCH  15  16
ATOM     16  C   UNL A   1      33.449  16.939  24.580  1.00  0.00    -0.035 C 
ATOM     17  C   UNL A   1      32.727  16.194  25.427  1.00  0.00     0.004 C 
ENDBRANCH  15  16
ENDBRANCH  14  15
ENDBRANCH  13  14
ENDBRANCH   7  13
BRANCH  11  18
ATOM     18  C   UNL A   1      31.451  25.291  25.856  1.00  0.00     0.410 C 
ATOM     19  O   UNL A   1      30.311  25.216  26.288  1.00  0.00    -0.224 OA
BRANCH  18  20
ATOM     20  O   UNL A   1      32.411  26.102  26.390  1.00  0.00    -0.444 OA
BRANCH  20  21
ATOM     21  C   UNL A   1      32.269  27.551  26.261  1.00  0.00     0.106 C 
ATOM     22  C   UNL A   1      31.303  27.898  25.121  1.00  0.00     0.056 C 
ATOM     23  C   UNL A   1      31.843  28.241  27.572  1.00  0.00     0.056 C 
ATOM     24  C   UNL A   1      33.662  28.082  25.873  1.00  0.00     0.056 C 
ENDBRANCH  20  21
ENDBRANCH  18  20
ENDBRANCH  11  18
ENDBRANCH   4   7
ENDBRANCH   2   3
ENDBRANCH   1   2
BRANCH   1  25
ATOM     25  C   UNL A   1      37.989  22.825  26.030  1.00  0.00     0.023 C 
BRANCH  25  26
ATOM     26  C   UNL A   1      38.739  24.104  26.315  1.00  0.00     0.116 C 
BRANCH  26  27
ATOM     27  N   UNL A   1      40.186  23.973  26.137  1.00  0.00    -0.352 N 
ATOM     28  C   UNL A   1      41.182  24.787  26.638  1.00  0.00     0.251 C 
ATOM     29  H   UNL A   1      40.486  23.210  25.592  1.00  0.00     0.163 HD
ATOM     30  O   UNL A   1      42.354  24.618  26.315  1.00  0.00    -0.269 OA
BRANCH  28  31
ATOM     31  C   UNL A   1      40.793  25.901  27.528  1.00  0.00     0.039 A 
ATOM     32  C   UNL A   1      39.895  25.677  28.574  1.00  0.00     0.014 A 
ATOM     33  C   UNL A   1      41.437  27.129  27.402  1.00  0.00     0.014 A 
ATOM     34  C   UNL A   1      39.730  26.659  29.555  1.00  0.00     0.010 A 
ATOM     35  C   UNL A   1      41.393  28.026  28.455  1.00  0.00     0.010 A 
ATOM     36  C   UNL A   1      40.523  27.817  29.535  1.00  0.00    -0.014 A 
BRANCH  36  37
ATOM     37  C   UNL A   1      40.452  28.874  30.578  1.00  0.00     0.031 A 
ATOM     38  C   UNL A   1      41.368  28.767  31.773  1.00  0.00     0.074 A 
ATOM     39  C   UNL A   1      39.505  29.832  30.531  1.00  0.00     0.049 A 
ATOM     40  N   UNL A   1      41.313  29.388  32.920  1.00  0.00    -0.248 NA
ATOM     41  C   UNL A   1      42.445  27.762  31.690  1.00  0.00     0.031 C 
ATOM     42  C   UNL A   1      38.517  30.010  29.464  1.00  0.00     0.029 A 
ATOM     43  N   UNL A   1      39.203  30.831  31.424  1.00  0.00    -0.354 N 
ATOM     44  C   UNL A   1      42.295  28.800  33.710  1.00  0.00     0.074 A 
ATOM     45  C   UNL A   1      42.881  27.731  32.938  1.00  0.00     0.031 C 
ATOM     46  C   UNL A   1      37.742  31.070  29.749  1.00  0.00     0.029 A 
ATOM     47  C   UNL A   1      38.140  31.616  31.041  1.00  0.00     0.049 A 
ATOM     48  H   UNL A   1      39.702  30.971  32.262  1.00  0.00     0.167 HD
ATOM     49  C   UNL A   1      42.699  29.145  34.955  1.00  0.00     0.037 A 
ATOM     50  C   UNL A   1      37.550  32.651  31.671  1.00  0.00     0.037 A 
ATOM     51  C   UNL A   1      42.183  30.283  35.666  1.00  0.00     0.049 A 
ATOM     52  C   UNL A   1      38.073  33.075  33.019  1.00  0.00     0.074 A 
ATOM     53  C   UNL A   1      42.587  30.790  36.887  1.00  0.00     0.029 A 
ATOM     54  N   UNL A   1      41.171  31.109  35.199  1.00  0.00    -0.354 N 
ATOM     55  N   UNL A   1      39.029  32.536  33.738  1.00  0.00    -0.248 NA
ATOM     56  C   UNL A   1      37.442  34.247  33.642  1.00  0.00     0.031 C 
ATOM     57  C   UNL A   1      41.804  31.914  37.169  1.00  0.00     0.029 A 
ATOM     58  C   UNL A   1      40.938  32.126  36.106  1.00  0.00     0.049 A 
ATOM     59  H   UNL A   1      40.691  30.988  34.348  1.00  0.00     0.167 HD
ATOM     60  C   UNL A   1      39.136  33.319  34.880  1.00  0.00     0.074 A 
ATOM     61  C   UNL A   1      38.150  34.374  34.757  1.00  0.00     0.031 C 
ATOM     62  C   UNL A   1      39.972  33.182  35.938  1.00  0.00     0.037 A 
BRANCH  49  63
ATOM     63  C   UNL A   1      43.768  28.309  35.602  1.00  0.00     0.058 A 
ATOM     64  C   UNL A   1      45.133  28.537  35.359  1.00  0.00     0.135 A 
ATOM     65  C   UNL A   1      43.426  27.271  36.483  1.00  0.00     0.135 A 
ATOM     66  F   UNL A   1      45.516  29.504  34.512  1.00  0.00    -0.206 F 
ATOM     67  C   UNL A   1      46.117  27.741  35.933  1.00  0.00     0.059 A 
ATOM     68  C   UNL A   1      44.397  26.483  37.096  1.00  0.00     0.059 A 
ATOM     69  F   UNL A   1      42.137  27.007  36.750  1.00  0.00    -0.206 F 
ATOM     70  C   UNL A   1      45.739  26.714  36.799  1.00  0.00     0.060 A 
BRANCH  70  71
ATOM     71  S   UNL A   1      47.030  25.691  37.537  1.00  0.00     0.124 S 
ATOM     72  O   UNL A   1      46.492  24.351  37.330  1.00  0.00    -0.237 OA
ATOM     73  O   UNL A   1      48.199  26.035  36.734  1.00  0.00    -0.237 OA
ATOM     74  O   UNL A   1      47.070  26.144  38.924  1.00  0.00    -0.744 OA
ENDBRANCH  70  71
ENDBRANCH  49  63
BRANCH  50  75
ATOM     75  C   UNL A   1      36.428  33.382  31.022  1.00  0.00     0.058 A 
ATOM     76  C   UNL A   1      36.660  34.207  29.911  1.00  0.00     0.135 A 
ATOM     77  C   UNL A   1      35.108  33.268  31.485  1.00  0.00     0.135 A 
ATOM     78  F   UNL A   1      37.906  34.353  29.433  1.00  0.00    -0.206 F 
ATOM     79  C   UNL A   1      35.628  34.907  29.292  1.00  0.00     0.059 A 
ATOM     80  C   UNL A   1      34.055  33.941  30.868  1.00  0.00     0.059 A 
ATOM     81  F   UNL A   1      34.828  32.478  32.533  1.00  0.00    -0.206 F 
ATOM     82  C   UNL A   1      34.328  34.767  29.778  1.00  0.00     0.060 A 
BRANCH  82  83
ATOM     83  S   UNL A   1      32.992  35.648  28.940  1.00  0.00     0.124 S 
ATOM     84  O   UNL A   1      32.394  34.585  28.142  1.00  0.00    -0.237 OA
ATOM     85  O   UNL A   1      32.192  36.130  30.062  1.00  0.00    -0.237 OA
ATOM     86  O   UNL A   1      33.694  36.685  28.190  1.00  0.00    -0.744 OA
ENDBRANCH  82  83
ENDBRANCH  50  75
BRANCH  62  87
ATOM     87  C   UNL A   1      39.904  34.218  37.021  1.00  0.00     0.058 A 
ATOM     88  C   UNL A   1      40.542  35.459  36.891  1.00  0.00     0.135 A 
ATOM     89  C   UNL A   1      39.105  33.999  38.155  1.00  0.00     0.135 A 
ATOM     90  F   UNL A   1      41.321  35.711  35.827  1.00  0.00    -0.206 F 
ATOM     91  C   UNL A   1      40.393  36.452  37.852  1.00  0.00     0.059 A 
ATOM     92  C   UNL A   1      38.923  34.987  39.117  1.00  0.00     0.059 A 
ATOM     93  F   UNL A   1      38.465  32.830  38.317  1.00  0.00    -0.206 F 
ATOM     94  C   UNL A   1      39.575  36.209  38.958  1.00  0.00     0.060 A 
BRANCH  94  95
ATOM     95  S   UNL A   1      39.331  37.532  40.161  1.00  0.00     0.124 S 
ATOM     96  O   UNL A   1      38.266  38.307  39.532  1.00  0.00    -0.237 OA
ATOM     97  O   UNL A   1      38.954  36.796  41.363  1.00  0.00    -0.237 OA
ATOM     98  O   UNL A   1      40.635  38.185  40.217  1.00  0.00    -0.744 OA
ENDBRANCH  94  95
ENDBRANCH  62  87
ENDBRANCH  36  37
ENDBRANCH  28  31
ENDBRANCH  26  27
ENDBRANCH  25  26
ENDBRANCH   1  25
TORSDOF 21
ENDMDL
