MODEL 1
REMARK VINA RESULT:     -11.3      0.000      0.000
REMARK SMILES Cc1nc([C@]2(C)CCCO2)nc(C)c1C(=O)NCCCCNC(=O)c1ccc(-c2c3nc(c(-c4c(F)cc(S(=O)(=O)[O-])cc4F)c4ccc([nH]4)c(-c4c(F)cc(S(=O)(=O)[O-])cc4F)c4nc(c(-c5c(F)cc(S(=O)(=O)[O-])cc5F)c5ccc2[nH]5)C=C4)C=C3)cc1
REMARK SMILES IDX 20 1 19 2 18 3 17 4 15 5 16 6 14 8 1 9 2 10 3 11 4 12 12 13
REMARK SMILES IDX 11 14 13 15 5 16 7 17 10 18 6 19 8 20 9 21 21 22 22 23 23 24
REMARK SMILES IDX 24 26 25 27 26 28 90 29 27 30 89 31 28 32 29 33 30 34 83 35
REMARK SMILES IDX 31 36 88 37 82 38 84 39 32 40 87 41 81 42 80 43 33 45 67 46
REMARK SMILES IDX 46 47 66 48 47 49 50 50 65 51 85 52 48 53 49 54 64 56 86 57
REMARK SMILES IDX 51 58 34 59 35 60 44 61 36 62 37 63 43 64 45 65 38 66 39 67
REMARK SMILES IDX 40 68 41 69 42 70 68 71 69 72 78 73 70 74 71 75 77 76 79 77
REMARK SMILES IDX 72 78 73 79 74 80 75 81 76 82 52 83 53 84 62 85 54 86 55 87
REMARK SMILES IDX 61 88 63 89 56 90 57 91 58 92 59 93 60 94
REMARK H PARENT 17 7 22 25 84 44 50 55
REMARK Flexibility Score: inf
ROOT
ATOM      1  C   UNL A   1      33.808  28.389  25.754  1.00  0.00     0.023 C 
ENDROOT
BRANCH   1   2
ATOM      2  C   UNL A   1      33.062  29.418  24.908  1.00  0.00     0.023 C 
BRANCH   2   3
ATOM      3  C   UNL A   1      32.731  28.975  23.479  1.00  0.00     0.116 C 
BRANCH   3   4
ATOM      4  N   UNL A   1      31.536  28.164  23.462  1.00  0.00    -0.352 N 
ATOM      5  C   UNL A   1      31.169  26.856  23.601  1.00  0.00     0.254 C 
ATOM      6  O   UNL A   1      29.959  26.715  23.382  1.00  0.00    -0.269 OA
ATOM      7  H   UNL A   1      30.744  28.726  23.300  1.00  0.00     0.163 HD
BRANCH   5   8
ATOM      8  C   UNL A   1      31.980  25.639  23.968  1.00  0.00     0.082 A 
ATOM      9  C   UNL A   1      31.530  25.367  26.506  1.00  0.00     0.068 C 
ATOM     10  C   UNL A   1      32.141  25.012  25.201  1.00  0.00     0.054 A 
ATOM     11  N   UNL A   1      32.975  23.955  25.394  1.00  0.00    -0.234 NA
ATOM     12  C   UNL A   1      33.735  23.509  24.391  1.00  0.00     0.160 A 
ATOM     13  C   UNL A   1      32.783  25.055  22.958  1.00  0.00     0.054 A 
ATOM     14  N   UNL A   1      33.639  24.010  23.161  1.00  0.00    -0.234 NA
ATOM     15  C   UNL A   1      32.831  25.528  21.526  1.00  0.00     0.068 C 
BRANCH  12  16
ATOM     16  C   UNL A   1      34.771  22.425  24.717  1.00  0.00     0.125 C 
ATOM     17  C   UNL A   1      35.480  22.689  26.047  1.00  0.00     0.046 C 
ATOM     18  O   UNL A   1      35.845  22.448  23.739  1.00  0.00    -0.367 OA
ATOM     19  C   UNL A   1      34.160  21.023  24.680  1.00  0.00     0.051 C 
ATOM     20  C   UNL A   1      36.608  23.628  25.677  1.00  0.00     0.032 C 
ATOM     21  C   UNL A   1      36.880  23.320  24.216  1.00  0.00     0.161 C 
ENDBRANCH  12  16
ENDBRANCH   5   8
ENDBRANCH   3   4
ENDBRANCH   2   3
ENDBRANCH   1   2
BRANCH   1  22
ATOM     22  C   UNL A   1      33.599  28.534  27.255  1.00  0.00     0.116 C 
BRANCH  22  23
ATOM     23  N   UNL A   1      33.527  29.916  27.714  1.00  0.00    -0.352 N 
ATOM     24  C   UNL A   1      34.542  30.662  28.267  1.00  0.00     0.251 C 
ATOM     25  H   UNL A   1      32.656  30.363  27.619  1.00  0.00     0.163 HD
ATOM     26  O   UNL A   1      34.340  31.801  28.673  1.00  0.00    -0.269 OA
BRANCH  24  27
ATOM     27  C   UNL A   1      35.865  30.027  28.412  1.00  0.00     0.039 A 
ATOM     28  C   UNL A   1      36.757  30.083  27.341  1.00  0.00     0.014 A 
ATOM     29  C   UNL A   1      36.254  29.500  29.646  1.00  0.00     0.014 A 
ATOM     30  C   UNL A   1      38.078  29.679  27.533  1.00  0.00     0.010 A 
ATOM     31  C   UNL A   1      37.586  29.167  29.854  1.00  0.00     0.010 A 
ATOM     32  C   UNL A   1      38.511  29.261  28.803  1.00  0.00    -0.014 A 
BRANCH  32  33
ATOM     33  C   UNL A   1      39.933  28.925  29.056  1.00  0.00     0.031 A 
ATOM     34  C   UNL A   1      40.854  29.965  29.625  1.00  0.00     0.074 A 
ATOM     35  C   UNL A   1      40.405  27.715  28.699  1.00  0.00     0.049 A 
ATOM     36  N   UNL A   1      42.140  29.895  29.846  1.00  0.00    -0.248 NA
ATOM     37  C   UNL A   1      40.256  31.269  29.959  1.00  0.00     0.031 C 
ATOM     38  C   UNL A   1      39.619  26.646  28.076  1.00  0.00     0.029 A 
ATOM     39  N   UNL A   1      41.664  27.182  28.799  1.00  0.00    -0.354 N 
ATOM     40  C   UNL A   1      42.510  31.146  30.324  1.00  0.00     0.074 A 
ATOM     41  C   UNL A   1      41.321  31.972  30.313  1.00  0.00     0.031 C 
ATOM     42  C   UNL A   1      40.409  25.580  27.872  1.00  0.00     0.029 A 
ATOM     43  C   UNL A   1      41.761  25.897  28.320  1.00  0.00     0.049 A 
ATOM     44  H   UNL A   1      42.429  27.674  29.177  1.00  0.00     0.167 HD
ATOM     45  C   UNL A   1      43.723  31.561  30.756  1.00  0.00     0.037 A 
ATOM     46  C   UNL A   1      42.822  25.069  28.252  1.00  0.00     0.037 A 
ATOM     47  C   UNL A   1      44.889  30.720  30.806  1.00  0.00     0.049 A 
ATOM     48  C   UNL A   1      44.152  25.541  28.770  1.00  0.00     0.074 A 
ATOM     49  C   UNL A   1      46.145  31.019  31.303  1.00  0.00     0.029 A 
ATOM     50  N   UNL A   1      44.940  29.414  30.344  1.00  0.00    -0.354 N 
ATOM     51  N   UNL A   1      44.468  26.705  29.286  1.00  0.00    -0.248 NA
ATOM     52  C   UNL A   1      45.269  24.589  28.699  1.00  0.00     0.031 C 
ATOM     53  C   UNL A   1      46.964  29.900  31.116  1.00  0.00     0.029 A 
ATOM     54  C   UNL A   1      46.210  28.895  30.530  1.00  0.00     0.049 A 
ATOM     55  H   UNL A   1      44.184  28.927  29.943  1.00  0.00     0.167 HD
ATOM     56  C   UNL A   1      45.815  26.622  29.614  1.00  0.00     0.074 A 
ATOM     57  C   UNL A   1      46.251  25.287  29.254  1.00  0.00     0.031 C 
ATOM     58  C   UNL A   1      46.621  27.564  30.163  1.00  0.00     0.037 A 
BRANCH  45  59
ATOM     59  C   UNL A   1      43.838  32.983  31.225  1.00  0.00     0.058 A 
ATOM     60  C   UNL A   1      43.618  33.331  32.568  1.00  0.00     0.135 A 
ATOM     61  C   UNL A   1      44.175  34.007  30.327  1.00  0.00     0.135 A 
ATOM     62  F   UNL A   1      43.275  32.391  33.463  1.00  0.00    -0.206 F 
ATOM     63  C   UNL A   1      43.695  34.651  32.998  1.00  0.00     0.059 A 
ATOM     64  C   UNL A   1      44.282  35.332  30.741  1.00  0.00     0.059 A 
ATOM     65  F   UNL A   1      44.391  33.728  29.033  1.00  0.00    -0.206 F 
ATOM     66  C   UNL A   1      44.022  35.645  32.074  1.00  0.00     0.060 A 
BRANCH  66  67
ATOM     67  S   UNL A   1      44.107  37.356  32.643  1.00  0.00     0.124 S 
ATOM     68  O   UNL A   1      45.480  37.430  33.135  1.00  0.00    -0.237 OA
ATOM     69  O   UNL A   1      43.831  38.108  31.423  1.00  0.00    -0.237 OA
ATOM     70  O   UNL A   1      43.069  37.425  33.666  1.00  0.00    -0.744 OA
ENDBRANCH  66  67
ENDBRANCH  45  59
BRANCH  46  71
ATOM     71  C   UNL A   1      42.660  23.699  27.701  1.00  0.00     0.058 A 
ATOM     72  C   UNL A   1      42.497  22.598  28.553  1.00  0.00     0.135 A 
ATOM     73  C   UNL A   1      42.649  23.465  26.317  1.00  0.00     0.135 A 
ATOM     74  F   UNL A   1      42.506  22.773  29.883  1.00  0.00    -0.206 F 
ATOM     75  C   UNL A   1      42.339  21.309  28.056  1.00  0.00     0.059 A 
ATOM     76  C   UNL A   1      42.474  22.187  25.795  1.00  0.00     0.059 A 
ATOM     77  F   UNL A   1      42.785  24.490  25.461  1.00  0.00    -0.206 F 
ATOM     78  C   UNL A   1      42.330  21.114  26.674  1.00  0.00     0.060 A 
BRANCH  78  79
ATOM     79  S   UNL A   1      42.070  19.444  26.034  1.00  0.00     0.124 S 
ATOM     80  O   UNL A   1      42.541  18.627  27.147  1.00  0.00    -0.237 OA
ATOM     81  O   UNL A   1      40.630  19.426  25.792  1.00  0.00    -0.237 OA
ATOM     82  O   UNL A   1      42.898  19.416  24.832  1.00  0.00    -0.744 OA
ENDBRANCH  78  79
ENDBRANCH  46  71
BRANCH  58  83
ATOM     83  C   UNL A   1      48.050  27.183  30.417  1.00  0.00     0.058 A 
ATOM     84  C   UNL A   1      49.053  27.443  29.471  1.00  0.00     0.135 A 
ATOM     85  C   UNL A   1      48.430  26.607  31.639  1.00  0.00     0.135 A 
ATOM     86  F   UNL A   1      48.738  27.986  28.284  1.00  0.00    -0.206 F 
ATOM     87  C   UNL A   1      50.385  27.132  29.723  1.00  0.00     0.059 A 
ATOM     88  C   UNL A   1      49.758  26.307  31.921  1.00  0.00     0.059 A 
ATOM     89  F   UNL A   1      47.506  26.347  32.579  1.00  0.00    -0.206 F 
ATOM     90  C   UNL A   1      50.728  26.566  30.952  1.00  0.00     0.060 A 
BRANCH  90  91
ATOM     91  S   UNL A   1      52.465  26.207  31.288  1.00  0.00     0.124 S 
ATOM     92  O   UNL A   1      52.380  24.876  31.878  1.00  0.00    -0.237 OA
ATOM     93  O   UNL A   1      53.063  26.274  29.958  1.00  0.00    -0.237 OA
ATOM     94  O   UNL A   1      52.861  27.276  32.200  1.00  0.00    -0.744 OA
ENDBRANCH  90  91
ENDBRANCH  58  83
ENDBRANCH  32  33
ENDBRANCH  24  27
ENDBRANCH  22  23
ENDBRANCH   1  22
TORSDOF 15
ENDMDL
MODEL 2
REMARK VINA RESULT:     -11.1      4.896     10.543
REMARK SMILES Cc1nc([C@]2(C)CCCO2)nc(C)c1C(=O)NCCCCNC(=O)c1ccc(-c2c3nc(c(-c4c(F)cc(S(=O)(=O)[O-])cc4F)c4ccc([nH]4)c(-c4c(F)cc(S(=O)(=O)[O-])cc4F)c4nc(c(-c5c(F)cc(S(=O)(=O)[O-])cc5F)c5ccc2[nH]5)C=C4)C=C3)cc1
REMARK SMILES IDX 20 1 19 2 18 3 17 4 15 5 16 6 14 8 1 9 2 10 3 11 4 12 12 13
REMARK SMILES IDX 11 14 13 15 5 16 7 17 10 18 6 19 8 20 9 21 21 22 22 23 23 24
REMARK SMILES IDX 24 26 25 27 26 28 90 29 27 30 89 31 28 32 29 33 30 34 83 35
REMARK SMILES IDX 31 36 88 37 82 38 84 39 32 40 87 41 81 42 80 43 33 45 67 46
REMARK SMILES IDX 46 47 66 48 47 49 50 50 65 51 85 52 48 53 49 54 64 56 86 57
REMARK SMILES IDX 51 58 34 59 35 60 44 61 36 62 37 63 43 64 45 65 38 66 39 67
REMARK SMILES IDX 40 68 41 69 42 70 68 71 69 72 78 73 70 74 71 75 77 76 79 77
REMARK SMILES IDX 72 78 73 79 74 80 75 81 76 82 52 83 53 84 62 85 54 86 55 87
REMARK SMILES IDX 61 88 63 89 56 90 57 91 58 92 59 93 60 94
REMARK H PARENT 17 7 22 25 84 44 50 55
REMARK Flexibility Score: inf
ROOT
ATOM      1  C   UNL A   1      37.226  23.732  25.272  1.00  0.00     0.023 C 
ENDROOT
BRANCH   1   2
ATOM      2  C   UNL A   1      37.425  22.312  24.746  1.00  0.00     0.023 C 
BRANCH   2   3
ATOM      3  C   UNL A   1      36.964  21.194  25.687  1.00  0.00     0.116 C 
BRANCH   3   4
ATOM      4  N   UNL A   1      35.756  20.578  25.191  1.00  0.00    -0.352 N 
ATOM      5  C   UNL A   1      34.456  20.907  24.931  1.00  0.00     0.254 C 
ATOM      6  O   UNL A   1      33.809  19.907  24.596  1.00  0.00    -0.269 OA
ATOM      7  H   UNL A   1      35.917  19.632  24.975  1.00  0.00     0.163 HD
BRANCH   5   8
ATOM      8  C   UNL A   1      33.748  22.238  24.984  1.00  0.00     0.082 A 
ATOM      9  C   UNL A   1      33.885  23.083  22.537  1.00  0.00     0.068 C 
ATOM     10  C   UNL A   1      33.512  23.165  23.972  1.00  0.00     0.054 A 
ATOM     11  N   UNL A   1      32.919  24.370  24.190  1.00  0.00    -0.234 NA
ATOM     12  C   UNL A   1      32.587  24.738  25.429  1.00  0.00     0.160 A 
ATOM     13  C   UNL A   1      33.306  22.697  26.249  1.00  0.00     0.054 A 
ATOM     14  N   UNL A   1      32.734  23.918  26.469  1.00  0.00    -0.234 NA
ATOM     15  C   UNL A   1      33.439  21.918  27.533  1.00  0.00     0.068 C 
BRANCH  12  16
ATOM     16  C   UNL A   1      32.075  26.171  25.628  1.00  0.00     0.125 C 
ATOM     17  C   UNL A   1      32.264  27.027  24.375  1.00  0.00     0.046 C 
ATOM     18  O   UNL A   1      32.866  26.851  26.639  1.00  0.00    -0.367 OA
ATOM     19  C   UNL A   1      30.621  26.195  26.106  1.00  0.00     0.051 C 
ATOM     20  C   UNL A   1      33.683  27.540  24.496  1.00  0.00     0.032 C 
ATOM     21  C   UNL A   1      33.953  27.527  25.989  1.00  0.00     0.161 C 
ENDBRANCH  12  16
ENDBRANCH   5   8
ENDBRANCH   3   4
ENDBRANCH   2   3
ENDBRANCH   1   2
BRANCH   1  22
ATOM     22  C   UNL A   1      38.136  24.110  26.431  1.00  0.00     0.116 C 
BRANCH  22  23
ATOM     23  N   UNL A   1      39.552  23.869  26.178  1.00  0.00    -0.352 N 
ATOM     24  C   UNL A   1      40.618  24.581  26.674  1.00  0.00     0.251 C 
ATOM     25  H   UNL A   1      39.767  23.112  25.587  1.00  0.00     0.163 HD
ATOM     26  O   UNL A   1      41.767  24.316  26.336  1.00  0.00    -0.269 OA
BRANCH  24  27
ATOM     27  C   UNL A   1      40.333  25.714  27.574  1.00  0.00     0.039 A 
ATOM     28  C   UNL A   1      39.433  25.526  28.624  1.00  0.00     0.014 A 
ATOM     29  C   UNL A   1      41.054  26.904  27.448  1.00  0.00     0.014 A 
ATOM     30  C   UNL A   1      39.315  26.512  29.603  1.00  0.00     0.010 A 
ATOM     31  C   UNL A   1      40.987  27.851  28.462  1.00  0.00     0.010 A 
ATOM     32  C   UNL A   1      40.124  27.660  29.552  1.00  0.00    -0.014 A 
BRANCH  32  33
ATOM     33  C   UNL A   1      40.088  28.671  30.635  1.00  0.00     0.031 A 
ATOM     34  C   UNL A   1      40.986  28.516  31.829  1.00  0.00     0.074 A 
ATOM     35  C   UNL A   1      39.195  29.678  30.577  1.00  0.00     0.049 A 
ATOM     36  N   UNL A   1      41.050  29.245  32.911  1.00  0.00    -0.248 NA
ATOM     37  C   UNL A   1      41.910  27.370  31.819  1.00  0.00     0.031 C 
ATOM     38  C   UNL A   1      38.227  29.894  29.499  1.00  0.00     0.029 A 
ATOM     39  N   UNL A   1      38.949  30.706  31.452  1.00  0.00    -0.354 N 
ATOM     40  C   UNL A   1      42.004  28.637  33.719  1.00  0.00     0.074 A 
ATOM     41  C   UNL A   1      42.454  27.450  33.023  1.00  0.00     0.031 C 
ATOM     42  C   UNL A   1      37.508  30.997  29.766  1.00  0.00     0.029 A 
ATOM     43  C   UNL A   1      37.944  31.550  31.044  1.00  0.00     0.049 A 
ATOM     44  H   UNL A   1      39.445  30.827  32.293  1.00  0.00     0.167 HD
ATOM     45  C   UNL A   1      42.479  29.044  34.919  1.00  0.00     0.037 A 
ATOM     46  C   UNL A   1      37.431  32.647  31.637  1.00  0.00     0.037 A 
ATOM     47  C   UNL A   1      42.058  30.248  35.583  1.00  0.00     0.049 A 
ATOM     48  C   UNL A   1      37.999  33.098  32.954  1.00  0.00     0.074 A 
ATOM     49  C   UNL A   1      42.536  30.793  36.762  1.00  0.00     0.029 A 
ATOM     50  N   UNL A   1      41.062  31.096  35.123  1.00  0.00    -0.354 N 
ATOM     51  N   UNL A   1      38.952  32.550  33.670  1.00  0.00    -0.248 NA
ATOM     52  C   UNL A   1      37.425  34.316  33.542  1.00  0.00     0.031 C 
ATOM     53  C   UNL A   1      41.808  31.958  37.029  1.00  0.00     0.029 A 
ATOM     54  C   UNL A   1      40.898  32.153  36.001  1.00  0.00     0.049 A 
ATOM     55  H   UNL A   1      40.547  30.965  34.294  1.00  0.00     0.167 HD
ATOM     56  C   UNL A   1      39.102  33.363  34.786  1.00  0.00     0.074 A 
ATOM     57  C   UNL A   1      38.153  34.449  34.643  1.00  0.00     0.031 C 
ATOM     58  C   UNL A   1      39.947  33.223  35.838  1.00  0.00     0.037 A 
BRANCH  45  59
ATOM     59  C   UNL A   1      43.520  28.183  35.575  1.00  0.00     0.058 A 
ATOM     60  C   UNL A   1      43.170  27.204  36.519  1.00  0.00     0.135 A 
ATOM     61  C   UNL A   1      44.877  28.333  35.255  1.00  0.00     0.135 A 
ATOM     62  F   UNL A   1      41.887  27.034  36.874  1.00  0.00    -0.206 F 
ATOM     63  C   UNL A   1      44.135  26.426  37.149  1.00  0.00     0.059 A 
ATOM     64  C   UNL A   1      45.858  27.547  35.855  1.00  0.00     0.059 A 
ATOM     65  F   UNL A   1      45.265  29.256  34.362  1.00  0.00    -0.206 F 
ATOM     66  C   UNL A   1      45.478  26.609  36.814  1.00  0.00     0.060 A 
BRANCH  66  67
ATOM     67  S   UNL A   1      46.721  25.601  37.648  1.00  0.00     0.124 S 
ATOM     68  O   UNL A   1      47.907  26.443  37.524  1.00  0.00    -0.237 OA
ATOM     69  O   UNL A   1      46.173  25.474  38.995  1.00  0.00    -0.237 OA
ATOM     70  O   UNL A   1      46.740  24.370  36.863  1.00  0.00    -0.744 OA
ENDBRANCH  66  67
ENDBRANCH  45  59
BRANCH  46  71
ATOM     71  C   UNL A   1      36.344  33.410  30.972  1.00  0.00     0.058 A 
ATOM     72  C   UNL A   1      35.036  33.379  31.476  1.00  0.00     0.135 A 
ATOM     73  C   UNL A   1      36.591  34.193  29.835  1.00  0.00     0.135 A 
ATOM     74  F   UNL A   1      34.752  32.640  32.559  1.00  0.00    -0.206 F 
ATOM     75  C   UNL A   1      34.005  34.090  30.871  1.00  0.00     0.059 A 
ATOM     76  C   UNL A   1      35.580  34.929  29.223  1.00  0.00     0.059 A 
ATOM     77  F   UNL A   1      37.830  34.267  29.325  1.00  0.00    -0.206 F 
ATOM     78  C   UNL A   1      34.288  34.863  29.743  1.00  0.00     0.060 A 
BRANCH  78  79
ATOM     79  S   UNL A   1      32.956  35.826  28.995  1.00  0.00     0.124 S 
ATOM     80  O   UNL A   1      32.164  36.190  30.164  1.00  0.00    -0.237 OA
ATOM     81  O   UNL A   1      33.685  36.916  28.353  1.00  0.00    -0.237 OA
ATOM     82  O   UNL A   1      32.333  34.876  28.077  1.00  0.00    -0.744 OA
ENDBRANCH  78  79
ENDBRANCH  46  71
BRANCH  58  83
ATOM     83  C   UNL A   1      39.892  34.274  36.908  1.00  0.00     0.058 A 
ATOM     84  C   UNL A   1      40.593  35.483  36.779  1.00  0.00     0.135 A 
ATOM     85  C   UNL A   1      39.084  34.098  38.042  1.00  0.00     0.135 A 
ATOM     86  F   UNL A   1      41.385  35.695  35.715  1.00  0.00    -0.206 F 
ATOM     87  C   UNL A   1      40.507  36.477  37.748  1.00  0.00     0.059 A 
ATOM     88  C   UNL A   1      38.967  35.086  39.013  1.00  0.00     0.059 A 
ATOM     89  F   UNL A   1      38.387  32.961  38.204  1.00  0.00    -0.206 F 
ATOM     90  C   UNL A   1      39.689  36.270  38.860  1.00  0.00     0.060 A 
BRANCH  90  91
ATOM     91  S   UNL A   1      39.549  37.584  40.090  1.00  0.00     0.124 S 
ATOM     92  O   UNL A   1      40.905  38.122  40.100  1.00  0.00    -0.237 OA
ATOM     93  O   UNL A   1      38.527  38.451  39.510  1.00  0.00    -0.237 OA
ATOM     94  O   UNL A   1      39.144  36.874  41.299  1.00  0.00    -0.744 OA
ENDBRANCH  90  91
ENDBRANCH  58  83
ENDBRANCH  32  33
ENDBRANCH  24  27
ENDBRANCH  22  23
ENDBRANCH   1  22
TORSDOF 15
ENDMDL
MODEL 3
REMARK VINA RESULT:     -10.9      4.908     10.566
REMARK SMILES Cc1nc([C@]2(C)CCCO2)nc(C)c1C(=O)NCCCCNC(=O)c1ccc(-c2c3nc(c(-c4c(F)cc(S(=O)(=O)[O-])cc4F)c4ccc([nH]4)c(-c4c(F)cc(S(=O)(=O)[O-])cc4F)c4nc(c(-c5c(F)cc(S(=O)(=O)[O-])cc5F)c5ccc2[nH]5)C=C4)C=C3)cc1
REMARK SMILES IDX 20 1 19 2 18 3 17 4 15 5 16 6 14 8 1 9 2 10 3 11 4 12 12 13
REMARK SMILES IDX 11 14 13 15 5 16 7 17 10 18 6 19 8 20 9 21 21 22 22 23 23 24
REMARK SMILES IDX 24 26 25 27 26 28 90 29 27 30 89 31 28 32 29 33 30 34 83 35
REMARK SMILES IDX 31 36 88 37 82 38 84 39 32 40 87 41 81 42 80 43 33 45 67 46
REMARK SMILES IDX 46 47 66 48 47 49 50 50 65 51 85 52 48 53 49 54 64 56 86 57
REMARK SMILES IDX 51 58 34 59 35 60 44 61 36 62 37 63 43 64 45 65 38 66 39 67
REMARK SMILES IDX 40 68 41 69 42 70 68 71 69 72 78 73 70 74 71 75 77 76 79 77
REMARK SMILES IDX 72 78 73 79 74 80 75 81 76 82 52 83 53 84 62 85 54 86 55 87
REMARK SMILES IDX 61 88 63 89 56 90 57 91 58 92 59 93 60 94
REMARK H PARENT 17 7 22 25 84 44 50 55
REMARK Flexibility Score: inf
ROOT
ATOM      1  C   UNL A   1      40.853  22.092  27.699  1.00  0.00     0.023 C 
ENDROOT
BRANCH   1   2
ATOM      2  C   UNL A   1      40.204  21.444  26.479  1.00  0.00     0.023 C 
BRANCH   2   3
ATOM      3  C   UNL A   1      38.921  22.120  25.983  1.00  0.00     0.116 C 
BRANCH   3   4
ATOM      4  N   UNL A   1      37.963  21.133  25.543  1.00  0.00    -0.352 N 
ATOM      5  C   UNL A   1      36.635  21.039  25.242  1.00  0.00     0.254 C 
ATOM      6  O   UNL A   1      36.320  19.866  25.004  1.00  0.00    -0.269 OA
ATOM      7  H   UNL A   1      38.402  20.260  25.423  1.00  0.00     0.163 HD
BRANCH   5   8
ATOM      8  C   UNL A   1      35.567  22.101  25.158  1.00  0.00     0.082 A 
ATOM      9  C   UNL A   1      34.059  21.592  27.204  1.00  0.00     0.068 C 
ATOM     10  C   UNL A   1      34.469  22.331  25.984  1.00  0.00     0.054 A 
ATOM     11  N   UNL A   1      33.539  23.292  25.734  1.00  0.00    -0.234 NA
ATOM     12  C   UNL A   1      33.618  24.028  24.623  1.00  0.00     0.160 A 
ATOM     13  C   UNL A   1      35.592  22.971  24.041  1.00  0.00     0.054 A 
ATOM     14  N   UNL A   1      34.643  23.918  23.779  1.00  0.00    -0.234 NA
ATOM     15  C   UNL A   1      36.650  22.951  22.967  1.00  0.00     0.068 C 
BRANCH  12  16
ATOM     16  C   UNL A   1      32.452  24.978  24.320  1.00  0.00     0.125 C 
ATOM     17  C   UNL A   1      32.900  26.198  23.513  1.00  0.00     0.046 C 
ATOM     18  O   UNL A   1      31.933  25.546  25.553  1.00  0.00    -0.367 OA
ATOM     19  C   UNL A   1      31.290  24.253  23.636  1.00  0.00     0.051 C 
ATOM     20  C   UNL A   1      33.389  27.169  24.565  1.00  0.00     0.032 C 
ATOM     21  C   UNL A   1      32.624  26.776  25.815  1.00  0.00     0.161 C 
ENDBRANCH  12  16
ENDBRANCH   5   8
ENDBRANCH   3   4
ENDBRANCH   2   3
ENDBRANCH   1   2
BRANCH   1  22
ATOM     22  C   UNL A   1      41.961  23.083  27.375  1.00  0.00     0.116 C 
BRANCH  22  23
ATOM     23  N   UNL A   1      41.705  23.894  26.191  1.00  0.00    -0.352 N 
ATOM     24  C   UNL A   1      41.419  25.239  26.150  1.00  0.00     0.251 C 
ATOM     25  H   UNL A   1      41.739  23.427  25.326  1.00  0.00     0.163 HD
ATOM     26  O   UNL A   1      41.161  25.798  25.090  1.00  0.00    -0.269 OA
BRANCH  24  27
ATOM     27  C   UNL A   1      41.373  25.973  27.428  1.00  0.00     0.039 A 
ATOM     28  C   UNL A   1      42.399  26.872  27.723  1.00  0.00     0.014 A 
ATOM     29  C   UNL A   1      40.253  25.862  28.256  1.00  0.00     0.014 A 
ATOM     30  C   UNL A   1      42.263  27.724  28.818  1.00  0.00     0.010 A 
ATOM     31  C   UNL A   1      40.088  26.761  29.302  1.00  0.00     0.010 A 
ATOM     32  C   UNL A   1      41.087  27.705  29.587  1.00  0.00    -0.014 A 
BRANCH  32  33
ATOM     33  C   UNL A   1      40.877  28.671  30.692  1.00  0.00     0.031 A 
ATOM     34  C   UNL A   1      41.689  28.552  31.950  1.00  0.00     0.074 A 
ATOM     35  C   UNL A   1      39.905  29.599  30.590  1.00  0.00     0.049 A 
ATOM     36  N   UNL A   1      41.604  29.245  33.054  1.00  0.00    -0.248 NA
ATOM     37  C   UNL A   1      42.708  27.490  31.982  1.00  0.00     0.031 C 
ATOM     38  C   UNL A   1      39.009  29.767  29.443  1.00  0.00     0.029 A 
ATOM     39  N   UNL A   1      39.502  30.570  31.470  1.00  0.00    -0.354 N 
ATOM     40  C   UNL A   1      42.541  28.694  33.918  1.00  0.00     0.074 A 
ATOM     41  C   UNL A   1      43.148  27.575  33.229  1.00  0.00     0.031 C 
ATOM     42  C   UNL A   1      38.177  30.795  29.682  1.00  0.00     0.029 A 
ATOM     43  C   UNL A   1      38.460  31.338  31.007  1.00  0.00     0.049 A 
ATOM     44  H   UNL A   1      39.918  30.704  32.353  1.00  0.00     0.167 HD
ATOM     45  C   UNL A   1      42.883  29.098  35.164  1.00  0.00     0.037 A 
ATOM     46  C   UNL A   1      37.808  32.365  31.586  1.00  0.00     0.037 A 
ATOM     47  C   UNL A   1      42.306  30.237  35.825  1.00  0.00     0.049 A 
ATOM     48  C   UNL A   1      38.228  32.817  32.957  1.00  0.00     0.074 A 
ATOM     49  C   UNL A   1      42.640  30.780  37.054  1.00  0.00     0.029 A 
ATOM     50  N   UNL A   1      41.278  31.012  35.311  1.00  0.00    -0.354 N 
ATOM     51  N   UNL A   1      39.167  32.329  33.733  1.00  0.00    -0.248 NA
ATOM     52  C   UNL A   1      37.505  33.960  33.531  1.00  0.00     0.031 C 
ATOM     53  C   UNL A   1      41.793  31.868  37.294  1.00  0.00     0.029 A 
ATOM     54  C   UNL A   1      40.953  32.020  36.201  1.00  0.00     0.049 A 
ATOM     55  H   UNL A   1      40.843  30.866  34.439  1.00  0.00     0.167 HD
ATOM     56  C   UNL A   1      39.157  33.112  34.880  1.00  0.00     0.074 A 
ATOM     57  C   UNL A   1      38.130  34.117  34.690  1.00  0.00     0.031 C 
ATOM     58  C   UNL A   1      39.926  33.009  35.992  1.00  0.00     0.037 A 
BRANCH  45  59
ATOM     59  C   UNL A   1      43.941  28.307  35.878  1.00  0.00     0.058 A 
ATOM     60  C   UNL A   1      43.611  27.219  36.701  1.00  0.00     0.135 A 
ATOM     61  C   UNL A   1      45.298  28.636  35.735  1.00  0.00     0.135 A 
ATOM     62  F   UNL A   1      42.326  26.876  36.886  1.00  0.00    -0.206 F 
ATOM     63  C   UNL A   1      44.588  26.504  37.386  1.00  0.00     0.059 A 
ATOM     64  C   UNL A   1      46.294  27.918  36.392  1.00  0.00     0.059 A 
ATOM     65  F   UNL A   1      45.667  29.669  34.963  1.00  0.00    -0.206 F 
ATOM     66  C   UNL A   1      45.926  26.865  37.229  1.00  0.00     0.060 A 
BRANCH  66  67
ATOM     67  S   UNL A   1      47.183  25.936  38.133  1.00  0.00     0.124 S 
ATOM     68  O   UNL A   1      46.937  26.375  39.503  1.00  0.00    -0.237 OA
ATOM     69  O   UNL A   1      46.825  24.553  37.837  1.00  0.00    -0.237 OA
ATOM     70  O   UNL A   1      48.435  26.397  37.541  1.00  0.00    -0.744 OA
ENDBRANCH  66  67
ENDBRANCH  45  59
BRANCH  46  71
ATOM     71  C   UNL A   1      36.712  33.054  30.858  1.00  0.00     0.058 A 
ATOM     72  C   UNL A   1      35.370  32.751  31.127  1.00  0.00     0.135 A 
ATOM     73  C   UNL A   1      36.982  34.037  29.893  1.00  0.00     0.135 A 
ATOM     74  F   UNL A   1      35.065  31.815  32.039  1.00  0.00    -0.206 F 
ATOM     75  C   UNL A   1      34.330  33.388  30.460  1.00  0.00     0.059 A 
ATOM     76  C   UNL A   1      35.958  34.702  29.225  1.00  0.00     0.059 A 
ATOM     77  F   UNL A   1      38.250  34.374  29.612  1.00  0.00    -0.206 F 
ATOM     78  C   UNL A   1      34.635  34.363  29.509  1.00  0.00     0.060 A 
BRANCH  78  79
ATOM     79  S   UNL A   1      33.279  35.225  28.683  1.00  0.00     0.124 S 
ATOM     80  O   UNL A   1      32.592  35.840  29.813  1.00  0.00    -0.237 OA
ATOM     81  O   UNL A   1      33.989  36.140  27.794  1.00  0.00    -0.237 OA
ATOM     82  O   UNL A   1      32.558  34.147  28.013  1.00  0.00    -0.744 OA
ENDBRANCH  78  79
ENDBRANCH  46  71
BRANCH  58  83
ATOM     83  C   UNL A   1      39.695  34.013  37.083  1.00  0.00     0.058 A 
ATOM     84  C   UNL A   1      38.867  33.722  38.178  1.00  0.00     0.135 A 
ATOM     85  C   UNL A   1      40.352  35.253  37.064  1.00  0.00     0.135 A 
ATOM     86  F   UNL A   1      38.210  32.552  38.236  1.00  0.00    -0.206 F 
ATOM     87  C   UNL A   1      38.688  34.634  39.212  1.00  0.00     0.059 A 
ATOM     88  C   UNL A   1      40.204  36.171  38.098  1.00  0.00     0.059 A 
ATOM     89  F   UNL A   1      41.162  35.573  36.041  1.00  0.00    -0.206 F 
ATOM     90  C   UNL A   1      39.362  35.855  39.164  1.00  0.00     0.060 A 
BRANCH  90  91
ATOM     91  S   UNL A   1      39.158  37.014  40.534  1.00  0.00     0.124 S 
ATOM     92  O   UNL A   1      38.544  36.163  41.548  1.00  0.00    -0.237 OA
ATOM     93  O   UNL A   1      40.531  37.430  40.802  1.00  0.00    -0.237 OA
ATOM     94  O   UNL A   1      38.295  38.049  39.975  1.00  0.00    -0.744 OA
ENDBRANCH  90  91
ENDBRANCH  58  83
ENDBRANCH  32  33
ENDBRANCH  24  27
ENDBRANCH  22  23
ENDBRANCH   1  22
TORSDOF 15
ENDMDL
