MODEL 1
REMARK VINA RESULT:     -12.2      0.000      0.000
REMARK SMILES O=C(NCCCCNC(=O)c1cccc(CN2C(=O)S/C(=C/c3ccc(Cl)cc3)C2=O)c1)c1ccc(-c2c3nc(c(-c4c(F)cc(S(=O)(=O)[O-])cc4F)c4ccc([nH]4)c(-c4c(F)cc(S(=O)(=O)[O-])cc4F)c4nc(c(-c5c(F)cc(S(=O)(=O)[O-])cc5F)c5ccc2[nH]5)C=C4)C=C3)cc1
REMARK SMILES IDX 5 1 4 2 3 3 1 4 2 5 33 7 34 8 98 9 35 10 97 11 36 12 37 13
REMARK SMILES IDX 38 14 91 15 39 16 96 17 90 18 92 19 40 20 95 21 89 22 88 23
REMARK SMILES IDX 41 25 75 26 54 27 74 28 55 29 58 30 73 31 93 32 56 33 57 34
REMARK SMILES IDX 72 36 94 37 59 38 42 39 43 40 52 41 44 42 45 43 51 44 53 45
REMARK SMILES IDX 46 46 47 47 48 48 49 49 50 50 76 51 77 52 86 53 78 54 79 55
REMARK SMILES IDX 85 56 87 57 80 58 81 59 82 60 83 61 84 62 60 63 61 64 70 65
REMARK SMILES IDX 62 66 63 67 69 68 71 69 64 70 65 71 66 72 67 73 68 74 6 75
REMARK SMILES IDX 7 76 8 77 9 78 10 80 11 81 12 82 32 83 13 84 15 85 14 86
REMARK SMILES IDX 16 87 17 88 18 89 30 90 19 91 20 92 21 93 31 94 22 95 23 96
REMARK SMILES IDX 24 97 29 98 25 99 28 100 26 101 27 102
REMARK H PARENT 3 6 92 24 58 35 8 79
REMARK Flexibility Score: inf
ROOT
ATOM      1  C   UNL A   1      34.057  28.257  25.626  1.00  0.00     0.023 C 
ENDROOT
BRANCH   1   2
ATOM      2  C   UNL A   1      33.776  28.348  27.117  1.00  0.00     0.116 C 
BRANCH   2   3
ATOM      3  N   UNL A   1      33.638  29.714  27.605  1.00  0.00    -0.352 N 
ATOM      4  O   UNL A   1      34.268  31.603  28.681  1.00  0.00    -0.269 OA
ATOM      5  C   UNL A   1      34.580  30.508  28.225  1.00  0.00     0.251 C 
ATOM      6  H   UNL A   1      32.754  30.126  27.474  1.00  0.00     0.163 HD
BRANCH   5   7
ATOM      7  C   UNL A   1      35.963  30.000  28.365  1.00  0.00     0.039 A 
ATOM      8  C   UNL A   1      36.400  29.525  29.599  1.00  0.00     0.014 A 
ATOM      9  C   UNL A   1      36.847  30.070  27.285  1.00  0.00     0.014 A 
ATOM     10  C   UNL A   1      37.755  29.333  29.814  1.00  0.00     0.010 A 
ATOM     11  C   UNL A   1      38.194  29.735  27.471  1.00  0.00     0.010 A 
ATOM     12  C   UNL A   1      38.669  29.401  28.748  1.00  0.00    -0.014 A 
BRANCH  12  13
ATOM     13  C   UNL A   1      40.083  29.026  29.016  1.00  0.00     0.031 A 
ATOM     14  C   UNL A   1      40.638  27.675  28.655  1.00  0.00     0.074 A 
ATOM     15  C   UNL A   1      40.893  29.975  29.531  1.00  0.00     0.049 A 
ATOM     16  N   UNL A   1      41.868  27.239  28.764  1.00  0.00    -0.248 NA
ATOM     17  C   UNL A   1      39.701  26.679  28.111  1.00  0.00     0.031 C 
ATOM     18  C   UNL A   1      40.457  31.314  29.946  1.00  0.00     0.029 A 
ATOM     19  N   UNL A   1      42.242  29.987  29.760  1.00  0.00    -0.354 N 
ATOM     20  C   UNL A   1      41.856  25.926  28.309  1.00  0.00     0.074 A 
ATOM     21  C   UNL A   1      40.486  25.620  27.958  1.00  0.00     0.031 C 
ATOM     22  C   UNL A   1      41.524  32.036  30.305  1.00  0.00     0.029 A 
ATOM     23  C   UNL A   1      42.707  31.189  30.239  1.00  0.00     0.049 A 
ATOM     24  H   UNL A   1      42.826  29.209  29.597  1.00  0.00     0.167 HD
ATOM     25  C   UNL A   1      42.896  25.064  28.183  1.00  0.00     0.037 A 
ATOM     26  C   UNL A   1      43.942  31.568  30.616  1.00  0.00     0.037 A 
ATOM     27  C   UNL A   1      44.259  25.385  28.538  1.00  0.00     0.049 A 
ATOM     28  C   UNL A   1      45.065  30.584  30.490  1.00  0.00     0.074 A 
ATOM     29  C   UNL A   1      45.384  24.583  28.444  1.00  0.00     0.029 A 
ATOM     30  N   UNL A   1      44.685  26.601  29.055  1.00  0.00    -0.354 N 
ATOM     31  N   UNL A   1      45.034  29.353  30.037  1.00  0.00    -0.248 NA
ATOM     32  C   UNL A   1      46.390  31.036  30.926  1.00  0.00     0.031 C 
ATOM     33  C   UNL A   1      46.478  25.296  28.948  1.00  0.00     0.029 A 
ATOM     34  C   UNL A   1      46.050  26.564  29.300  1.00  0.00     0.049 A 
ATOM     35  H   UNL A   1      44.102  27.377  29.223  1.00  0.00     0.167 HD
ATOM     36  C   UNL A   1      46.339  28.887  30.124  1.00  0.00     0.074 A 
ATOM     37  C   UNL A   1      47.139  29.982  30.637  1.00  0.00     0.031 C 
ATOM     38  C   UNL A   1      46.831  27.660  29.818  1.00  0.00     0.037 A 
BRANCH  25  39
ATOM     39  C   UNL A   1      42.614  23.686  27.643  1.00  0.00     0.058 A 
ATOM     40  C   UNL A   1      42.644  23.414  26.265  1.00  0.00     0.135 A 
ATOM     41  C   UNL A   1      42.389  22.606  28.513  1.00  0.00     0.135 A 
ATOM     42  F   UNL A   1      42.841  24.408  25.384  1.00  0.00    -0.206 F 
ATOM     43  C   UNL A   1      42.447  22.128  25.769  1.00  0.00     0.059 A 
ATOM     44  C   UNL A   1      42.217  21.306  28.041  1.00  0.00     0.059 A 
ATOM     45  F   UNL A   1      42.350  22.803  29.840  1.00  0.00    -0.206 F 
ATOM     46  C   UNL A   1      42.240  21.078  26.666  1.00  0.00     0.060 A 
BRANCH  46  47
ATOM     47  S   UNL A   1      42.015  19.413  26.005  1.00  0.00     0.124 S 
ATOM     48  O   UNL A   1      40.578  19.394  25.746  1.00  0.00    -0.237 OA
ATOM     49  O   UNL A   1      42.870  19.430  24.823  1.00  0.00    -0.237 OA
ATOM     50  O   UNL A   1      42.467  18.549  27.091  1.00  0.00    -0.744 OA
ENDBRANCH  46  47
ENDBRANCH  25  39
BRANCH  26  51
ATOM     51  C   UNL A   1      44.157  32.926  31.184  1.00  0.00     0.058 A 
ATOM     52  C   UNL A   1      44.478  34.021  30.369  1.00  0.00     0.135 A 
ATOM     53  C   UNL A   1      44.040  33.152  32.565  1.00  0.00     0.135 A 
ATOM     54  F   UNL A   1      44.600  33.858  29.042  1.00  0.00    -0.206 F 
ATOM     55  C   UNL A   1      44.706  35.284  30.905  1.00  0.00     0.059 A 
ATOM     56  C   UNL A   1      44.224  34.412  33.120  1.00  0.00     0.059 A 
ATOM     57  F   UNL A   1      43.712  32.144  33.388  1.00  0.00    -0.206 F 
ATOM     58  C   UNL A   1      44.578  35.468  32.283  1.00  0.00     0.060 A 
BRANCH  58  59
ATOM     59  S   UNL A   1      44.858  37.113  32.970  1.00  0.00     0.124 S 
ATOM     60  O   UNL A   1      45.649  37.738  31.916  1.00  0.00    -0.237 OA
ATOM     61  O   UNL A   1      43.497  37.614  33.132  1.00  0.00    -0.237 OA
ATOM     62  O   UNL A   1      45.571  36.840  34.215  1.00  0.00    -0.744 OA
ENDBRANCH  58  59
ENDBRANCH  26  51
BRANCH  38  63
ATOM     63  C   UNL A   1      48.310  27.455  30.011  1.00  0.00     0.058 A 
ATOM     64  C   UNL A   1      49.224  27.636  28.961  1.00  0.00     0.135 A 
ATOM     65  C   UNL A   1      48.817  27.068  31.262  1.00  0.00     0.135 A 
ATOM     66  F   UNL A   1      48.792  27.998  27.742  1.00  0.00    -0.206 F 
ATOM     67  C   UNL A   1      50.583  27.395  29.131  1.00  0.00     0.059 A 
ATOM     68  C   UNL A   1      50.177  26.857  31.464  1.00  0.00     0.059 A 
ATOM     69  F   UNL A   1      47.989  26.892  32.304  1.00  0.00    -0.206 F 
ATOM     70  C   UNL A   1      51.049  27.003  30.386  1.00  0.00     0.060 A 
BRANCH  70  71
ATOM     71  S   UNL A   1      52.815  26.690  30.593  1.00  0.00     0.124 S 
ATOM     72  O   UNL A   1      52.806  25.523  31.469  1.00  0.00    -0.237 OA
ATOM     73  O   UNL A   1      53.251  26.449  29.220  1.00  0.00    -0.237 OA
ATOM     74  O   UNL A   1      53.312  27.923  31.195  1.00  0.00    -0.744 OA
ENDBRANCH  70  71
ENDBRANCH  38  63
ENDBRANCH  12  13
ENDBRANCH   5   7
ENDBRANCH   2   3
ENDBRANCH   1   2
BRANCH   1  75
ATOM     75  C   UNL A   1      33.132  29.089  24.749  1.00  0.00     0.023 C 
BRANCH  75  76
ATOM     76  C   UNL A   1      32.180  28.283  23.872  1.00  0.00     0.116 C 
BRANCH  76  77
ATOM     77  N   UNL A   1      32.841  27.643  22.744  1.00  0.00    -0.352 N 
ATOM     78  C   UNL A   1      33.112  26.313  22.536  1.00  0.00     0.251 C 
ATOM     79  H   UNL A   1      33.135  28.252  22.028  1.00  0.00     0.163 HD
ATOM     80  O   UNL A   1      33.781  25.948  21.576  1.00  0.00    -0.269 OA
BRANCH  78  81
ATOM     81  C   UNL A   1      32.633  25.319  23.516  1.00  0.00     0.040 A 
ATOM     82  C   UNL A   1      31.372  24.756  23.315  1.00  0.00     0.014 A 
ATOM     83  C   UNL A   1      33.444  24.904  24.581  1.00  0.00     0.019 A 
ATOM     84  C   UNL A   1      30.953  23.712  24.135  1.00  0.00     0.001 A 
ATOM     85  C   UNL A   1      33.054  23.815  25.371  1.00  0.00    -0.027 A 
ATOM     86  C   UNL A   1      31.799  23.230  25.136  1.00  0.00     0.005 A 
BRANCH  85  87
ATOM     87  C   UNL A   1      33.992  23.247  26.415  1.00  0.00     0.165 C 
BRANCH  87  88
ATOM     88  N   UNL A   1      35.032  22.424  25.836  1.00  0.00    -0.264 N 
ATOM     89  C   UNL A   1      36.305  22.891  25.686  1.00  0.00     0.293 C 
ATOM     90  C   UNL A   1      34.811  21.100  25.544  1.00  0.00     0.268 C 
ATOM     91  O   UNL A   1      36.759  23.961  26.068  1.00  0.00    -0.261 OA
ATOM     92  S   UNL A   1      37.296  21.685  24.893  1.00  0.00    -0.022 SA
ATOM     93  C   UNL A   1      36.051  20.489  24.973  1.00  0.00     0.083 C 
ATOM     94  O   UNL A   1      33.767  20.501  25.755  1.00  0.00    -0.268 OA
ATOM     95  C   UNL A   1      36.267  19.215  24.614  1.00  0.00     0.029 C 
BRANCH  95  96
ATOM     96  C   UNL A   1      35.311  18.114  24.737  1.00  0.00    -0.024 A 
ATOM     97  C   UNL A   1      35.731  16.919  25.337  1.00  0.00     0.009 A 
ATOM     98  C   UNL A   1      33.996  18.225  24.273  1.00  0.00     0.009 A 
ATOM     99  C   UNL A   1      34.833  15.863  25.507  1.00  0.00     0.021 A 
ATOM    100  C   UNL A   1      33.095  17.172  24.450  1.00  0.00     0.021 A 
ATOM    101  C   UNL A   1      33.516  15.998  25.071  1.00  0.00     0.041 A 
ATOM    102  Cl  UNL A   1      32.404  14.708  25.307  1.00  0.00    -0.084 Cl
ENDBRANCH  95  96
ENDBRANCH  87  88
ENDBRANCH  85  87
ENDBRANCH  78  81
ENDBRANCH  76  77
ENDBRANCH  75  76
ENDBRANCH   1  75
TORSDOF 17
ENDMDL
MODEL 2
REMARK VINA RESULT:     -11.8      2.914      8.825
REMARK SMILES O=C(NCCCCNC(=O)c1cccc(CN2C(=O)S/C(=C/c3ccc(Cl)cc3)C2=O)c1)c1ccc(-c2c3nc(c(-c4c(F)cc(S(=O)(=O)[O-])cc4F)c4ccc([nH]4)c(-c4c(F)cc(S(=O)(=O)[O-])cc4F)c4nc(c(-c5c(F)cc(S(=O)(=O)[O-])cc5F)c5ccc2[nH]5)C=C4)C=C3)cc1
REMARK SMILES IDX 5 1 4 2 3 3 1 4 2 5 33 7 34 8 98 9 35 10 97 11 36 12 37 13
REMARK SMILES IDX 38 14 91 15 39 16 96 17 90 18 92 19 40 20 95 21 89 22 88 23
REMARK SMILES IDX 41 25 75 26 54 27 74 28 55 29 58 30 73 31 93 32 56 33 57 34
REMARK SMILES IDX 72 36 94 37 59 38 42 39 43 40 52 41 44 42 45 43 51 44 53 45
REMARK SMILES IDX 46 46 47 47 48 48 49 49 50 50 76 51 77 52 86 53 78 54 79 55
REMARK SMILES IDX 85 56 87 57 80 58 81 59 82 60 83 61 84 62 60 63 61 64 70 65
REMARK SMILES IDX 62 66 63 67 69 68 71 69 64 70 65 71 66 72 67 73 68 74 6 75
REMARK SMILES IDX 7 76 8 77 9 78 10 80 11 81 12 82 32 83 13 84 15 85 14 86
REMARK SMILES IDX 16 87 17 88 18 89 30 90 19 91 20 92 21 93 31 94 22 95 23 96
REMARK SMILES IDX 24 97 29 98 25 99 28 100 26 101 27 102
REMARK H PARENT 3 6 92 24 58 35 8 79
REMARK Flexibility Score: inf
ROOT
ATOM      1  C   UNL A   1      34.473  29.486  27.168  1.00  0.00     0.023 C 
ENDROOT
BRANCH   1   2
ATOM      2  C   UNL A   1      35.723  29.371  28.023  1.00  0.00     0.116 C 
BRANCH   2   3
ATOM      3  N   UNL A   1      35.566  29.918  29.365  1.00  0.00    -0.352 N 
ATOM      4  O   UNL A   1      36.227  30.539  31.439  1.00  0.00    -0.269 OA
ATOM      5  C   UNL A   1      36.538  30.184  30.307  1.00  0.00     0.251 C 
ATOM      6  H   UNL A   1      34.643  30.126  29.636  1.00  0.00     0.163 HD
BRANCH   5   7
ATOM      7  C   UNL A   1      37.959  29.997  29.940  1.00  0.00     0.039 A 
ATOM      8  C   UNL A   1      38.349  30.126  28.609  1.00  0.00     0.014 A 
ATOM      9  C   UNL A   1      38.889  29.616  30.912  1.00  0.00     0.014 A 
ATOM     10  C   UNL A   1      39.595  29.664  28.217  1.00  0.00     0.010 A 
ATOM     11  C   UNL A   1      40.196  29.288  30.528  1.00  0.00     0.010 A 
ATOM     12  C   UNL A   1      40.549  29.271  29.171  1.00  0.00    -0.014 A 
BRANCH  12  13
ATOM     13  C   UNL A   1      41.919  28.941  28.693  1.00  0.00     0.031 A 
ATOM     14  C   UNL A   1      43.037  29.948  28.706  1.00  0.00     0.074 A 
ATOM     15  C   UNL A   1      42.158  27.669  28.313  1.00  0.00     0.049 A 
ATOM     16  N   UNL A   1      44.296  29.777  28.387  1.00  0.00    -0.248 NA
ATOM     17  C   UNL A   1      42.710  31.323  29.116  1.00  0.00     0.031 C 
ATOM     18  C   UNL A   1      41.141  26.613  28.234  1.00  0.00     0.029 A 
ATOM     19  N   UNL A   1      43.317  27.031  27.961  1.00  0.00    -0.354 N 
ATOM     20  C   UNL A   1      44.910  31.013  28.555  1.00  0.00     0.074 A 
ATOM     21  C   UNL A   1      43.876  31.938  28.966  1.00  0.00     0.031 C 
ATOM     22  C   UNL A   1      41.731  25.451  27.932  1.00  0.00     0.029 A 
ATOM     23  C   UNL A   1      43.148  25.691  27.703  1.00  0.00     0.049 A 
ATOM     24  H   UNL A   1      44.188  27.488  27.898  1.00  0.00     0.167 HD
ATOM     25  C   UNL A   1      46.217  31.337  28.395  1.00  0.00     0.037 A 
ATOM     26  C   UNL A   1      44.027  24.757  27.295  1.00  0.00     0.037 A 
ATOM     27  C   UNL A   1      47.238  30.401  27.984  1.00  0.00     0.049 A 
ATOM     28  C   UNL A   1      45.459  25.154  27.100  1.00  0.00     0.074 A 
ATOM     29  C   UNL A   1      48.591  30.631  27.797  1.00  0.00     0.029 A 
ATOM     30  N   UNL A   1      47.023  29.061  27.695  1.00  0.00    -0.354 N 
ATOM     31  N   UNL A   1      46.021  26.324  27.286  1.00  0.00    -0.248 NA
ATOM     32  C   UNL A   1      46.377  24.105  26.642  1.00  0.00     0.031 C 
ATOM     33  C   UNL A   1      49.182  29.445  27.350  1.00  0.00     0.029 A 
ATOM     34  C   UNL A   1      48.213  28.457  27.315  1.00  0.00     0.049 A 
ATOM     35  H   UNL A   1      46.152  28.605  27.753  1.00  0.00     0.167 HD
ATOM     36  C   UNL A   1      47.364  26.150  26.975  1.00  0.00     0.074 A 
ATOM     37  C   UNL A   1      47.533  24.753  26.629  1.00  0.00     0.031 C 
ATOM     38  C   UNL A   1      48.365  27.066  26.967  1.00  0.00     0.037 A 
BRANCH  25  39
ATOM     39  C   UNL A   1      46.632  32.762  28.658  1.00  0.00     0.058 A 
ATOM     40  C   UNL A   1      47.108  33.171  29.915  1.00  0.00     0.135 A 
ATOM     41  C   UNL A   1      46.630  33.713  27.623  1.00  0.00     0.135 A 
ATOM     42  F   UNL A   1      47.120  32.311  30.945  1.00  0.00    -0.206 F 
ATOM     43  C   UNL A   1      47.551  34.472  30.140  1.00  0.00     0.059 A 
ATOM     44  C   UNL A   1      47.095  35.012  27.818  1.00  0.00     0.059 A 
ATOM     45  F   UNL A   1      46.188  33.381  26.400  1.00  0.00    -0.206 F 
ATOM     46  C   UNL A   1      47.547  35.384  29.084  1.00  0.00     0.060 A 
BRANCH  46  47
ATOM     47  S   UNL A   1      48.153  37.058  29.389  1.00  0.00     0.124 S 
ATOM     48  O   UNL A   1      49.487  36.793  29.919  1.00  0.00    -0.237 OA
ATOM     49  O   UNL A   1      48.107  37.652  28.057  1.00  0.00    -0.237 OA
ATOM     50  O   UNL A   1      47.194  37.599  30.347  1.00  0.00    -0.744 OA
ENDBRANCH  46  47
ENDBRANCH  25  39
BRANCH  26  51
ATOM     51  C   UNL A   1      43.556  23.375  27.008  1.00  0.00     0.058 A 
ATOM     52  C   UNL A   1      43.219  22.484  28.037  1.00  0.00     0.135 A 
ATOM     53  C   UNL A   1      43.431  22.921  25.684  1.00  0.00     0.135 A 
ATOM     54  F   UNL A   1      43.320  22.870  29.319  1.00  0.00    -0.206 F 
ATOM     55  C   UNL A   1      42.805  21.185  27.766  1.00  0.00     0.059 A 
ATOM     56  C   UNL A   1      42.983  21.641  25.387  1.00  0.00     0.059 A 
ATOM     57  F   UNL A   1      43.719  23.740  24.660  1.00  0.00    -0.206 F 
ATOM     58  C   UNL A   1      42.692  20.772  26.437  1.00  0.00     0.060 A 
BRANCH  58  59
ATOM     59  S   UNL A   1      42.138  19.089  26.094  1.00  0.00     0.124 S 
ATOM     60  O   UNL A   1      40.702  19.282  25.936  1.00  0.00    -0.237 OA
ATOM     61  O   UNL A   1      42.879  18.765  24.878  1.00  0.00    -0.237 OA
ATOM     62  O   UNL A   1      42.549  18.351  27.285  1.00  0.00    -0.744 OA
ENDBRANCH  58  59
ENDBRANCH  26  51
BRANCH  38  63
ATOM     63  C   UNL A   1      49.735  26.569  26.591  1.00  0.00     0.058 A 
ATOM     64  C   UNL A   1      50.183  26.572  25.260  1.00  0.00     0.135 A 
ATOM     65  C   UNL A   1      50.609  26.080  27.576  1.00  0.00     0.135 A 
ATOM     66  F   UNL A   1      49.385  27.021  24.278  1.00  0.00    -0.206 F 
ATOM     67  C   UNL A   1      51.430  26.064  24.912  1.00  0.00     0.059 A 
ATOM     68  C   UNL A   1      51.874  25.601  27.254  1.00  0.00     0.059 A 
ATOM     69  F   UNL A   1      50.236  26.064  28.865  1.00  0.00    -0.206 F 
ATOM     70  C   UNL A   1      52.267  25.577  25.917  1.00  0.00     0.060 A 
BRANCH  70  71
ATOM     71  S   UNL A   1      53.882  24.917  25.451  1.00  0.00     0.124 S 
ATOM     72  O   UNL A   1      53.549  23.538  25.112  1.00  0.00    -0.237 OA
ATOM     73  O   UNL A   1      54.256  25.774  24.330  1.00  0.00    -0.237 OA
ATOM     74  O   UNL A   1      54.682  25.091  26.660  1.00  0.00    -0.744 OA
ENDBRANCH  70  71
ENDBRANCH  38  63
ENDBRANCH  12  13
ENDBRANCH   5   7
ENDBRANCH   2   3
ENDBRANCH   1   2
BRANCH   1  75
ATOM     75  C   UNL A   1      34.047  28.197  26.478  1.00  0.00     0.023 C 
BRANCH  75  76
ATOM     76  C   UNL A   1      32.582  27.820  26.667  1.00  0.00     0.116 C 
BRANCH  76  77
ATOM     77  N   UNL A   1      31.660  28.829  26.164  1.00  0.00    -0.352 N 
ATOM     78  C   UNL A   1      31.444  29.243  24.873  1.00  0.00     0.251 C 
ATOM     79  H   UNL A   1      31.114  29.278  26.849  1.00  0.00     0.163 HD
ATOM     80  O   UNL A   1      30.706  30.190  24.629  1.00  0.00    -0.269 OA
BRANCH  78  81
ATOM     81  C   UNL A   1      32.157  28.565  23.772  1.00  0.00     0.040 A 
ATOM     82  C   UNL A   1      33.282  29.193  23.234  1.00  0.00     0.014 A 
ATOM     83  C   UNL A   1      31.756  27.300  23.322  1.00  0.00     0.019 A 
ATOM     84  C   UNL A   1      34.059  28.516  22.299  1.00  0.00     0.001 A 
ATOM     85  C   UNL A   1      32.566  26.590  22.427  1.00  0.00    -0.027 A 
ATOM     86  C   UNL A   1      33.717  27.216  21.921  1.00  0.00     0.005 A 
BRANCH  85  87
ATOM     87  C   UNL A   1      32.238  25.158  22.061  1.00  0.00     0.165 C 
BRANCH  87  88
ATOM     88  N   UNL A   1      32.140  24.298  23.220  1.00  0.00    -0.264 N 
ATOM     89  C   UNL A   1      30.950  23.749  23.599  1.00  0.00     0.293 C 
ATOM     90  C   UNL A   1      33.263  23.893  23.902  1.00  0.00     0.268 C 
ATOM     91  O   UNL A   1      29.877  23.814  23.015  1.00  0.00    -0.261 OA
ATOM     92  S   UNL A   1      31.157  22.826  25.072  1.00  0.00    -0.022 SA
ATOM     93  C   UNL A   1      32.876  23.005  25.040  1.00  0.00     0.083 C 
ATOM     94  O   UNL A   1      34.409  24.185  23.598  1.00  0.00    -0.268 OA
ATOM     95  C   UNL A   1      33.671  22.360  25.907  1.00  0.00     0.029 C 
BRANCH  95  96
ATOM     96  C   UNL A   1      35.135  22.370  25.899  1.00  0.00    -0.024 A 
ATOM     97  C   UNL A   1      35.815  21.246  25.411  1.00  0.00     0.009 A 
ATOM     98  C   UNL A   1      35.867  23.468  26.366  1.00  0.00     0.009 A 
ATOM     99  C   UNL A   1      37.210  21.239  25.351  1.00  0.00     0.021 A 
ATOM    100  C   UNL A   1      37.262  23.463  26.300  1.00  0.00     0.021 A 
ATOM    101  C   UNL A   1      37.927  22.351  25.787  1.00  0.00     0.041 A 
ATOM    102  Cl  UNL A   1      39.644  22.351  25.687  1.00  0.00    -0.084 Cl
ENDBRANCH  95  96
ENDBRANCH  87  88
ENDBRANCH  85  87
ENDBRANCH  78  81
ENDBRANCH  76  77
ENDBRANCH  75  76
ENDBRANCH   1  75
TORSDOF 17
ENDMDL
MODEL 3
REMARK VINA RESULT:     -11.7      3.623      8.668
REMARK SMILES O=C(NCCCCNC(=O)c1cccc(CN2C(=O)S/C(=C/c3ccc(Cl)cc3)C2=O)c1)c1ccc(-c2c3nc(c(-c4c(F)cc(S(=O)(=O)[O-])cc4F)c4ccc([nH]4)c(-c4c(F)cc(S(=O)(=O)[O-])cc4F)c4nc(c(-c5c(F)cc(S(=O)(=O)[O-])cc5F)c5ccc2[nH]5)C=C4)C=C3)cc1
REMARK SMILES IDX 5 1 4 2 3 3 1 4 2 5 33 7 34 8 98 9 35 10 97 11 36 12 37 13
REMARK SMILES IDX 38 14 91 15 39 16 96 17 90 18 92 19 40 20 95 21 89 22 88 23
REMARK SMILES IDX 41 25 75 26 54 27 74 28 55 29 58 30 73 31 93 32 56 33 57 34
REMARK SMILES IDX 72 36 94 37 59 38 42 39 43 40 52 41 44 42 45 43 51 44 53 45
REMARK SMILES IDX 46 46 47 47 48 48 49 49 50 50 76 51 77 52 86 53 78 54 79 55
REMARK SMILES IDX 85 56 87 57 80 58 81 59 82 60 83 61 84 62 60 63 61 64 70 65
REMARK SMILES IDX 62 66 63 67 69 68 71 69 64 70 65 71 66 72 67 73 68 74 6 75
REMARK SMILES IDX 7 76 8 77 9 78 10 80 11 81 12 82 32 83 13 84 15 85 14 86
REMARK SMILES IDX 16 87 17 88 18 89 30 90 19 91 20 92 21 93 31 94 22 95 23 96
REMARK SMILES IDX 24 97 29 98 25 99 28 100 26 101 27 102
REMARK H PARENT 3 6 92 24 58 35 8 79
REMARK Flexibility Score: inf
ROOT
ATOM      1  C   UNL A   1      38.074  20.488  24.850  1.00  0.00     0.023 C 
ENDROOT
BRANCH   1   2
ATOM      2  C   UNL A   1      39.006  20.559  26.048  1.00  0.00     0.116 C 
BRANCH   2   3
ATOM      3  N   UNL A   1      40.096  19.593  26.001  1.00  0.00    -0.352 N 
ATOM      4  O   UNL A   1      42.249  18.897  26.009  1.00  0.00    -0.269 OA
ATOM      5  C   UNL A   1      41.444  19.803  26.198  1.00  0.00     0.251 C 
ATOM      6  H   UNL A   1      39.834  18.664  25.801  1.00  0.00     0.163 HD
BRANCH   5   7
ATOM      7  C   UNL A   1      41.906  21.148  26.605  1.00  0.00     0.039 A 
ATOM      8  C   UNL A   1      41.965  22.170  25.660  1.00  0.00     0.014 A 
ATOM      9  C   UNL A   1      42.355  21.370  27.910  1.00  0.00     0.014 A 
ATOM     10  C   UNL A   1      42.667  23.328  25.952  1.00  0.00     0.010 A 
ATOM     11  C   UNL A   1      42.937  22.600  28.242  1.00  0.00     0.010 A 
ATOM     12  C   UNL A   1      43.134  23.577  27.254  1.00  0.00    -0.014 A 
BRANCH  12  13
ATOM     13  C   UNL A   1      43.737  24.907  27.538  1.00  0.00     0.031 A 
ATOM     14  C   UNL A   1      45.184  25.209  27.254  1.00  0.00     0.074 A 
ATOM     15  C   UNL A   1      42.918  25.879  27.991  1.00  0.00     0.049 A 
ATOM     16  N   UNL A   1      45.823  26.345  27.385  1.00  0.00    -0.248 NA
ATOM     17  C   UNL A   1      46.028  24.104  26.775  1.00  0.00     0.031 C 
ATOM     18  C   UNL A   1      41.501  25.692  28.328  1.00  0.00     0.029 A 
ATOM     19  N   UNL A   1      43.132  27.213  28.213  1.00  0.00    -0.354 N 
ATOM     20  C   UNL A   1      47.138  26.095  27.008  1.00  0.00     0.074 A 
ATOM     21  C   UNL A   1      47.216  24.687  26.682  1.00  0.00     0.031 C 
ATOM     22  C   UNL A   1      40.960  26.875  28.639  1.00  0.00     0.029 A 
ATOM     23  C   UNL A   1      42.005  27.889  28.618  1.00  0.00     0.049 A 
ATOM     24  H   UNL A   1      44.008  27.647  28.095  1.00  0.00     0.167 HD
ATOM     25  C   UNL A   1      48.175  26.965  26.929  1.00  0.00     0.037 A 
ATOM     26  C   UNL A   1      41.829  29.176  28.966  1.00  0.00     0.037 A 
ATOM     27  C   UNL A   1      48.081  28.368  27.259  1.00  0.00     0.049 A 
ATOM     28  C   UNL A   1      43.002  30.106  28.895  1.00  0.00     0.074 A 
ATOM     29  C   UNL A   1      49.073  29.333  27.207  1.00  0.00     0.029 A 
ATOM     30  N   UNL A   1      46.931  29.009  27.701  1.00  0.00    -0.354 N 
ATOM     31  N   UNL A   1      44.232  29.853  28.515  1.00  0.00    -0.248 NA
ATOM     32  C   UNL A   1      42.767  31.497  29.297  1.00  0.00     0.031 C 
ATOM     33  C   UNL A   1      48.537  30.542  27.663  1.00  0.00     0.029 A 
ATOM     34  C   UNL A   1      47.195  30.350  27.942  1.00  0.00     0.049 A 
ATOM     35  H   UNL A   1      46.056  28.575  27.824  1.00  0.00     0.167 HD
ATOM     36  C   UNL A   1      44.916  31.056  28.625  1.00  0.00     0.074 A 
ATOM     37  C   UNL A   1      43.952  32.044  29.068  1.00  0.00     0.031 C 
ATOM     38  C   UNL A   1      46.226  31.320  28.390  1.00  0.00     0.037 A 
BRANCH  25  39
ATOM     39  C   UNL A   1      49.511  26.436  26.473  1.00  0.00     0.058 A 
ATOM     40  C   UNL A   1      49.962  26.613  25.154  1.00  0.00     0.135 A 
ATOM     41  C   UNL A   1      50.386  25.815  27.381  1.00  0.00     0.135 A 
ATOM     42  F   UNL A   1      49.166  27.187  24.239  1.00  0.00    -0.206 F 
ATOM     43  C   UNL A   1      51.222  26.182  24.749  1.00  0.00     0.059 A 
ATOM     44  C   UNL A   1      51.662  25.401  27.005  1.00  0.00     0.059 A 
ATOM     45  F   UNL A   1      50.010  25.619  28.654  1.00  0.00    -0.206 F 
ATOM     46  C   UNL A   1      52.068  25.582  25.684  1.00  0.00     0.060 A 
BRANCH  46  47
ATOM     47  S   UNL A   1      53.710  25.054  25.146  1.00  0.00     0.124 S 
ATOM     48  O   UNL A   1      53.732  25.534  23.767  1.00  0.00    -0.237 OA
ATOM     49  O   UNL A   1      54.583  25.761  26.077  1.00  0.00    -0.237 OA
ATOM     50  O   UNL A   1      53.672  23.604  25.303  1.00  0.00    -0.744 OA
ENDBRANCH  46  47
ENDBRANCH  25  39
BRANCH  26  51
ATOM     51  C   UNL A   1      40.500  29.636  29.452  1.00  0.00     0.058 A 
ATOM     52  C   UNL A   1      39.432  29.857  28.570  1.00  0.00     0.135 A 
ATOM     53  C   UNL A   1      40.275  29.861  30.820  1.00  0.00     0.135 A 
ATOM     54  F   UNL A   1      39.596  29.655  27.254  1.00  0.00    -0.206 F 
ATOM     55  C   UNL A   1      38.199  30.313  29.023  1.00  0.00     0.059 A 
ATOM     56  C   UNL A   1      39.041  30.279  31.301  1.00  0.00     0.059 A 
ATOM     57  F   UNL A   1      41.256  29.643  31.710  1.00  0.00    -0.206 F 
ATOM     58  C   UNL A   1      38.014  30.522  30.391  1.00  0.00     0.060 A 
BRANCH  58  59
ATOM     59  S   UNL A   1      36.406  31.098  30.973  1.00  0.00     0.124 S 
ATOM     60  O   UNL A   1      35.651  31.161  29.728  1.00  0.00    -0.237 OA
ATOM     61  O   UNL A   1      36.020  30.041  31.904  1.00  0.00    -0.237 OA
ATOM     62  O   UNL A   1      36.714  32.386  31.590  1.00  0.00    -0.744 OA
ENDBRANCH  58  59
ENDBRANCH  26  51
BRANCH  38  63
ATOM     63  C   UNL A   1      46.678  32.742  28.588  1.00  0.00     0.058 A 
ATOM     64  C   UNL A   1      47.109  33.212  29.839  1.00  0.00     0.135 A 
ATOM     65  C   UNL A   1      46.676  33.646  27.514  1.00  0.00     0.135 A 
ATOM     66  F   UNL A   1      47.124  32.392  30.902  1.00  0.00    -0.206 F 
ATOM     67  C   UNL A   1      47.476  34.540  30.029  1.00  0.00     0.059 A 
ATOM     68  C   UNL A   1      47.074  34.969  27.673  1.00  0.00     0.059 A 
ATOM     69  F   UNL A   1      46.284  33.246  26.293  1.00  0.00    -0.206 F 
ATOM     70  C   UNL A   1      47.452  35.412  28.940  1.00  0.00     0.060 A 
BRANCH  70  71
ATOM     71  S   UNL A   1      47.928  37.133  29.200  1.00  0.00     0.124 S 
ATOM     72  O   UNL A   1      47.664  37.299  30.625  1.00  0.00    -0.237 OA
ATOM     73  O   UNL A   1      49.336  37.129  28.812  1.00  0.00    -0.237 OA
ATOM     74  O   UNL A   1      47.039  37.871  28.307  1.00  0.00    -0.744 OA
ENDBRANCH  70  71
ENDBRANCH  38  63
ENDBRANCH  12  13
ENDBRANCH   5   7
ENDBRANCH   2   3
ENDBRANCH   1   2
BRANCH   1  75
ATOM     75  C   UNL A   1      36.923  19.503  24.991  1.00  0.00     0.023 C 
BRANCH  75  76
ATOM     76  C   UNL A   1      35.535  20.102  24.791  1.00  0.00     0.116 C 
BRANCH  76  77
ATOM     77  N   UNL A   1      34.458  19.164  25.077  1.00  0.00    -0.352 N 
ATOM     78  C   UNL A   1      33.210  19.406  25.596  1.00  0.00     0.251 C 
ATOM     79  H   UNL A   1      34.654  18.222  24.868  1.00  0.00     0.163 HD
ATOM     80  O   UNL A   1      32.456  18.483  25.881  1.00  0.00    -0.269 OA
BRANCH  78  81
ATOM     81  C   UNL A   1      32.798  20.798  25.860  1.00  0.00     0.040 A 
ATOM     82  C   UNL A   1      33.362  21.453  26.955  1.00  0.00     0.014 A 
ATOM     83  C   UNL A   1      31.915  21.466  25.000  1.00  0.00     0.019 A 
ATOM     84  C   UNL A   1      33.107  22.808  27.145  1.00  0.00     0.001 A 
ATOM     85  C   UNL A   1      31.703  22.842  25.150  1.00  0.00    -0.027 A 
ATOM     86  C   UNL A   1      32.306  23.500  26.235  1.00  0.00     0.005 A 
BRANCH  85  87
ATOM     87  C   UNL A   1      30.889  23.612  24.132  1.00  0.00     0.165 C 
BRANCH  87  88
ATOM     88  N   UNL A   1      31.652  24.659  23.489  1.00  0.00    -0.264 N 
ATOM     89  C   UNL A   1      32.771  24.377  22.761  1.00  0.00     0.293 C 
ATOM     90  C   UNL A   1      31.204  25.958  23.472  1.00  0.00     0.268 C 
ATOM     91  O   UNL A   1      33.223  23.276  22.480  1.00  0.00    -0.261 OA
ATOM     92  S   UNL A   1      33.499  25.860  22.181  1.00  0.00    -0.022 SA
ATOM     93  C   UNL A   1      32.174  26.823  22.733  1.00  0.00     0.083 C 
ATOM     94  O   UNL A   1      30.150  26.341  23.956  1.00  0.00    -0.268 OA
ATOM     95  C   UNL A   1      32.079  28.130  22.446  1.00  0.00     0.029 C 
BRANCH  95  96
ATOM     96  C   UNL A   1      30.955  29.004  22.782  1.00  0.00    -0.024 A 
ATOM     97  C   UNL A   1      29.880  29.096  21.889  1.00  0.00     0.009 A 
ATOM     98  C   UNL A   1      30.929  29.747  23.969  1.00  0.00     0.009 A 
ATOM     99  C   UNL A   1      28.773  29.889  22.198  1.00  0.00     0.021 A 
ATOM    100  C   UNL A   1      29.818  30.534  24.282  1.00  0.00     0.021 A 
ATOM    101  C   UNL A   1      28.743  30.597  23.398  1.00  0.00     0.041 A 
ATOM    102  Cl  UNL A   1      27.366  31.550  23.790  1.00  0.00    -0.084 Cl
ENDBRANCH  95  96
ENDBRANCH  87  88
ENDBRANCH  85  87
ENDBRANCH  78  81
ENDBRANCH  76  77
ENDBRANCH  75  76
ENDBRANCH   1  75
TORSDOF 17
ENDMDL
