MODEL 1
REMARK VINA RESULT:     -10.9      0.000      0.000
REMARK SMILES CC(C)C[C@H](NC(=O)Cc1ccccc1)C(=O)NCCCCNC(=O)c1ccc(-c2c3nc(c(-c4c(F)cc(S(=O)(=O)[O-])cc4F)c4ccc([nH]4)c(-c4c(F)cc(S(=O)(=O)[O-])cc4F)c4nc(c(-c5c(F)cc(S(=O)(=O)[O-])cc5F)c5ccc2[nH]5)C=C4)C=C3)cc1
REMARK SMILES IDX 20 1 19 2 18 3 16 4 17 5 5 7 4 8 2 9 1 10 3 11 6 12 7 13
REMARK SMILES IDX 8 15 9 16 10 17 11 18 15 19 12 20 14 21 13 22 21 23 22 24
REMARK SMILES IDX 23 25 24 26 25 28 26 29 27 30 91 31 28 32 90 33 29 34 30 35
REMARK SMILES IDX 31 36 84 37 32 38 89 39 83 40 85 41 33 42 88 43 82 44 81 45
REMARK SMILES IDX 34 47 68 48 47 49 67 50 48 51 51 52 66 53 86 54 49 55 50 56
REMARK SMILES IDX 65 58 87 59 52 60 35 61 36 62 45 63 37 64 38 65 44 66 46 67
REMARK SMILES IDX 39 68 40 69 41 70 42 71 43 72 69 73 70 74 79 75 71 76 72 77
REMARK SMILES IDX 78 78 80 79 73 80 74 81 75 82 76 83 77 84 53 85 54 86 63 87
REMARK SMILES IDX 55 88 56 89 62 90 64 91 57 92 58 93 59 94 60 95 61 96
REMARK H PARENT 18 6 6 14 23 27 85 46 51 57
REMARK Flexibility Score: inf
ROOT
ATOM      1  C   UNL A   1      31.683  26.827  26.023  1.00  0.00     0.023 C 
ENDROOT
BRANCH   1   2
ATOM      2  C   UNL A   1      31.457  25.917  24.822  1.00  0.00     0.116 C 
BRANCH   2   3
ATOM      3  N   UNL A   1      32.405  26.189  23.753  1.00  0.00    -0.354 N 
ATOM      4  C   UNL A   1      33.329  25.384  23.150  1.00  0.00     0.242 C 
ATOM      5  O   UNL A   1      33.926  25.824  22.165  1.00  0.00    -0.273 OA
ATOM      6  H   UNL A   1      32.375  27.109  23.405  1.00  0.00     0.163 HD
BRANCH   4   7
ATOM      7  C   UNL A   1      33.548  23.934  23.621  1.00  0.00     0.171 C 
BRANCH   7   8
ATOM      8  C   UNL A   1      35.053  23.683  23.850  1.00  0.00     0.038 C 
BRANCH   8   9
ATOM      9  C   UNL A   1      35.445  23.198  25.265  1.00  0.00    -0.015 C 
ATOM     10  C   UNL A   1      36.767  23.769  25.774  1.00  0.00     0.007 C 
ATOM     11  C   UNL A   1      34.321  23.543  26.249  1.00  0.00     0.007 C 
ENDBRANCH   8   9
ENDBRANCH   7   8
BRANCH   7  12
ATOM     12  N   UNL A   1      32.935  23.028  22.638  1.00  0.00    -0.344 N 
ATOM     13  C   UNL A   1      32.404  21.783  22.777  1.00  0.00     0.225 C 
ATOM     14  H   UNL A   1      32.903  23.385  21.721  1.00  0.00     0.164 HD
ATOM     15  O   UNL A   1      31.940  21.240  21.771  1.00  0.00    -0.275 OA
BRANCH  13  16
ATOM     16  C   UNL A   1      32.363  21.095  24.129  1.00  0.00     0.135 C 
BRANCH  16  17
ATOM     17  C   UNL A   1      33.029  19.745  24.135  1.00  0.00    -0.039 A 
ATOM     18  C   UNL A   1      34.305  19.593  24.693  1.00  0.00     0.004 A 
ATOM     19  C   UNL A   1      32.414  18.637  23.533  1.00  0.00     0.004 A 
ATOM     20  C   UNL A   1      34.995  18.387  24.561  1.00  0.00     0.000 A 
ATOM     21  C   UNL A   1      33.101  17.429  23.411  1.00  0.00     0.000 A 
ATOM     22  C   UNL A   1      34.399  17.312  23.905  1.00  0.00     0.000 A 
ENDBRANCH  16  17
ENDBRANCH  13  16
ENDBRANCH   7  12
ENDBRANCH   4   7
ENDBRANCH   2   3
ENDBRANCH   1   2
BRANCH   1  23
ATOM     23  C   UNL A   1      32.778  27.872  25.822  1.00  0.00     0.023 C 
BRANCH  23  24
ATOM     24  C   UNL A   1      33.538  28.256  27.087  1.00  0.00     0.116 C 
BRANCH  24  25
ATOM     25  N   UNL A   1      33.437  29.676  27.394  1.00  0.00    -0.352 N 
ATOM     26  C   UNL A   1      34.375  30.500  27.970  1.00  0.00     0.251 C 
ATOM     27  H   UNL A   1      32.583  30.103  27.157  1.00  0.00     0.163 HD
ATOM     28  O   UNL A   1      34.069  31.641  28.304  1.00  0.00    -0.269 OA
BRANCH  26  29
ATOM     29  C   UNL A   1      35.740  29.990  28.208  1.00  0.00     0.039 A 
ATOM     30  C   UNL A   1      36.678  30.055  27.176  1.00  0.00     0.014 A 
ATOM     31  C   UNL A   1      36.101  29.484  29.461  1.00  0.00     0.014 A 
ATOM     32  C   UNL A   1      38.000  29.680  27.423  1.00  0.00     0.010 A 
ATOM     33  C   UNL A   1      37.434  29.187  29.726  1.00  0.00     0.010 A 
ATOM     34  C   UNL A   1      38.398  29.282  28.711  1.00  0.00    -0.014 A 
BRANCH  34  35
ATOM     35  C   UNL A   1      39.817  28.965  29.017  1.00  0.00     0.031 A 
ATOM     36  C   UNL A   1      40.711  30.014  29.621  1.00  0.00     0.074 A 
ATOM     37  C   UNL A   1      40.317  27.757  28.688  1.00  0.00     0.049 A 
ATOM     38  N   UNL A   1      41.990  29.953  29.889  1.00  0.00    -0.248 NA
ATOM     39  C   UNL A   1      40.092  31.311  29.940  1.00  0.00     0.031 C 
ATOM     40  C   UNL A   1      39.564  26.674  28.049  1.00  0.00     0.029 A 
ATOM     41  N   UNL A   1      41.580  27.238  28.834  1.00  0.00    -0.354 N 
ATOM     42  C   UNL A   1      42.330  31.203  30.396  1.00  0.00     0.074 A 
ATOM     43  C   UNL A   1      41.137  32.019  30.343  1.00  0.00     0.031 C 
ATOM     44  C   UNL A   1      40.374  25.617  27.877  1.00  0.00     0.029 A 
ATOM     45  C   UNL A   1      41.711  25.955  28.355  1.00  0.00     0.049 A 
ATOM     46  H   UNL A   1      42.322  27.739  29.243  1.00  0.00     0.167 HD
ATOM     47  C   UNL A   1      43.520  31.622  30.886  1.00  0.00     0.037 A 
ATOM     48  C   UNL A   1      42.787  25.147  28.299  1.00  0.00     0.037 A 
ATOM     49  C   UNL A   1      44.699  30.797  30.957  1.00  0.00     0.049 A 
ATOM     50  C   UNL A   1      44.100  25.637  28.847  1.00  0.00     0.074 A 
ATOM     51  C   UNL A   1      45.939  31.113  31.484  1.00  0.00     0.029 A 
ATOM     52  N   UNL A   1      44.784  29.495  30.486  1.00  0.00    -0.354 N 
ATOM     53  N   UNL A   1      44.388  26.800  29.382  1.00  0.00    -0.248 NA
ATOM     54  C   UNL A   1      45.234  24.704  28.794  1.00  0.00     0.031 C 
ATOM     55  C   UNL A   1      46.786  30.017  31.291  1.00  0.00     0.029 A 
ATOM     56  C   UNL A   1      46.061  28.999  30.693  1.00  0.00     0.049 A 
ATOM     57  H   UNL A   1      44.046  28.996  30.067  1.00  0.00     0.167 HD
ATOM     58  C   UNL A   1      45.727  26.728  29.753  1.00  0.00     0.074 A 
ATOM     59  C   UNL A   1      46.187  25.403  29.393  1.00  0.00     0.031 C 
ATOM     60  C   UNL A   1      46.503  27.674  30.337  1.00  0.00     0.037 A 
BRANCH  47  61
ATOM     61  C   UNL A   1      43.607  33.036  31.393  1.00  0.00     0.058 A 
ATOM     62  C   UNL A   1      43.236  33.371  32.706  1.00  0.00     0.135 A 
ATOM     63  C   UNL A   1      44.103  34.063  30.574  1.00  0.00     0.135 A 
ATOM     64  F   UNL A   1      42.740  32.433  33.529  1.00  0.00    -0.206 F 
ATOM     65  C   UNL A   1      43.324  34.676  33.177  1.00  0.00     0.059 A 
ATOM     66  C   UNL A   1      44.228  35.370  31.033  1.00  0.00     0.059 A 
ATOM     67  F   UNL A   1      44.472  33.800  29.309  1.00  0.00    -0.206 F 
ATOM     68  C   UNL A   1      43.822  35.670  32.334  1.00  0.00     0.060 A 
BRANCH  68  69
ATOM     69  S   UNL A   1      43.938  37.357  32.965  1.00  0.00     0.124 S 
ATOM     70  O   UNL A   1      45.261  37.346  33.583  1.00  0.00    -0.237 OA
ATOM     71  O   UNL A   1      43.813  38.154  31.750  1.00  0.00    -0.237 OA
ATOM     72  O   UNL A   1      42.814  37.451  33.892  1.00  0.00    -0.744 OA
ENDBRANCH  68  69
ENDBRANCH  47  61
BRANCH  48  73
ATOM     73  C   UNL A   1      42.664  23.784  27.715  1.00  0.00     0.058 A 
ATOM     74  C   UNL A   1      42.719  23.583  26.328  1.00  0.00     0.135 A 
ATOM     75  C   UNL A   1      42.496  22.655  28.532  1.00  0.00     0.135 A 
ATOM     76  F   UNL A   1      42.873  24.632  25.505  1.00  0.00    -0.206 F 
ATOM     77  C   UNL A   1      42.592  22.315  25.769  1.00  0.00     0.059 A 
ATOM     78  C   UNL A   1      42.394  21.374  27.999  1.00  0.00     0.059 A 
ATOM     79  F   UNL A   1      42.454  22.789  29.866  1.00  0.00    -0.206 F 
ATOM     80  C   UNL A   1      42.432  21.216  26.613  1.00  0.00     0.060 A 
BRANCH  80  81
ATOM     81  S   UNL A   1      42.312  19.570  25.880  1.00  0.00     0.124 S 
ATOM     82  O   UNL A   1      43.331  19.638  24.838  1.00  0.00    -0.237 OA
ATOM     83  O   UNL A   1      42.616  18.705  27.016  1.00  0.00    -0.237 OA
ATOM     84  O   UNL A   1      40.931  19.513  25.410  1.00  0.00    -0.744 OA
ENDBRANCH  80  81
ENDBRANCH  48  73
BRANCH  60  85
ATOM     85  C   UNL A   1      47.923  27.301  30.662  1.00  0.00     0.058 A 
ATOM     86  C   UNL A   1      48.249  26.555  31.806  1.00  0.00     0.135 A 
ATOM     87  C   UNL A   1      48.966  27.647  29.786  1.00  0.00     0.135 A 
ATOM     88  F   UNL A   1      47.291  26.204  32.679  1.00  0.00    -0.206 F 
ATOM     89  C   UNL A   1      49.562  26.186  32.082  1.00  0.00     0.059 A 
ATOM     90  C   UNL A   1      50.281  27.263  30.028  1.00  0.00     0.059 A 
ATOM     91  F   UNL A   1      48.708  28.350  28.672  1.00  0.00    -0.206 F 
ATOM     92  C   UNL A   1      50.570  26.543  31.186  1.00  0.00     0.060 A 
BRANCH  92  93
ATOM     93  S   UNL A   1      52.264  26.026  31.539  1.00  0.00     0.124 S 
ATOM     94  O   UNL A   1      52.877  26.106  30.218  1.00  0.00    -0.237 OA
ATOM     95  O   UNL A   1      52.702  27.029  32.505  1.00  0.00    -0.237 OA
ATOM     96  O   UNL A   1      52.103  24.677  32.076  1.00  0.00    -0.744 OA
ENDBRANCH  92  93
ENDBRANCH  60  85
ENDBRANCH  34  35
ENDBRANCH  26  29
ENDBRANCH  24  25
ENDBRANCH  23  24
ENDBRANCH   1  23
TORSDOF 19
ENDMDL
MODEL 2
REMARK VINA RESULT:     -10.8      2.978      9.408
REMARK SMILES CC(C)C[C@H](NC(=O)Cc1ccccc1)C(=O)NCCCCNC(=O)c1ccc(-c2c3nc(c(-c4c(F)cc(S(=O)(=O)[O-])cc4F)c4ccc([nH]4)c(-c4c(F)cc(S(=O)(=O)[O-])cc4F)c4nc(c(-c5c(F)cc(S(=O)(=O)[O-])cc5F)c5ccc2[nH]5)C=C4)C=C3)cc1
REMARK SMILES IDX 20 1 19 2 18 3 16 4 17 5 5 7 4 8 2 9 1 10 3 11 6 12 7 13
REMARK SMILES IDX 8 15 9 16 10 17 11 18 15 19 12 20 14 21 13 22 21 23 22 24
REMARK SMILES IDX 23 25 24 26 25 28 26 29 27 30 91 31 28 32 90 33 29 34 30 35
REMARK SMILES IDX 31 36 84 37 32 38 89 39 83 40 85 41 33 42 88 43 82 44 81 45
REMARK SMILES IDX 34 47 68 48 47 49 67 50 48 51 51 52 66 53 86 54 49 55 50 56
REMARK SMILES IDX 65 58 87 59 52 60 35 61 36 62 45 63 37 64 38 65 44 66 46 67
REMARK SMILES IDX 39 68 40 69 41 70 42 71 43 72 69 73 70 74 79 75 71 76 72 77
REMARK SMILES IDX 78 78 80 79 73 80 74 81 75 82 76 83 77 84 53 85 54 86 63 87
REMARK SMILES IDX 55 88 56 89 62 90 64 91 57 92 58 93 59 94 60 95 61 96
REMARK H PARENT 18 6 6 14 23 27 85 46 51 57
REMARK Flexibility Score: inf
ROOT
ATOM      1  C   UNL A   1      35.576  22.466  24.007  1.00  0.00     0.023 C 
ENDROOT
BRANCH   1   2
ATOM      2  C   UNL A   1      34.401  21.835  24.744  1.00  0.00     0.116 C 
BRANCH   2   3
ATOM      3  N   UNL A   1      33.383  21.352  23.823  1.00  0.00    -0.354 N 
ATOM      4  C   UNL A   1      32.457  22.026  23.078  1.00  0.00     0.242 C 
ATOM      5  O   UNL A   1      31.789  21.383  22.266  1.00  0.00    -0.273 OA
ATOM      6  H   UNL A   1      33.358  20.373  23.719  1.00  0.00     0.163 HD
BRANCH   4   7
ATOM      7  C   UNL A   1      32.320  23.556  23.175  1.00  0.00     0.171 C 
BRANCH   7   8
ATOM      8  C   UNL A   1      30.974  23.917  23.837  1.00  0.00     0.038 C 
BRANCH   8   9
ATOM      9  C   UNL A   1      31.056  24.405  25.302  1.00  0.00    -0.015 C 
ATOM     10  C   UNL A   1      32.462  24.806  25.746  1.00  0.00     0.007 C 
ATOM     11  C   UNL A   1      30.097  25.584  25.500  1.00  0.00     0.007 C 
ENDBRANCH   8   9
ENDBRANCH   7   8
BRANCH   7  12
ATOM     12  N   UNL A   1      32.496  24.125  21.830  1.00  0.00    -0.344 N 
ATOM     13  C   UNL A   1      32.958  25.339  21.425  1.00  0.00     0.225 C 
ATOM     14  H   UNL A   1      32.235  23.523  21.096  1.00  0.00     0.164 HD
ATOM     15  O   UNL A   1      33.010  25.559  20.212  1.00  0.00    -0.275 OA
BRANCH  13  16
ATOM     16  C   UNL A   1      33.415  26.379  22.430  1.00  0.00     0.135 C 
BRANCH  16  17
ATOM     17  C   UNL A   1      32.298  27.249  22.944  1.00  0.00    -0.039 A 
ATOM     18  C   UNL A   1      31.060  27.264  22.289  1.00  0.00     0.004 A 
ATOM     19  C   UNL A   1      32.496  28.097  24.044  1.00  0.00     0.004 A 
ATOM     20  C   UNL A   1      30.076  28.181  22.659  1.00  0.00     0.000 A 
ATOM     21  C   UNL A   1      31.506  29.006  24.420  1.00  0.00     0.000 A 
ATOM     22  C   UNL A   1      30.306  29.063  23.713  1.00  0.00     0.000 A 
ENDBRANCH  16  17
ENDBRANCH  13  16
ENDBRANCH   7  12
ENDBRANCH   4   7
ENDBRANCH   2   3
ENDBRANCH   1   2
BRANCH   1  23
ATOM     23  C   UNL A   1      36.066  23.780  24.615  1.00  0.00     0.023 C 
BRANCH  23  24
ATOM     24  C   UNL A   1      36.717  23.648  25.987  1.00  0.00     0.116 C 
BRANCH  24  25
ATOM     25  N   UNL A   1      37.905  22.805  25.966  1.00  0.00    -0.352 N 
ATOM     26  C   UNL A   1      39.185  23.115  26.361  1.00  0.00     0.251 C 
ATOM     27  H   UNL A   1      37.774  21.892  25.623  1.00  0.00     0.163 HD
ATOM     28  O   UNL A   1      40.105  22.336  26.128  1.00  0.00    -0.269 OA
BRANCH  26  29
ATOM     29  C   UNL A   1      39.444  24.401  27.038  1.00  0.00     0.039 A 
ATOM     30  C   UNL A   1      38.959  24.595  28.333  1.00  0.00     0.014 A 
ATOM     31  C   UNL A   1      40.198  25.397  26.408  1.00  0.00     0.014 A 
ATOM     32  C   UNL A   1      39.293  25.761  29.025  1.00  0.00     0.010 A 
ATOM     33  C   UNL A   1      40.594  26.519  27.128  1.00  0.00     0.010 A 
ATOM     34  C   UNL A   1      40.147  26.714  28.443  1.00  0.00    -0.014 A 
BRANCH  34  35
ATOM     35  C   UNL A   1      40.586  27.918  29.196  1.00  0.00     0.031 A 
ATOM     36  C   UNL A   1      41.928  27.934  29.876  1.00  0.00     0.074 A 
ATOM     37  C   UNL A   1      39.750  28.967  29.323  1.00  0.00     0.049 A 
ATOM     38  N   UNL A   1      42.456  28.857  30.638  1.00  0.00    -0.248 NA
ATOM     39  C   UNL A   1      42.778  26.745  29.698  1.00  0.00     0.031 C 
ATOM     40  C   UNL A   1      38.402  29.050  28.755  1.00  0.00     0.029 A 
ATOM     41  N   UNL A   1      39.903  30.162  29.982  1.00  0.00    -0.354 N 
ATOM     42  C   UNL A   1      43.690  28.357  31.039  1.00  0.00     0.074 A 
ATOM     43  C   UNL A   1      43.807  27.026  30.483  1.00  0.00     0.031 C 
ATOM     44  C   UNL A   1      37.862  30.237  29.073  1.00  0.00     0.029 A 
ATOM     45  C   UNL A   1      38.805  30.986  29.898  1.00  0.00     0.049 A 
ATOM     46  H   UNL A   1      40.724  30.406  30.468  1.00  0.00     0.167 HD
ATOM     47  C   UNL A   1      44.649  28.962  31.779  1.00  0.00     0.037 A 
ATOM     48  C   UNL A   1      38.579  32.201  30.434  1.00  0.00     0.037 A 
ATOM     49  C   UNL A   1      44.536  30.296  32.309  1.00  0.00     0.049 A 
ATOM     50  C   UNL A   1      39.659  32.852  31.255  1.00  0.00     0.074 A 
ATOM     51  C   UNL A   1      45.473  31.018  33.028  1.00  0.00     0.029 A 
ATOM     52  N   UNL A   1      43.418  31.108  32.181  1.00  0.00    -0.354 N 
ATOM     53  N   UNL A   1      40.845  32.390  31.571  1.00  0.00    -0.248 NA
ATOM     54  C   UNL A   1      39.375  34.193  31.786  1.00  0.00     0.031 C 
ATOM     55  C   UNL A   1      44.905  32.249  33.371  1.00  0.00     0.029 A 
ATOM     56  C   UNL A   1      43.635  32.316  32.823  1.00  0.00     0.049 A 
ATOM     57  H   UNL A   1      42.593  30.862  31.704  1.00  0.00     0.167 HD
ATOM     58  C   UNL A   1      41.459  33.394  32.314  1.00  0.00     0.074 A 
ATOM     59  C   UNL A   1      40.517  34.492  32.388  1.00  0.00     0.031 C 
ATOM     60  C   UNL A   1      42.690  33.404  32.882  1.00  0.00     0.037 A 
BRANCH  47  61
ATOM     61  C   UNL A   1      45.911  28.189  32.052  1.00  0.00     0.058 A 
ATOM     62  C   UNL A   1      46.039  27.365  33.182  1.00  0.00     0.135 A 
ATOM     63  C   UNL A   1      46.990  28.238  31.155  1.00  0.00     0.135 A 
ATOM     64  F   UNL A   1      45.044  27.291  34.082  1.00  0.00    -0.206 F 
ATOM     65  C   UNL A   1      47.202  26.643  33.430  1.00  0.00     0.059 A 
ATOM     66  C   UNL A   1      48.152  27.502  31.367  1.00  0.00     0.059 A 
ATOM     67  F   UNL A   1      46.923  29.010  30.058  1.00  0.00    -0.206 F 
ATOM     68  C   UNL A   1      48.254  26.718  32.516  1.00  0.00     0.060 A 
BRANCH  68  69
ATOM     69  S   UNL A   1      49.752  25.768  32.849  1.00  0.00     0.124 S 
ATOM     70  O   UNL A   1      50.685  26.823  33.236  1.00  0.00    -0.237 OA
ATOM     71  O   UNL A   1      49.324  24.876  33.921  1.00  0.00    -0.237 OA
ATOM     72  O   UNL A   1      50.034  25.119  31.572  1.00  0.00    -0.744 OA
ENDBRANCH  68  69
ENDBRANCH  47  61
BRANCH  48  73
ATOM     73  C   UNL A   1      37.280  32.889  30.196  1.00  0.00     0.058 A 
ATOM     74  C   UNL A   1      36.211  32.745  31.092  1.00  0.00     0.135 A 
ATOM     75  C   UNL A   1      37.086  33.709  29.074  1.00  0.00     0.135 A 
ATOM     76  F   UNL A   1      36.345  31.967  32.177  1.00  0.00    -0.206 F 
ATOM     77  C   UNL A   1      34.987  33.372  30.875  1.00  0.00     0.059 A 
ATOM     78  C   UNL A   1      35.882  34.368  28.848  1.00  0.00     0.059 A 
ATOM     79  F   UNL A   1      38.083  33.895  28.195  1.00  0.00    -0.206 F 
ATOM     80  C   UNL A   1      34.834  34.184  29.750  1.00  0.00     0.060 A 
BRANCH  80  81
ATOM     81  S   UNL A   1      33.257  35.028  29.500  1.00  0.00     0.124 S 
ATOM     82  O   UNL A   1      32.638  34.196  28.474  1.00  0.00    -0.237 OA
ATOM     83  O   UNL A   1      32.657  34.955  30.829  1.00  0.00    -0.237 OA
ATOM     84  O   UNL A   1      33.656  36.365  29.073  1.00  0.00    -0.744 OA
ENDBRANCH  80  81
ENDBRANCH  48  73
BRANCH  60  85
ATOM     85  C   UNL A   1      43.110  34.655  33.604  1.00  0.00     0.058 A 
ATOM     86  C   UNL A   1      42.906  34.816  34.983  1.00  0.00     0.135 A 
ATOM     87  C   UNL A   1      43.776  35.682  32.915  1.00  0.00     0.135 A 
ATOM     88  F   UNL A   1      42.268  33.867  35.688  1.00  0.00    -0.206 F 
ATOM     89  C   UNL A   1      43.327  35.963  35.650  1.00  0.00     0.059 A 
ATOM     90  C   UNL A   1      44.231  36.823  33.567  1.00  0.00     0.059 A 
ATOM     91  F   UNL A   1      44.007  35.573  31.597  1.00  0.00    -0.206 F 
ATOM     92  C   UNL A   1      43.991  36.959  34.933  1.00  0.00     0.060 A 
BRANCH  92  93
ATOM     93  S   UNL A   1      44.562  38.426  35.818  1.00  0.00     0.124 S 
ATOM     94  O   UNL A   1      46.007  38.220  35.825  1.00  0.00    -0.237 OA
ATOM     95  O   UNL A   1      44.080  39.511  34.970  1.00  0.00    -0.237 OA
ATOM     96  O   UNL A   1      43.907  38.316  37.118  1.00  0.00    -0.744 OA
ENDBRANCH  92  93
ENDBRANCH  60  85
ENDBRANCH  34  35
ENDBRANCH  26  29
ENDBRANCH  24  25
ENDBRANCH  23  24
ENDBRANCH   1  23
TORSDOF 19
ENDMDL
MODEL 3
REMARK VINA RESULT:     -10.8      4.879     10.634
REMARK SMILES CC(C)C[C@H](NC(=O)Cc1ccccc1)C(=O)NCCCCNC(=O)c1ccc(-c2c3nc(c(-c4c(F)cc(S(=O)(=O)[O-])cc4F)c4ccc([nH]4)c(-c4c(F)cc(S(=O)(=O)[O-])cc4F)c4nc(c(-c5c(F)cc(S(=O)(=O)[O-])cc5F)c5ccc2[nH]5)C=C4)C=C3)cc1
REMARK SMILES IDX 20 1 19 2 18 3 16 4 17 5 5 7 4 8 2 9 1 10 3 11 6 12 7 13
REMARK SMILES IDX 8 15 9 16 10 17 11 18 15 19 12 20 14 21 13 22 21 23 22 24
REMARK SMILES IDX 23 25 24 26 25 28 26 29 27 30 91 31 28 32 90 33 29 34 30 35
REMARK SMILES IDX 31 36 84 37 32 38 89 39 83 40 85 41 33 42 88 43 82 44 81 45
REMARK SMILES IDX 34 47 68 48 47 49 67 50 48 51 51 52 66 53 86 54 49 55 50 56
REMARK SMILES IDX 65 58 87 59 52 60 35 61 36 62 45 63 37 64 38 65 44 66 46 67
REMARK SMILES IDX 39 68 40 69 41 70 42 71 43 72 69 73 70 74 79 75 71 76 72 77
REMARK SMILES IDX 78 78 80 79 73 80 74 81 75 82 76 83 77 84 53 85 54 86 63 87
REMARK SMILES IDX 55 88 56 89 62 90 64 91 57 92 58 93 59 94 60 95 61 96
REMARK H PARENT 18 6 6 14 23 27 85 46 51 57
REMARK Flexibility Score: inf
ROOT
ATOM      1  C   UNL A   1      36.530  23.655  25.007  1.00  0.00     0.023 C 
ENDROOT
BRANCH   1   2
ATOM      2  C   UNL A   1      35.226  22.911  25.266  1.00  0.00     0.116 C 
BRANCH   2   3
ATOM      3  N   UNL A   1      34.576  22.513  24.026  1.00  0.00    -0.354 N 
ATOM      4  C   UNL A   1      33.531  23.070  23.344  1.00  0.00     0.242 C 
ATOM      5  O   UNL A   1      33.254  22.610  22.234  1.00  0.00    -0.273 OA
ATOM      6  H   UNL A   1      34.954  21.706  23.607  1.00  0.00     0.163 HD
BRANCH   4   7
ATOM      7  C   UNL A   1      32.786  24.298  23.897  1.00  0.00     0.171 C 
BRANCH   7   8
ATOM      8  C   UNL A   1      33.625  25.570  23.652  1.00  0.00     0.038 C 
BRANCH   8   9
ATOM      9  C   UNL A   1      33.457  26.226  22.261  1.00  0.00    -0.015 C 
ATOM     10  C   UNL A   1      32.106  25.950  21.603  1.00  0.00     0.007 C 
ATOM     11  C   UNL A   1      33.670  27.739  22.385  1.00  0.00     0.007 C 
ENDBRANCH   8   9
ENDBRANCH   7   8
BRANCH   7  12
ATOM     12  N   UNL A   1      32.474  24.054  25.314  1.00  0.00    -0.344 N 
ATOM     13  C   UNL A   1      31.421  24.448  26.080  1.00  0.00     0.225 C 
ATOM     14  H   UNL A   1      33.144  23.510  25.790  1.00  0.00     0.164 HD
ATOM     15  O   UNL A   1      31.403  24.090  27.260  1.00  0.00    -0.275 OA
BRANCH  13  16
ATOM     16  C   UNL A   1      30.295  25.280  25.495  1.00  0.00     0.135 C 
BRANCH  16  17
ATOM     17  C   UNL A   1      30.637  26.740  25.358  1.00  0.00    -0.039 A 
ATOM     18  C   UNL A   1      30.204  27.462  24.238  1.00  0.00     0.004 A 
ATOM     19  C   UNL A   1      31.440  27.382  26.312  1.00  0.00     0.004 A 
ATOM     20  C   UNL A   1      30.649  28.767  24.024  1.00  0.00     0.000 A 
ATOM     21  C   UNL A   1      31.875  28.691  26.101  1.00  0.00     0.000 A 
ATOM     22  C   UNL A   1      31.498  29.374  24.947  1.00  0.00     0.000 A 
ENDBRANCH  16  17
ENDBRANCH  13  16
ENDBRANCH   7  12
ENDBRANCH   4   7
ENDBRANCH   2   3
ENDBRANCH   1   2
BRANCH   1  23
ATOM     23  C   UNL A   1      37.742  23.068  25.726  1.00  0.00     0.023 C 
BRANCH  23  24
ATOM     24  C   UNL A   1      38.604  24.084  26.468  1.00  0.00     0.116 C 
BRANCH  24  25
ATOM     25  N   UNL A   1      40.018  23.963  26.146  1.00  0.00    -0.352 N 
ATOM     26  C   UNL A   1      41.059  24.776  26.526  1.00  0.00     0.251 C 
ATOM     27  H   UNL A   1      40.262  23.195  25.580  1.00  0.00     0.163 HD
ATOM     28  O   UNL A   1      42.174  24.620  26.035  1.00  0.00    -0.269 OA
BRANCH  26  29
ATOM     29  C   UNL A   1      40.817  25.854  27.507  1.00  0.00     0.039 A 
ATOM     30  C   UNL A   1      39.808  25.691  28.458  1.00  0.00     0.014 A 
ATOM     31  C   UNL A   1      41.611  27.005  27.508  1.00  0.00     0.014 A 
ATOM     32  C   UNL A   1      39.644  26.651  29.458  1.00  0.00     0.010 A 
ATOM     33  C   UNL A   1      41.498  27.919  28.551  1.00  0.00     0.010 A 
ATOM     34  C   UNL A   1      40.513  27.752  29.537  1.00  0.00    -0.014 A 
BRANCH  34  35
ATOM     35  C   UNL A   1      40.413  28.738  30.644  1.00  0.00     0.031 A 
ATOM     36  C   UNL A   1      41.274  28.586  31.869  1.00  0.00     0.074 A 
ATOM     37  C   UNL A   1      39.500  29.726  30.577  1.00  0.00     0.049 A 
ATOM     38  N   UNL A   1      41.278  29.297  32.968  1.00  0.00    -0.248 NA
ATOM     39  C   UNL A   1      42.238  27.474  31.871  1.00  0.00     0.031 C 
ATOM     40  C   UNL A   1      38.570  29.947  29.466  1.00  0.00     0.029 A 
ATOM     41  N   UNL A   1      39.192  30.727  31.466  1.00  0.00    -0.354 N 
ATOM     42  C   UNL A   1      42.233  28.712  33.793  1.00  0.00     0.074 A 
ATOM     43  C   UNL A   1      42.745  27.555  33.092  1.00  0.00     0.031 C 
ATOM     44  C   UNL A   1      37.813  31.023  29.731  1.00  0.00     0.029 A 
ATOM     45  C   UNL A   1      38.172  31.548  31.045  1.00  0.00     0.049 A 
ATOM     46  H   UNL A   1      39.659  30.845  32.324  1.00  0.00     0.167 HD
ATOM     47  C   UNL A   1      42.662  29.119  35.010  1.00  0.00     0.037 A 
ATOM     48  C   UNL A   1      37.587  32.599  31.652  1.00  0.00     0.037 A 
ATOM     49  C   UNL A   1      42.164  30.285  35.693  1.00  0.00     0.049 A 
ATOM     50  C   UNL A   1      38.080  33.030  33.007  1.00  0.00     0.074 A 
ATOM     51  C   UNL A   1      42.571  30.810  36.907  1.00  0.00     0.029 A 
ATOM     52  N   UNL A   1      41.150  31.106  35.222  1.00  0.00    -0.354 N 
ATOM     53  N   UNL A   1      39.027  32.503  33.745  1.00  0.00    -0.248 NA
ATOM     54  C   UNL A   1      37.431  34.203  33.610  1.00  0.00     0.031 C 
ATOM     55  C   UNL A   1      41.773  31.923  37.191  1.00  0.00     0.029 A 
ATOM     56  C   UNL A   1      40.904  32.123  36.130  1.00  0.00     0.049 A 
ATOM     57  H   UNL A   1      40.674  30.984  34.368  1.00  0.00     0.167 HD
ATOM     58  C   UNL A   1      39.107  33.296  34.885  1.00  0.00     0.074 A 
ATOM     59  C   UNL A   1      38.120  34.345  34.733  1.00  0.00     0.031 C 
ATOM     60  C   UNL A   1      39.923  33.166  35.961  1.00  0.00     0.037 A 
BRANCH  47  61
ATOM     61  C   UNL A   1      43.732  28.300  35.682  1.00  0.00     0.058 A 
ATOM     62  C   UNL A   1      45.096  28.542  35.453  1.00  0.00     0.135 A 
ATOM     63  C   UNL A   1      43.393  27.289  36.595  1.00  0.00     0.135 A 
ATOM     64  F   UNL A   1      45.478  29.487  34.578  1.00  0.00    -0.206 F 
ATOM     65  C   UNL A   1      46.085  27.792  36.080  1.00  0.00     0.059 A 
ATOM     66  C   UNL A   1      44.365  26.545  37.257  1.00  0.00     0.059 A 
ATOM     67  F   UNL A   1      42.104  27.013  36.852  1.00  0.00    -0.206 F 
ATOM     68  C   UNL A   1      45.710  26.795  36.982  1.00  0.00     0.060 A 
BRANCH  68  69
ATOM     69  S   UNL A   1      47.006  25.836  37.794  1.00  0.00     0.124 S 
ATOM     70  O   UNL A   1      46.841  24.530  37.162  1.00  0.00    -0.237 OA
ATOM     71  O   UNL A   1      48.212  26.570  37.427  1.00  0.00    -0.237 OA
ATOM     72  O   UNL A   1      46.642  25.900  39.206  1.00  0.00    -0.744 OA
ENDBRANCH  68  69
ENDBRANCH  47  61
BRANCH  48  73
ATOM     73  C   UNL A   1      36.479  33.326  30.975  1.00  0.00     0.058 A 
ATOM     74  C   UNL A   1      35.156  33.212  31.427  1.00  0.00     0.135 A 
ATOM     75  C   UNL A   1      36.721  34.155  29.869  1.00  0.00     0.135 A 
ATOM     76  F   UNL A   1      34.872  32.427  32.478  1.00  0.00    -0.206 F 
ATOM     77  C   UNL A   1      34.108  33.876  30.796  1.00  0.00     0.059 A 
ATOM     78  C   UNL A   1      35.695  34.851  29.237  1.00  0.00     0.059 A 
ATOM     79  F   UNL A   1      37.971  34.313  29.407  1.00  0.00    -0.206 F 
ATOM     80  C   UNL A   1      34.389  34.696  29.701  1.00  0.00     0.060 A 
BRANCH  80  81
ATOM     81  S   UNL A   1      33.030  35.588  28.916  1.00  0.00     0.124 S 
ATOM     82  O   UNL A   1      32.238  35.993  30.072  1.00  0.00    -0.237 OA
ATOM     83  O   UNL A   1      33.731  36.659  28.215  1.00  0.00    -0.237 OA
ATOM     84  O   UNL A   1      32.421  34.579  28.055  1.00  0.00    -0.744 OA
ENDBRANCH  80  81
ENDBRANCH  48  73
BRANCH  60  85
ATOM     85  C   UNL A   1      39.814  34.205  37.043  1.00  0.00     0.058 A 
ATOM     86  C   UNL A   1      40.391  35.477  36.908  1.00  0.00     0.135 A 
ATOM     87  C   UNL A   1      39.072  33.941  38.207  1.00  0.00     0.135 A 
ATOM     88  F   UNL A   1      41.115  35.779  35.818  1.00  0.00    -0.206 F 
ATOM     89  C   UNL A   1      40.257  36.443  37.901  1.00  0.00     0.059 A 
ATOM     90  C   UNL A   1      38.901  34.902  39.197  1.00  0.00     0.059 A 
ATOM     91  F   UNL A   1      38.490  32.744  38.381  1.00  0.00    -0.206 F 
ATOM     92  C   UNL A   1      39.508  36.146  39.040  1.00  0.00     0.060 A 
BRANCH  92  93
ATOM     93  S   UNL A   1      39.314  37.422  40.303  1.00  0.00     0.124 S 
ATOM     94  O   UNL A   1      40.701  37.781  40.575  1.00  0.00    -0.237 OA
ATOM     95  O   UNL A   1      38.521  38.432  39.608  1.00  0.00    -0.237 OA
ATOM     96  O   UNL A   1      38.621  36.728  41.385  1.00  0.00    -0.744 OA
ENDBRANCH  92  93
ENDBRANCH  60  85
ENDBRANCH  34  35
ENDBRANCH  26  29
ENDBRANCH  24  25
ENDBRANCH  23  24
ENDBRANCH   1  23
TORSDOF 19
ENDMDL
