MODEL 1
REMARK VINA RESULT:     -10.8      0.000      0.000
REMARK SMILES Cc1cscc1-c1noc(SCC(=O)NCCCCNC(=O)c2ccc(-c3c4nc(c(-c5c(F)cc(S(=O)(=O)[O-])cc5F)c5ccc([nH]5)c(-c5c(F)cc(S(=O)(=O)[O-])cc5F)c5nc(c(-c6c(F)cc(S(=O)(=O)[O-])cc6F)c6ccc3[nH]6)C=C5)C=C4)cc2)n1
REMARK SMILES IDX 17 1 16 2 15 3 13 4 14 5 12 7 11 8 10 9 7 10 8 11 89 12 9 13
REMARK SMILES IDX 6 14 1 15 2 16 3 17 4 18 5 19 18 20 19 21 20 22 21 23 22 25
REMARK SMILES IDX 23 26 24 27 88 28 25 29 87 30 26 31 27 32 28 33 81 34 29 35
REMARK SMILES IDX 86 36 80 37 82 38 30 39 85 40 79 41 78 42 31 44 65 45 44 46
REMARK SMILES IDX 64 47 45 48 48 49 63 50 83 51 46 52 47 53 62 55 84 56 49 57
REMARK SMILES IDX 32 58 33 59 42 60 34 61 35 62 41 63 43 64 36 65 37 66 38 67
REMARK SMILES IDX 39 68 40 69 66 70 67 71 76 72 68 73 69 74 75 75 77 76 70 77
REMARK SMILES IDX 71 78 72 79 73 80 74 81 50 82 51 83 60 84 52 85 53 86 59 87
REMARK SMILES IDX 61 88 54 89 55 90 56 91 57 92 58 93
REMARK H PARENT 15 6 20 24 82 43 48 54
REMARK Flexibility Score: inf
ROOT
ATOM      1  C   UNL A   1      31.481  28.841  25.751  1.00  0.00     0.023 C 
ENDROOT
BRANCH   1   2
ATOM      2  C   UNL A   1      32.259  29.121  24.464  1.00  0.00     0.116 C 
BRANCH   2   3
ATOM      3  N   UNL A   1      31.362  29.357  23.348  1.00  0.00    -0.355 N 
ATOM      4  C   UNL A   1      30.792  28.477  22.475  1.00  0.00     0.230 C 
ATOM      5  O   UNL A   1      30.044  28.940  21.611  1.00  0.00    -0.274 OA
ATOM      6  H   UNL A   1      31.128  30.301  23.196  1.00  0.00     0.163 HD
BRANCH   4   7
ATOM      7  C   UNL A   1      30.961  26.981  22.645  1.00  0.00     0.179 C 
BRANCH   7   8
ATOM      8  S   UNL A   1      32.385  26.271  21.791  1.00  0.00    -0.055 SA
BRANCH   8   9
ATOM      9  C   UNL A   1      33.252  25.477  23.063  1.00  0.00     0.286 A 
ATOM     10  C   UNL A   1      34.486  24.228  24.193  1.00  0.00     0.204 A 
ATOM     11  N   UNL A   1      33.792  24.882  25.132  1.00  0.00    -0.056 NA
ATOM     12  N   UNL A   1      34.177  24.562  22.900  1.00  0.00    -0.181 NA
ATOM     13  O   UNL A   1      32.984  25.735  24.381  1.00  0.00    -0.327 OA
BRANCH  10  14
ATOM     14  C   UNL A   1      35.430  23.153  24.491  1.00  0.00     0.036 A 
ATOM     15  C   UNL A   1      33.676  21.222  24.490  1.00  0.00     0.046 C 
ATOM     16  C   UNL A   1      35.057  21.772  24.639  1.00  0.00    -0.029 A 
ATOM     17  C   UNL A   1      36.172  20.999  24.915  1.00  0.00     0.069 A 
ATOM     18  S   UNL A   1      37.618  21.907  24.988  1.00  0.00    -0.151 S 
ATOM     19  C   UNL A   1      36.787  23.354  24.637  1.00  0.00     0.077 A 
ENDBRANCH  10  14
ENDBRANCH   8   9
ENDBRANCH   7   8
ENDBRANCH   4   7
ENDBRANCH   2   3
ENDBRANCH   1   2
BRANCH   1  20
ATOM     20  C   UNL A   1      32.210  27.935  26.750  1.00  0.00     0.023 C 
BRANCH  20  21
ATOM     21  C   UNL A   1      33.539  28.473  27.270  1.00  0.00     0.116 C 
BRANCH  21  22
ATOM     22  N   UNL A   1      33.472  29.877  27.646  1.00  0.00    -0.352 N 
ATOM     23  C   UNL A   1      34.425  30.668  28.236  1.00  0.00     0.251 C 
ATOM     24  H   UNL A   1      32.617  30.324  27.448  1.00  0.00     0.163 HD
ATOM     25  O   UNL A   1      34.123  31.800  28.612  1.00  0.00    -0.269 OA
BRANCH  23  26
ATOM     26  C   UNL A   1      35.797  30.157  28.451  1.00  0.00     0.039 A 
ATOM     27  C   UNL A   1      36.699  30.188  27.384  1.00  0.00     0.014 A 
ATOM     28  C   UNL A   1      36.201  29.652  29.691  1.00  0.00     0.014 A 
ATOM     29  C   UNL A   1      38.020  29.780  27.580  1.00  0.00     0.010 A 
ATOM     30  C   UNL A   1      37.538  29.317  29.904  1.00  0.00     0.010 A 
ATOM     31  C   UNL A   1      38.463  29.381  28.853  1.00  0.00    -0.014 A 
BRANCH  31  32
ATOM     32  C   UNL A   1      39.897  29.069  29.096  1.00  0.00     0.031 A 
ATOM     33  C   UNL A   1      40.826  30.105  29.669  1.00  0.00     0.074 A 
ATOM     34  C   UNL A   1      40.374  27.855  28.750  1.00  0.00     0.049 A 
ATOM     35  N   UNL A   1      42.104  30.010  29.934  1.00  0.00    -0.248 NA
ATOM     36  C   UNL A   1      40.251  31.426  29.965  1.00  0.00     0.031 C 
ATOM     37  C   UNL A   1      39.589  26.784  28.131  1.00  0.00     0.029 A 
ATOM     38  N   UNL A   1      41.631  27.316  28.868  1.00  0.00    -0.354 N 
ATOM     39  C   UNL A   1      42.487  31.254  30.422  1.00  0.00     0.074 A 
ATOM     40  C   UNL A   1      41.318  32.105  30.362  1.00  0.00     0.031 C 
ATOM     41  C   UNL A   1      40.372  25.709  27.953  1.00  0.00     0.029 A 
ATOM     42  C   UNL A   1      41.724  26.023  28.405  1.00  0.00     0.049 A 
ATOM     43  H   UNL A   1      42.395  27.808  29.247  1.00  0.00     0.167 HD
ATOM     44  C   UNL A   1      43.695  31.645  30.896  1.00  0.00     0.037 A 
ATOM     45  C   UNL A   1      42.777  25.186  28.347  1.00  0.00     0.037 A 
ATOM     46  C   UNL A   1      44.853  30.789  30.962  1.00  0.00     0.049 A 
ATOM     47  C   UNL A   1      44.108  25.645  28.873  1.00  0.00     0.074 A 
ATOM     48  C   UNL A   1      46.105  31.074  31.479  1.00  0.00     0.029 A 
ATOM     49  N   UNL A   1      44.907  29.485  30.489  1.00  0.00    -0.354 N 
ATOM     50  N   UNL A   1      44.432  26.802  29.401  1.00  0.00    -0.248 NA
ATOM     51  C   UNL A   1      45.217  24.684  28.805  1.00  0.00     0.031 C 
ATOM     52  C   UNL A   1      46.931  29.965  31.268  1.00  0.00     0.029 A 
ATOM     53  C   UNL A   1      46.178  28.964  30.675  1.00  0.00     0.049 A 
ATOM     54  H   UNL A   1      44.152  29.002  30.081  1.00  0.00     0.167 HD
ATOM     55  C   UNL A   1      45.775  26.700  29.747  1.00  0.00     0.074 A 
ATOM     56  C   UNL A   1      46.195  25.359  29.391  1.00  0.00     0.031 C 
ATOM     57  C   UNL A   1      46.587  27.630  30.308  1.00  0.00     0.037 A 
BRANCH  44  58
ATOM     58  C   UNL A   1      43.829  33.064  31.386  1.00  0.00     0.058 A 
ATOM     59  C   UNL A   1      44.202  34.110  30.527  1.00  0.00     0.135 A 
ATOM     60  C   UNL A   1      43.537  33.389  32.721  1.00  0.00     0.135 A 
ATOM     61  F   UNL A   1      44.507  33.858  29.244  1.00  0.00    -0.206 F 
ATOM     62  C   UNL A   1      44.310  35.422  30.980  1.00  0.00     0.059 A 
ATOM     63  C   UNL A   1      43.608  34.699  33.189  1.00  0.00     0.059 A 
ATOM     64  F   UNL A   1      43.174  32.430  33.587  1.00  0.00    -0.206 F 
ATOM     65  C   UNL A   1      44.009  35.706  32.312  1.00  0.00     0.060 A 
BRANCH  65  66
ATOM     66  S   UNL A   1      44.146  37.416  32.880  1.00  0.00     0.124 S 
ATOM     67  O   UNL A   1      44.027  38.149  31.623  1.00  0.00    -0.237 OA
ATOM     68  O   UNL A   1      43.012  37.532  33.791  1.00  0.00    -0.237 OA
ATOM     69  O   UNL A   1      45.462  37.462  33.510  1.00  0.00    -0.744 OA
ENDBRANCH  65  66
ENDBRANCH  44  58
BRANCH  45  70
ATOM     70  C   UNL A   1      42.609  23.818  27.783  1.00  0.00     0.058 A 
ATOM     71  C   UNL A   1      42.460  22.702  28.621  1.00  0.00     0.135 A 
ATOM     72  C   UNL A   1      42.583  23.600  26.397  1.00  0.00     0.135 A 
ATOM     73  F   UNL A   1      42.484  22.857  29.953  1.00  0.00    -0.206 F 
ATOM     74  C   UNL A   1      42.312  21.418  28.107  1.00  0.00     0.059 A 
ATOM     75  C   UNL A   1      42.406  22.329  25.858  1.00  0.00     0.059 A 
ATOM     76  F   UNL A   1      42.704  24.635  25.550  1.00  0.00    -0.206 F 
ATOM     77  C   UNL A   1      42.283  21.243  26.722  1.00  0.00     0.060 A 
BRANCH  77  78
ATOM     78  S   UNL A   1      42.041  19.578  26.066  1.00  0.00     0.124 S 
ATOM     79  O   UNL A   1      42.441  18.754  27.201  1.00  0.00    -0.237 OA
ATOM     80  O   UNL A   1      40.618  19.579  25.746  1.00  0.00    -0.237 OA
ATOM     81  O   UNL A   1      42.935  19.540  24.912  1.00  0.00    -0.744 OA
ENDBRANCH  77  78
ENDBRANCH  45  70
BRANCH  57  82
ATOM     82  C   UNL A   1      48.009  27.221  30.591  1.00  0.00     0.058 A 
ATOM     83  C   UNL A   1      48.362  26.535  31.765  1.00  0.00     0.135 A 
ATOM     84  C   UNL A   1      49.029  27.502  29.668  1.00  0.00     0.135 A 
ATOM     85  F   UNL A   1      47.427  26.244  32.685  1.00  0.00    -0.206 F 
ATOM     86  C   UNL A   1      49.681  26.180  32.033  1.00  0.00     0.059 A 
ATOM     87  C   UNL A   1      50.349  27.126  29.899  1.00  0.00     0.059 A 
ATOM     88  F   UNL A   1      48.748  28.143  28.522  1.00  0.00    -0.206 F 
ATOM     89  C   UNL A   1      50.667  26.483  31.094  1.00  0.00     0.060 A 
BRANCH  89  90
ATOM     90  S   UNL A   1      52.373  26.013  31.451  1.00  0.00     0.124 S 
ATOM     91  O   UNL A   1      52.786  27.075  32.363  1.00  0.00    -0.237 OA
ATOM     92  O   UNL A   1      52.215  24.690  32.048  1.00  0.00    -0.237 OA
ATOM     93  O   UNL A   1      53.013  26.030  30.139  1.00  0.00    -0.744 OA
ENDBRANCH  89  90
ENDBRANCH  57  82
ENDBRANCH  31  32
ENDBRANCH  23  26
ENDBRANCH  21  22
ENDBRANCH  20  21
ENDBRANCH   1  20
TORSDOF 17
ENDMDL
MODEL 2
REMARK VINA RESULT:     -10.7      5.662     11.785
REMARK SMILES Cc1cscc1-c1noc(SCC(=O)NCCCCNC(=O)c2ccc(-c3c4nc(c(-c5c(F)cc(S(=O)(=O)[O-])cc5F)c5ccc([nH]5)c(-c5c(F)cc(S(=O)(=O)[O-])cc5F)c5nc(c(-c6c(F)cc(S(=O)(=O)[O-])cc6F)c6ccc3[nH]6)C=C5)C=C4)cc2)n1
REMARK SMILES IDX 17 1 16 2 15 3 13 4 14 5 12 7 11 8 10 9 7 10 8 11 89 12 9 13
REMARK SMILES IDX 6 14 1 15 2 16 3 17 4 18 5 19 18 20 19 21 20 22 21 23 22 25
REMARK SMILES IDX 23 26 24 27 88 28 25 29 87 30 26 31 27 32 28 33 81 34 29 35
REMARK SMILES IDX 86 36 80 37 82 38 30 39 85 40 79 41 78 42 31 44 65 45 44 46
REMARK SMILES IDX 64 47 45 48 48 49 63 50 83 51 46 52 47 53 62 55 84 56 49 57
REMARK SMILES IDX 32 58 33 59 42 60 34 61 35 62 41 63 43 64 36 65 37 66 38 67
REMARK SMILES IDX 39 68 40 69 66 70 67 71 76 72 68 73 69 74 75 75 77 76 70 77
REMARK SMILES IDX 71 78 72 79 73 80 74 81 50 82 51 83 60 84 52 85 53 86 59 87
REMARK SMILES IDX 61 88 54 89 55 90 56 91 57 92 58 93
REMARK H PARENT 15 6 20 24 82 43 48 54
REMARK Flexibility Score: inf
ROOT
ATOM      1  C   UNL A   1      40.766  21.234  27.198  1.00  0.00     0.023 C 
ENDROOT
BRANCH   1   2
ATOM      2  C   UNL A   1      40.808  20.004  26.290  1.00  0.00     0.116 C 
BRANCH   2   3
ATOM      3  N   UNL A   1      41.724  19.002  26.802  1.00  0.00    -0.355 N 
ATOM      4  C   UNL A   1      42.873  18.503  26.265  1.00  0.00     0.230 C 
ATOM      5  O   UNL A   1      43.484  17.654  26.920  1.00  0.00    -0.274 OA
ATOM      6  H   UNL A   1      41.476  18.623  27.677  1.00  0.00     0.163 HD
BRANCH   4   7
ATOM      7  C   UNL A   1      43.450  19.064  24.981  1.00  0.00     0.179 C 
BRANCH   7   8
ATOM      8  S   UNL A   1      45.228  19.378  25.016  1.00  0.00    -0.055 SA
BRANCH   8   9
ATOM      9  C   UNL A   1      45.323  21.108  25.004  1.00  0.00     0.286 A 
ATOM     10  C   UNL A   1      45.710  23.113  25.441  1.00  0.00     0.204 A 
ATOM     11  N   UNL A   1      44.843  23.196  24.426  1.00  0.00    -0.056 NA
ATOM     12  N   UNL A   1      46.028  21.839  25.834  1.00  0.00    -0.181 NA
ATOM     13  O   UNL A   1      44.601  21.859  24.115  1.00  0.00    -0.327 OA
BRANCH  10  14
ATOM     14  C   UNL A   1      46.213  24.276  26.168  1.00  0.00     0.036 A 
ATOM     15  C   UNL A   1      47.769  25.153  24.267  1.00  0.00     0.046 C 
ATOM     16  C   UNL A   1      47.169  25.208  25.635  1.00  0.00    -0.029 A 
ATOM     17  C   UNL A   1      47.443  26.201  26.560  1.00  0.00     0.069 A 
ATOM     18  S   UNL A   1      46.576  26.015  28.021  1.00  0.00    -0.151 S 
ATOM     19  C   UNL A   1      45.801  24.610  27.442  1.00  0.00     0.077 A 
ENDBRANCH  10  14
ENDBRANCH   8   9
ENDBRANCH   7   8
ENDBRANCH   4   7
ENDBRANCH   2   3
ENDBRANCH   1   2
BRANCH   1  20
ATOM     20  C   UNL A   1      42.094  21.559  27.891  1.00  0.00     0.023 C 
BRANCH  20  21
ATOM     21  C   UNL A   1      42.462  23.039  27.938  1.00  0.00     0.116 C 
BRANCH  21  22
ATOM     22  N   UNL A   1      42.494  23.654  26.620  1.00  0.00    -0.352 N 
ATOM     23  C   UNL A   1      42.171  24.936  26.248  1.00  0.00     0.251 C 
ATOM     24  H   UNL A   1      42.789  23.066  25.889  1.00  0.00     0.163 HD
ATOM     25  O   UNL A   1      42.121  25.223  25.053  1.00  0.00    -0.269 OA
BRANCH  23  26
ATOM     26  C   UNL A   1      41.854  25.957  27.270  1.00  0.00     0.039 A 
ATOM     27  C   UNL A   1      40.732  25.769  28.081  1.00  0.00     0.014 A 
ATOM     28  C   UNL A   1      42.653  27.094  27.437  1.00  0.00     0.014 A 
ATOM     29  C   UNL A   1      40.452  26.680  29.101  1.00  0.00     0.010 A 
ATOM     30  C   UNL A   1      42.416  27.961  28.503  1.00  0.00     0.010 A 
ATOM     31  C   UNL A   1      41.316  27.762  29.350  1.00  0.00    -0.014 A 
BRANCH  31  32
ATOM     32  C   UNL A   1      41.094  28.661  30.514  1.00  0.00     0.031 A 
ATOM     33  C   UNL A   1      41.926  28.527  31.761  1.00  0.00     0.074 A 
ATOM     34  C   UNL A   1      40.101  29.572  30.462  1.00  0.00     0.049 A 
ATOM     35  N   UNL A   1      41.861  29.215  32.873  1.00  0.00    -0.248 NA
ATOM     36  C   UNL A   1      42.949  27.471  31.771  1.00  0.00     0.031 C 
ATOM     37  C   UNL A   1      39.186  29.761  29.333  1.00  0.00     0.029 A 
ATOM     38  N   UNL A   1      39.692  30.511  31.376  1.00  0.00    -0.354 N 
ATOM     39  C   UNL A   1      42.827  28.675  33.713  1.00  0.00     0.074 A 
ATOM     40  C   UNL A   1      43.426  27.565  33.005  1.00  0.00     0.031 C 
ATOM     41  C   UNL A   1      38.347  30.771  29.609  1.00  0.00     0.029 A 
ATOM     42  C   UNL A   1      38.633  31.276  30.947  1.00  0.00     0.049 A 
ATOM     43  H   UNL A   1      40.116  30.624  32.258  1.00  0.00     0.167 HD
ATOM     44  C   UNL A   1      43.197  29.081  34.953  1.00  0.00     0.037 A 
ATOM     45  C   UNL A   1      37.963  32.271  31.562  1.00  0.00     0.037 A 
ATOM     46  C   UNL A   1      42.604  30.196  35.649  1.00  0.00     0.049 A 
ATOM     47  C   UNL A   1      38.389  32.698  32.939  1.00  0.00     0.074 A 
ATOM     48  C   UNL A   1      42.947  30.721  36.883  1.00  0.00     0.029 A 
ATOM     49  N   UNL A   1      41.537  30.950  35.180  1.00  0.00    -0.354 N 
ATOM     50  N   UNL A   1      39.356  32.225  33.688  1.00  0.00    -0.248 NA
ATOM     51  C   UNL A   1      37.638  33.801  33.554  1.00  0.00     0.031 C 
ATOM     52  C   UNL A   1      42.055  31.755  37.185  1.00  0.00     0.029 A 
ATOM     53  C   UNL A   1      41.192  31.916  36.113  1.00  0.00     0.049 A 
ATOM     54  H   UNL A   1      41.091  30.817  34.313  1.00  0.00     0.167 HD
ATOM     55  C   UNL A   1      39.344  32.986  34.852  1.00  0.00     0.074 A 
ATOM     56  C   UNL A   1      38.289  33.967  34.696  1.00  0.00     0.031 C 
ATOM     57  C   UNL A   1      40.133  32.882  35.950  1.00  0.00     0.037 A 
BRANCH  44  58
ATOM     58  C   UNL A   1      44.301  28.318  35.639  1.00  0.00     0.058 A 
ATOM     59  C   UNL A   1      45.652  28.659  35.467  1.00  0.00     0.135 A 
ATOM     60  C   UNL A   1      44.001  27.263  36.516  1.00  0.00     0.135 A 
ATOM     61  F   UNL A   1      46.000  29.650  34.631  1.00  0.00    -0.206 F 
ATOM     62  C   UNL A   1      46.667  27.962  36.115  1.00  0.00     0.059 A 
ATOM     63  C   UNL A   1      44.999  26.572  37.199  1.00  0.00     0.059 A 
ATOM     64  F   UNL A   1      42.726  26.894  36.721  1.00  0.00    -0.206 F 
ATOM     65  C   UNL A   1      46.331  26.921  36.980  1.00  0.00     0.060 A 
BRANCH  65  66
ATOM     66  S   UNL A   1      47.662  26.034  37.820  1.00  0.00     0.124 S 
ATOM     67  O   UNL A   1      47.431  24.666  37.364  1.00  0.00    -0.237 OA
ATOM     68  O   UNL A   1      48.854  26.686  37.288  1.00  0.00    -0.237 OA
ATOM     69  O   UNL A   1      47.394  26.276  39.234  1.00  0.00    -0.744 OA
ENDBRANCH  65  66
ENDBRANCH  44  58
BRANCH  45  70
ATOM     70  C   UNL A   1      36.830  32.943  30.869  1.00  0.00     0.058 A 
ATOM     71  C   UNL A   1      37.056  33.951  29.919  1.00  0.00     0.135 A 
ATOM     72  C   UNL A   1      35.499  32.585  31.135  1.00  0.00     0.135 A 
ATOM     73  F   UNL A   1      38.310  34.333  29.634  1.00  0.00    -0.206 F 
ATOM     74  C   UNL A   1      36.006  34.593  29.272  1.00  0.00     0.059 A 
ATOM     75  C   UNL A   1      34.432  33.192  30.479  1.00  0.00     0.059 A 
ATOM     76  F   UNL A   1      35.227  31.615  32.023  1.00  0.00    -0.206 F 
ATOM     77  C   UNL A   1      34.696  34.203  29.557  1.00  0.00     0.060 A 
BRANCH  77  78
ATOM     78  S   UNL A   1      33.342  35.010  28.675  1.00  0.00     0.124 S 
ATOM     79  O   UNL A   1      32.746  33.887  27.961  1.00  0.00    -0.237 OA
ATOM     80  O   UNL A   1      32.552  35.563  29.770  1.00  0.00    -0.237 OA
ATOM     81  O   UNL A   1      34.025  35.996  27.844  1.00  0.00    -0.744 OA
ENDBRANCH  77  78
ENDBRANCH  45  70
BRANCH  57  82
ATOM     82  C   UNL A   1      39.899  33.872  37.061  1.00  0.00     0.058 A 
ATOM     83  C   UNL A   1      40.550  35.117  37.094  1.00  0.00     0.135 A 
ATOM     84  C   UNL A   1      38.997  33.580  38.098  1.00  0.00     0.135 A 
ATOM     85  F   UNL A   1      41.425  35.446  36.131  1.00  0.00    -0.206 F 
ATOM     86  C   UNL A   1      40.347  36.017  38.135  1.00  0.00     0.059 A 
ATOM     87  C   UNL A   1      38.753  34.480  39.131  1.00  0.00     0.059 A 
ATOM     88  F   UNL A   1      38.336  32.412  38.111  1.00  0.00    -0.206 F 
ATOM     89  C   UNL A   1      39.448  35.687  39.151  1.00  0.00     0.060 A 
BRANCH  89  90
ATOM     90  S   UNL A   1      39.191  36.866  40.493  1.00  0.00     0.124 S 
ATOM     91  O   UNL A   1      40.561  37.128  40.922  1.00  0.00    -0.237 OA
ATOM     92  O   UNL A   1      38.517  37.970  39.815  1.00  0.00    -0.237 OA
ATOM     93  O   UNL A   1      38.367  36.126  41.444  1.00  0.00    -0.744 OA
ENDBRANCH  89  90
ENDBRANCH  57  82
ENDBRANCH  31  32
ENDBRANCH  23  26
ENDBRANCH  21  22
ENDBRANCH  20  21
ENDBRANCH   1  20
TORSDOF 17
ENDMDL
MODEL 3
REMARK VINA RESULT:     -10.7      4.613      5.904
REMARK SMILES Cc1cscc1-c1noc(SCC(=O)NCCCCNC(=O)c2ccc(-c3c4nc(c(-c5c(F)cc(S(=O)(=O)[O-])cc5F)c5ccc([nH]5)c(-c5c(F)cc(S(=O)(=O)[O-])cc5F)c5nc(c(-c6c(F)cc(S(=O)(=O)[O-])cc6F)c6ccc3[nH]6)C=C5)C=C4)cc2)n1
REMARK SMILES IDX 17 1 16 2 15 3 13 4 14 5 12 7 11 8 10 9 7 10 8 11 89 12 9 13
REMARK SMILES IDX 6 14 1 15 2 16 3 17 4 18 5 19 18 20 19 21 20 22 21 23 22 25
REMARK SMILES IDX 23 26 24 27 88 28 25 29 87 30 26 31 27 32 28 33 81 34 29 35
REMARK SMILES IDX 86 36 80 37 82 38 30 39 85 40 79 41 78 42 31 44 65 45 44 46
REMARK SMILES IDX 64 47 45 48 48 49 63 50 83 51 46 52 47 53 62 55 84 56 49 57
REMARK SMILES IDX 32 58 33 59 42 60 34 61 35 62 41 63 43 64 36 65 37 66 38 67
REMARK SMILES IDX 39 68 40 69 66 70 67 71 76 72 68 73 69 74 75 75 77 76 70 77
REMARK SMILES IDX 71 78 72 79 73 80 74 81 50 82 51 83 60 84 52 85 53 86 59 87
REMARK SMILES IDX 61 88 54 89 55 90 56 91 57 92 58 93
REMARK H PARENT 15 6 20 24 82 43 48 54
REMARK Flexibility Score: inf
ROOT
ATOM      1  C   UNL A   1      31.751  30.385  26.733  1.00  0.00     0.023 C 
ENDROOT
BRANCH   1   2
ATOM      2  C   UNL A   1      32.037  29.858  25.326  1.00  0.00     0.116 C 
BRANCH   2   3
ATOM      3  N   UNL A   1      31.265  28.663  25.045  1.00  0.00    -0.355 N 
ATOM      4  C   UNL A   1      31.071  27.996  23.871  1.00  0.00     0.230 C 
ATOM      5  O   UNL A   1      30.370  26.981  23.905  1.00  0.00    -0.274 OA
ATOM      6  H   UNL A   1      30.807  28.272  25.825  1.00  0.00     0.163 HD
BRANCH   4   7
ATOM      7  C   UNL A   1      31.797  28.404  22.605  1.00  0.00     0.179 C 
BRANCH   7   8
ATOM      8  S   UNL A   1      33.559  28.012  22.576  1.00  0.00    -0.055 SA
BRANCH   8   9
ATOM      9  C   UNL A   1      33.577  26.280  22.528  1.00  0.00     0.286 A 
ATOM     10  C   UNL A   1      33.735  24.248  22.982  1.00  0.00     0.204 A 
ATOM     11  N   UNL A   1      33.592  24.241  21.651  1.00  0.00    -0.056 NA
ATOM     12  N   UNL A   1      33.738  25.490  23.562  1.00  0.00    -0.181 NA
ATOM     13  O   UNL A   1      33.461  25.595  21.348  1.00  0.00    -0.327 OA
BRANCH  10  14
ATOM     14  C   UNL A   1      33.984  23.045  23.772  1.00  0.00     0.036 A 
ATOM     15  C   UNL A   1      36.541  22.900  23.279  1.00  0.00     0.046 C 
ATOM     16  C   UNL A   1      35.270  22.417  23.901  1.00  0.00    -0.029 A 
ATOM     17  C   UNL A   1      35.184  21.300  24.715  1.00  0.00     0.069 A 
ATOM     18  S   UNL A   1      33.605  21.022  25.307  1.00  0.00    -0.151 S 
ATOM     19  C   UNL A   1      33.004  22.399  24.499  1.00  0.00     0.077 A 
ENDBRANCH  10  14
ENDBRANCH   8   9
ENDBRANCH   7   8
ENDBRANCH   4   7
ENDBRANCH   2   3
ENDBRANCH   1   2
BRANCH   1  20
ATOM     20  C   UNL A   1      31.607  31.908  26.826  1.00  0.00     0.023 C 
BRANCH  20  21
ATOM     21  C   UNL A   1      32.817  32.646  27.391  1.00  0.00     0.116 C 
BRANCH  21  22
ATOM     22  N   UNL A   1      32.526  34.033  27.722  1.00  0.00    -0.352 N 
ATOM     23  C   UNL A   1      33.086  34.834  28.687  1.00  0.00     0.251 C 
ATOM     24  H   UNL A   1      31.827  34.458  27.176  1.00  0.00     0.163 HD
ATOM     25  O   UNL A   1      32.598  35.940  28.910  1.00  0.00    -0.269 OA
BRANCH  23  26
ATOM     26  C   UNL A   1      34.246  34.362  29.475  1.00  0.00     0.039 A 
ATOM     27  C   UNL A   1      34.018  33.795  30.731  1.00  0.00     0.014 A 
ATOM     28  C   UNL A   1      35.552  34.471  28.986  1.00  0.00     0.014 A 
ATOM     29  C   UNL A   1      35.087  33.276  31.463  1.00  0.00     0.010 A 
ATOM     30  C   UNL A   1      36.608  33.885  29.683  1.00  0.00     0.010 A 
ATOM     31  C   UNL A   1      36.387  33.277  30.927  1.00  0.00    -0.014 A 
BRANCH  31  32
ATOM     32  C   UNL A   1      37.507  32.611  31.645  1.00  0.00     0.031 A 
ATOM     33  C   UNL A   1      38.000  33.140  32.965  1.00  0.00     0.074 A 
ATOM     34  C   UNL A   1      38.113  31.549  31.077  1.00  0.00     0.049 A 
ATOM     35  N   UNL A   1      38.971  32.694  33.721  1.00  0.00    -0.248 NA
ATOM     36  C   UNL A   1      37.333  34.339  33.495  1.00  0.00     0.031 C 
ATOM     37  C   UNL A   1      37.766  30.976  29.773  1.00  0.00     0.029 A 
ATOM     38  N   UNL A   1      39.147  30.760  31.518  1.00  0.00    -0.354 N 
ATOM     39  C   UNL A   1      39.034  33.555  34.810  1.00  0.00     0.074 A 
ATOM     40  C   UNL A   1      38.041  34.584  34.589  1.00  0.00     0.031 C 
ATOM     41  C   UNL A   1      38.550  29.912  29.536  1.00  0.00     0.029 A 
ATOM     42  C   UNL A   1      39.482  29.750  30.647  1.00  0.00     0.049 A 
ATOM     43  H   UNL A   1      39.606  30.906  32.377  1.00  0.00     0.167 HD
ATOM     44  C   UNL A   1      39.830  33.482  35.905  1.00  0.00     0.037 A 
ATOM     45  C   UNL A   1      40.434  28.801  30.729  1.00  0.00     0.037 A 
ATOM     46  C   UNL A   1      40.810  32.448  36.125  1.00  0.00     0.049 A 
ATOM     47  C   UNL A   1      41.309  28.745  31.952  1.00  0.00     0.074 A 
ATOM     48  C   UNL A   1      41.625  32.254  37.227  1.00  0.00     0.029 A 
ATOM     49  N   UNL A   1      41.117  31.439  35.222  1.00  0.00    -0.354 N 
ATOM     50  N   UNL A   1      41.302  29.524  33.007  1.00  0.00    -0.248 NA
ATOM     51  C   UNL A   1      42.317  27.677  31.999  1.00  0.00     0.031 C 
ATOM     52  C   UNL A   1      42.462  31.164  36.969  1.00  0.00     0.029 A 
ATOM     53  C   UNL A   1      42.129  30.638  35.731  1.00  0.00     0.049 A 
ATOM     54  H   UNL A   1      40.681  31.311  34.349  1.00  0.00     0.167 HD
ATOM     55  C   UNL A   1      42.288  29.027  33.853  1.00  0.00     0.074 A 
ATOM     56  C   UNL A   1      42.853  27.865  33.196  1.00  0.00     0.031 C 
ATOM     57  C   UNL A   1      42.690  29.489  35.063  1.00  0.00     0.037 A 
BRANCH  44  58
ATOM     58  C   UNL A   1      39.674  34.551  36.956  1.00  0.00     0.058 A 
ATOM     59  C   UNL A   1      38.893  34.348  38.105  1.00  0.00     0.135 A 
ATOM     60  C   UNL A   1      40.351  35.775  36.836  1.00  0.00     0.135 A 
ATOM     61  F   UNL A   1      38.212  33.203  38.268  1.00  0.00    -0.206 F 
ATOM     62  C   UNL A   1      38.764  35.332  39.081  1.00  0.00     0.059 A 
ATOM     63  C   UNL A   1      40.262  36.761  37.816  1.00  0.00     0.059 A 
ATOM     64  F   UNL A   1      41.114  36.024  35.759  1.00  0.00    -0.206 F 
ATOM     65  C   UNL A   1      39.454  36.534  38.928  1.00  0.00     0.060 A 
BRANCH  65  66
ATOM     66  S   UNL A   1      39.282  37.795  40.210  1.00  0.00     0.124 S 
ATOM     67  O   UNL A   1      38.936  36.982  41.373  1.00  0.00    -0.237 OA
ATOM     68  O   UNL A   1      40.610  38.399  40.233  1.00  0.00    -0.237 OA
ATOM     69  O   UNL A   1      38.214  38.652  39.705  1.00  0.00    -0.744 OA
ENDBRANCH  65  66
ENDBRANCH  44  58
BRANCH  45  70
ATOM     70  C   UNL A   1      40.598  27.813  29.628  1.00  0.00     0.058 A 
ATOM     71  C   UNL A   1      39.740  26.708  29.512  1.00  0.00     0.135 A 
ATOM     72  C   UNL A   1      41.606  27.959  28.663  1.00  0.00     0.135 A 
ATOM     73  F   UNL A   1      38.764  26.521  30.413  1.00  0.00    -0.206 F 
ATOM     74  C   UNL A   1      39.888  25.773  28.492  1.00  0.00     0.059 A 
ATOM     75  C   UNL A   1      41.755  27.054  27.616  1.00  0.00     0.059 A 
ATOM     76  F   UNL A   1      42.443  29.008  28.717  1.00  0.00    -0.206 F 
ATOM     77  C   UNL A   1      40.898  25.958  27.546  1.00  0.00     0.060 A 
BRANCH  77  78
ATOM     78  S   UNL A   1      41.050  24.764  26.199  1.00  0.00     0.124 S 
ATOM     79  O   UNL A   1      39.681  24.276  26.085  1.00  0.00    -0.237 OA
ATOM     80  O   UNL A   1      41.524  25.601  25.103  1.00  0.00    -0.237 OA
ATOM     81  O   UNL A   1      42.023  23.804  26.712  1.00  0.00    -0.744 OA
ENDBRANCH  77  78
ENDBRANCH  45  70
BRANCH  57  82
ATOM     82  C   UNL A   1      43.780  28.723  35.765  1.00  0.00     0.058 A 
ATOM     83  C   UNL A   1      45.138  29.043  35.595  1.00  0.00     0.135 A 
ATOM     84  C   UNL A   1      43.463  27.666  36.634  1.00  0.00     0.135 A 
ATOM     85  F   UNL A   1      45.498  30.042  34.773  1.00  0.00    -0.206 F 
ATOM     86  C   UNL A   1      46.142  28.317  36.228  1.00  0.00     0.059 A 
ATOM     87  C   UNL A   1      44.450  26.948  37.303  1.00  0.00     0.059 A 
ATOM     88  F   UNL A   1      42.182  27.324  36.845  1.00  0.00    -0.206 F 
ATOM     89  C   UNL A   1      45.787  27.269  37.078  1.00  0.00     0.060 A 
BRANCH  89  90
ATOM     90  S   UNL A   1      47.099  26.337  37.896  1.00  0.00     0.124 S 
ATOM     91  O   UNL A   1      47.376  27.177  39.057  1.00  0.00    -0.237 OA
ATOM     92  O   UNL A   1      46.446  25.062  38.179  1.00  0.00    -0.237 OA
ATOM     93  O   UNL A   1      48.157  26.285  36.893  1.00  0.00    -0.744 OA
ENDBRANCH  89  90
ENDBRANCH  57  82
ENDBRANCH  31  32
ENDBRANCH  23  26
ENDBRANCH  21  22
ENDBRANCH  20  21
ENDBRANCH   1  20
TORSDOF 17
ENDMDL
