MODEL 1
REMARK VINA RESULT:     -11.9      0.000      0.000
REMARK SMILES C[C@H](C(=O)NCCCCNC(=O)c1ccc(-c2c3nc(c(-c4c(F)cc(S(=O)(=O)[O-])cc4F)c4ccc([nH]4)c(-c4c(F)cc(S(=O)(=O)[O-])cc4F)c4nc(c(-c5c(F)cc(S(=O)(=O)[O-])cc5F)c5ccc2[nH]5)C=C4)C=C3)cc1)N1C(=O)/C(=C/c2ccccc2F)SC1=S
REMARK SMILES IDX 8 1 7 2 6 3 5 4 3 5 4 6 2 8 1 9 79 10 80 11 92 12 81 13
REMARK SMILES IDX 82 14 91 15 93 16 83 17 84 18 85 19 89 20 86 21 88 22 90 23
REMARK SMILES IDX 87 24 9 25 10 26 11 27 12 29 13 30 14 31 78 32 15 33 77 34
REMARK SMILES IDX 16 35 17 36 18 37 71 38 19 39 76 40 70 41 72 42 20 43 75 44
REMARK SMILES IDX 69 45 68 46 21 48 55 49 34 50 54 51 35 52 38 53 53 54 73 55
REMARK SMILES IDX 36 56 37 57 52 59 74 60 39 61 22 62 23 63 32 64 24 65 25 66
REMARK SMILES IDX 31 67 33 68 26 69 27 70 28 71 29 72 30 73 56 74 57 75 66 76
REMARK SMILES IDX 58 77 59 78 65 79 67 80 60 81 61 82 62 83 63 84 64 85 40 86
REMARK SMILES IDX 41 87 50 88 42 89 43 90 49 91 51 92 44 93 45 94 46 95 47 96
REMARK SMILES IDX 48 97
REMARK H PARENT 5 7 10 28 72 47 38 58
REMARK Flexibility Score: inf
ROOT
ATOM      1  C   UNL A   1      34.001  28.713  25.998  1.00  0.00     0.023 C 
ENDROOT
BRANCH   1   2
ATOM      2  C   UNL A   1      33.199  29.476  24.945  1.00  0.00     0.023 C 
BRANCH   2   3
ATOM      3  C   UNL A   1      33.350  28.956  23.515  1.00  0.00     0.116 C 
BRANCH   3   4
ATOM      4  N   UNL A   1      32.073  28.864  22.841  1.00  0.00    -0.354 N 
ATOM      5  C   UNL A   1      31.103  27.908  22.828  1.00  0.00     0.242 C 
ATOM      6  O   UNL A   1      30.087  28.193  22.181  1.00  0.00    -0.273 OA
ATOM      7  H   UNL A   1      31.865  29.646  22.279  1.00  0.00     0.163 HD
BRANCH   5   8
ATOM      8  C   UNL A   1      31.118  26.655  23.746  1.00  0.00     0.178 C 
ATOM      9  C   UNL A   1      29.816  25.860  23.590  1.00  0.00     0.042 C 
BRANCH   8  10
ATOM     10  N   UNL A   1      32.295  25.775  23.661  1.00  0.00    -0.281 N 
ATOM     11  C   UNL A   1      32.946  25.407  24.826  1.00  0.00     0.266 C 
ATOM     12  C   UNL A   1      32.866  25.335  22.481  1.00  0.00     0.149 C 
ATOM     13  O   UNL A   1      32.668  25.780  25.956  1.00  0.00    -0.268 OA
ATOM     14  C   UNL A   1      34.015  24.416  24.529  1.00  0.00     0.081 C 
ATOM     15  S   UNL A   1      34.185  24.226  22.834  1.00  0.00    -0.054 SA
ATOM     16  S   UNL A   1      32.443  25.711  20.912  1.00  0.00    -0.052 S 
ATOM     17  C   UNL A   1      34.620  23.730  25.508  1.00  0.00     0.032 C 
BRANCH  17  18
ATOM     18  C   UNL A   1      35.590  22.640  25.330  1.00  0.00     0.012 A 
ATOM     19  C   UNL A   1      35.112  21.336  25.144  1.00  0.00     0.011 A 
ATOM     20  C   UNL A   1      36.973  22.849  25.367  1.00  0.00     0.130 A 
ATOM     21  C   UNL A   1      36.005  20.273  24.974  1.00  0.00     0.001 A 
ATOM     22  C   UNL A   1      37.865  21.794  25.193  1.00  0.00     0.040 A 
ATOM     23  F   UNL A   1      37.469  24.077  25.584  1.00  0.00    -0.206 F 
ATOM     24  C   UNL A   1      37.380  20.502  24.994  1.00  0.00     0.003 A 
ENDBRANCH  17  18
ENDBRANCH   8  10
ENDBRANCH   5   8
ENDBRANCH   3   4
ENDBRANCH   2   3
ENDBRANCH   1   2
BRANCH   1  25
ATOM     25  C   UNL A   1      33.512  28.873  27.431  1.00  0.00     0.116 C 
BRANCH  25  26
ATOM     26  N   UNL A   1      33.563  30.247  27.911  1.00  0.00    -0.352 N 
ATOM     27  C   UNL A   1      34.621  30.914  28.486  1.00  0.00     0.251 C 
ATOM     28  H   UNL A   1      32.732  30.767  27.813  1.00  0.00     0.163 HD
ATOM     29  O   UNL A   1      34.474  32.047  28.930  1.00  0.00    -0.269 OA
BRANCH  27  30
ATOM     30  C   UNL A   1      35.921  30.223  28.602  1.00  0.00     0.039 A 
ATOM     31  C   UNL A   1      36.780  30.212  27.501  1.00  0.00     0.014 A 
ATOM     32  C   UNL A   1      36.320  29.670  29.821  1.00  0.00     0.014 A 
ATOM     33  C   UNL A   1      38.085  29.738  27.652  1.00  0.00     0.010 A 
ATOM     34  C   UNL A   1      37.637  29.256  29.986  1.00  0.00     0.010 A 
ATOM     35  C   UNL A   1      38.538  29.311  28.911  1.00  0.00    -0.014 A 
BRANCH  35  36
ATOM     36  C   UNL A   1      39.964  28.975  29.152  1.00  0.00     0.031 A 
ATOM     37  C   UNL A   1      40.925  30.042  29.589  1.00  0.00     0.074 A 
ATOM     38  C   UNL A   1      40.411  27.737  28.850  1.00  0.00     0.049 A 
ATOM     39  N   UNL A   1      42.227  29.983  29.696  1.00  0.00    -0.248 NA
ATOM     40  C   UNL A   1      40.352  31.357  29.918  1.00  0.00     0.031 C 
ATOM     41  C   UNL A   1      39.583  26.634  28.352  1.00  0.00     0.029 A 
ATOM     42  N   UNL A   1      41.677  27.209  28.882  1.00  0.00    -0.354 N 
ATOM     43  C   UNL A   1      42.634  31.257  30.071  1.00  0.00     0.074 A 
ATOM     44  C   UNL A   1      41.443  32.075  30.153  1.00  0.00     0.031 C 
ATOM     45  C   UNL A   1      40.363  25.565  28.122  1.00  0.00     0.029 A 
ATOM     46  C   UNL A   1      41.748  25.915  28.417  1.00  0.00     0.049 A 
ATOM     47  H   UNL A   1      42.460  27.707  29.207  1.00  0.00     0.167 HD
ATOM     48  C   UNL A   1      43.886  31.697  30.335  1.00  0.00     0.037 A 
ATOM     49  C   UNL A   1      42.812  25.111  28.222  1.00  0.00     0.037 A 
ATOM     50  C   UNL A   1      45.057  30.863  30.307  1.00  0.00     0.049 A 
ATOM     51  C   UNL A   1      44.188  25.621  28.550  1.00  0.00     0.074 A 
ATOM     52  C   UNL A   1      46.350  31.187  30.683  1.00  0.00     0.029 A 
ATOM     53  N   UNL A   1      45.083  29.547  29.876  1.00  0.00    -0.354 N 
ATOM     54  N   UNL A   1      44.541  26.800  28.999  1.00  0.00    -0.248 NA
ATOM     55  C   UNL A   1      45.310  24.694  28.340  1.00  0.00     0.031 C 
ATOM     56  C   UNL A   1      47.165  30.076  30.444  1.00  0.00     0.029 A 
ATOM     57  C   UNL A   1      46.374  29.052  29.948  1.00  0.00     0.049 A 
ATOM     58  H   UNL A   1      44.299  29.039  29.565  1.00  0.00     0.167 HD
ATOM     59  C   UNL A   1      45.923  26.754  29.137  1.00  0.00     0.074 A 
ATOM     60  C   UNL A   1      46.341  25.426  28.740  1.00  0.00     0.031 C 
ATOM     61  C   UNL A   1      46.772  27.726  29.551  1.00  0.00     0.037 A 
BRANCH  48  62
ATOM     62  C   UNL A   1      44.062  33.144  30.692  1.00  0.00     0.058 A 
ATOM     63  C   UNL A   1      44.345  34.112  29.718  1.00  0.00     0.135 A 
ATOM     64  C   UNL A   1      43.872  33.577  32.015  1.00  0.00     0.135 A 
ATOM     65  F   UNL A   1      44.550  33.748  28.443  1.00  0.00    -0.206 F 
ATOM     66  C   UNL A   1      44.443  35.461  30.043  1.00  0.00     0.059 A 
ATOM     67  C   UNL A   1      43.946  34.923  32.359  1.00  0.00     0.059 A 
ATOM     68  F   UNL A   1      43.604  32.688  32.985  1.00  0.00    -0.206 F 
ATOM     69  C   UNL A   1      44.237  35.857  31.366  1.00  0.00     0.060 A 
BRANCH  69  70
ATOM     70  S   UNL A   1      44.332  37.615  31.765  1.00  0.00     0.124 S 
ATOM     71  O   UNL A   1      45.773  37.807  31.891  1.00  0.00    -0.237 OA
ATOM     72  O   UNL A   1      43.710  38.234  30.599  1.00  0.00    -0.237 OA
ATOM     73  O   UNL A   1      43.573  37.722  33.008  1.00  0.00    -0.744 OA
ENDBRANCH  69  70
ENDBRANCH  48  62
BRANCH  49  74
ATOM     74  C   UNL A   1      42.624  23.743  27.673  1.00  0.00     0.058 A 
ATOM     75  C   UNL A   1      42.460  22.641  28.524  1.00  0.00     0.135 A 
ATOM     76  C   UNL A   1      42.617  23.510  26.289  1.00  0.00     0.135 A 
ATOM     77  F   UNL A   1      42.465  22.815  29.855  1.00  0.00    -0.206 F 
ATOM     78  C   UNL A   1      42.319  21.350  28.025  1.00  0.00     0.059 A 
ATOM     79  C   UNL A   1      42.458  22.231  25.765  1.00  0.00     0.059 A 
ATOM     80  F   UNL A   1      42.752  24.536  25.434  1.00  0.00    -0.206 F 
ATOM     81  C   UNL A   1      42.324  21.155  26.642  1.00  0.00     0.060 A 
BRANCH  81  82
ATOM     82  S   UNL A   1      42.112  19.482  25.997  1.00  0.00     0.124 S 
ATOM     83  O   UNL A   1      42.937  19.525  24.796  1.00  0.00    -0.237 OA
ATOM     84  O   UNL A   1      42.620  18.660  27.091  1.00  0.00    -0.237 OA
ATOM     85  O   UNL A   1      40.672  19.393  25.774  1.00  0.00    -0.744 OA
ENDBRANCH  81  82
ENDBRANCH  49  74
BRANCH  61  86
ATOM     86  C   UNL A   1      48.233  27.392  29.608  1.00  0.00     0.058 A 
ATOM     87  C   UNL A   1      49.078  27.633  28.515  1.00  0.00     0.135 A 
ATOM     88  C   UNL A   1      48.806  26.893  30.788  1.00  0.00     0.135 A 
ATOM     89  F   UNL A   1      48.574  28.100  27.362  1.00  0.00    -0.206 F 
ATOM     90  C   UNL A   1      50.445  27.385  28.587  1.00  0.00     0.059 A 
ATOM     91  C   UNL A   1      50.173  26.657  30.890  1.00  0.00     0.059 A 
ATOM     92  F   UNL A   1      48.039  26.654  31.864  1.00  0.00    -0.206 F 
ATOM     93  C   UNL A   1      50.983  26.901  29.781  1.00  0.00     0.060 A 
BRANCH  93  94
ATOM     94  S   UNL A   1      52.766  26.636  29.883  1.00  0.00     0.124 S 
ATOM     95  O   UNL A   1      53.251  27.990  30.124  1.00  0.00    -0.237 OA
ATOM     96  O   UNL A   1      52.884  25.711  31.006  1.00  0.00    -0.237 OA
ATOM     97  O   UNL A   1      53.099  26.071  28.578  1.00  0.00    -0.744 OA
ENDBRANCH  93  94
ENDBRANCH  61  86
ENDBRANCH  35  36
ENDBRANCH  27  30
ENDBRANCH  25  26
ENDBRANCH   1  25
TORSDOF 16
ENDMDL
MODEL 2
REMARK VINA RESULT:     -11.5      2.086      2.845
REMARK SMILES C[C@H](C(=O)NCCCCNC(=O)c1ccc(-c2c3nc(c(-c4c(F)cc(S(=O)(=O)[O-])cc4F)c4ccc([nH]4)c(-c4c(F)cc(S(=O)(=O)[O-])cc4F)c4nc(c(-c5c(F)cc(S(=O)(=O)[O-])cc5F)c5ccc2[nH]5)C=C4)C=C3)cc1)N1C(=O)/C(=C/c2ccccc2F)SC1=S
REMARK SMILES IDX 8 1 7 2 6 3 5 4 3 5 4 6 2 8 1 9 79 10 80 11 92 12 81 13
REMARK SMILES IDX 82 14 91 15 93 16 83 17 84 18 85 19 89 20 86 21 88 22 90 23
REMARK SMILES IDX 87 24 9 25 10 26 11 27 12 29 13 30 14 31 78 32 15 33 77 34
REMARK SMILES IDX 16 35 17 36 18 37 71 38 19 39 76 40 70 41 72 42 20 43 75 44
REMARK SMILES IDX 69 45 68 46 21 48 55 49 34 50 54 51 35 52 38 53 53 54 73 55
REMARK SMILES IDX 36 56 37 57 52 59 74 60 39 61 22 62 23 63 32 64 24 65 25 66
REMARK SMILES IDX 31 67 33 68 26 69 27 70 28 71 29 72 30 73 56 74 57 75 66 76
REMARK SMILES IDX 58 77 59 78 65 79 67 80 60 81 61 82 62 83 63 84 64 85 40 86
REMARK SMILES IDX 41 87 50 88 42 89 43 90 49 91 51 92 44 93 45 94 46 95 47 96
REMARK SMILES IDX 48 97
REMARK H PARENT 5 7 10 28 72 47 38 58
REMARK Flexibility Score: inf
ROOT
ATOM      1  C   UNL A   1      33.734  28.920  27.663  1.00  0.00     0.023 C 
ENDROOT
BRANCH   1   2
ATOM      2  C   UNL A   1      32.718  29.345  26.605  1.00  0.00     0.023 C 
BRANCH   2   3
ATOM      3  C   UNL A   1      33.218  29.270  25.162  1.00  0.00     0.116 C 
BRANCH   3   4
ATOM      4  N   UNL A   1      32.124  29.285  24.214  1.00  0.00    -0.354 N 
ATOM      5  C   UNL A   1      31.249  28.327  23.801  1.00  0.00     0.242 C 
ATOM      6  O   UNL A   1      30.377  28.711  23.011  1.00  0.00    -0.273 OA
ATOM      7  H   UNL A   1      31.986  30.159  23.782  1.00  0.00     0.163 HD
BRANCH   5   8
ATOM      8  C   UNL A   1      31.155  26.914  24.439  1.00  0.00     0.178 C 
ATOM      9  C   UNL A   1      29.823  26.247  24.073  1.00  0.00     0.042 C 
BRANCH   8  10
ATOM     10  N   UNL A   1      32.288  26.001  24.216  1.00  0.00    -0.281 N 
ATOM     11  C   UNL A   1      33.036  25.579  25.302  1.00  0.00     0.266 C 
ATOM     12  C   UNL A   1      32.728  25.579  22.975  1.00  0.00     0.149 C 
ATOM     13  O   UNL A   1      32.881  25.927  26.463  1.00  0.00    -0.268 OA
ATOM     14  C   UNL A   1      34.038  24.565  24.876  1.00  0.00     0.081 C 
ATOM     15  S   UNL A   1      34.037  24.419  23.168  1.00  0.00    -0.054 SA
ATOM     16  S   UNL A   1      32.169  26.014  21.465  1.00  0.00    -0.052 S 
ATOM     17  C   UNL A   1      34.712  23.832  25.773  1.00  0.00     0.032 C 
BRANCH  17  18
ATOM     18  C   UNL A   1      35.622  22.719  25.473  1.00  0.00     0.012 A 
ATOM     19  C   UNL A   1      35.086  21.436  25.297  1.00  0.00     0.011 A 
ATOM     20  C   UNL A   1      37.009  22.883  25.384  1.00  0.00     0.130 A 
ATOM     21  C   UNL A   1      35.923  20.352  25.013  1.00  0.00     0.001 A 
ATOM     22  C   UNL A   1      37.845  21.807  25.095  1.00  0.00     0.040 A 
ATOM     23  F   UNL A   1      37.564  24.088  25.585  1.00  0.00    -0.206 F 
ATOM     24  C   UNL A   1      37.300  20.538  24.907  1.00  0.00     0.003 A 
ENDBRANCH  17  18
ENDBRANCH   8  10
ENDBRANCH   5   8
ENDBRANCH   3   4
ENDBRANCH   2   3
ENDBRANCH   1   2
BRANCH   1  25
ATOM     25  C   UNL A   1      35.045  29.695  27.656  1.00  0.00     0.116 C 
BRANCH  25  26
ATOM     26  N   UNL A   1      35.168  30.638  28.759  1.00  0.00    -0.352 N 
ATOM     27  C   UNL A   1      36.247  30.852  29.585  1.00  0.00     0.251 C 
ATOM     28  H   UNL A   1      34.375  31.194  28.938  1.00  0.00     0.163 HD
ATOM     29  O   UNL A   1      36.158  31.618  30.538  1.00  0.00    -0.269 OA
BRANCH  27  30
ATOM     30  C   UNL A   1      37.497  30.106  29.334  1.00  0.00     0.039 A 
ATOM     31  C   UNL A   1      37.940  29.957  28.018  1.00  0.00     0.014 A 
ATOM     32  C   UNL A   1      38.266  29.639  30.401  1.00  0.00     0.014 A 
ATOM     33  C   UNL A   1      39.210  29.429  27.777  1.00  0.00     0.010 A 
ATOM     34  C   UNL A   1      39.555  29.172  30.163  1.00  0.00     0.010 A 
ATOM     35  C   UNL A   1      40.047  29.087  28.851  1.00  0.00    -0.014 A 
BRANCH  35  36
ATOM     36  C   UNL A   1      41.465  28.698  28.641  1.00  0.00     0.031 A 
ATOM     37  C   UNL A   1      42.536  29.750  28.603  1.00  0.00     0.074 A 
ATOM     38  C   UNL A   1      41.761  27.413  28.355  1.00  0.00     0.049 A 
ATOM     39  N   UNL A   1      43.796  29.630  28.277  1.00  0.00    -0.248 NA
ATOM     40  C   UNL A   1      42.131  31.123  28.948  1.00  0.00     0.031 C 
ATOM     41  C   UNL A   1      40.794  26.312  28.295  1.00  0.00     0.029 A 
ATOM     42  N   UNL A   1      42.954  26.821  28.025  1.00  0.00    -0.354 N 
ATOM     43  C   UNL A   1      44.328  30.911  28.342  1.00  0.00     0.074 A 
ATOM     44  C   UNL A   1      43.249  31.799  28.719  1.00  0.00     0.031 C 
ATOM     45  C   UNL A   1      41.432  25.183  27.945  1.00  0.00     0.029 A 
ATOM     46  C   UNL A   1      42.841  25.483  27.718  1.00  0.00     0.049 A 
ATOM     47  H   UNL A   1      43.810  27.305  28.009  1.00  0.00     0.167 HD
ATOM     48  C   UNL A   1      45.603  31.305  28.120  1.00  0.00     0.037 A 
ATOM     49  C   UNL A   1      43.762  24.605  27.276  1.00  0.00     0.037 A 
ATOM     50  C   UNL A   1      46.681  30.408  27.802  1.00  0.00     0.049 A 
ATOM     51  C   UNL A   1      45.177  25.067  27.064  1.00  0.00     0.074 A 
ATOM     52  C   UNL A   1      48.031  30.696  27.685  1.00  0.00     0.029 A 
ATOM     53  N   UNL A   1      46.537  29.054  27.545  1.00  0.00    -0.354 N 
ATOM     54  N   UNL A   1      45.682  26.266  27.228  1.00  0.00    -0.248 NA
ATOM     55  C   UNL A   1      46.146  24.062  26.602  1.00  0.00     0.031 C 
ATOM     56  C   UNL A   1      48.697  29.522  27.320  1.00  0.00     0.029 A 
ATOM     57  C   UNL A   1      47.767  28.498  27.239  1.00  0.00     0.049 A 
ATOM     58  H   UNL A   1      45.685  28.561  27.575  1.00  0.00     0.167 HD
ATOM     59  C   UNL A   1      47.028  26.156  26.901  1.00  0.00     0.074 A 
ATOM     60  C   UNL A   1      47.264  24.772  26.547  1.00  0.00     0.031 C 
ATOM     61  C   UNL A   1      47.984  27.118  26.892  1.00  0.00     0.037 A 
BRANCH  48  62
ATOM     62  C   UNL A   1      45.916  32.769  28.225  1.00  0.00     0.058 A 
ATOM     63  C   UNL A   1      46.367  33.339  29.423  1.00  0.00     0.135 A 
ATOM     64  C   UNL A   1      45.833  33.595  27.092  1.00  0.00     0.135 A 
ATOM     65  F   UNL A   1      46.449  32.596  30.538  1.00  0.00    -0.206 F 
ATOM     66  C   UNL A   1      46.719  34.683  29.500  1.00  0.00     0.059 A 
ATOM     67  C   UNL A   1      46.198  34.937  27.140  1.00  0.00     0.059 A 
ATOM     68  F   UNL A   1      45.402  33.097  25.922  1.00  0.00    -0.206 F 
ATOM     69  C   UNL A   1      46.635  35.473  28.352  1.00  0.00     0.060 A 
BRANCH  69  70
ATOM     70  S   UNL A   1      47.129  37.206  28.458  1.00  0.00     0.124 S 
ATOM     71  O   UNL A   1      46.357  37.796  27.369  1.00  0.00    -0.237 OA
ATOM     72  O   UNL A   1      46.705  37.570  29.806  1.00  0.00    -0.237 OA
ATOM     73  O   UNL A   1      48.573  37.161  28.249  1.00  0.00    -0.744 OA
ENDBRANCH  69  70
ENDBRANCH  48  62
BRANCH  49  74
ATOM     74  C   UNL A   1      43.376  23.199  26.986  1.00  0.00     0.058 A 
ATOM     75  C   UNL A   1      43.132  22.289  28.024  1.00  0.00     0.135 A 
ATOM     76  C   UNL A   1      43.255  22.737  25.667  1.00  0.00     0.135 A 
ATOM     77  F   UNL A   1      43.241  22.685  29.302  1.00  0.00    -0.206 F 
ATOM     78  C   UNL A   1      42.805  20.962  27.768  1.00  0.00     0.059 A 
ATOM     79  C   UNL A   1      42.909  21.419  25.384  1.00  0.00     0.059 A 
ATOM     80  F   UNL A   1      43.461  23.574  24.639  1.00  0.00    -0.206 F 
ATOM     81  C   UNL A   1      42.700  20.535  26.443  1.00  0.00     0.060 A 
BRANCH  81  82
ATOM     82  S   UNL A   1      42.247  18.818  26.114  1.00  0.00     0.124 S 
ATOM     83  O   UNL A   1      40.853  18.958  25.706  1.00  0.00    -0.237 OA
ATOM     84  O   UNL A   1      43.186  18.445  25.061  1.00  0.00    -0.237 OA
ATOM     85  O   UNL A   1      42.468  18.165  27.400  1.00  0.00    -0.744 OA
ENDBRANCH  81  82
ENDBRANCH  49  74
BRANCH  61  86
ATOM     86  C   UNL A   1      49.373  26.709  26.497  1.00  0.00     0.058 A 
ATOM     87  C   UNL A   1      50.236  26.086  27.410  1.00  0.00     0.135 A 
ATOM     88  C   UNL A   1      49.819  26.878  25.177  1.00  0.00     0.135 A 
ATOM     89  F   UNL A   1      49.857  25.911  28.687  1.00  0.00    -0.206 F 
ATOM     90  C   UNL A   1      51.499  25.647  27.029  1.00  0.00     0.059 A 
ATOM     91  C   UNL A   1      51.070  26.429  24.769  1.00  0.00     0.059 A 
ATOM     92  F   UNL A   1      49.026  27.463  24.265  1.00  0.00    -0.206 F 
ATOM     93  C   UNL A   1      51.905  25.820  25.705  1.00  0.00     0.060 A 
BRANCH  93  94
ATOM     94  S   UNL A   1      53.525  25.196  25.207  1.00  0.00     0.124 S 
ATOM     95  O   UNL A   1      53.615  25.677  23.833  1.00  0.00    -0.237 OA
ATOM     96  O   UNL A   1      54.419  25.839  26.164  1.00  0.00    -0.237 OA
ATOM     97  O   UNL A   1      53.391  23.749  25.360  1.00  0.00    -0.744 OA
ENDBRANCH  93  94
ENDBRANCH  61  86
ENDBRANCH  35  36
ENDBRANCH  27  30
ENDBRANCH  25  26
ENDBRANCH   1  25
TORSDOF 16
ENDMDL
MODEL 3
REMARK VINA RESULT:     -11.4      1.967      4.192
REMARK SMILES C[C@H](C(=O)NCCCCNC(=O)c1ccc(-c2c3nc(c(-c4c(F)cc(S(=O)(=O)[O-])cc4F)c4ccc([nH]4)c(-c4c(F)cc(S(=O)(=O)[O-])cc4F)c4nc(c(-c5c(F)cc(S(=O)(=O)[O-])cc5F)c5ccc2[nH]5)C=C4)C=C3)cc1)N1C(=O)/C(=C/c2ccccc2F)SC1=S
REMARK SMILES IDX 8 1 7 2 6 3 5 4 3 5 4 6 2 8 1 9 79 10 80 11 92 12 81 13
REMARK SMILES IDX 82 14 91 15 93 16 83 17 84 18 85 19 89 20 86 21 88 22 90 23
REMARK SMILES IDX 87 24 9 25 10 26 11 27 12 29 13 30 14 31 78 32 15 33 77 34
REMARK SMILES IDX 16 35 17 36 18 37 71 38 19 39 76 40 70 41 72 42 20 43 75 44
REMARK SMILES IDX 69 45 68 46 21 48 55 49 34 50 54 51 35 52 38 53 53 54 73 55
REMARK SMILES IDX 36 56 37 57 52 59 74 60 39 61 22 62 23 63 32 64 24 65 25 66
REMARK SMILES IDX 31 67 33 68 26 69 27 70 28 71 29 72 30 73 56 74 57 75 66 76
REMARK SMILES IDX 58 77 59 78 65 79 67 80 60 81 61 82 62 83 63 84 64 85 40 86
REMARK SMILES IDX 41 87 50 88 42 89 43 90 49 91 51 92 44 93 45 94 46 95 47 96
REMARK SMILES IDX 48 97
REMARK H PARENT 5 7 10 28 72 47 38 58
REMARK Flexibility Score: inf
ROOT
ATOM      1  C   UNL A   1      32.750  28.327  26.399  1.00  0.00     0.023 C 
ENDROOT
BRANCH   1   2
ATOM      2  C   UNL A   1      33.545  27.537  25.360  1.00  0.00     0.023 C 
BRANCH   2   3
ATOM      3  C   UNL A   1      33.835  26.084  25.738  1.00  0.00     0.116 C 
BRANCH   3   4
ATOM      4  N   UNL A   1      32.636  25.387  26.151  1.00  0.00    -0.354 N 
ATOM      5  C   UNL A   1      31.541  24.950  25.468  1.00  0.00     0.242 C 
ATOM      6  O   UNL A   1      30.717  24.316  26.139  1.00  0.00    -0.273 OA
ATOM      7  H   UNL A   1      32.605  25.191  27.116  1.00  0.00     0.163 HD
BRANCH   5   8
ATOM      8  C   UNL A   1      31.416  24.998  23.921  1.00  0.00     0.178 C 
ATOM      9  C   UNL A   1      30.482  23.888  23.423  1.00  0.00     0.042 C 
BRANCH   8  10
ATOM     10  N   UNL A   1      31.076  26.295  23.315  1.00  0.00    -0.281 N 
ATOM     11  C   UNL A   1      29.828  26.844  23.559  1.00  0.00     0.266 C 
ATOM     12  C   UNL A   1      31.886  26.993  22.439  1.00  0.00     0.149 C 
ATOM     13  O   UNL A   1      28.930  26.334  24.210  1.00  0.00    -0.268 OA
ATOM     14  C   UNL A   1      29.740  28.207  22.968  1.00  0.00     0.081 C 
ATOM     15  S   UNL A   1      31.143  28.536  22.038  1.00  0.00    -0.054 SA
ATOM     16  S   UNL A   1      33.366  26.552  21.808  1.00  0.00    -0.052 S 
ATOM     17  C   UNL A   1      28.732  29.036  23.274  1.00  0.00     0.032 C 
BRANCH  17  18
ATOM     18  C   UNL A   1      28.608  30.439  22.859  1.00  0.00     0.012 A 
ATOM     19  C   UNL A   1      28.920  31.446  23.784  1.00  0.00     0.011 A 
ATOM     20  C   UNL A   1      28.165  30.813  21.586  1.00  0.00     0.130 A 
ATOM     21  C   UNL A   1      28.812  32.794  23.426  1.00  0.00     0.001 A 
ATOM     22  C   UNL A   1      28.061  32.154  21.224  1.00  0.00     0.040 A 
ATOM     23  F   UNL A   1      27.819  29.879  20.686  1.00  0.00    -0.206 F 
ATOM     24  C   UNL A   1      28.387  33.148  22.146  1.00  0.00     0.003 A 
ENDBRANCH  17  18
ENDBRANCH   8  10
ENDBRANCH   5   8
ENDBRANCH   3   4
ENDBRANCH   2   3
ENDBRANCH   1   2
BRANCH   1  25
ATOM     25  C   UNL A   1      33.502  28.656  27.682  1.00  0.00     0.116 C 
BRANCH  25  26
ATOM     26  N   UNL A   1      33.586  30.084  27.955  1.00  0.00    -0.352 N 
ATOM     27  C   UNL A   1      34.676  30.812  28.373  1.00  0.00     0.251 C 
ATOM     28  H   UNL A   1      32.755  30.595  27.823  1.00  0.00     0.163 HD
ATOM     29  O   UNL A   1      34.560  32.000  28.654  1.00  0.00    -0.269 OA
BRANCH  27  30
ATOM     30  C   UNL A   1      35.976  30.128  28.523  1.00  0.00     0.039 A 
ATOM     31  C   UNL A   1      36.831  30.053  27.421  1.00  0.00     0.014 A 
ATOM     32  C   UNL A   1      36.380  29.645  29.770  1.00  0.00     0.014 A 
ATOM     33  C   UNL A   1      38.136  29.587  27.594  1.00  0.00     0.010 A 
ATOM     34  C   UNL A   1      37.698  29.239  29.953  1.00  0.00     0.010 A 
ATOM     35  C   UNL A   1      38.594  29.231  28.872  1.00  0.00    -0.014 A 
BRANCH  35  36
ATOM     36  C   UNL A   1      40.021  28.908  29.126  1.00  0.00     0.031 A 
ATOM     37  C   UNL A   1      40.970  29.986  29.564  1.00  0.00     0.074 A 
ATOM     38  C   UNL A   1      40.479  27.672  28.836  1.00  0.00     0.049 A 
ATOM     39  N   UNL A   1      42.272  29.938  29.682  1.00  0.00    -0.248 NA
ATOM     40  C   UNL A   1      40.385  31.299  29.881  1.00  0.00     0.031 C 
ATOM     41  C   UNL A   1      39.664  26.560  28.338  1.00  0.00     0.029 A 
ATOM     42  N   UNL A   1      41.749  27.154  28.881  1.00  0.00    -0.354 N 
ATOM     43  C   UNL A   1      42.665  31.217  30.052  1.00  0.00     0.074 A 
ATOM     44  C   UNL A   1      41.468  32.026  30.119  1.00  0.00     0.031 C 
ATOM     45  C   UNL A   1      40.454  25.496  28.121  1.00  0.00     0.029 A 
ATOM     46  C   UNL A   1      41.834  25.858  28.424  1.00  0.00     0.049 A 
ATOM     47  H   UNL A   1      42.526  27.660  29.209  1.00  0.00     0.167 HD
ATOM     48  C   UNL A   1      43.912  31.669  30.323  1.00  0.00     0.037 A 
ATOM     49  C   UNL A   1      42.906  25.061  28.243  1.00  0.00     0.037 A 
ATOM     50  C   UNL A   1      45.090  30.844  30.309  1.00  0.00     0.049 A 
ATOM     51  C   UNL A   1      44.275  25.584  28.578  1.00  0.00     0.074 A 
ATOM     52  C   UNL A   1      46.377  31.180  30.693  1.00  0.00     0.029 A 
ATOM     53  N   UNL A   1      45.129  29.525  29.887  1.00  0.00    -0.354 N 
ATOM     54  N   UNL A   1      44.616  26.769  29.022  1.00  0.00    -0.248 NA
ATOM     55  C   UNL A   1      45.406  24.665  28.382  1.00  0.00     0.031 C 
ATOM     56  C   UNL A   1      47.202  30.074  30.467  1.00  0.00     0.029 A 
ATOM     57  C   UNL A   1      46.424  29.041  29.971  1.00  0.00     0.049 A 
ATOM     58  H   UNL A   1      44.352  29.009  29.573  1.00  0.00     0.167 HD
ATOM     59  C   UNL A   1      45.997  26.734  29.171  1.00  0.00     0.074 A 
ATOM     60  C   UNL A   1      46.428  25.407  28.786  1.00  0.00     0.031 C 
ATOM     61  C   UNL A   1      46.835  27.716  29.586  1.00  0.00     0.037 A 
BRANCH  48  62
ATOM     62  C   UNL A   1      44.074  33.119  30.673  1.00  0.00     0.058 A 
ATOM     63  C   UNL A   1      44.348  34.084  29.694  1.00  0.00     0.135 A 
ATOM     64  C   UNL A   1      43.880  33.557  31.993  1.00  0.00     0.135 A 
ATOM     65  F   UNL A   1      44.557  33.716  28.420  1.00  0.00    -0.206 F 
ATOM     66  C   UNL A   1      44.432  35.436  30.011  1.00  0.00     0.059 A 
ATOM     67  C   UNL A   1      43.940  34.905  32.330  1.00  0.00     0.059 A 
ATOM     68  F   UNL A   1      43.620  32.671  32.968  1.00  0.00    -0.206 F 
ATOM     69  C   UNL A   1      44.223  35.837  31.332  1.00  0.00     0.060 A 
BRANCH  69  70
ATOM     70  S   UNL A   1      44.300  37.598  31.722  1.00  0.00     0.124 S 
ATOM     71  O   UNL A   1      43.505  37.660  32.944  1.00  0.00    -0.237 OA
ATOM     72  O   UNL A   1      45.733  37.819  31.887  1.00  0.00    -0.237 OA
ATOM     73  O   UNL A   1      43.702  38.232  30.551  1.00  0.00    -0.744 OA
ENDBRANCH  69  70
ENDBRANCH  48  62
BRANCH  49  74
ATOM     74  C   UNL A   1      42.733  23.689  27.701  1.00  0.00     0.058 A 
ATOM     75  C   UNL A   1      42.729  23.454  26.319  1.00  0.00     0.135 A 
ATOM     76  C   UNL A   1      42.556  22.588  28.554  1.00  0.00     0.135 A 
ATOM     77  F   UNL A   1      42.890  24.477  25.465  1.00  0.00    -0.206 F 
ATOM     78  C   UNL A   1      42.533  22.180  25.797  1.00  0.00     0.059 A 
ATOM     79  C   UNL A   1      42.377  21.301  28.056  1.00  0.00     0.059 A 
ATOM     80  F   UNL A   1      42.569  22.759  29.884  1.00  0.00    -0.206 F 
ATOM     81  C   UNL A   1      42.353  21.109  26.675  1.00  0.00     0.060 A 
BRANCH  81  82
ATOM     82  S   UNL A   1      42.127  19.452  25.993  1.00  0.00     0.124 S 
ATOM     83  O   UNL A   1      40.686  19.425  25.764  1.00  0.00    -0.237 OA
ATOM     84  O   UNL A   1      42.963  19.491  24.798  1.00  0.00    -0.237 OA
ATOM     85  O   UNL A   1      42.615  18.585  27.061  1.00  0.00    -0.744 OA
ENDBRANCH  81  82
ENDBRANCH  49  74
BRANCH  61  86
ATOM     86  C   UNL A   1      48.298  27.393  29.657  1.00  0.00     0.058 A 
ATOM     87  C   UNL A   1      49.173  27.751  28.621  1.00  0.00     0.135 A 
ATOM     88  C   UNL A   1      48.841  26.785  30.799  1.00  0.00     0.135 A 
ATOM     89  F   UNL A   1      48.698  28.327  27.504  1.00  0.00    -0.206 F 
ATOM     90  C   UNL A   1      50.540  27.512  28.712  1.00  0.00     0.059 A 
ATOM     91  C   UNL A   1      50.208  26.555  30.920  1.00  0.00     0.059 A 
ATOM     92  F   UNL A   1      48.044  26.431  31.820  1.00  0.00    -0.206 F 
ATOM     93  C   UNL A   1      51.048  26.917  29.868  1.00  0.00     0.060 A 
BRANCH  93  94
ATOM     94  S   UNL A   1      52.831  26.663  30.000  1.00  0.00     0.124 S 
ATOM     95  O   UNL A   1      53.147  26.110  28.688  1.00  0.00    -0.237 OA
ATOM     96  O   UNL A   1      53.324  28.012  30.256  1.00  0.00    -0.237 OA
ATOM     97  O   UNL A   1      52.957  25.734  31.121  1.00  0.00    -0.744 OA
ENDBRANCH  93  94
ENDBRANCH  61  86
ENDBRANCH  35  36
ENDBRANCH  27  30
ENDBRANCH  25  26
ENDBRANCH   1  25
TORSDOF 16
ENDMDL
