MODEL 1
REMARK VINA RESULT:     -13.2      0.000      0.000
REMARK SMILES O=C(NCCCCNC(=O)c1ccccc1/N=C/c1coc2ccccc2c1=O)c1ccc(-c2c3nc(c(-c4c(F)cc(S(=O)(=O)[O-])cc4F)c4ccc([nH]4)c(-c4c(F)cc(S(=O)(=O)[O-])cc4F)c4nc(c(-c5c(F)cc(S(=O)(=O)[O-])cc5F)c5ccc2[nH]5)C=C4)C=C3)cc1
REMARK SMILES IDX 5 1 4 2 3 3 1 4 2 5 30 7 31 8 95 9 32 10 94 11 33 12 34 13
REMARK SMILES IDX 35 14 88 15 36 16 93 17 87 18 89 19 37 20 92 21 86 22 85 23
REMARK SMILES IDX 38 25 72 26 51 27 71 28 52 29 55 30 70 31 90 32 53 33 54 34
REMARK SMILES IDX 69 36 91 37 56 38 39 39 40 40 49 41 41 42 42 43 48 44 50 45
REMARK SMILES IDX 43 46 44 47 45 48 46 49 47 50 73 51 74 52 83 53 75 54 76 55
REMARK SMILES IDX 82 56 84 57 77 58 78 59 79 60 80 61 81 62 57 63 58 64 67 65
REMARK SMILES IDX 59 66 60 67 66 68 68 69 61 70 62 71 63 72 64 73 65 74 6 75
REMARK SMILES IDX 7 76 8 77 9 78 10 80 11 81 12 82 16 83 13 84 15 85 14 86
REMARK SMILES IDX 17 87 18 88 19 89 20 90 28 91 21 92 27 93 29 94 22 95 26 96
REMARK SMILES IDX 23 97 25 98 24 99
REMARK H PARENT 3 6 89 24 55 35 8 79
REMARK Flexibility Score: inf
ROOT
ATOM      1  C   UNL A   1      33.721  28.876  27.110  1.00  0.00     0.023 C 
ENDROOT
BRANCH   1   2
ATOM      2  C   UNL A   1      35.122  29.306  27.545  1.00  0.00     0.116 C 
BRANCH   2   3
ATOM      3  N   UNL A   1      35.137  30.028  28.804  1.00  0.00    -0.352 N 
ATOM      4  O   UNL A   1      35.951  30.674  30.811  1.00  0.00    -0.269 OA
ATOM      5  C   UNL A   1      36.168  30.208  29.697  1.00  0.00     0.251 C 
ATOM      6  H   UNL A   1      34.284  30.450  29.057  1.00  0.00     0.163 HD
BRANCH   5   7
ATOM      7  C   UNL A   1      37.559  29.850  29.323  1.00  0.00     0.039 A 
ATOM      8  C   UNL A   1      37.992  29.926  27.994  1.00  0.00     0.014 A 
ATOM      9  C   UNL A   1      38.468  29.505  30.329  1.00  0.00     0.014 A 
ATOM     10  C   UNL A   1      39.299  29.564  27.662  1.00  0.00     0.010 A 
ATOM     11  C   UNL A   1      39.787  29.176  30.000  1.00  0.00     0.010 A 
ATOM     12  C   UNL A   1      40.205  29.177  28.660  1.00  0.00    -0.014 A 
BRANCH  12  13
ATOM     13  C   UNL A   1      41.586  28.778  28.290  1.00  0.00     0.031 A 
ATOM     14  C   UNL A   1      42.703  29.783  28.315  1.00  0.00     0.074 A 
ATOM     15  C   UNL A   1      41.845  27.503  27.946  1.00  0.00     0.049 A 
ATOM     16  N   UNL A   1      43.976  29.606  28.071  1.00  0.00    -0.248 NA
ATOM     17  C   UNL A   1      42.340  31.166  28.659  1.00  0.00     0.031 C 
ATOM     18  C   UNL A   1      40.851  26.434  27.857  1.00  0.00     0.029 A 
ATOM     19  N   UNL A   1      43.027  26.893  27.612  1.00  0.00    -0.354 N 
ATOM     20  C   UNL A   1      44.567  30.855  28.211  1.00  0.00     0.074 A 
ATOM     21  C   UNL A   1      43.509  31.784  28.560  1.00  0.00     0.031 C 
ATOM     22  C   UNL A   1      41.468  25.292  27.510  1.00  0.00     0.029 A 
ATOM     23  C   UNL A   1      42.897  25.553  27.343  1.00  0.00     0.049 A 
ATOM     24  H   UNL A   1      43.888  27.370  27.570  1.00  0.00     0.167 HD
ATOM     25  C   UNL A   1      45.869  31.199  28.071  1.00  0.00     0.037 A 
ATOM     26  C   UNL A   1      43.822  24.635  27.002  1.00  0.00     0.037 A 
ATOM     27  C   UNL A   1      46.933  30.284  27.758  1.00  0.00     0.049 A 
ATOM     28  C   UNL A   1      45.262  25.034  26.870  1.00  0.00     0.074 A 
ATOM     29  C   UNL A   1      48.291  30.537  27.665  1.00  0.00     0.029 A 
ATOM     30  N   UNL A   1      46.758  28.937  27.482  1.00  0.00    -0.354 N 
ATOM     31  N   UNL A   1      45.808  26.210  27.056  1.00  0.00    -0.248 NA
ATOM     32  C   UNL A   1      46.210  23.979  26.481  1.00  0.00     0.031 C 
ATOM     33  C   UNL A   1      48.936  29.341  27.320  1.00  0.00     0.029 A 
ATOM     34  C   UNL A   1      47.980  28.347  27.203  1.00  0.00     0.049 A 
ATOM     35  H   UNL A   1      45.891  28.469  27.485  1.00  0.00     0.167 HD
ATOM     36  C   UNL A   1      47.165  26.041  26.804  1.00  0.00     0.074 A 
ATOM     37  C   UNL A   1      47.358  24.646  26.461  1.00  0.00     0.031 C 
ATOM     38  C   UNL A   1      48.157  26.961  26.856  1.00  0.00     0.037 A 
BRANCH  25  39
ATOM     39  C   UNL A   1      46.200  32.648  28.260  1.00  0.00     0.058 A 
ATOM     40  C   UNL A   1      46.563  33.152  29.517  1.00  0.00     0.135 A 
ATOM     41  C   UNL A   1      46.120  33.544  27.184  1.00  0.00     0.135 A 
ATOM     42  F   UNL A   1      46.636  32.332  30.578  1.00  0.00    -0.206 F 
ATOM     43  C   UNL A   1      46.808  34.507  29.710  1.00  0.00     0.059 A 
ATOM     44  C   UNL A   1      46.366  34.903  27.353  1.00  0.00     0.059 A 
ATOM     45  F   UNL A   1      45.766  33.107  25.965  1.00  0.00    -0.206 F 
ATOM     46  C   UNL A   1      46.689  35.377  28.626  1.00  0.00     0.060 A 
BRANCH  46  47
ATOM     47  S   UNL A   1      46.952  37.147  28.872  1.00  0.00     0.124 S 
ATOM     48  O   UNL A   1      46.485  37.317  30.246  1.00  0.00    -0.237 OA
ATOM     49  O   UNL A   1      48.389  37.297  28.672  1.00  0.00    -0.237 OA
ATOM     50  O   UNL A   1      46.114  37.751  27.841  1.00  0.00    -0.744 OA
ENDBRANCH  46  47
ENDBRANCH  25  39
BRANCH  26  51
ATOM     51  C   UNL A   1      43.394  23.238  26.770  1.00  0.00     0.058 A 
ATOM     52  C   UNL A   1      43.342  22.711  25.473  1.00  0.00     0.135 A 
ATOM     53  C   UNL A   1      43.097  22.389  27.845  1.00  0.00     0.135 A 
ATOM     54  F   UNL A   1      43.620  23.492  24.419  1.00  0.00    -0.206 F 
ATOM     55  C   UNL A   1      43.021  21.377  25.246  1.00  0.00     0.059 A 
ATOM     56  C   UNL A   1      42.779  21.051  27.643  1.00  0.00     0.059 A 
ATOM     57  F   UNL A   1      43.143  22.856  29.102  1.00  0.00    -0.206 F 
ATOM     58  C   UNL A   1      42.745  20.553  26.339  1.00  0.00     0.060 A 
BRANCH  58  59
ATOM     59  S   UNL A   1      42.426  18.795  26.071  1.00  0.00     0.124 S 
ATOM     60  O   UNL A   1      41.027  18.811  25.662  1.00  0.00    -0.237 OA
ATOM     61  O   UNL A   1      43.390  18.446  25.031  1.00  0.00    -0.237 OA
ATOM     62  O   UNL A   1      42.700  18.216  27.383  1.00  0.00    -0.744 OA
ENDBRANCH  58  59
ENDBRANCH  26  51
BRANCH  38  63
ATOM     63  C   UNL A   1      49.540  26.492  26.522  1.00  0.00     0.058 A 
ATOM     64  C   UNL A   1      50.389  25.985  27.517  1.00  0.00     0.135 A 
ATOM     65  C   UNL A   1      50.009  26.512  25.200  1.00  0.00     0.135 A 
ATOM     66  F   UNL A   1      49.984  25.951  28.796  1.00  0.00    -0.206 F 
ATOM     67  C   UNL A   1      51.663  25.516  27.214  1.00  0.00     0.059 A 
ATOM     68  C   UNL A   1      51.277  26.044  24.873  1.00  0.00     0.059 A 
ATOM     69  F   UNL A   1      49.231  26.989  24.215  1.00  0.00    -0.206 F 
ATOM     70  C   UNL A   1      52.100  25.555  25.889  1.00  0.00     0.060 A 
BRANCH  70  71
ATOM     71  S   UNL A   1      53.740  24.918  25.476  1.00  0.00     0.124 S 
ATOM     72  O   UNL A   1      53.462  23.498  25.284  1.00  0.00    -0.237 OA
ATOM     73  O   UNL A   1      54.087  25.663  24.269  1.00  0.00    -0.237 OA
ATOM     74  O   UNL A   1      54.530  25.253  26.657  1.00  0.00    -0.744 OA
ENDBRANCH  70  71
ENDBRANCH  38  63
ENDBRANCH  12  13
ENDBRANCH   5   7
ENDBRANCH   2   3
ENDBRANCH   1   2
BRANCH   1  75
ATOM     75  C   UNL A   1      32.619  29.941  27.159  1.00  0.00     0.023 C 
BRANCH  75  76
ATOM     76  C   UNL A   1      31.789  30.123  25.889  1.00  0.00     0.116 C 
BRANCH  76  77
ATOM     77  N   UNL A   1      32.445  29.659  24.681  1.00  0.00    -0.352 N 
ATOM     78  C   UNL A   1      31.901  29.187  23.516  1.00  0.00     0.253 C 
ATOM     79  H   UNL A   1      33.428  29.687  24.702  1.00  0.00     0.163 HD
ATOM     80  O   UNL A   1      32.637  28.958  22.557  1.00  0.00    -0.269 OA
BRANCH  78  81
ATOM     81  C   UNL A   1      30.467  28.870  23.380  1.00  0.00     0.065 A 
ATOM     82  C   UNL A   1      29.639  29.937  22.983  1.00  0.00     0.016 A 
ATOM     83  C   UNL A   1      29.896  27.632  23.689  1.00  0.00     0.076 A 
ATOM     84  C   UNL A   1      28.260  29.765  22.848  1.00  0.00     0.001 A 
ATOM     85  C   UNL A   1      28.507  27.475  23.536  1.00  0.00     0.029 A 
ATOM     86  C   UNL A   1      27.692  28.528  23.122  1.00  0.00     0.002 A 
BRANCH  83  87
ATOM     87  N   UNL A   1      30.580  26.468  24.035  1.00  0.00    -0.255 NA
ATOM     88  C   UNL A   1      30.127  25.660  24.939  1.00  0.00     0.127 C 
BRANCH  88  89
ATOM     89  C   UNL A   1      30.769  24.334  25.001  1.00  0.00     0.076 A 
ATOM     90  C   UNL A   1      30.910  23.733  23.812  1.00  0.00     0.209 A 
ATOM     91  C   UNL A   1      31.789  24.025  26.034  1.00  0.00     0.201 A 
ATOM     92  O   UNL A   1      31.972  22.904  23.487  1.00  0.00    -0.463 OA
ATOM     93  C   UNL A   1      33.106  23.706  25.466  1.00  0.00     0.065 A 
ATOM     94  O   UNL A   1      31.590  24.117  27.234  1.00  0.00    -0.288 OA
ATOM     95  C   UNL A   1      33.136  23.182  24.173  1.00  0.00     0.137 A 
ATOM     96  C   UNL A   1      34.280  24.053  26.136  1.00  0.00     0.016 A 
ATOM     97  C   UNL A   1      34.356  22.997  23.531  1.00  0.00     0.048 A 
ATOM     98  C   UNL A   1      35.499  23.905  25.476  1.00  0.00     0.001 A 
ATOM     99  C   UNL A   1      35.535  23.380  24.178  1.00  0.00     0.004 A 
ENDBRANCH  88  89
ENDBRANCH  83  87
ENDBRANCH  78  81
ENDBRANCH  76  77
ENDBRANCH  75  76
ENDBRANCH   1  75
TORSDOF 16
ENDMDL
MODEL 2
REMARK VINA RESULT:     -12.9      3.142      5.487
REMARK SMILES O=C(NCCCCNC(=O)c1ccccc1/N=C/c1coc2ccccc2c1=O)c1ccc(-c2c3nc(c(-c4c(F)cc(S(=O)(=O)[O-])cc4F)c4ccc([nH]4)c(-c4c(F)cc(S(=O)(=O)[O-])cc4F)c4nc(c(-c5c(F)cc(S(=O)(=O)[O-])cc5F)c5ccc2[nH]5)C=C4)C=C3)cc1
REMARK SMILES IDX 5 1 4 2 3 3 1 4 2 5 30 7 31 8 95 9 32 10 94 11 33 12 34 13
REMARK SMILES IDX 35 14 88 15 36 16 93 17 87 18 89 19 37 20 92 21 86 22 85 23
REMARK SMILES IDX 38 25 72 26 51 27 71 28 52 29 55 30 70 31 90 32 53 33 54 34
REMARK SMILES IDX 69 36 91 37 56 38 39 39 40 40 49 41 41 42 42 43 48 44 50 45
REMARK SMILES IDX 43 46 44 47 45 48 46 49 47 50 73 51 74 52 83 53 75 54 76 55
REMARK SMILES IDX 82 56 84 57 77 58 78 59 79 60 80 61 81 62 57 63 58 64 67 65
REMARK SMILES IDX 59 66 60 67 66 68 68 69 61 70 62 71 63 72 64 73 65 74 6 75
REMARK SMILES IDX 7 76 8 77 9 78 10 80 11 81 12 82 16 83 13 84 15 85 14 86
REMARK SMILES IDX 17 87 18 88 19 89 20 90 28 91 21 92 27 93 29 94 22 95 26 96
REMARK SMILES IDX 23 97 25 98 24 99
REMARK H PARENT 3 6 89 24 55 35 8 79
REMARK Flexibility Score: inf
ROOT
ATOM      1  C   UNL A   1      38.069  33.452  32.134  1.00  0.00     0.023 C 
ENDROOT
BRANCH   1   2
ATOM      2  C   UNL A   1      37.244  33.098  30.897  1.00  0.00     0.116 C 
BRANCH   2   3
ATOM      3  N   UNL A   1      36.393  31.938  31.086  1.00  0.00    -0.352 N 
ATOM      4  O   UNL A   1      35.681  29.817  30.764  1.00  0.00    -0.269 OA
ATOM      5  C   UNL A   1      36.597  30.632  30.705  1.00  0.00     0.251 C 
ATOM      6  H   UNL A   1      35.545  32.111  31.555  1.00  0.00     0.163 HD
BRANCH   5   7
ATOM      7  C   UNL A   1      37.929  30.187  30.224  1.00  0.00     0.039 A 
ATOM      8  C   UNL A   1      38.902  29.725  31.118  1.00  0.00     0.014 A 
ATOM      9  C   UNL A   1      38.182  30.158  28.849  1.00  0.00     0.014 A 
ATOM     10  C   UNL A   1      40.155  29.331  30.646  1.00  0.00     0.010 A 
ATOM     11  C   UNL A   1      39.426  29.731  28.373  1.00  0.00     0.010 A 
ATOM     12  C   UNL A   1      40.432  29.339  29.271  1.00  0.00    -0.014 A 
BRANCH  12  13
ATOM     13  C   UNL A   1      41.775  28.933  28.786  1.00  0.00     0.031 A 
ATOM     14  C   UNL A   1      42.912  29.915  28.780  1.00  0.00     0.074 A 
ATOM     15  C   UNL A   1      41.981  27.672  28.363  1.00  0.00     0.049 A 
ATOM     16  N   UNL A   1      44.161  29.727  28.438  1.00  0.00    -0.248 NA
ATOM     17  C   UNL A   1      42.604  31.285  29.214  1.00  0.00     0.031 C 
ATOM     18  C   UNL A   1      40.960  26.627  28.295  1.00  0.00     0.029 A 
ATOM     19  N   UNL A   1      43.124  27.058  27.918  1.00  0.00    -0.354 N 
ATOM     20  C   UNL A   1      44.787  30.956  28.596  1.00  0.00     0.074 A 
ATOM     21  C   UNL A   1      43.777  31.886  29.062  1.00  0.00     0.031 C 
ATOM     22  C   UNL A   1      41.527  25.493  27.850  1.00  0.00     0.029 A 
ATOM     23  C   UNL A   1      42.946  25.735  27.595  1.00  0.00     0.049 A 
ATOM     24  H   UNL A   1      43.990  27.520  27.838  1.00  0.00     0.167 HD
ATOM     25  C   UNL A   1      46.083  31.283  28.380  1.00  0.00     0.037 A 
ATOM     26  C   UNL A   1      43.824  24.819  27.146  1.00  0.00     0.037 A 
ATOM     27  C   UNL A   1      47.102  30.366  27.949  1.00  0.00     0.049 A 
ATOM     28  C   UNL A   1      45.259  25.197  26.931  1.00  0.00     0.074 A 
ATOM     29  C   UNL A   1      48.456  30.598  27.772  1.00  0.00     0.029 A 
ATOM     30  N   UNL A   1      46.879  29.037  27.622  1.00  0.00    -0.354 N 
ATOM     31  N   UNL A   1      45.843  26.352  27.134  1.00  0.00    -0.248 NA
ATOM     32  C   UNL A   1      46.155  24.146  26.426  1.00  0.00     0.031 C 
ATOM     33  C   UNL A   1      49.050  29.409  27.325  1.00  0.00     0.029 A 
ATOM     34  C   UNL A   1      48.066  28.439  27.229  1.00  0.00     0.049 A 
ATOM     35  H   UNL A   1      46.005  28.585  27.663  1.00  0.00     0.167 HD
ATOM     36  C   UNL A   1      47.175  26.171  26.779  1.00  0.00     0.074 A 
ATOM     37  C   UNL A   1      47.313  24.791  26.357  1.00  0.00     0.031 C 
ATOM     38  C   UNL A   1      48.188  27.069  26.804  1.00  0.00     0.037 A 
BRANCH  25  39
ATOM     39  C   UNL A   1      46.458  32.715  28.614  1.00  0.00     0.058 A 
ATOM     40  C   UNL A   1      46.893  33.155  29.872  1.00  0.00     0.135 A 
ATOM     41  C   UNL A   1      46.348  33.658  27.582  1.00  0.00     0.135 A 
ATOM     42  F   UNL A   1      46.997  32.288  30.892  1.00  0.00    -0.206 F 
ATOM     43  C   UNL A   1      47.180  34.495  30.111  1.00  0.00     0.059 A 
ATOM     44  C   UNL A   1      46.635  35.003  27.797  1.00  0.00     0.059 A 
ATOM     45  F   UNL A   1      45.926  33.284  26.365  1.00  0.00    -0.206 F 
ATOM     46  C   UNL A   1      47.030  35.413  29.071  1.00  0.00     0.060 A 
BRANCH  46  47
ATOM     47  S   UNL A   1      47.347  37.164  29.380  1.00  0.00     0.124 S 
ATOM     48  O   UNL A   1      46.122  37.773  28.869  1.00  0.00    -0.237 OA
ATOM     49  O   UNL A   1      47.521  37.216  30.828  1.00  0.00    -0.237 OA
ATOM     50  O   UNL A   1      48.554  37.423  28.600  1.00  0.00    -0.744 OA
ENDBRANCH  46  47
ENDBRANCH  25  39
BRANCH  26  51
ATOM     51  C   UNL A   1      43.351  23.442  26.878  1.00  0.00     0.058 A 
ATOM     52  C   UNL A   1      43.195  22.981  25.564  1.00  0.00     0.135 A 
ATOM     53  C   UNL A   1      43.113  22.547  27.929  1.00  0.00     0.135 A 
ATOM     54  F   UNL A   1      43.414  23.809  24.532  1.00  0.00    -0.206 F 
ATOM     55  C   UNL A   1      42.831  21.666  25.297  1.00  0.00     0.059 A 
ATOM     56  C   UNL A   1      42.753  21.226  27.686  1.00  0.00     0.059 A 
ATOM     57  F   UNL A   1      43.258  22.949  29.201  1.00  0.00    -0.206 F 
ATOM     58  C   UNL A   1      42.615  20.795  26.366  1.00  0.00     0.060 A 
BRANCH  58  59
ATOM     59  S   UNL A   1      42.240  19.058  26.037  1.00  0.00     0.124 S 
ATOM     60  O   UNL A   1      40.809  19.114  25.767  1.00  0.00    -0.237 OA
ATOM     61  O   UNL A   1      43.093  18.754  24.892  1.00  0.00    -0.237 OA
ATOM     62  O   UNL A   1      42.628  18.404  27.284  1.00  0.00    -0.744 OA
ENDBRANCH  58  59
ENDBRANCH  26  51
BRANCH  38  63
ATOM     63  C   UNL A   1      49.534  26.592  26.350  1.00  0.00     0.058 A 
ATOM     64  C   UNL A   1      49.950  26.768  25.022  1.00  0.00     0.135 A 
ATOM     65  C   UNL A   1      50.426  25.990  27.249  1.00  0.00     0.135 A 
ATOM     66  F   UNL A   1      49.127  27.335  24.126  1.00  0.00    -0.206 F 
ATOM     67  C   UNL A   1      51.210  26.357  24.597  1.00  0.00     0.059 A 
ATOM     68  C   UNL A   1      51.692  25.576  26.848  1.00  0.00     0.059 A 
ATOM     69  F   UNL A   1      50.070  25.801  28.530  1.00  0.00    -0.206 F 
ATOM     70  C   UNL A   1      52.072  25.757  25.516  1.00  0.00     0.060 A 
BRANCH  70  71
ATOM     71  S   UNL A   1      53.723  25.251  24.985  1.00  0.00     0.124 S 
ATOM     72  O   UNL A   1      53.848  25.951  23.711  1.00  0.00    -0.237 OA
ATOM     73  O   UNL A   1      54.578  25.741  26.062  1.00  0.00    -0.237 OA
ATOM     74  O   UNL A   1      53.610  23.798  24.899  1.00  0.00    -0.744 OA
ENDBRANCH  70  71
ENDBRANCH  38  63
ENDBRANCH  12  13
ENDBRANCH   5   7
ENDBRANCH   2   3
ENDBRANCH   1   2
BRANCH   1  75
ATOM     75  C   UNL A   1      37.541  34.585  33.022  1.00  0.00     0.023 C 
BRANCH  75  76
ATOM     76  C   UNL A   1      36.753  34.168  34.264  1.00  0.00     0.116 C 
BRANCH  76  77
ATOM     77  N   UNL A   1      35.606  33.325  33.981  1.00  0.00    -0.352 N 
ATOM     78  C   UNL A   1      34.486  33.594  33.240  1.00  0.00     0.253 C 
ATOM     79  H   UNL A   1      35.637  32.427  34.382  1.00  0.00     0.163 HD
ATOM     80  O   UNL A   1      33.679  32.691  33.020  1.00  0.00    -0.269 OA
BRANCH  78  81
ATOM     81  C   UNL A   1      34.163  34.947  32.749  1.00  0.00     0.065 A 
ATOM     82  C   UNL A   1      34.027  35.940  33.738  1.00  0.00     0.016 A 
ATOM     83  C   UNL A   1      33.917  35.268  31.411  1.00  0.00     0.076 A 
ATOM     84  C   UNL A   1      33.695  37.252  33.397  1.00  0.00     0.001 A 
ATOM     85  C   UNL A   1      33.596  36.597  31.087  1.00  0.00     0.029 A 
ATOM     86  C   UNL A   1      33.483  37.584  32.066  1.00  0.00     0.002 A 
BRANCH  83  87
ATOM     87  N   UNL A   1      34.068  34.420  30.315  1.00  0.00    -0.255 NA
ATOM     88  C   UNL A   1      33.230  34.432  29.329  1.00  0.00     0.127 C 
BRANCH  88  89
ATOM     89  C   UNL A   1      33.655  33.720  28.111  1.00  0.00     0.076 A 
ATOM     90  C   UNL A   1      34.921  33.281  28.140  1.00  0.00     0.209 A 
ATOM     91  C   UNL A   1      32.689  32.926  27.312  1.00  0.00     0.201 A 
ATOM     92  O   UNL A   1      35.347  32.114  27.527  1.00  0.00    -0.463 OA
ATOM     93  C   UNL A   1      33.026  31.497  27.254  1.00  0.00     0.065 A 
ATOM     94  O   UNL A   1      31.666  33.385  26.831  1.00  0.00    -0.288 OA
ATOM     95  C   UNL A   1      34.369  31.149  27.404  1.00  0.00     0.137 A 
ATOM     96  C   UNL A   1      32.027  30.525  27.199  1.00  0.00     0.016 A 
ATOM     97  C   UNL A   1      34.728  29.809  27.503  1.00  0.00     0.048 A 
ATOM     98  C   UNL A   1      32.384  29.185  27.338  1.00  0.00     0.001 A 
ATOM     99  C   UNL A   1      33.731  28.830  27.490  1.00  0.00     0.004 A 
ENDBRANCH  88  89
ENDBRANCH  83  87
ENDBRANCH  78  81
ENDBRANCH  76  77
ENDBRANCH  75  76
ENDBRANCH   1  75
TORSDOF 16
ENDMDL
MODEL 3
REMARK VINA RESULT:     -12.8      0.553      8.069
REMARK SMILES O=C(NCCCCNC(=O)c1ccccc1/N=C/c1coc2ccccc2c1=O)c1ccc(-c2c3nc(c(-c4c(F)cc(S(=O)(=O)[O-])cc4F)c4ccc([nH]4)c(-c4c(F)cc(S(=O)(=O)[O-])cc4F)c4nc(c(-c5c(F)cc(S(=O)(=O)[O-])cc5F)c5ccc2[nH]5)C=C4)C=C3)cc1
REMARK SMILES IDX 5 1 4 2 3 3 1 4 2 5 30 7 31 8 95 9 32 10 94 11 33 12 34 13
REMARK SMILES IDX 35 14 88 15 36 16 93 17 87 18 89 19 37 20 92 21 86 22 85 23
REMARK SMILES IDX 38 25 72 26 51 27 71 28 52 29 55 30 70 31 90 32 53 33 54 34
REMARK SMILES IDX 69 36 91 37 56 38 39 39 40 40 49 41 41 42 42 43 48 44 50 45
REMARK SMILES IDX 43 46 44 47 45 48 46 49 47 50 73 51 74 52 83 53 75 54 76 55
REMARK SMILES IDX 82 56 84 57 77 58 78 59 79 60 80 61 81 62 57 63 58 64 67 65
REMARK SMILES IDX 59 66 60 67 66 68 68 69 61 70 62 71 63 72 64 73 65 74 6 75
REMARK SMILES IDX 7 76 8 77 9 78 10 80 11 81 12 82 16 83 13 84 15 85 14 86
REMARK SMILES IDX 17 87 18 88 19 89 20 90 28 91 21 92 27 93 29 94 22 95 26 96
REMARK SMILES IDX 23 97 25 98 24 99
REMARK H PARENT 3 6 89 24 55 35 8 79
REMARK Flexibility Score: inf
ROOT
ATOM      1  C   UNL A   1      34.024  28.743  26.958  1.00  0.00     0.023 C 
ENDROOT
BRANCH   1   2
ATOM      2  C   UNL A   1      35.331  29.365  27.450  1.00  0.00     0.116 C 
BRANCH   2   3
ATOM      3  N   UNL A   1      35.280  29.788  28.837  1.00  0.00    -0.352 N 
ATOM      4  O   UNL A   1      35.988  29.966  30.976  1.00  0.00    -0.269 OA
ATOM      5  C   UNL A   1      36.264  29.758  29.798  1.00  0.00     0.251 C 
ATOM      6  H   UNL A   1      34.414  30.150  29.134  1.00  0.00     0.163 HD
BRANCH   5   7
ATOM      7  C   UNL A   1      37.673  29.480  29.425  1.00  0.00     0.039 A 
ATOM      8  C   UNL A   1      38.113  29.632  28.105  1.00  0.00     0.014 A 
ATOM      9  C   UNL A   1      38.589  29.137  30.425  1.00  0.00     0.014 A 
ATOM     10  C   UNL A   1      39.439  29.345  27.772  1.00  0.00     0.010 A 
ATOM     11  C   UNL A   1      39.925  28.883  30.097  1.00  0.00     0.010 A 
ATOM     12  C   UNL A   1      40.353  28.960  28.762  1.00  0.00    -0.014 A 
BRANCH  12  13
ATOM     13  C   UNL A   1      41.755  28.641  28.391  1.00  0.00     0.031 A 
ATOM     14  C   UNL A   1      42.133  27.252  27.961  1.00  0.00     0.074 A 
ATOM     15  C   UNL A   1      42.691  29.608  28.421  1.00  0.00     0.049 A 
ATOM     16  N   UNL A   1      43.293  26.803  27.556  1.00  0.00    -0.248 NA
ATOM     17  C   UNL A   1      41.069  26.238  27.992  1.00  0.00     0.031 C 
ATOM     18  C   UNL A   1      42.464  30.990  28.841  1.00  0.00     0.029 A 
ATOM     19  N   UNL A   1      44.021  29.570  28.086  1.00  0.00    -0.354 N 
ATOM     20  C   UNL A   1      43.108  25.450  27.301  1.00  0.00     0.074 A 
ATOM     21  C   UNL A   1      41.722  25.151  27.602  1.00  0.00     0.031 C 
ATOM     22  C   UNL A   1      43.614  31.676  28.721  1.00  0.00     0.029 A 
ATOM     23  C   UNL A   1      44.657  30.779  28.226  1.00  0.00     0.049 A 
ATOM     24  H   UNL A   1      44.477  28.755  27.774  1.00  0.00     0.167 HD
ATOM     25  C   UNL A   1      44.004  24.540  26.852  1.00  0.00     0.037 A 
ATOM     26  C   UNL A   1      45.934  31.129  27.982  1.00  0.00     0.037 A 
ATOM     27  C   UNL A   1      45.373  24.828  26.519  1.00  0.00     0.049 A 
ATOM     28  C   UNL A   1      46.906  30.110  27.468  1.00  0.00     0.074 A 
ATOM     29  C   UNL A   1      46.331  23.979  25.992  1.00  0.00     0.029 A 
ATOM     30  N   UNL A   1      45.981  26.062  26.685  1.00  0.00    -0.354 N 
ATOM     31  N   UNL A   1      46.700  28.847  27.186  1.00  0.00    -0.248 NA
ATOM     32  C   UNL A   1      48.286  30.564  27.239  1.00  0.00     0.031 C 
ATOM     33  C   UNL A   1      47.526  24.700  25.851  1.00  0.00     0.029 A 
ATOM     34  C   UNL A   1      47.306  25.996  26.286  1.00  0.00     0.049 A 
ATOM     35  H   UNL A   1      45.536  26.868  27.036  1.00  0.00     0.167 HD
ATOM     36  C   UNL A   1      47.923  28.352  26.749  1.00  0.00     0.074 A 
ATOM     37  C   UNL A   1      48.863  29.453  26.795  1.00  0.00     0.031 C 
ATOM     38  C   UNL A   1      48.233  27.097  26.345  1.00  0.00     0.037 A 
BRANCH  25  39
ATOM     39  C   UNL A   1      43.509  23.134  26.701  1.00  0.00     0.058 A 
ATOM     40  C   UNL A   1      43.296  22.316  27.820  1.00  0.00     0.135 A 
ATOM     41  C   UNL A   1      43.279  22.591  25.429  1.00  0.00     0.135 A 
ATOM     42  F   UNL A   1      43.519  22.790  29.055  1.00  0.00    -0.206 F 
ATOM     43  C   UNL A   1      42.899  20.990  27.682  1.00  0.00     0.059 A 
ATOM     44  C   UNL A   1      42.877  21.269  25.267  1.00  0.00     0.059 A 
ATOM     45  F   UNL A   1      43.480  23.335  24.330  1.00  0.00    -0.206 F 
ATOM     46  C   UNL A   1      42.709  20.472  26.400  1.00  0.00     0.060 A 
BRANCH  46  47
ATOM     47  S   UNL A   1      42.245  18.737  26.203  1.00  0.00     0.124 S 
ATOM     48  O   UNL A   1      40.869  18.860  25.730  1.00  0.00    -0.237 OA
ATOM     49  O   UNL A   1      43.208  18.249  25.222  1.00  0.00    -0.237 OA
ATOM     50  O   UNL A   1      42.404  18.199  27.551  1.00  0.00    -0.744 OA
ENDBRANCH  46  47
ENDBRANCH  25  39
BRANCH  26  51
ATOM     51  C   UNL A   1      46.353  32.528  28.223  1.00  0.00     0.058 A 
ATOM     52  C   UNL A   1      46.180  33.508  27.237  1.00  0.00     0.135 A 
ATOM     53  C   UNL A   1      46.870  32.919  29.466  1.00  0.00     0.135 A 
ATOM     54  F   UNL A   1      45.688  33.171  26.036  1.00  0.00    -0.206 F 
ATOM     55  C   UNL A   1      46.493  34.841  27.479  1.00  0.00     0.059 A 
ATOM     56  C   UNL A   1      47.185  34.247  29.732  1.00  0.00     0.059 A 
ATOM     57  F   UNL A   1      47.045  32.010  30.438  1.00  0.00    -0.206 F 
ATOM     58  C   UNL A   1      46.992  35.201  28.732  1.00  0.00     0.060 A 
BRANCH  58  59
ATOM     59  S   UNL A   1      47.308  36.942  29.097  1.00  0.00     0.124 S 
ATOM     60  O   UNL A   1      48.054  36.848  30.346  1.00  0.00    -0.237 OA
ATOM     61  O   UNL A   1      48.070  37.384  27.932  1.00  0.00    -0.237 OA
ATOM     62  O   UNL A   1      45.962  37.498  29.198  1.00  0.00    -0.744 OA
ENDBRANCH  58  59
ENDBRANCH  26  51
BRANCH  38  63
ATOM     63  C   UNL A   1      49.651  26.844  25.933  1.00  0.00     0.058 A 
ATOM     64  C   UNL A   1      50.057  27.026  24.602  1.00  0.00     0.135 A 
ATOM     65  C   UNL A   1      50.617  26.456  26.872  1.00  0.00     0.135 A 
ATOM     66  F   UNL A   1      49.166  27.393  23.668  1.00  0.00    -0.206 F 
ATOM     67  C   UNL A   1      51.379  26.827  24.214  1.00  0.00     0.059 A 
ATOM     68  C   UNL A   1      51.944  26.255  26.508  1.00  0.00     0.059 A 
ATOM     69  F   UNL A   1      50.273  26.269  28.156  1.00  0.00    -0.206 F 
ATOM     70  C   UNL A   1      52.313  26.435  25.173  1.00  0.00     0.060 A 
BRANCH  70  71
ATOM     71  S   UNL A   1      54.039  26.205  24.689  1.00  0.00     0.124 S 
ATOM     72  O   UNL A   1      54.708  27.218  25.500  1.00  0.00    -0.237 OA
ATOM     73  O   UNL A   1      54.303  24.820  25.066  1.00  0.00    -0.237 OA
ATOM     74  O   UNL A   1      54.015  26.461  23.252  1.00  0.00    -0.744 OA
ENDBRANCH  70  71
ENDBRANCH  38  63
ENDBRANCH  12  13
ENDBRANCH   5   7
ENDBRANCH   2   3
ENDBRANCH   1   2
BRANCH   1  75
ATOM     75  C   UNL A   1      32.739  29.541  27.203  1.00  0.00     0.023 C 
BRANCH  75  76
ATOM     76  C   UNL A   1      31.825  29.750  25.996  1.00  0.00     0.116 C 
BRANCH  76  77
ATOM     77  N   UNL A   1      32.446  29.438  24.722  1.00  0.00    -0.352 N 
ATOM     78  C   UNL A   1      31.867  29.134  23.518  1.00  0.00     0.253 C 
ATOM     79  H   UNL A   1      33.430  29.447  24.723  1.00  0.00     0.163 HD
ATOM     80  O   UNL A   1      32.579  29.022  22.519  1.00  0.00    -0.269 OA
BRANCH  78  81
ATOM     81  C   UNL A   1      30.425  28.862  23.375  1.00  0.00     0.065 A 
ATOM     82  C   UNL A   1      29.622  29.972  23.048  1.00  0.00     0.016 A 
ATOM     83  C   UNL A   1      29.824  27.623  23.616  1.00  0.00     0.076 A 
ATOM     84  C   UNL A   1      28.239  29.843  22.914  1.00  0.00     0.001 A 
ATOM     85  C   UNL A   1      28.431  27.511  23.465  1.00  0.00     0.029 A 
ATOM     86  C   UNL A   1      27.641  28.607  23.119  1.00  0.00     0.002 A 
BRANCH  83  87
ATOM     87  N   UNL A   1      30.480  26.424  23.888  1.00  0.00    -0.255 NA
ATOM     88  C   UNL A   1      30.303  25.794  25.003  1.00  0.00     0.127 C 
BRANCH  88  89
ATOM     89  C   UNL A   1      30.805  24.408  25.051  1.00  0.00     0.076 A 
ATOM     90  C   UNL A   1      30.973  23.840  23.848  1.00  0.00     0.209 A 
ATOM     91  C   UNL A   1      31.712  23.959  26.136  1.00  0.00     0.201 A 
ATOM     92  O   UNL A   1      31.969  22.922  23.561  1.00  0.00    -0.463 OA
ATOM     93  C   UNL A   1      33.030  23.530  25.646  1.00  0.00     0.065 A 
ATOM     94  O   UNL A   1      31.436  24.026  27.323  1.00  0.00    -0.288 OA
ATOM     95  C   UNL A   1      33.102  23.054  24.337  1.00  0.00     0.137 A 
ATOM     96  C   UNL A   1      34.180  23.732  26.410  1.00  0.00     0.016 A 
ATOM     97  C   UNL A   1      34.341  22.772  23.772  1.00  0.00     0.048 A 
ATOM     98  C   UNL A   1      35.423  23.486  25.829  1.00  0.00     0.001 A 
ATOM     99  C   UNL A   1      35.502  23.009  24.515  1.00  0.00     0.004 A 
ENDBRANCH  88  89
ENDBRANCH  83  87
ENDBRANCH  78  81
ENDBRANCH  76  77
ENDBRANCH  75  76
ENDBRANCH   1  75
TORSDOF 16
ENDMDL
