MODEL 1
REMARK VINA RESULT:     -11.8      0.000      0.000
REMARK SMILES C[C@H](Oc1ccc(C(=O)NCc2ccccc2)cc1)C(=O)NCCCCNC(=O)c1ccc(-c2c3nc(c(-c4c(F)cc(S(=O)(=O)[O-])cc4F)c4ccc([nH]4)c(-c4c(F)cc(S(=O)(=O)[O-])cc4F)c4nc(c(-c5c(F)cc(S(=O)(=O)[O-])cc5F)c5ccc2[nH]5)C=C4)C=C3)cc1
REMARK SMILES IDX 23 1 22 2 20 3 21 4 2 6 1 7 3 8 4 9 5 10 19 11 6 12 18 13
REMARK SMILES IDX 7 14 8 15 9 16 10 17 11 19 12 20 13 21 17 22 14 23 16 24
REMARK SMILES IDX 15 25 24 26 25 27 26 28 27 29 28 30 29 32 30 33 31 34 95 35
REMARK SMILES IDX 32 36 94 37 33 38 34 39 35 40 88 41 36 42 93 43 87 44 89 45
REMARK SMILES IDX 37 46 92 47 86 48 85 49 38 51 72 52 51 53 71 54 52 55 55 56
REMARK SMILES IDX 70 57 90 58 53 59 54 60 69 62 91 63 56 64 39 65 40 66 49 67
REMARK SMILES IDX 41 68 42 69 48 70 50 71 43 72 44 73 45 74 46 75 47 76 73 77
REMARK SMILES IDX 74 78 83 79 75 80 76 81 82 82 84 83 77 84 78 85 79 86 80 87
REMARK SMILES IDX 81 88 57 89 58 90 67 91 59 92 60 93 66 94 68 95 61 96 62 97
REMARK SMILES IDX 63 98 64 99 65 100
REMARK H PARENT 22 5 10 18 27 31 89 50 55 61
REMARK Flexibility Score: inf
ROOT
ATOM      1  C   UNL A   1      36.041  21.443  25.732  1.00  0.00     0.116 C 
ENDROOT
BRANCH   1   2
ATOM      2  N   UNL A   1      35.045  20.409  25.507  1.00  0.00    -0.353 N 
ATOM      3  C   UNL A   1      33.707  20.537  25.243  1.00  0.00     0.260 C 
ATOM      4  O   UNL A   1      33.044  19.510  25.074  1.00  0.00    -0.271 OA
ATOM      5  H   UNL A   1      35.381  19.484  25.549  1.00  0.00     0.163 HD
BRANCH   3   6
ATOM      6  C   UNL A   1      33.070  21.931  25.099  1.00  0.00     0.258 C 
ATOM      7  C   UNL A   1      31.570  21.792  25.371  1.00  0.00     0.064 C 
BRANCH   6   8
ATOM      8  O   UNL A   1      33.553  22.427  23.848  1.00  0.00    -0.481 OA
BRANCH   8   9
ATOM      9  C   UNL A   1      33.426  23.703  23.414  1.00  0.00     0.120 A 
ATOM     10  C   UNL A   1      32.859  24.130  22.224  1.00  0.00     0.047 A 
ATOM     11  C   UNL A   1      33.949  24.654  24.295  1.00  0.00     0.047 A 
ATOM     12  C   UNL A   1      32.883  25.491  21.892  1.00  0.00     0.017 A 
ATOM     13  C   UNL A   1      33.981  26.013  23.966  1.00  0.00     0.017 A 
ATOM     14  C   UNL A   1      33.436  26.450  22.760  1.00  0.00     0.040 A 
BRANCH  14  15
ATOM     15  C   UNL A   1      33.465  27.857  22.276  1.00  0.00     0.251 C 
ATOM     16  O   UNL A   1      34.427  28.227  21.601  1.00  0.00    -0.269 OA
ATOM     17  N   UNL A   1      32.479  28.773  22.518  1.00  0.00    -0.348 N 
ATOM     18  H   UNL A   1      32.676  29.664  22.151  1.00  0.00     0.164 HD
BRANCH  17  19
ATOM     19  C   UNL A   1      31.204  28.702  23.203  1.00  0.00     0.152 C 
BRANCH  19  20
ATOM     20  C   UNL A   1      31.357  28.592  24.705  1.00  0.00    -0.029 A 
ATOM     21  C   UNL A   1      31.089  27.403  25.404  1.00  0.00     0.005 A 
ATOM     22  C   UNL A   1      31.752  29.720  25.441  1.00  0.00     0.005 A 
ATOM     23  C   UNL A   1      31.238  27.337  26.791  1.00  0.00     0.000 A 
ATOM     24  C   UNL A   1      31.902  29.652  26.829  1.00  0.00     0.000 A 
ATOM     25  C   UNL A   1      31.648  28.460  27.502  1.00  0.00     0.000 A 
ENDBRANCH  19  20
ENDBRANCH  17  19
ENDBRANCH  14  15
ENDBRANCH   8   9
ENDBRANCH   6   8
ENDBRANCH   3   6
ENDBRANCH   1   2
BRANCH   1  26
ATOM     26  C   UNL A   1      37.190  21.369  24.731  1.00  0.00     0.023 C 
BRANCH  26  27
ATOM     27  C   UNL A   1      38.175  20.229  24.981  1.00  0.00     0.023 C 
BRANCH  27  28
ATOM     28  C   UNL A   1      39.337  20.567  25.909  1.00  0.00     0.116 C 
BRANCH  28  29
ATOM     29  N   UNL A   1      40.264  19.461  26.088  1.00  0.00    -0.352 N 
ATOM     30  C   UNL A   1      41.625  19.495  26.299  1.00  0.00     0.251 C 
ATOM     31  H   UNL A   1      39.863  18.562  26.052  1.00  0.00     0.163 HD
ATOM     32  O   UNL A   1      42.274  18.461  26.286  1.00  0.00    -0.269 OA
BRANCH  30  33
ATOM     33  C   UNL A   1      42.295  20.800  26.507  1.00  0.00     0.039 A 
ATOM     34  C   UNL A   1      42.576  21.598  25.395  1.00  0.00     0.014 A 
ATOM     35  C   UNL A   1      42.619  21.244  27.791  1.00  0.00     0.014 A 
ATOM     36  C   UNL A   1      43.115  22.874  25.580  1.00  0.00     0.010 A 
ATOM     37  C   UNL A   1      43.085  22.543  27.978  1.00  0.00     0.010 A 
ATOM     38  C   UNL A   1      43.336  23.373  26.874  1.00  0.00    -0.014 A 
BRANCH  38  39
ATOM     39  C   UNL A   1      43.815  24.764  27.094  1.00  0.00     0.031 A 
ATOM     40  C   UNL A   1      45.267  25.103  26.892  1.00  0.00     0.074 A 
ATOM     41  C   UNL A   1      42.957  25.702  27.541  1.00  0.00     0.049 A 
ATOM     42  N   UNL A   1      45.886  26.236  27.103  1.00  0.00    -0.248 NA
ATOM     43  C   UNL A   1      46.144  24.021  26.417  1.00  0.00     0.031 C 
ATOM     44  C   UNL A   1      41.535  25.486  27.822  1.00  0.00     0.029 A 
ATOM     45  N   UNL A   1      43.155  27.025  27.848  1.00  0.00    -0.354 N 
ATOM     46  C   UNL A   1      47.223  26.001  26.802  1.00  0.00     0.074 A 
ATOM     47  C   UNL A   1      47.334  24.604  26.443  1.00  0.00     0.031 C 
ATOM     48  C   UNL A   1      40.988  26.638  28.239  1.00  0.00     0.029 A 
ATOM     49  C   UNL A   1      42.022  27.666  28.294  1.00  0.00     0.049 A 
ATOM     50  H   UNL A   1      44.026  27.474  27.758  1.00  0.00     0.167 HD
ATOM     51  C   UNL A   1      48.258  26.874  26.802  1.00  0.00     0.037 A 
ATOM     52  C   UNL A   1      41.839  28.935  28.709  1.00  0.00     0.037 A 
ATOM     53  C   UNL A   1      48.137  28.270  27.134  1.00  0.00     0.049 A 
ATOM     54  C   UNL A   1      43.006  29.885  28.701  1.00  0.00     0.074 A 
ATOM     55  C   UNL A   1      49.115  29.249  27.104  1.00  0.00     0.029 A 
ATOM     56  N   UNL A   1      46.968  28.885  27.560  1.00  0.00    -0.354 N 
ATOM     57  N   UNL A   1      44.249  29.661  28.348  1.00  0.00    -0.248 NA
ATOM     58  C   UNL A   1      42.745  31.263  29.143  1.00  0.00     0.031 C 
ATOM     59  C   UNL A   1      48.549  30.446  27.554  1.00  0.00     0.029 A 
ATOM     60  C   UNL A   1      47.206  30.225  27.816  1.00  0.00     0.049 A 
ATOM     61  H   UNL A   1      46.099  28.435  27.665  1.00  0.00     0.167 HD
ATOM     62  C   UNL A   1      44.911  30.875  28.496  1.00  0.00     0.074 A 
ATOM     63  C   UNL A   1      43.928  31.833  28.960  1.00  0.00     0.031 C 
ATOM     64  C   UNL A   1      46.216  31.171  28.267  1.00  0.00     0.037 A 
BRANCH  51  65
ATOM     65  C   UNL A   1      49.617  26.347  26.426  1.00  0.00     0.058 A 
ATOM     66  C   UNL A   1      50.077  26.375  25.100  1.00  0.00     0.135 A 
ATOM     67  C   UNL A   1      50.489  25.852  27.411  1.00  0.00     0.135 A 
ATOM     68  F   UNL A   1      49.280  26.824  24.116  1.00  0.00    -0.206 F 
ATOM     69  C   UNL A   1      51.341  25.905  24.758  1.00  0.00     0.059 A 
ATOM     70  C   UNL A   1      51.768  25.404  27.095  1.00  0.00     0.059 A 
ATOM     71  F   UNL A   1      50.101  25.804  28.694  1.00  0.00    -0.206 F 
ATOM     72  C   UNL A   1      52.180  25.422  25.763  1.00  0.00     0.060 A 
BRANCH  72  73
ATOM     73  S   UNL A   1      53.820  24.826  25.302  1.00  0.00     0.124 S 
ATOM     74  O   UNL A   1      54.073  25.584  24.081  1.00  0.00    -0.237 OA
ATOM     75  O   UNL A   1      54.626  25.204  26.460  1.00  0.00    -0.237 OA
ATOM     76  O   UNL A   1      53.623  23.391  25.121  1.00  0.00    -0.744 OA
ENDBRANCH  72  73
ENDBRANCH  51  65
BRANCH  52  77
ATOM     77  C   UNL A   1      40.491  29.389  29.148  1.00  0.00     0.058 A 
ATOM     78  C   UNL A   1      39.472  29.628  28.215  1.00  0.00     0.135 A 
ATOM     79  C   UNL A   1      40.194  29.589  30.505  1.00  0.00     0.135 A 
ATOM     80  F   UNL A   1      39.708  29.458  26.905  1.00  0.00    -0.206 F 
ATOM     81  C   UNL A   1      38.212  30.071  28.607  1.00  0.00     0.059 A 
ATOM     82  C   UNL A   1      38.934  30.004  30.924  1.00  0.00     0.059 A 
ATOM     83  F   UNL A   1      41.129  29.357  31.439  1.00  0.00    -0.206 F 
ATOM     84  C   UNL A   1      37.953  30.254  29.966  1.00  0.00     0.060 A 
BRANCH  84  85
ATOM     85  S   UNL A   1      36.302  30.788  30.469  1.00  0.00     0.124 S 
ATOM     86  O   UNL A   1      35.572  30.707  29.209  1.00  0.00    -0.237 OA
ATOM     87  O   UNL A   1      35.951  29.791  31.476  1.00  0.00    -0.237 OA
ATOM     88  O   UNL A   1      36.528  32.136  30.984  1.00  0.00    -0.744 OA
ENDBRANCH  84  85
ENDBRANCH  52  77
BRANCH  64  89
ATOM     89  C   UNL A   1      46.652  32.595  28.475  1.00  0.00     0.058 A 
ATOM     90  C   UNL A   1      46.638  33.532  27.430  1.00  0.00     0.135 A 
ATOM     91  C   UNL A   1      47.038  33.038  29.749  1.00  0.00     0.135 A 
ATOM     92  F   UNL A   1      46.284  33.159  26.191  1.00  0.00    -0.206 F 
ATOM     93  C   UNL A   1      47.014  34.856  27.639  1.00  0.00     0.059 A 
ATOM     94  C   UNL A   1      47.390  34.364  29.987  1.00  0.00     0.059 A 
ATOM     95  F   UNL A   1      47.060  32.185  30.785  1.00  0.00    -0.206 F 
ATOM     96  C   UNL A   1      47.386  35.263  28.922  1.00  0.00     0.060 A 
BRANCH  96  97
ATOM     97  S   UNL A   1      47.836  36.991  29.185  1.00  0.00     0.124 S 
ATOM     98  O   UNL A   1      47.926  37.484  27.815  1.00  0.00    -0.237 OA
ATOM     99  O   UNL A   1      46.710  37.492  29.966  1.00  0.00    -0.237 OA
ATOM    100  O   UNL A   1      49.103  36.906  29.906  1.00  0.00    -0.744 OA
ENDBRANCH  96  97
ENDBRANCH  64  89
ENDBRANCH  38  39
ENDBRANCH  30  33
ENDBRANCH  28  29
ENDBRANCH  27  28
ENDBRANCH  26  27
ENDBRANCH   1  26
TORSDOF 19
ENDMDL
MODEL 2
REMARK VINA RESULT:     -11.7      0.459      8.106
REMARK SMILES C[C@H](Oc1ccc(C(=O)NCc2ccccc2)cc1)C(=O)NCCCCNC(=O)c1ccc(-c2c3nc(c(-c4c(F)cc(S(=O)(=O)[O-])cc4F)c4ccc([nH]4)c(-c4c(F)cc(S(=O)(=O)[O-])cc4F)c4nc(c(-c5c(F)cc(S(=O)(=O)[O-])cc5F)c5ccc2[nH]5)C=C4)C=C3)cc1
REMARK SMILES IDX 23 1 22 2 20 3 21 4 2 6 1 7 3 8 4 9 5 10 19 11 6 12 18 13
REMARK SMILES IDX 7 14 8 15 9 16 10 17 11 19 12 20 13 21 17 22 14 23 16 24
REMARK SMILES IDX 15 25 24 26 25 27 26 28 27 29 28 30 29 32 30 33 31 34 95 35
REMARK SMILES IDX 32 36 94 37 33 38 34 39 35 40 88 41 36 42 93 43 87 44 89 45
REMARK SMILES IDX 37 46 92 47 86 48 85 49 38 51 72 52 51 53 71 54 52 55 55 56
REMARK SMILES IDX 70 57 90 58 53 59 54 60 69 62 91 63 56 64 39 65 40 66 49 67
REMARK SMILES IDX 41 68 42 69 48 70 50 71 43 72 44 73 45 74 46 75 47 76 73 77
REMARK SMILES IDX 74 78 83 79 75 80 76 81 82 82 84 83 77 84 78 85 79 86 80 87
REMARK SMILES IDX 81 88 57 89 58 90 67 91 59 92 60 93 66 94 68 95 61 96 62 97
REMARK SMILES IDX 63 98 64 99 65 100
REMARK H PARENT 22 5 10 18 27 31 89 50 55 61
REMARK Flexibility Score: inf
ROOT
ATOM      1  C   UNL A   1      36.098  21.585  25.745  1.00  0.00     0.116 C 
ENDROOT
BRANCH   1   2
ATOM      2  N   UNL A   1      35.226  20.491  25.352  1.00  0.00    -0.353 N 
ATOM      3  C   UNL A   1      33.909  20.524  24.976  1.00  0.00     0.260 C 
ATOM      4  O   UNL A   1      33.362  19.461  24.670  1.00  0.00    -0.271 OA
ATOM      5  H   UNL A   1      35.642  19.598  25.356  1.00  0.00     0.163 HD
BRANCH   3   6
ATOM      6  C   UNL A   1      33.159  21.865  24.878  1.00  0.00     0.258 C 
ATOM      7  C   UNL A   1      31.705  21.621  25.291  1.00  0.00     0.064 C 
BRANCH   6   8
ATOM      8  O   UNL A   1      33.486  22.374  23.583  1.00  0.00    -0.481 OA
BRANCH   8   9
ATOM      9  C   UNL A   1      33.392  23.671  23.208  1.00  0.00     0.120 A 
ATOM     10  C   UNL A   1      32.932  24.162  21.997  1.00  0.00     0.047 A 
ATOM     11  C   UNL A   1      33.829  24.573  24.184  1.00  0.00     0.047 A 
ATOM     12  C   UNL A   1      32.978  25.539  21.743  1.00  0.00     0.017 A 
ATOM     13  C   UNL A   1      33.884  25.948  23.932  1.00  0.00     0.017 A 
ATOM     14  C   UNL A   1      33.446  26.450  22.707  1.00  0.00     0.040 A 
BRANCH  14  15
ATOM     15  C   UNL A   1      33.512  27.881  22.304  1.00  0.00     0.251 C 
ATOM     16  O   UNL A   1      34.489  28.267  21.661  1.00  0.00    -0.269 OA
ATOM     17  N   UNL A   1      32.544  28.804  22.589  1.00  0.00    -0.348 N 
ATOM     18  H   UNL A   1      32.765  29.710  22.275  1.00  0.00     0.164 HD
BRANCH  17  19
ATOM     19  C   UNL A   1      31.260  28.724  23.257  1.00  0.00     0.152 C 
BRANCH  19  20
ATOM     20  C   UNL A   1      31.394  28.632  24.762  1.00  0.00    -0.029 A 
ATOM     21  C   UNL A   1      31.807  29.720  25.549  1.00  0.00     0.005 A 
ATOM     22  C   UNL A   1      31.125  27.413  25.403  1.00  0.00     0.005 A 
ATOM     23  C   UNL A   1      31.922  29.601  26.935  1.00  0.00     0.000 A 
ATOM     24  C   UNL A   1      31.239  27.295  26.791  1.00  0.00     0.000 A 
ATOM     25  C   UNL A   1      31.635  28.389  27.556  1.00  0.00     0.000 A 
ENDBRANCH  19  20
ENDBRANCH  17  19
ENDBRANCH  14  15
ENDBRANCH   8   9
ENDBRANCH   6   8
ENDBRANCH   3   6
ENDBRANCH   1   2
BRANCH   1  26
ATOM     26  C   UNL A   1      37.372  21.639  24.908  1.00  0.00     0.023 C 
BRANCH  26  27
ATOM     27  C   UNL A   1      38.304  20.443  25.096  1.00  0.00     0.023 C 
BRANCH  27  28
ATOM     28  C   UNL A   1      39.505  20.691  26.003  1.00  0.00     0.116 C 
BRANCH  28  29
ATOM     29  N   UNL A   1      40.402  19.550  26.084  1.00  0.00    -0.352 N 
ATOM     30  C   UNL A   1      41.770  19.532  26.255  1.00  0.00     0.251 C 
ATOM     31  H   UNL A   1      39.974  18.667  26.005  1.00  0.00     0.163 HD
ATOM     32  O   UNL A   1      42.385  18.483  26.159  1.00  0.00    -0.269 OA
BRANCH  30  33
ATOM     33  C   UNL A   1      42.485  20.802  26.522  1.00  0.00     0.039 A 
ATOM     34  C   UNL A   1      42.972  21.541  25.441  1.00  0.00     0.014 A 
ATOM     35  C   UNL A   1      42.649  21.272  27.827  1.00  0.00     0.014 A 
ATOM     36  C   UNL A   1      43.559  22.788  25.666  1.00  0.00     0.010 A 
ATOM     37  C   UNL A   1      43.165  22.548  28.042  1.00  0.00     0.010 A 
ATOM     38  C   UNL A   1      43.624  23.321  26.964  1.00  0.00    -0.014 A 
BRANCH  38  39
ATOM     39  C   UNL A   1      44.154  24.687  27.213  1.00  0.00     0.031 A 
ATOM     40  C   UNL A   1      43.224  25.795  27.628  1.00  0.00     0.074 A 
ATOM     41  C   UNL A   1      45.459  24.946  26.997  1.00  0.00     0.049 A 
ATOM     42  N   UNL A   1      43.485  27.063  27.819  1.00  0.00    -0.248 NA
ATOM     43  C   UNL A   1      41.810  25.437  27.828  1.00  0.00     0.031 C 
ATOM     44  C   UNL A   1      46.454  23.969  26.546  1.00  0.00     0.029 A 
ATOM     45  N   UNL A   1      46.176  26.111  27.119  1.00  0.00    -0.354 N 
ATOM     46  C   UNL A   1      42.271  27.656  28.146  1.00  0.00     0.074 A 
ATOM     47  C   UNL A   1      41.264  26.618  28.078  1.00  0.00     0.031 C 
ATOM     48  C   UNL A   1      47.650  24.569  26.449  1.00  0.00     0.029 A 
ATOM     49  C   UNL A   1      47.506  25.980  26.793  1.00  0.00     0.049 A 
ATOM     50  H   UNL A   1      45.775  26.961  27.412  1.00  0.00     0.167 HD
ATOM     51  C   UNL A   1      42.021  28.940  28.496  1.00  0.00     0.037 A 
ATOM     52  C   UNL A   1      48.495  26.895  26.763  1.00  0.00     0.037 A 
ATOM     53  C   UNL A   1      43.032  29.962  28.589  1.00  0.00     0.049 A 
ATOM     54  C   UNL A   1      48.192  28.316  27.154  1.00  0.00     0.074 A 
ATOM     55  C   UNL A   1      42.889  31.278  28.994  1.00  0.00     0.029 A 
ATOM     56  N   UNL A   1      44.371  29.785  28.271  1.00  0.00    -0.354 N 
ATOM     57  N   UNL A   1      47.049  28.843  27.527  1.00  0.00    -0.248 NA
ATOM     58  C   UNL A   1      49.312  29.268  27.126  1.00  0.00     0.031 C 
ATOM     59  C   UNL A   1      44.132  31.908  28.877  1.00  0.00     0.029 A 
ATOM     60  C   UNL A   1      45.060  30.972  28.450  1.00  0.00     0.049 A 
ATOM     61  H   UNL A   1      44.770  28.940  27.963  1.00  0.00     0.167 HD
ATOM     62  C   UNL A   1      47.320  30.178  27.806  1.00  0.00     0.074 A 
ATOM     63  C   UNL A   1      48.735  30.376  27.570  1.00  0.00     0.031 C 
ATOM     64  C   UNL A   1      46.472  31.153  28.222  1.00  0.00     0.037 A 
BRANCH  51  65
ATOM     65  C   UNL A   1      40.598  29.316  28.809  1.00  0.00     0.058 A 
ATOM     66  C   UNL A   1      39.633  29.455  27.798  1.00  0.00     0.135 A 
ATOM     67  C   UNL A   1      40.182  29.495  30.138  1.00  0.00     0.135 A 
ATOM     68  F   UNL A   1      39.978  29.310  26.508  1.00  0.00    -0.206 F 
ATOM     69  C   UNL A   1      38.313  29.784  28.091  1.00  0.00     0.059 A 
ATOM     70  C   UNL A   1      38.861  29.796  30.457  1.00  0.00     0.059 A 
ATOM     71  F   UNL A   1      41.062  29.373  31.144  1.00  0.00    -0.206 F 
ATOM     72  C   UNL A   1      37.936  29.952  29.424  1.00  0.00     0.060 A 
BRANCH  72  73
ATOM     73  S   UNL A   1      36.218  30.368  29.787  1.00  0.00     0.124 S 
ATOM     74  O   UNL A   1      36.294  31.818  29.931  1.00  0.00    -0.237 OA
ATOM     75  O   UNL A   1      35.522  29.884  28.599  1.00  0.00    -0.237 OA
ATOM     76  O   UNL A   1      35.941  29.629  31.016  1.00  0.00    -0.744 OA
ENDBRANCH  72  73
ENDBRANCH  51  65
BRANCH  52  77
ATOM     77  C   UNL A   1      49.872  26.491  26.370  1.00  0.00     0.058 A 
ATOM     78  C   UNL A   1      50.294  26.574  25.035  1.00  0.00     0.135 A 
ATOM     79  C   UNL A   1      50.794  26.018  27.317  1.00  0.00     0.135 A 
ATOM     80  F   UNL A   1      49.447  27.014  24.090  1.00  0.00    -0.206 F 
ATOM     81  C   UNL A   1      51.572  26.184  24.647  1.00  0.00     0.059 A 
ATOM     82  C   UNL A   1      52.086  25.648  26.958  1.00  0.00     0.059 A 
ATOM     83  F   UNL A   1      50.446  25.935  28.610  1.00  0.00    -0.206 F 
ATOM     84  C   UNL A   1      52.462  25.723  25.618  1.00  0.00     0.060 A 
BRANCH  84  85
ATOM     85  S   UNL A   1      54.132  25.258  25.111  1.00  0.00     0.124 S 
ATOM     86  O   UNL A   1      54.285  26.016  23.875  1.00  0.00    -0.237 OA
ATOM     87  O   UNL A   1      54.933  25.713  26.244  1.00  0.00    -0.237 OA
ATOM     88  O   UNL A   1      54.045  23.808  24.958  1.00  0.00    -0.744 OA
ENDBRANCH  84  85
ENDBRANCH  52  77
BRANCH  64  89
ATOM     89  C   UNL A   1      47.055  32.513  28.488  1.00  0.00     0.058 A 
ATOM     90  C   UNL A   1      47.588  32.857  29.740  1.00  0.00     0.135 A 
ATOM     91  C   UNL A   1      47.129  33.466  27.460  1.00  0.00     0.135 A 
ATOM     92  F   UNL A   1      47.537  31.985  30.759  1.00  0.00    -0.206 F 
ATOM     93  C   UNL A   1      48.154  34.107  29.969  1.00  0.00     0.059 A 
ATOM     94  C   UNL A   1      47.716  34.712  27.658  1.00  0.00     0.059 A 
ATOM     95  F   UNL A   1      46.642  33.186  26.241  1.00  0.00    -0.206 F 
ATOM     96  C   UNL A   1      48.216  35.028  28.921  1.00  0.00     0.060 A 
BRANCH  96  97
ATOM     97  S   UNL A   1      48.985  36.633  29.222  1.00  0.00     0.124 S 
ATOM     98  O   UNL A   1      48.530  37.399  28.067  1.00  0.00    -0.237 OA
ATOM     99  O   UNL A   1      48.410  37.020  30.505  1.00  0.00    -0.237 OA
ATOM    100  O   UNL A   1      50.412  36.325  29.249  1.00  0.00    -0.744 OA
ENDBRANCH  96  97
ENDBRANCH  64  89
ENDBRANCH  38  39
ENDBRANCH  30  33
ENDBRANCH  28  29
ENDBRANCH  27  28
ENDBRANCH  26  27
ENDBRANCH   1  26
TORSDOF 19
ENDMDL
MODEL 3
REMARK VINA RESULT:     -11.4      2.151      8.879
REMARK SMILES C[C@H](Oc1ccc(C(=O)NCc2ccccc2)cc1)C(=O)NCCCCNC(=O)c1ccc(-c2c3nc(c(-c4c(F)cc(S(=O)(=O)[O-])cc4F)c4ccc([nH]4)c(-c4c(F)cc(S(=O)(=O)[O-])cc4F)c4nc(c(-c5c(F)cc(S(=O)(=O)[O-])cc5F)c5ccc2[nH]5)C=C4)C=C3)cc1
REMARK SMILES IDX 23 1 22 2 20 3 21 4 2 6 1 7 3 8 4 9 5 10 19 11 6 12 18 13
REMARK SMILES IDX 7 14 8 15 9 16 10 17 11 19 12 20 13 21 17 22 14 23 16 24
REMARK SMILES IDX 15 25 24 26 25 27 26 28 27 29 28 30 29 32 30 33 31 34 95 35
REMARK SMILES IDX 32 36 94 37 33 38 34 39 35 40 88 41 36 42 93 43 87 44 89 45
REMARK SMILES IDX 37 46 92 47 86 48 85 49 38 51 72 52 51 53 71 54 52 55 55 56
REMARK SMILES IDX 70 57 90 58 53 59 54 60 69 62 91 63 56 64 39 65 40 66 49 67
REMARK SMILES IDX 41 68 42 69 48 70 50 71 43 72 44 73 45 74 46 75 47 76 73 77
REMARK SMILES IDX 74 78 83 79 75 80 76 81 82 82 84 83 77 84 78 85 79 86 80 87
REMARK SMILES IDX 81 88 57 89 58 90 67 91 59 92 60 93 66 94 68 95 61 96 62 97
REMARK SMILES IDX 63 98 64 99 65 100
REMARK H PARENT 22 5 10 18 27 31 89 50 55 61
REMARK Flexibility Score: inf
ROOT
ATOM      1  C   UNL A   1      32.074  28.691  26.504  1.00  0.00     0.116 C 
ENDROOT
BRANCH   1   2
ATOM      2  N   UNL A   1      31.381  28.758  25.228  1.00  0.00    -0.353 N 
ATOM      3  C   UNL A   1      31.802  28.347  23.991  1.00  0.00     0.260 C 
ATOM      4  O   UNL A   1      31.035  28.494  23.035  1.00  0.00    -0.271 OA
ATOM      5  H   UNL A   1      30.480  29.155  25.258  1.00  0.00     0.163 HD
BRANCH   3   6
ATOM      6  C   UNL A   1      33.169  27.663  23.819  1.00  0.00     0.258 C 
ATOM      7  C   UNL A   1      34.073  28.611  23.028  1.00  0.00     0.064 C 
BRANCH   6   8
ATOM      8  O   UNL A   1      32.864  26.353  23.333  1.00  0.00    -0.481 OA
BRANCH   8   9
ATOM      9  C   UNL A   1      33.647  25.260  23.493  1.00  0.00     0.120 A 
ATOM     10  C   UNL A   1      33.708  24.145  22.672  1.00  0.00     0.047 A 
ATOM     11  C   UNL A   1      34.457  25.307  24.633  1.00  0.00     0.047 A 
ATOM     12  C   UNL A   1      34.519  23.061  23.031  1.00  0.00     0.017 A 
ATOM     13  C   UNL A   1      35.263  24.225  24.999  1.00  0.00     0.017 A 
ATOM     14  C   UNL A   1      35.312  23.089  24.193  1.00  0.00     0.040 A 
BRANCH  14  15
ATOM     15  C   UNL A   1      36.083  21.856  24.510  1.00  0.00     0.251 C 
ATOM     16  O   UNL A   1      37.314  21.912  24.496  1.00  0.00    -0.269 OA
ATOM     17  N   UNL A   1      35.513  20.656  24.833  1.00  0.00    -0.348 N 
ATOM     18  H   UNL A   1      36.170  19.939  24.981  1.00  0.00     0.164 HD
BRANCH  17  19
ATOM     19  C   UNL A   1      34.141  20.222  25.003  1.00  0.00     0.152 C 
BRANCH  19  20
ATOM     20  C   UNL A   1      33.320  21.197  25.818  1.00  0.00    -0.029 A 
ATOM     21  C   UNL A   1      32.108  21.736  25.352  1.00  0.00     0.005 A 
ATOM     22  C   UNL A   1      33.789  21.610  27.075  1.00  0.00     0.005 A 
ATOM     23  C   UNL A   1      31.377  22.636  26.129  1.00  0.00     0.000 A 
ATOM     24  C   UNL A   1      33.056  22.510  27.852  1.00  0.00     0.000 A 
ATOM     25  C   UNL A   1      31.849  23.020  27.380  1.00  0.00     0.000 A 
ENDBRANCH  19  20
ENDBRANCH  17  19
ENDBRANCH  14  15
ENDBRANCH   8   9
ENDBRANCH   6   8
ENDBRANCH   3   6
ENDBRANCH   1   2
BRANCH   1  26
ATOM     26  C   UNL A   1      33.251  29.659  26.576  1.00  0.00     0.023 C 
BRANCH  26  27
ATOM     27  C   UNL A   1      34.577  29.014  26.974  1.00  0.00     0.023 C 
BRANCH  27  28
ATOM     28  C   UNL A   1      35.580  29.950  27.641  1.00  0.00     0.116 C 
BRANCH  28  29
ATOM     29  N   UNL A   1      35.383  30.065  29.077  1.00  0.00    -0.352 N 
ATOM     30  C   UNL A   1      36.301  29.915  30.094  1.00  0.00     0.251 C 
ATOM     31  H   UNL A   1      34.465  30.280  29.364  1.00  0.00     0.163 HD
ATOM     32  O   UNL A   1      35.932  29.907  31.257  1.00  0.00    -0.269 OA
BRANCH  30  33
ATOM     33  C   UNL A   1      37.732  29.729  29.758  1.00  0.00     0.039 A 
ATOM     34  C   UNL A   1      38.627  29.403  30.780  1.00  0.00     0.014 A 
ATOM     35  C   UNL A   1      38.181  29.848  28.441  1.00  0.00     0.014 A 
ATOM     36  C   UNL A   1      39.960  29.125  30.467  1.00  0.00     0.010 A 
ATOM     37  C   UNL A   1      39.491  29.497  28.122  1.00  0.00     0.010 A 
ATOM     38  C   UNL A   1      40.394  29.129  29.132  1.00  0.00    -0.014 A 
BRANCH  38  39
ATOM     39  C   UNL A   1      41.782  28.739  28.769  1.00  0.00     0.031 A 
ATOM     40  C   UNL A   1      42.876  29.773  28.748  1.00  0.00     0.074 A 
ATOM     41  C   UNL A   1      42.043  27.472  28.393  1.00  0.00     0.049 A 
ATOM     42  N   UNL A   1      44.128  29.642  28.390  1.00  0.00    -0.248 NA
ATOM     43  C   UNL A   1      42.510  31.138  29.158  1.00  0.00     0.031 C 
ATOM     44  C   UNL A   1      41.058  26.389  28.324  1.00  0.00     0.029 A 
ATOM     45  N   UNL A   1      43.213  26.878  27.987  1.00  0.00    -0.354 N 
ATOM     46  C   UNL A   1      44.693  30.905  28.516  1.00  0.00     0.074 A 
ATOM     47  C   UNL A   1      43.636  31.800  28.935  1.00  0.00     0.031 C 
ATOM     48  C   UNL A   1      41.668  25.263  27.922  1.00  0.00     0.029 A 
ATOM     49  C   UNL A   1      43.077  25.547  27.667  1.00  0.00     0.049 A 
ATOM     50  H   UNL A   1      44.069  27.360  27.930  1.00  0.00     0.167 HD
ATOM     51  C   UNL A   1      45.980  31.281  28.323  1.00  0.00     0.037 A 
ATOM     52  C   UNL A   1      43.981  24.658  27.210  1.00  0.00     0.037 A 
ATOM     53  C   UNL A   1      47.034  30.381  27.933  1.00  0.00     0.049 A 
ATOM     54  C   UNL A   1      45.404  25.101  27.003  1.00  0.00     0.074 A 
ATOM     55  C   UNL A   1      48.382  30.653  27.772  1.00  0.00     0.029 A 
ATOM     56  N   UNL A   1      46.860  29.036  27.639  1.00  0.00    -0.354 N 
ATOM     57  N   UNL A   1      45.935  26.286  27.193  1.00  0.00    -0.248 NA
ATOM     58  C   UNL A   1      46.354  24.086  26.524  1.00  0.00     0.031 C 
ATOM     59  C   UNL A   1      49.015  29.484  27.338  1.00  0.00     0.029 A 
ATOM     60  C   UNL A   1      48.071  28.471  27.278  1.00  0.00     0.049 A 
ATOM     61  H   UNL A   1      46.002  28.556  27.681  1.00  0.00     0.167 HD
ATOM     62  C   UNL A   1      47.285  26.151  26.886  1.00  0.00     0.074 A 
ATOM     63  C   UNL A   1      47.492  24.768  26.510  1.00  0.00     0.031 C 
ATOM     64  C   UNL A   1      48.266  27.089  26.915  1.00  0.00     0.037 A 
BRANCH  51  65
ATOM     65  C   UNL A   1      46.325  32.731  28.536  1.00  0.00     0.058 A 
ATOM     66  C   UNL A   1      46.741  33.213  29.788  1.00  0.00     0.135 A 
ATOM     67  C   UNL A   1      46.284  33.639  27.466  1.00  0.00     0.135 A 
ATOM     68  F   UNL A   1      46.785  32.391  30.849  1.00  0.00    -0.206 F 
ATOM     69  C   UNL A   1      47.077  34.549  29.978  1.00  0.00     0.059 A 
ATOM     70  C   UNL A   1      46.644  34.975  27.627  1.00  0.00     0.059 A 
ATOM     71  F   UNL A   1      45.895  33.233  26.248  1.00  0.00    -0.206 F 
ATOM     72  C   UNL A   1      47.026  35.423  28.891  1.00  0.00     0.060 A 
BRANCH  72  73
ATOM     73  S   UNL A   1      47.477  37.151  29.153  1.00  0.00     0.124 S 
ATOM     74  O   UNL A   1      48.933  37.073  29.170  1.00  0.00    -0.237 OA
ATOM     75  O   UNL A   1      46.891  37.807  27.988  1.00  0.00    -0.237 OA
ATOM     76  O   UNL A   1      46.850  37.475  30.431  1.00  0.00    -0.744 OA
ENDBRANCH  72  73
ENDBRANCH  51  65
BRANCH  52  77
ATOM     77  C   UNL A   1      43.574  23.254  26.937  1.00  0.00     0.058 A 
ATOM     78  C   UNL A   1      43.316  22.361  27.987  1.00  0.00     0.135 A 
ATOM     79  C   UNL A   1      43.432  22.776  25.625  1.00  0.00     0.135 A 
ATOM     80  F   UNL A   1      43.445  22.767  29.261  1.00  0.00    -0.206 F 
ATOM     81  C   UNL A   1      42.953  21.039  27.750  1.00  0.00     0.059 A 
ATOM     82  C   UNL A   1      43.043  21.466  25.361  1.00  0.00     0.059 A 
ATOM     83  F   UNL A   1      43.651  23.595  24.584  1.00  0.00    -0.206 F 
ATOM     84  C   UNL A   1      42.817  20.602  26.431  1.00  0.00     0.060 A 
BRANCH  84  85
ATOM     85  S   UNL A   1      42.305  18.896  26.133  1.00  0.00     0.124 S 
ATOM     86  O   UNL A   1      43.228  18.493  25.078  1.00  0.00    -0.237 OA
ATOM     87  O   UNL A   1      42.519  18.279  27.438  1.00  0.00    -0.237 OA
ATOM     88  O   UNL A   1      40.907  19.030  25.733  1.00  0.00    -0.744 OA
ENDBRANCH  84  85
ENDBRANCH  52  77
BRANCH  64  89
ATOM     89  C   UNL A   1      49.660  26.646  26.569  1.00  0.00     0.058 A 
ATOM     90  C   UNL A   1      50.533  26.126  27.538  1.00  0.00     0.135 A 
ATOM     91  C   UNL A   1      50.109  26.694  25.240  1.00  0.00     0.135 A 
ATOM     92  F   UNL A   1      50.156  26.064  28.824  1.00  0.00    -0.206 F 
ATOM     93  C   UNL A   1      51.811  25.689  27.203  1.00  0.00     0.059 A 
ATOM     94  C   UNL A   1      51.373  26.236  24.877  1.00  0.00     0.059 A 
ATOM     95  F   UNL A   1      49.312  27.173  24.273  1.00  0.00    -0.206 F 
ATOM     96  C   UNL A   1      52.221  25.746  25.869  1.00  0.00     0.060 A 
BRANCH  96  97
ATOM     97  S   UNL A   1      53.868  25.143  25.444  1.00  0.00     0.124 S 
ATOM     98  O   UNL A   1      54.397  26.256  24.663  1.00  0.00    -0.237 OA
ATOM     99  O   UNL A   1      54.476  24.942  26.754  1.00  0.00    -0.237 OA
ATOM    100  O   UNL A   1      53.599  23.921  24.691  1.00  0.00    -0.744 OA
ENDBRANCH  96  97
ENDBRANCH  64  89
ENDBRANCH  38  39
ENDBRANCH  30  33
ENDBRANCH  28  29
ENDBRANCH  27  28
ENDBRANCH  26  27
ENDBRANCH   1  26
TORSDOF 19
ENDMDL
