MODEL 1
REMARK VINA RESULT:     -11.8      0.000      0.000
REMARK SMILES Cc1cc(C)nc(SCC(=O)N2CCC[C@H](C(=O)NCCCCNC(=O)c3ccc(-c4c5nc(c(-c6c(F)cc(S(=O)(=O)[O-])cc6F)c6ccc([nH]6)c(-c6c(F)cc(S(=O)(=O)[O-])cc6F)c6nc(c(-c7c(F)cc(S(=O)(=O)[O-])cc7F)c7ccc4[nH]7)C=C6)C=C5)cc3)C2)n1
REMARK SMILES IDX 21 1 20 2 19 3 17 4 18 5 16 7 12 8 13 9 93 10 14 11 15 12
REMARK SMILES IDX 10 13 11 14 9 15 8 16 7 17 1 18 2 19 3 20 94 21 4 22 5 23
REMARK SMILES IDX 6 24 22 25 23 26 24 27 25 28 26 30 27 31 28 32 92 33 29 34
REMARK SMILES IDX 91 35 30 36 31 37 32 38 85 39 33 40 90 41 84 42 86 43 34 44
REMARK SMILES IDX 89 45 83 46 82 47 35 49 69 50 48 51 68 52 49 53 52 54 67 55
REMARK SMILES IDX 87 56 50 57 51 58 66 60 88 61 53 62 36 63 37 64 46 65 38 66
REMARK SMILES IDX 39 67 45 68 47 69 40 70 41 71 42 72 43 73 44 74 70 75 71 76
REMARK SMILES IDX 80 77 72 78 73 79 79 80 81 81 74 82 75 83 76 84 77 85 78 86
REMARK SMILES IDX 54 87 55 88 64 89 56 90 57 91 63 92 65 93 58 94 59 95 60 96
REMARK SMILES IDX 61 97 62 98
REMARK H PARENT 19 6 24 29 86 48 52 59
REMARK Flexibility Score: inf
ROOT
ATOM      1  C   UNL A   1      41.090  21.235  26.472  1.00  0.00     0.023 C 
ENDROOT
BRANCH   1   2
ATOM      2  C   UNL A   1      39.617  21.134  26.089  1.00  0.00     0.116 C 
BRANCH   2   3
ATOM      3  N   UNL A   1      38.924  22.400  26.147  1.00  0.00    -0.356 N 
ATOM      4  C   UNL A   1      37.781  22.817  25.549  1.00  0.00     0.224 C 
ATOM      5  O   UNL A   1      37.354  23.925  25.900  1.00  0.00    -0.275 OA
ATOM      6  H   UNL A   1      39.356  23.075  26.718  1.00  0.00     0.163 HD
BRANCH   4   7
ATOM      7  C   UNL A   1      37.006  22.020  24.489  1.00  0.00     0.098 C 
ATOM      8  N   UNL A   1      34.887  23.132  23.727  1.00  0.00    -0.341 N 
ATOM      9  C   UNL A   1      34.103  21.928  24.019  1.00  0.00     0.119 C 
ATOM     10  C   UNL A   1      36.297  22.889  23.445  1.00  0.00     0.133 C 
ATOM     11  C   UNL A   1      34.691  21.062  25.130  1.00  0.00     0.022 C 
ATOM     12  C   UNL A   1      36.192  20.833  25.004  1.00  0.00     0.017 C 
BRANCH   8  13
ATOM     13  C   UNL A   1      34.290  24.375  23.899  1.00  0.00     0.233 C 
ATOM     14  O   UNL A   1      34.742  25.129  24.779  1.00  0.00    -0.274 OA
BRANCH  13  15
ATOM     15  C   UNL A   1      32.970  24.797  23.256  1.00  0.00     0.178 C 
BRANCH  15  16
ATOM     16  S   UNL A   1      32.884  25.978  21.910  1.00  0.00    -0.076 SA
BRANCH  16  17
ATOM     17  C   UNL A   1      32.013  27.326  22.676  1.00  0.00     0.188 A 
ATOM     18  C   UNL A   1      28.912  29.232  22.280  1.00  0.00     0.067 C 
ATOM     19  C   UNL A   1      30.225  28.751  22.822  1.00  0.00     0.042 A 
ATOM     20  C   UNL A   1      30.787  29.384  23.914  1.00  0.00     0.047 A 
ATOM     21  N   UNL A   1      30.817  27.707  22.202  1.00  0.00    -0.228 NA
ATOM     22  C   UNL A   1      32.007  28.905  24.344  1.00  0.00     0.042 A 
ATOM     23  C   UNL A   1      32.696  29.537  25.516  1.00  0.00     0.067 C 
ATOM     24  N   UNL A   1      32.632  27.881  23.732  1.00  0.00    -0.228 NA
ENDBRANCH  16  17
ENDBRANCH  15  16
ENDBRANCH  13  15
ENDBRANCH   8  13
ENDBRANCH   4   7
ENDBRANCH   2   3
ENDBRANCH   1   2
BRANCH   1  25
ATOM     25  C   UNL A   1      41.374  22.163  27.648  1.00  0.00     0.023 C 
BRANCH  25  26
ATOM     26  C   UNL A   1      42.325  23.318  27.352  1.00  0.00     0.116 C 
BRANCH  26  27
ATOM     27  N   UNL A   1      42.006  24.076  26.152  1.00  0.00    -0.352 N 
ATOM     28  C   UNL A   1      41.577  25.386  26.069  1.00  0.00     0.251 C 
ATOM     29  H   UNL A   1      42.108  23.600  25.297  1.00  0.00     0.163 HD
ATOM     30  O   UNL A   1      41.257  25.880  25.000  1.00  0.00    -0.269 OA
BRANCH  28  31
ATOM     31  C   UNL A   1      41.472  26.172  27.320  1.00  0.00     0.039 A 
ATOM     32  C   UNL A   1      42.444  27.132  27.605  1.00  0.00     0.014 A 
ATOM     33  C   UNL A   1      40.370  26.006  28.163  1.00  0.00     0.014 A 
ATOM     34  C   UNL A   1      42.268  27.982  28.699  1.00  0.00     0.010 A 
ATOM     35  C   UNL A   1      40.154  26.911  29.195  1.00  0.00     0.010 A 
ATOM     36  C   UNL A   1      41.103  27.904  29.479  1.00  0.00    -0.014 A 
BRANCH  36  37
ATOM     37  C   UNL A   1      40.865  28.839  30.609  1.00  0.00     0.031 A 
ATOM     38  C   UNL A   1      41.684  28.716  31.867  1.00  0.00     0.074 A 
ATOM     39  C   UNL A   1      39.870  29.743  30.538  1.00  0.00     0.049 A 
ATOM     40  N   UNL A   1      41.590  29.390  32.984  1.00  0.00    -0.248 NA
ATOM     41  C   UNL A   1      42.718  27.669  31.882  1.00  0.00     0.031 C 
ATOM     42  C   UNL A   1      38.954  29.909  29.407  1.00  0.00     0.029 A 
ATOM     43  N   UNL A   1      39.455  30.690  31.440  1.00  0.00    -0.354 N 
ATOM     44  C   UNL A   1      42.532  28.833  33.839  1.00  0.00     0.074 A 
ATOM     45  C   UNL A   1      43.139  27.724  33.135  1.00  0.00     0.031 C 
ATOM     46  C   UNL A   1      38.103  30.915  29.673  1.00  0.00     0.029 A 
ATOM     47  C   UNL A   1      38.398  31.450  30.999  1.00  0.00     0.049 A 
ATOM     48  H   UNL A   1      39.875  30.814  32.322  1.00  0.00     0.167 HD
ATOM     49  C   UNL A   1      42.886  29.226  35.086  1.00  0.00     0.037 A 
ATOM     50  C   UNL A   1      37.747  32.470  31.591  1.00  0.00     0.037 A 
ATOM     51  C   UNL A   1      42.309  30.355  35.767  1.00  0.00     0.049 A 
ATOM     52  C   UNL A   1      38.202  32.940  32.945  1.00  0.00     0.074 A 
ATOM     53  C   UNL A   1      42.633  30.874  37.007  1.00  0.00     0.029 A 
ATOM     54  N   UNL A   1      41.291  31.147  35.254  1.00  0.00    -0.354 N 
ATOM     55  N   UNL A   1      39.138  32.442  33.718  1.00  0.00    -0.248 NA
ATOM     56  C   UNL A   1      37.528  34.122  33.500  1.00  0.00     0.031 C 
ATOM     57  C   UNL A   1      41.795  31.969  37.254  1.00  0.00     0.029 A 
ATOM     58  C   UNL A   1      40.975  32.152  36.152  1.00  0.00     0.049 A 
ATOM     59  H   UNL A   1      40.859  31.014  34.380  1.00  0.00     0.167 HD
ATOM     60  C   UNL A   1      39.187  33.266  34.837  1.00  0.00     0.074 A 
ATOM     61  C   UNL A   1      38.189  34.299  34.636  1.00  0.00     0.031 C 
ATOM     62  C   UNL A   1      39.985  33.177  35.930  1.00  0.00     0.037 A 
BRANCH  49  63
ATOM     63  C   UNL A   1      43.955  28.424  35.777  1.00  0.00     0.058 A 
ATOM     64  C   UNL A   1      43.635  27.352  36.627  1.00  0.00     0.135 A 
ATOM     65  C   UNL A   1      45.311  28.745  35.613  1.00  0.00     0.135 A 
ATOM     66  F   UNL A   1      42.352  27.012  36.833  1.00  0.00    -0.206 F 
ATOM     67  C   UNL A   1      44.616  26.666  37.336  1.00  0.00     0.059 A 
ATOM     68  C   UNL A   1      46.312  28.052  36.288  1.00  0.00     0.059 A 
ATOM     69  F   UNL A   1      45.674  29.758  34.810  1.00  0.00    -0.206 F 
ATOM     70  C   UNL A   1      45.952  27.031  37.167  1.00  0.00     0.060 A 
BRANCH  70  71
ATOM     71  S   UNL A   1      47.214  26.163  38.122  1.00  0.00     0.124 S 
ATOM     72  O   UNL A   1      47.175  26.896  39.384  1.00  0.00    -0.237 OA
ATOM     73  O   UNL A   1      46.696  24.800  38.165  1.00  0.00    -0.237 OA
ATOM     74  O   UNL A   1      48.423  26.346  37.327  1.00  0.00    -0.744 OA
ENDBRANCH  70  71
ENDBRANCH  49  63
BRANCH  50  75
ATOM     75  C   UNL A   1      36.639  33.151  30.872  1.00  0.00     0.058 A 
ATOM     76  C   UNL A   1      35.301  32.881  31.195  1.00  0.00     0.135 A 
ATOM     77  C   UNL A   1      36.893  34.115  29.885  1.00  0.00     0.135 A 
ATOM     78  F   UNL A   1      35.009  31.963  32.129  1.00  0.00    -0.206 F 
ATOM     79  C   UNL A   1      34.251  33.539  30.563  1.00  0.00     0.059 A 
ATOM     80  C   UNL A   1      35.860  34.801  29.252  1.00  0.00     0.059 A 
ATOM     81  F   UNL A   1      38.157  34.421  29.553  1.00  0.00    -0.206 F 
ATOM     82  C   UNL A   1      34.542  34.503  29.596  1.00  0.00     0.060 A 
BRANCH  82  83
ATOM     83  S   UNL A   1      33.175  35.411  28.840  1.00  0.00     0.124 S 
ATOM     84  O   UNL A   1      33.887  36.369  28.003  1.00  0.00    -0.237 OA
ATOM     85  O   UNL A   1      32.457  34.354  28.133  1.00  0.00    -0.237 OA
ATOM     86  O   UNL A   1      32.472  35.974  29.989  1.00  0.00    -0.744 OA
ENDBRANCH  82  83
ENDBRANCH  50  75
BRANCH  62  87
ATOM     87  C   UNL A   1      39.842  34.248  36.975  1.00  0.00     0.058 A 
ATOM     88  C   UNL A   1      40.500  35.482  36.863  1.00  0.00     0.135 A 
ATOM     89  C   UNL A   1      39.005  34.045  38.084  1.00  0.00     0.135 A 
ATOM     90  F   UNL A   1      41.315  35.722  35.824  1.00  0.00    -0.206 F 
ATOM     91  C   UNL A   1      40.355  36.470  37.832  1.00  0.00     0.059 A 
ATOM     92  C   UNL A   1      38.826  35.029  39.051  1.00  0.00     0.059 A 
ATOM     93  F   UNL A   1      38.343  32.887  38.230  1.00  0.00    -0.206 F 
ATOM     94  C   UNL A   1      39.518  36.233  38.923  1.00  0.00     0.060 A 
BRANCH  94  95
ATOM     95  S   UNL A   1      39.323  37.528  40.166  1.00  0.00     0.124 S 
ATOM     96  O   UNL A   1      38.983  36.747  41.351  1.00  0.00    -0.237 OA
ATOM     97  O   UNL A   1      40.641  38.156  40.176  1.00  0.00    -0.237 OA
ATOM     98  O   UNL A   1      38.246  38.354  39.628  1.00  0.00    -0.744 OA
ENDBRANCH  94  95
ENDBRANCH  62  87
ENDBRANCH  36  37
ENDBRANCH  28  31
ENDBRANCH  26  27
ENDBRANCH  25  26
ENDBRANCH   1  25
TORSDOF 18
ENDMDL
MODEL 2
REMARK VINA RESULT:     -11.6      6.327     12.269
REMARK SMILES Cc1cc(C)nc(SCC(=O)N2CCC[C@H](C(=O)NCCCCNC(=O)c3ccc(-c4c5nc(c(-c6c(F)cc(S(=O)(=O)[O-])cc6F)c6ccc([nH]6)c(-c6c(F)cc(S(=O)(=O)[O-])cc6F)c6nc(c(-c7c(F)cc(S(=O)(=O)[O-])cc7F)c7ccc4[nH]7)C=C6)C=C5)cc3)C2)n1
REMARK SMILES IDX 21 1 20 2 19 3 17 4 18 5 16 7 12 8 13 9 93 10 14 11 15 12
REMARK SMILES IDX 10 13 11 14 9 15 8 16 7 17 1 18 2 19 3 20 94 21 4 22 5 23
REMARK SMILES IDX 6 24 22 25 23 26 24 27 25 28 26 30 27 31 28 32 92 33 29 34
REMARK SMILES IDX 91 35 30 36 31 37 32 38 85 39 33 40 90 41 84 42 86 43 34 44
REMARK SMILES IDX 89 45 83 46 82 47 35 49 69 50 48 51 68 52 49 53 52 54 67 55
REMARK SMILES IDX 87 56 50 57 51 58 66 60 88 61 53 62 36 63 37 64 46 65 38 66
REMARK SMILES IDX 39 67 45 68 47 69 40 70 41 71 42 72 43 73 44 74 70 75 71 76
REMARK SMILES IDX 80 77 72 78 73 79 79 80 81 81 74 82 75 83 76 84 77 85 78 86
REMARK SMILES IDX 54 87 55 88 64 89 56 90 57 91 63 92 65 93 58 94 59 95 60 96
REMARK SMILES IDX 61 97 62 98
REMARK H PARENT 19 6 24 29 86 48 52 59
REMARK Flexibility Score: inf
ROOT
ATOM      1  C   UNL A   1      34.903  30.528  27.669  1.00  0.00     0.023 C 
ENDROOT
BRANCH   1   2
ATOM      2  C   UNL A   1      33.661  30.279  26.820  1.00  0.00     0.116 C 
BRANCH   2   3
ATOM      3  N   UNL A   1      33.909  29.425  25.682  1.00  0.00    -0.356 N 
ATOM      4  C   UNL A   1      33.054  28.784  24.846  1.00  0.00     0.224 C 
ATOM      5  O   UNL A   1      33.564  28.226  23.866  1.00  0.00    -0.275 OA
ATOM      6  H   UNL A   1      34.861  29.282  25.479  1.00  0.00     0.163 HD
BRANCH   4   7
ATOM      7  C   UNL A   1      31.532  28.709  25.040  1.00  0.00     0.098 C 
ATOM      8  N   UNL A   1      30.598  26.385  24.872  1.00  0.00    -0.341 N 
ATOM      9  C   UNL A   1      29.622  26.807  23.862  1.00  0.00     0.119 C 
ATOM     10  C   UNL A   1      31.052  27.446  25.762  1.00  0.00     0.133 C 
ATOM     11  C   UNL A   1      30.077  27.998  23.023  1.00  0.00     0.022 C 
ATOM     12  C   UNL A   1      30.682  29.133  23.842  1.00  0.00     0.017 C 
BRANCH   8  13
ATOM     13  C   UNL A   1      31.118  25.098  24.800  1.00  0.00     0.233 C 
ATOM     14  O   UNL A   1      30.635  24.225  25.542  1.00  0.00    -0.274 OA
BRANCH  13  15
ATOM     15  C   UNL A   1      32.397  24.723  24.054  1.00  0.00     0.178 C 
BRANCH  15  16
ATOM     16  S   UNL A   1      32.466  23.381  22.866  1.00  0.00    -0.076 SA
BRANCH  16  17
ATOM     17  C   UNL A   1      32.779  21.987  23.925  1.00  0.00     0.188 A 
ATOM     18  C   UNL A   1      32.509  18.335  23.885  1.00  0.00     0.067 C 
ATOM     19  C   UNL A   1      32.799  19.734  24.343  1.00  0.00     0.042 A 
ATOM     20  C   UNL A   1      33.285  19.950  25.617  1.00  0.00     0.047 A 
ATOM     21  N   UNL A   1      32.558  20.742  23.476  1.00  0.00    -0.228 NA
ATOM     22  C   UNL A   1      33.506  21.263  25.979  1.00  0.00     0.042 A 
ATOM     23  C   UNL A   1      34.023  21.592  27.347  1.00  0.00     0.067 C 
ATOM     24  N   UNL A   1      33.253  22.289  25.145  1.00  0.00    -0.228 NA
ENDBRANCH  16  17
ENDBRANCH  15  16
ENDBRANCH  13  15
ENDBRANCH   8  13
ENDBRANCH   4   7
ENDBRANCH   2   3
ENDBRANCH   1   2
BRANCH   1  25
ATOM     25  C   UNL A   1      35.118  31.986  28.062  1.00  0.00     0.023 C 
BRANCH  25  26
ATOM     26  C   UNL A   1      36.076  32.213  29.227  1.00  0.00     0.116 C 
BRANCH  26  27
ATOM     27  N   UNL A   1      35.794  31.414  30.410  1.00  0.00    -0.352 N 
ATOM     28  C   UNL A   1      36.613  30.481  31.014  1.00  0.00     0.251 C 
ATOM     29  H   UNL A   1      34.915  31.555  30.830  1.00  0.00     0.163 HD
ATOM     30  O   UNL A   1      36.221  29.811  31.956  1.00  0.00    -0.269 OA
BRANCH  28  31
ATOM     31  C   UNL A   1      37.973  30.278  30.464  1.00  0.00     0.039 A 
ATOM     32  C   UNL A   1      39.063  30.251  31.335  1.00  0.00     0.014 A 
ATOM     33  C   UNL A   1      38.149  30.038  29.099  1.00  0.00     0.014 A 
ATOM     34  C   UNL A   1      40.324  29.905  30.845  1.00  0.00     0.010 A 
ATOM     35  C   UNL A   1      39.385  29.607  28.632  1.00  0.00     0.010 A 
ATOM     36  C   UNL A   1      40.488  29.542  29.498  1.00  0.00    -0.014 A 
BRANCH  36  37
ATOM     37  C   UNL A   1      41.807  29.111  28.968  1.00  0.00     0.031 A 
ATOM     38  C   UNL A   1      42.926  30.110  28.843  1.00  0.00     0.074 A 
ATOM     39  C   UNL A   1      41.978  27.848  28.531  1.00  0.00     0.049 A 
ATOM     40  N   UNL A   1      44.127  29.950  28.349  1.00  0.00    -0.248 NA
ATOM     41  C   UNL A   1      42.642  31.481  29.296  1.00  0.00     0.031 C 
ATOM     42  C   UNL A   1      40.948  26.806  28.525  1.00  0.00     0.029 A 
ATOM     43  N   UNL A   1      43.079  27.227  27.999  1.00  0.00    -0.354 N 
ATOM     44  C   UNL A   1      44.728  31.200  28.410  1.00  0.00     0.074 A 
ATOM     45  C   UNL A   1      43.739  32.121  28.925  1.00  0.00     0.031 C 
ATOM     46  C   UNL A   1      41.475  25.670  28.039  1.00  0.00     0.029 A 
ATOM     47  C   UNL A   1      42.870  25.907  27.680  1.00  0.00     0.049 A 
ATOM     48  H   UNL A   1      43.940  27.684  27.860  1.00  0.00     0.167 HD
ATOM     49  C   UNL A   1      46.000  31.548  28.096  1.00  0.00     0.037 A 
ATOM     50  C   UNL A   1      43.711  24.988  27.166  1.00  0.00     0.037 A 
ATOM     51  C   UNL A   1      46.993  30.621  27.623  1.00  0.00     0.049 A 
ATOM     52  C   UNL A   1      45.138  25.374  26.893  1.00  0.00     0.074 A 
ATOM     53  C   UNL A   1      48.324  30.856  27.330  1.00  0.00     0.029 A 
ATOM     54  N   UNL A   1      46.761  29.274  27.384  1.00  0.00    -0.354 N 
ATOM     55  N   UNL A   1      45.711  26.547  27.014  1.00  0.00    -0.248 NA
ATOM     56  C   UNL A   1      46.038  24.307  26.433  1.00  0.00     0.031 C 
ATOM     57  C   UNL A   1      48.893  29.653  26.892  1.00  0.00     0.029 A 
ATOM     58  C   UNL A   1      47.925  28.663  26.947  1.00  0.00     0.049 A 
ATOM     59  H   UNL A   1      45.898  28.819  27.507  1.00  0.00     0.167 HD
ATOM     60  C   UNL A   1      47.046  26.357  26.675  1.00  0.00     0.074 A 
ATOM     61  C   UNL A   1      47.195  24.952  26.350  1.00  0.00     0.031 C 
ATOM     62  C   UNL A   1      48.056  27.261  26.638  1.00  0.00     0.037 A 
BRANCH  49  63
ATOM     63  C   UNL A   1      46.374  32.995  28.270  1.00  0.00     0.058 A 
ATOM     64  C   UNL A   1      46.863  33.485  29.493  1.00  0.00     0.135 A 
ATOM     65  C   UNL A   1      46.215  33.908  27.217  1.00  0.00     0.135 A 
ATOM     66  F   UNL A   1      47.018  32.659  30.540  1.00  0.00    -0.206 F 
ATOM     67  C   UNL A   1      47.125  34.838  29.682  1.00  0.00     0.059 A 
ATOM     68  C   UNL A   1      46.501  35.261  27.374  1.00  0.00     0.059 A 
ATOM     69  F   UNL A   1      45.755  33.494  26.025  1.00  0.00    -0.206 F 
ATOM     70  C   UNL A   1      46.931  35.720  28.619  1.00  0.00     0.060 A 
BRANCH  70  71
ATOM     71  S   UNL A   1      47.234  37.479  28.887  1.00  0.00     0.124 S 
ATOM     72  O   UNL A   1      46.201  38.080  28.048  1.00  0.00    -0.237 OA
ATOM     73  O   UNL A   1      47.040  37.618  30.326  1.00  0.00    -0.237 OA
ATOM     74  O   UNL A   1      48.605  37.660  28.423  1.00  0.00    -0.744 OA
ENDBRANCH  70  71
ENDBRANCH  49  63
BRANCH  50  75
ATOM     75  C   UNL A   1      43.231  23.599  26.940  1.00  0.00     0.058 A 
ATOM     76  C   UNL A   1      42.984  23.127  25.643  1.00  0.00     0.135 A 
ATOM     77  C   UNL A   1      43.057  22.704  28.007  1.00  0.00     0.135 A 
ATOM     78  F   UNL A   1      43.132  23.948  24.591  1.00  0.00    -0.206 F 
ATOM     79  C   UNL A   1      42.576  21.818  25.408  1.00  0.00     0.059 A 
ATOM     80  C   UNL A   1      42.669  21.384  27.796  1.00  0.00     0.059 A 
ATOM     81  F   UNL A   1      43.298  23.103  29.265  1.00  0.00    -0.206 F 
ATOM     82  C   UNL A   1      42.427  20.952  26.493  1.00  0.00     0.060 A 
BRANCH  82  83
ATOM     83  S   UNL A   1      41.978  19.231  26.171  1.00  0.00     0.124 S 
ATOM     84  O   UNL A   1      42.792  18.929  25.000  1.00  0.00    -0.237 OA
ATOM     85  O   UNL A   1      42.373  18.573  27.413  1.00  0.00    -0.237 OA
ATOM     86  O   UNL A   1      40.537  19.301  25.940  1.00  0.00    -0.744 OA
ENDBRANCH  82  83
ENDBRANCH  50  75
BRANCH  62  87
ATOM     87  C   UNL A   1      49.422  26.752  26.271  1.00  0.00     0.058 A 
ATOM     88  C   UNL A   1      50.281  26.187  27.225  1.00  0.00     0.135 A 
ATOM     89  C   UNL A   1      49.859  26.798  24.937  1.00  0.00     0.135 A 
ATOM     90  F   UNL A   1      49.911  26.123  28.514  1.00  0.00    -0.206 F 
ATOM     91  C   UNL A   1      51.540  25.711  26.875  1.00  0.00     0.059 A 
ATOM     92  C   UNL A   1      51.104  26.306  24.561  1.00  0.00     0.059 A 
ATOM     93  F   UNL A   1      49.070  27.318  23.984  1.00  0.00    -0.206 F 
ATOM     94  C   UNL A   1      51.944  25.777  25.540  1.00  0.00     0.060 A 
BRANCH  94  95
ATOM     95  S   UNL A   1      53.572  25.141  25.092  1.00  0.00     0.124 S 
ATOM     96  O   UNL A   1      53.717  25.641  23.729  1.00  0.00    -0.237 OA
ATOM     97  O   UNL A   1      54.439  25.761  26.091  1.00  0.00    -0.237 OA
ATOM     98  O   UNL A   1      53.417  23.695  25.218  1.00  0.00    -0.744 OA
ENDBRANCH  94  95
ENDBRANCH  62  87
ENDBRANCH  36  37
ENDBRANCH  28  31
ENDBRANCH  26  27
ENDBRANCH  25  26
ENDBRANCH   1  25
TORSDOF 18
ENDMDL
MODEL 3
REMARK VINA RESULT:     -11.3      0.784      8.165
REMARK SMILES Cc1cc(C)nc(SCC(=O)N2CCC[C@H](C(=O)NCCCCNC(=O)c3ccc(-c4c5nc(c(-c6c(F)cc(S(=O)(=O)[O-])cc6F)c6ccc([nH]6)c(-c6c(F)cc(S(=O)(=O)[O-])cc6F)c6nc(c(-c7c(F)cc(S(=O)(=O)[O-])cc7F)c7ccc4[nH]7)C=C6)C=C5)cc3)C2)n1
REMARK SMILES IDX 21 1 20 2 19 3 17 4 18 5 16 7 12 8 13 9 93 10 14 11 15 12
REMARK SMILES IDX 10 13 11 14 9 15 8 16 7 17 1 18 2 19 3 20 94 21 4 22 5 23
REMARK SMILES IDX 6 24 22 25 23 26 24 27 25 28 26 30 27 31 28 32 92 33 29 34
REMARK SMILES IDX 91 35 30 36 31 37 32 38 85 39 33 40 90 41 84 42 86 43 34 44
REMARK SMILES IDX 89 45 83 46 82 47 35 49 69 50 48 51 68 52 49 53 52 54 67 55
REMARK SMILES IDX 87 56 50 57 51 58 66 60 88 61 53 62 36 63 37 64 46 65 38 66
REMARK SMILES IDX 39 67 45 68 47 69 40 70 41 71 42 72 43 73 44 74 70 75 71 76
REMARK SMILES IDX 80 77 72 78 73 79 79 80 81 81 74 82 75 83 76 84 77 85 78 86
REMARK SMILES IDX 54 87 55 88 64 89 56 90 57 91 63 92 65 93 58 94 59 95 60 96
REMARK SMILES IDX 61 97 62 98
REMARK H PARENT 19 6 24 29 86 48 52 59
REMARK Flexibility Score: inf
ROOT
ATOM      1  C   UNL A   1      40.722  21.109  26.817  1.00  0.00     0.023 C 
ENDROOT
BRANCH   1   2
ATOM      2  C   UNL A   1      39.365  21.103  26.119  1.00  0.00     0.116 C 
BRANCH   2   3
ATOM      3  N   UNL A   1      38.664  22.361  26.223  1.00  0.00    -0.356 N 
ATOM      4  C   UNL A   1      37.542  22.809  25.606  1.00  0.00     0.224 C 
ATOM      5  O   UNL A   1      37.097  23.893  26.002  1.00  0.00    -0.275 OA
ATOM      6  H   UNL A   1      39.070  23.004  26.848  1.00  0.00     0.163 HD
BRANCH   4   7
ATOM      7  C   UNL A   1      36.813  22.072  24.473  1.00  0.00     0.098 C 
ATOM      8  N   UNL A   1      34.879  23.350  23.507  1.00  0.00    -0.341 N 
ATOM      9  C   UNL A   1      33.973  22.217  23.717  1.00  0.00     0.119 C 
ATOM     10  C   UNL A   1      36.285  22.990  23.365  1.00  0.00     0.133 C 
ATOM     11  C   UNL A   1      34.374  21.312  24.879  1.00  0.00     0.022 C 
ATOM     12  C   UNL A   1      35.857  20.959  24.902  1.00  0.00     0.017 C 
BRANCH   8  13
ATOM     13  C   UNL A   1      34.373  24.639  23.621  1.00  0.00     0.233 C 
ATOM     14  O   UNL A   1      34.445  25.204  24.726  1.00  0.00    -0.274 OA
BRANCH  13  15
ATOM     15  C   UNL A   1      33.518  25.330  22.559  1.00  0.00     0.178 C 
BRANCH  15  16
ATOM     16  S   UNL A   1      31.727  25.247  22.555  1.00  0.00    -0.076 SA
BRANCH  16  17
ATOM     17  C   UNL A   1      31.295  26.887  23.089  1.00  0.00     0.188 A 
ATOM     18  C   UNL A   1      29.697  29.915  21.791  1.00  0.00     0.067 C 
ATOM     19  C   UNL A   1      30.372  28.952  22.722  1.00  0.00     0.042 A 
ATOM     20  C   UNL A   1      30.695  29.351  24.004  1.00  0.00     0.047 A 
ATOM     21  N   UNL A   1      30.649  27.715  22.254  1.00  0.00    -0.228 NA
ATOM     22  C   UNL A   1      31.335  28.421  24.797  1.00  0.00     0.042 A 
ATOM     23  C   UNL A   1      31.732  28.771  26.200  1.00  0.00     0.067 C 
ATOM     24  N   UNL A   1      31.645  27.189  24.350  1.00  0.00    -0.228 NA
ENDBRANCH  16  17
ENDBRANCH  15  16
ENDBRANCH  13  15
ENDBRANCH   8  13
ENDBRANCH   4   7
ENDBRANCH   2   3
ENDBRANCH   1   2
BRANCH   1  25
ATOM     25  C   UNL A   1      40.964  22.319  27.714  1.00  0.00     0.023 C 
BRANCH  25  26
ATOM     26  C   UNL A   1      42.116  23.224  27.288  1.00  0.00     0.116 C 
BRANCH  26  27
ATOM     27  N   UNL A   1      41.835  24.065  26.134  1.00  0.00    -0.352 N 
ATOM     28  C   UNL A   1      41.493  25.402  26.126  1.00  0.00     0.251 C 
ATOM     29  H   UNL A   1      41.895  23.628  25.254  1.00  0.00     0.163 HD
ATOM     30  O   UNL A   1      41.195  25.972  25.088  1.00  0.00    -0.269 OA
BRANCH  28  31
ATOM     31  C   UNL A   1      41.455  26.126  27.417  1.00  0.00     0.039 A 
ATOM     32  C   UNL A   1      42.478  27.024  27.726  1.00  0.00     0.014 A 
ATOM     33  C   UNL A   1      40.365  25.968  28.278  1.00  0.00     0.014 A 
ATOM     34  C   UNL A   1      42.368  27.823  28.865  1.00  0.00     0.010 A 
ATOM     35  C   UNL A   1      40.217  26.827  29.360  1.00  0.00     0.010 A 
ATOM     36  C   UNL A   1      41.218  27.759  29.670  1.00  0.00    -0.014 A 
BRANCH  36  37
ATOM     37  C   UNL A   1      41.052  28.644  30.852  1.00  0.00     0.031 A 
ATOM     38  C   UNL A   1      39.967  29.687  30.859  1.00  0.00     0.074 A 
ATOM     39  C   UNL A   1      41.917  28.562  31.882  1.00  0.00     0.049 A 
ATOM     40  N   UNL A   1      39.698  30.594  31.762  1.00  0.00    -0.248 NA
ATOM     41  C   UNL A   1      39.097  29.744  29.674  1.00  0.00     0.031 C 
ATOM     42  C   UNL A   1      43.059  27.648  31.960  1.00  0.00     0.029 A 
ATOM     43  N   UNL A   1      41.977  29.267  33.057  1.00  0.00    -0.354 N 
ATOM     44  C   UNL A   1      38.647  31.341  31.244  1.00  0.00     0.074 A 
ATOM     45  C   UNL A   1      38.374  30.824  29.921  1.00  0.00     0.031 C 
ATOM     46  C   UNL A   1      43.688  27.829  33.134  1.00  0.00     0.029 A 
ATOM     47  C   UNL A   1      43.010  28.886  33.880  1.00  0.00     0.049 A 
ATOM     48  H   UNL A   1      41.338  29.979  33.291  1.00  0.00     0.167 HD
ATOM     49  C   UNL A   1      37.949  32.345  31.827  1.00  0.00     0.037 A 
ATOM     50  C   UNL A   1      43.365  29.329  35.101  1.00  0.00     0.037 A 
ATOM     51  C   UNL A   1      38.198  32.829  33.159  1.00  0.00     0.049 A 
ATOM     52  C   UNL A   1      42.534  30.394  35.762  1.00  0.00     0.074 A 
ATOM     53  C   UNL A   1      37.515  33.802  33.866  1.00  0.00     0.029 A 
ATOM     54  N   UNL A   1      39.208  32.364  33.989  1.00  0.00    -0.354 N 
ATOM     55  N   UNL A   1      41.503  31.049  35.284  1.00  0.00    -0.248 NA
ATOM     56  C   UNL A   1      42.901  30.766  37.135  1.00  0.00     0.031 C 
ATOM     57  C   UNL A   1      38.127  33.941  35.119  1.00  0.00     0.029 A 
ATOM     58  C   UNL A   1      39.167  33.029  35.203  1.00  0.00     0.049 A 
ATOM     59  H   UNL A   1      39.857  31.664  33.751  1.00  0.00     0.167 HD
ATOM     60  C   UNL A   1      41.078  31.890  36.307  1.00  0.00     0.074 A 
ATOM     61  C   UNL A   1      41.961  31.654  37.432  1.00  0.00     0.031 C 
ATOM     62  C   UNL A   1      40.050  32.774  36.315  1.00  0.00     0.037 A 
BRANCH  49  63
ATOM     63  C   UNL A   1      36.847  32.971  31.015  1.00  0.00     0.058 A 
ATOM     64  C   UNL A   1      35.498  32.651  31.240  1.00  0.00     0.135 A 
ATOM     65  C   UNL A   1      37.142  33.874  29.984  1.00  0.00     0.135 A 
ATOM     66  F   UNL A   1      35.161  31.778  32.204  1.00  0.00    -0.206 F 
ATOM     67  C   UNL A   1      34.485  33.159  30.434  1.00  0.00     0.059 A 
ATOM     68  C   UNL A   1      36.141  34.420  29.184  1.00  0.00     0.059 A 
ATOM     69  F   UNL A   1      38.414  34.218  29.727  1.00  0.00    -0.206 F 
ATOM     70  C   UNL A   1      34.818  34.036  29.401  1.00  0.00     0.060 A 
BRANCH  70  71
ATOM     71  S   UNL A   1      33.502  34.657  28.334  1.00  0.00     0.124 S 
ATOM     72  O   UNL A   1      32.603  35.266  29.310  1.00  0.00    -0.237 OA
ATOM     73  O   UNL A   1      34.213  35.587  27.463  1.00  0.00    -0.237 OA
ATOM     74  O   UNL A   1      32.999  33.453  27.682  1.00  0.00    -0.744 OA
ENDBRANCH  70  71
ENDBRANCH  49  63
BRANCH  50  75
ATOM     75  C   UNL A   1      44.527  28.716  35.796  1.00  0.00     0.058 A 
ATOM     76  C   UNL A   1      45.817  29.243  35.640  1.00  0.00     0.135 A 
ATOM     77  C   UNL A   1      44.365  27.626  36.665  1.00  0.00     0.135 A 
ATOM     78  F   UNL A   1      46.021  30.282  34.816  1.00  0.00    -0.206 F 
ATOM     79  C   UNL A   1      46.909  28.709  36.315  1.00  0.00     0.059 A 
ATOM     80  C   UNL A   1      45.440  27.088  37.367  1.00  0.00     0.059 A 
ATOM     81  F   UNL A   1      43.147  27.098  36.862  1.00  0.00    -0.206 F 
ATOM     82  C   UNL A   1      46.709  27.634  37.183  1.00  0.00     0.060 A 
BRANCH  82  83
ATOM     83  S   UNL A   1      48.119  27.002  38.119  1.00  0.00     0.124 S 
ATOM     84  O   UNL A   1      49.086  28.081  37.957  1.00  0.00    -0.237 OA
ATOM     85  O   UNL A   1      47.555  26.843  39.456  1.00  0.00    -0.237 OA
ATOM     86  O   UNL A   1      48.442  25.754  37.432  1.00  0.00    -0.744 OA
ENDBRANCH  82  83
ENDBRANCH  50  75
BRANCH  62  87
ATOM     87  C   UNL A   1      39.797  33.524  37.592  1.00  0.00     0.058 A 
ATOM     88  C   UNL A   1      40.499  34.696  37.912  1.00  0.00     0.135 A 
ATOM     89  C   UNL A   1      38.812  33.081  38.490  1.00  0.00     0.135 A 
ATOM     90  F   UNL A   1      41.453  35.159  37.088  1.00  0.00    -0.206 F 
ATOM     91  C   UNL A   1      40.253  35.389  39.093  1.00  0.00     0.059 A 
ATOM     92  C   UNL A   1      38.533  33.771  39.664  1.00  0.00     0.059 A 
ATOM     93  F   UNL A   1      38.105  31.972  38.224  1.00  0.00    -0.206 F 
ATOM     94  C   UNL A   1      39.270  34.917  39.964  1.00  0.00     0.060 A 
BRANCH  94  95
ATOM     95  S   UNL A   1      38.945  35.832  41.486  1.00  0.00     0.124 S 
ATOM     96  O   UNL A   1      38.958  37.210  41.007  1.00  0.00    -0.237 OA
ATOM     97  O   UNL A   1      37.643  35.313  41.894  1.00  0.00    -0.237 OA
ATOM     98  O   UNL A   1      40.060  35.456  42.351  1.00  0.00    -0.744 OA
ENDBRANCH  94  95
ENDBRANCH  62  87
ENDBRANCH  36  37
ENDBRANCH  28  31
ENDBRANCH  26  27
ENDBRANCH  25  26
ENDBRANCH   1  25
TORSDOF 18
ENDMDL
