MODEL 1
REMARK VINA RESULT:     -13.1      0.000      0.000
REMARK SMILES Cc1ccc(C(=O)NCCCCNC(=O)c2ccc(-c3c4nc(c(-c5c(F)cc(S(=O)(=O)[O-])cc5F)c5ccc([nH]5)c(-c5c(F)cc(S(=O)(=O)[O-])cc5F)c5nc(c(-c6c(F)cc(S(=O)(=O)[O-])cc6F)c6ccc3[nH]6)C=C5)C=C4)cc2)c2c1N[C@H](c1ccccc1F)[C@H]1CC=C[C@@H]21
REMARK SMILES IDX 11 1 10 2 9 3 8 4 6 5 7 6 5 8 1 9 2 10 3 11 83 12 4 13 82 14
REMARK SMILES IDX 84 15 97 16 85 17 93 19 96 20 94 21 95 22 86 23 87 24 91 25
REMARK SMILES IDX 88 26 90 27 92 28 89 29 12 30 13 31 14 32 15 34 16 35 17 36
REMARK SMILES IDX 81 37 18 38 80 39 19 40 20 41 21 42 74 43 22 44 79 45 73 46
REMARK SMILES IDX 75 47 23 48 78 49 72 50 71 51 24 53 58 54 37 55 57 56 38 57
REMARK SMILES IDX 41 58 56 59 76 60 39 61 40 62 55 64 77 65 42 66 25 67 26 68
REMARK SMILES IDX 35 69 27 70 28 71 34 72 36 73 29 74 30 75 31 76 32 77 33 78
REMARK SMILES IDX 59 79 60 80 69 81 61 82 62 83 68 84 70 85 63 86 64 87 65 88
REMARK SMILES IDX 66 89 67 90 43 91 44 92 53 93 45 94 46 95 52 96 54 97 47 98
REMARK SMILES IDX 48 99 49 100 50 101 51 102
REMARK H PARENT 8 7 84 18 13 33 75 52 41 63
REMARK Flexibility Score: inf
ROOT
ATOM      1  C   UNL A   1      34.301  30.065  26.892  1.00  0.00     0.023 C 
ENDROOT
BRANCH   1   2
ATOM      2  C   UNL A   1      33.783  29.043  25.873  1.00  0.00     0.023 C 
BRANCH   2   3
ATOM      3  C   UNL A   1      34.015  27.583  26.275  1.00  0.00     0.116 C 
BRANCH   3   4
ATOM      4  N   UNL A   1      32.761  26.975  26.664  1.00  0.00    -0.352 N 
ATOM      5  C   UNL A   1      31.871  26.137  26.043  1.00  0.00     0.251 C 
ATOM      6  O   UNL A   1      30.797  26.023  26.629  1.00  0.00    -0.269 OA
ATOM      7  H   UNL A   1      32.486  27.218  27.578  1.00  0.00     0.163 HD
BRANCH   5   8
ATOM      8  C   UNL A   1      32.149  25.382  24.763  1.00  0.00     0.045 A 
ATOM      9  C   UNL A   1      33.086  23.426  21.004  1.00  0.00     0.046 C 
ATOM     10  C   UNL A   1      32.679  24.011  22.333  1.00  0.00    -0.028 A 
ATOM     11  C   UNL A   1      32.229  25.330  22.330  1.00  0.00     0.006 A 
ATOM     12  C   UNL A   1      32.806  23.324  23.559  1.00  0.00     0.042 A 
ATOM     13  C   UNL A   1      31.929  25.982  23.521  1.00  0.00     0.014 A 
ATOM     14  C   UNL A   1      32.578  24.018  24.780  1.00  0.00    -0.005 A 
ATOM     15  N   UNL A   1      33.178  21.990  23.558  1.00  0.00    -0.377 N 
ATOM     16  C   UNL A   1      32.719  23.253  26.082  1.00  0.00     0.050 C 
ATOM     17  C   UNL A   1      33.665  21.308  24.745  1.00  0.00     0.117 C 
ATOM     18  H   UNL A   1      33.109  21.483  22.718  1.00  0.00     0.161 HD
ATOM     19  C   UNL A   1      32.831  21.720  25.964  1.00  0.00     0.031 C 
ATOM     20  C   UNL A   1      33.931  23.583  26.913  1.00  0.00    -0.023 C 
ATOM     21  C   UNL A   1      33.521  21.310  27.280  1.00  0.00     0.034 C 
ATOM     22  C   UNL A   1      34.358  22.511  27.593  1.00  0.00    -0.030 C 
BRANCH  17  23
ATOM     23  C   UNL A   1      33.742  19.816  24.432  1.00  0.00     0.010 A 
ATOM     24  C   UNL A   1      32.575  19.170  23.973  1.00  0.00     0.009 A 
ATOM     25  C   UNL A   1      34.891  19.028  24.582  1.00  0.00     0.128 A 
ATOM     26  C   UNL A   1      32.570  17.804  23.674  1.00  0.00     0.001 A 
ATOM     27  C   UNL A   1      34.892  17.666  24.280  1.00  0.00     0.039 A 
ATOM     28  F   UNL A   1      36.047  19.550  25.010  1.00  0.00    -0.207 F 
ATOM     29  C   UNL A   1      33.731  17.052  23.825  1.00  0.00     0.003 A 
ENDBRANCH  17  23
ENDBRANCH   5   8
ENDBRANCH   3   4
ENDBRANCH   2   3
ENDBRANCH   1   2
BRANCH   1  30
ATOM     30  C   UNL A   1      35.317  29.518  27.888  1.00  0.00     0.116 C 
BRANCH  30  31
ATOM     31  N   UNL A   1      35.276  30.215  29.163  1.00  0.00    -0.352 N 
ATOM     32  C   UNL A   1      36.297  30.399  30.060  1.00  0.00     0.251 C 
ATOM     33  H   UNL A   1      34.406  30.603  29.414  1.00  0.00     0.163 HD
ATOM     34  O   UNL A   1      36.085  30.900  31.156  1.00  0.00    -0.269 OA
BRANCH  32  35
ATOM     35  C   UNL A   1      37.651  29.956  29.682  1.00  0.00     0.039 A 
ATOM     36  C   UNL A   1      38.056  30.083  28.352  1.00  0.00     0.014 A 
ATOM     37  C   UNL A   1      38.518  29.451  30.656  1.00  0.00     0.014 A 
ATOM     38  C   UNL A   1      39.356  29.729  27.999  1.00  0.00     0.010 A 
ATOM     39  C   UNL A   1      39.827  29.136  30.309  1.00  0.00     0.010 A 
ATOM     40  C   UNL A   1      40.249  29.263  28.977  1.00  0.00    -0.014 A 
BRANCH  40  41
ATOM     41  C   UNL A   1      41.618  28.839  28.612  1.00  0.00     0.031 A 
ATOM     42  C   UNL A   1      42.720  29.859  28.599  1.00  0.00     0.074 A 
ATOM     43  C   UNL A   1      41.857  27.561  28.265  1.00  0.00     0.049 A 
ATOM     44  N   UNL A   1      43.972  29.716  28.257  1.00  0.00    -0.248 NA
ATOM     45  C   UNL A   1      42.356  31.226  29.008  1.00  0.00     0.031 C 
ATOM     46  C   UNL A   1      40.858  26.492  28.227  1.00  0.00     0.029 A 
ATOM     47  N   UNL A   1      43.018  26.947  27.870  1.00  0.00    -0.354 N 
ATOM     48  C   UNL A   1      44.548  30.970  28.413  1.00  0.00     0.074 A 
ATOM     49  C   UNL A   1      43.497  31.875  28.827  1.00  0.00     0.031 C 
ATOM     50  C   UNL A   1      41.453  25.350  27.844  1.00  0.00     0.029 A 
ATOM     51  C   UNL A   1      42.866  25.611  27.586  1.00  0.00     0.049 A 
ATOM     52  H   UNL A   1      43.879  27.419  27.798  1.00  0.00     0.167 HD
ATOM     53  C   UNL A   1      45.843  31.330  28.249  1.00  0.00     0.037 A 
ATOM     54  C   UNL A   1      43.769  24.707  27.164  1.00  0.00     0.037 A 
ATOM     55  C   UNL A   1      46.883  30.424  27.847  1.00  0.00     0.049 A 
ATOM     56  C   UNL A   1      45.195  25.139  26.952  1.00  0.00     0.074 A 
ATOM     57  C   UNL A   1      48.232  30.680  27.679  1.00  0.00     0.029 A 
ATOM     58  N   UNL A   1      46.689  29.082  27.551  1.00  0.00    -0.354 N 
ATOM     59  N   UNL A   1      45.732  26.323  27.132  1.00  0.00    -0.248 NA
ATOM     60  C   UNL A   1      46.137  24.115  26.483  1.00  0.00     0.031 C 
ATOM     61  C   UNL A   1      48.850  29.498  27.254  1.00  0.00     0.029 A 
ATOM     62  C   UNL A   1      47.891  28.499  27.188  1.00  0.00     0.049 A 
ATOM     63  H   UNL A   1      45.825  28.614  27.594  1.00  0.00     0.167 HD
ATOM     64  C   UNL A   1      47.077  26.183  26.809  1.00  0.00     0.074 A 
ATOM     65  C   UNL A   1      47.274  24.796  26.438  1.00  0.00     0.031 C 
ATOM     66  C   UNL A   1      48.060  27.117  26.816  1.00  0.00     0.037 A 
BRANCH  53  67
ATOM     67  C   UNL A   1      46.195  32.765  28.518  1.00  0.00     0.058 A 
ATOM     68  C   UNL A   1      46.575  33.192  29.801  1.00  0.00     0.135 A 
ATOM     69  C   UNL A   1      46.163  33.719  27.491  1.00  0.00     0.135 A 
ATOM     70  F   UNL A   1      46.600  32.322  30.824  1.00  0.00    -0.206 F 
ATOM     71  C   UNL A   1      46.887  34.522  30.061  1.00  0.00     0.059 A 
ATOM     72  C   UNL A   1      46.492  35.051  27.723  1.00  0.00     0.059 A 
ATOM     73  F   UNL A   1      45.799  33.363  26.249  1.00  0.00    -0.206 F 
ATOM     74  C   UNL A   1      46.839  35.445  29.016  1.00  0.00     0.060 A 
BRANCH  74  75
ATOM     75  S   UNL A   1      47.244  37.168  29.371  1.00  0.00     0.124 S 
ATOM     76  O   UNL A   1      47.621  37.656  28.048  1.00  0.00    -0.237 OA
ATOM     77  O   UNL A   1      45.984  37.682  29.899  1.00  0.00    -0.237 OA
ATOM     78  O   UNL A   1      48.332  37.070  30.337  1.00  0.00    -0.744 OA
ENDBRANCH  74  75
ENDBRANCH  53  67
BRANCH  54  79
ATOM     79  C   UNL A   1      43.359  23.297  26.937  1.00  0.00     0.058 A 
ATOM     80  C   UNL A   1      43.236  22.788  25.637  1.00  0.00     0.135 A 
ATOM     81  C   UNL A   1      43.098  22.429  28.009  1.00  0.00     0.135 A 
ATOM     82  F   UNL A   1      43.469  23.583  24.581  1.00  0.00    -0.206 F 
ATOM     83  C   UNL A   1      42.860  21.469  25.403  1.00  0.00     0.059 A 
ATOM     84  C   UNL A   1      42.738  21.101  27.801  1.00  0.00     0.059 A 
ATOM     85  F   UNL A   1      43.213  22.867  29.271  1.00  0.00    -0.206 F 
ATOM     86  C   UNL A   1      42.616  20.633  26.493  1.00  0.00     0.060 A 
BRANCH  86  87
ATOM     87  S   UNL A   1      42.181  18.908  26.177  1.00  0.00     0.124 S 
ATOM     88  O   UNL A   1      42.415  18.302  27.483  1.00  0.00    -0.237 OA
ATOM     89  O   UNL A   1      40.785  19.015  25.764  1.00  0.00    -0.237 OA
ATOM     90  O   UNL A   1      43.111  18.516  25.122  1.00  0.00    -0.744 OA
ENDBRANCH  86  87
ENDBRANCH  54  79
BRANCH  66  91
ATOM     91  C   UNL A   1      49.435  26.668  26.415  1.00  0.00     0.058 A 
ATOM     92  C   UNL A   1      50.277  26.005  27.319  1.00  0.00     0.135 A 
ATOM     93  C   UNL A   1      49.891  26.852  25.100  1.00  0.00     0.135 A 
ATOM     94  F   UNL A   1      49.888  25.811  28.589  1.00  0.00    -0.206 F 
ATOM     95  C   UNL A   1      51.537  25.552  26.937  1.00  0.00     0.059 A 
ATOM     96  C   UNL A   1      51.137  26.389  24.691  1.00  0.00     0.059 A 
ATOM     97  F   UNL A   1      49.116  27.472  24.196  1.00  0.00    -0.206 F 
ATOM     98  C   UNL A   1      51.957  25.749  25.621  1.00  0.00     0.060 A 
BRANCH  98  99
ATOM     99  S   UNL A   1      53.578  25.125  25.128  1.00  0.00     0.124 S 
ATOM    100  O   UNL A   1      54.455  25.808  26.074  1.00  0.00    -0.237 OA
ATOM    101  O   UNL A   1      53.433  23.686  25.323  1.00  0.00    -0.237 OA
ATOM    102  O   UNL A   1      53.699  25.554  23.738  1.00  0.00    -0.744 OA
ENDBRANCH  98  99
ENDBRANCH  66  91
ENDBRANCH  40  41
ENDBRANCH  32  35
ENDBRANCH  30  31
ENDBRANCH   1  30
TORSDOF 15
ENDMDL
MODEL 2
REMARK VINA RESULT:     -12.7      6.571     12.020
REMARK SMILES Cc1ccc(C(=O)NCCCCNC(=O)c2ccc(-c3c4nc(c(-c5c(F)cc(S(=O)(=O)[O-])cc5F)c5ccc([nH]5)c(-c5c(F)cc(S(=O)(=O)[O-])cc5F)c5nc(c(-c6c(F)cc(S(=O)(=O)[O-])cc6F)c6ccc3[nH]6)C=C5)C=C4)cc2)c2c1N[C@H](c1ccccc1F)[C@H]1CC=C[C@@H]21
REMARK SMILES IDX 11 1 10 2 9 3 8 4 6 5 7 6 5 8 1 9 2 10 3 11 83 12 4 13 82 14
REMARK SMILES IDX 84 15 97 16 85 17 93 19 96 20 94 21 95 22 86 23 87 24 91 25
REMARK SMILES IDX 88 26 90 27 92 28 89 29 12 30 13 31 14 32 15 34 16 35 17 36
REMARK SMILES IDX 81 37 18 38 80 39 19 40 20 41 21 42 74 43 22 44 79 45 73 46
REMARK SMILES IDX 75 47 23 48 78 49 72 50 71 51 24 53 58 54 37 55 57 56 38 57
REMARK SMILES IDX 41 58 56 59 76 60 39 61 40 62 55 64 77 65 42 66 25 67 26 68
REMARK SMILES IDX 35 69 27 70 28 71 34 72 36 73 29 74 30 75 31 76 32 77 33 78
REMARK SMILES IDX 59 79 60 80 69 81 61 82 62 83 68 84 70 85 63 86 64 87 65 88
REMARK SMILES IDX 66 89 67 90 43 91 44 92 53 93 45 94 46 95 52 96 54 97 47 98
REMARK SMILES IDX 48 99 49 100 50 101 51 102
REMARK H PARENT 8 7 84 18 13 33 75 52 41 63
REMARK Flexibility Score: inf
ROOT
ATOM      1  C   UNL A   1      37.751  23.395  25.774  1.00  0.00     0.023 C 
ENDROOT
BRANCH   1   2
ATOM      2  C   UNL A   1      36.274  23.711  26.037  1.00  0.00     0.023 C 
BRANCH   2   3
ATOM      3  C   UNL A   1      35.335  22.513  25.862  1.00  0.00     0.116 C 
BRANCH   3   4
ATOM      4  N   UNL A   1      34.820  22.485  24.510  1.00  0.00    -0.352 N 
ATOM      5  C   UNL A   1      33.575  22.639  23.957  1.00  0.00     0.251 C 
ATOM      6  O   UNL A   1      33.509  22.318  22.772  1.00  0.00    -0.269 OA
ATOM      7  H   UNL A   1      35.520  22.316  23.838  1.00  0.00     0.163 HD
BRANCH   5   8
ATOM      8  C   UNL A   1      32.368  23.175  24.691  1.00  0.00     0.045 A 
ATOM      9  C   UNL A   1      29.011  24.628  27.028  1.00  0.00     0.046 C 
ATOM     10  C   UNL A   1      30.108  24.147  26.112  1.00  0.00    -0.028 A 
ATOM     11  C   UNL A   1      30.609  22.867  26.348  1.00  0.00     0.006 A 
ATOM     12  C   UNL A   1      30.689  24.944  25.103  1.00  0.00     0.042 A 
ATOM     13  C   UNL A   1      31.689  22.380  25.618  1.00  0.00     0.014 A 
ATOM     14  C   UNL A   1      31.844  24.476  24.415  1.00  0.00    -0.005 A 
ATOM     15  N   UNL A   1      30.142  26.183  24.815  1.00  0.00    -0.377 N 
ATOM     16  C   UNL A   1      32.443  25.354  23.334  1.00  0.00     0.050 C 
ATOM     17  C   UNL A   1      30.855  27.201  24.062  1.00  0.00     0.117 C 
ATOM     18  H   UNL A   1      29.233  26.383  25.134  1.00  0.00     0.161 HD
ATOM     19  C   UNL A   1      31.593  26.557  22.882  1.00  0.00     0.031 C 
ATOM     20  C   UNL A   1      33.752  26.017  23.673  1.00  0.00    -0.023 C 
ATOM     21  C   UNL A   1      32.632  27.522  22.277  1.00  0.00     0.034 C 
ATOM     22  C   UNL A   1      33.863  27.207  23.068  1.00  0.00    -0.030 C 
BRANCH  17  23
ATOM     23  C   UNL A   1      29.869  28.320  23.733  1.00  0.00     0.010 A 
ATOM     24  C   UNL A   1      28.611  27.966  23.204  1.00  0.00     0.009 A 
ATOM     25  C   UNL A   1      30.128  29.686  23.906  1.00  0.00     0.128 A 
ATOM     26  C   UNL A   1      27.661  28.938  22.874  1.00  0.00     0.001 A 
ATOM     27  C   UNL A   1      29.182  30.659  23.582  1.00  0.00     0.039 A 
ATOM     28  F   UNL A   1      31.293  30.121  24.402  1.00  0.00    -0.207 F 
ATOM     29  C   UNL A   1      27.946  30.286  23.066  1.00  0.00     0.003 A 
ENDBRANCH  17  23
ENDBRANCH   5   8
ENDBRANCH   3   4
ENDBRANCH   2   3
ENDBRANCH   1   2
BRANCH   1  30
ATOM     30  C   UNL A   1      38.738  24.234  26.577  1.00  0.00     0.116 C 
BRANCH  30  31
ATOM     31  N   UNL A   1      40.098  24.122  26.075  1.00  0.00    -0.352 N 
ATOM     32  C   UNL A   1      41.194  24.868  26.428  1.00  0.00     0.251 C 
ATOM     33  H   UNL A   1      40.251  23.426  25.395  1.00  0.00     0.163 HD
ATOM     34  O   UNL A   1      42.253  24.746  25.829  1.00  0.00    -0.269 OA
BRANCH  32  35
ATOM     35  C   UNL A   1      41.058  25.835  27.532  1.00  0.00     0.039 A 
ATOM     36  C   UNL A   1      41.905  26.944  27.565  1.00  0.00     0.014 A 
ATOM     37  C   UNL A   1      40.070  25.652  28.504  1.00  0.00     0.014 A 
ATOM     38  C   UNL A   1      41.740  27.898  28.566  1.00  0.00     0.010 A 
ATOM     39  C   UNL A   1      39.882  26.625  29.479  1.00  0.00     0.010 A 
ATOM     40  C   UNL A   1      40.723  27.747  29.522  1.00  0.00    -0.014 A 
BRANCH  40  41
ATOM     41  C   UNL A   1      40.563  28.726  30.620  1.00  0.00     0.031 A 
ATOM     42  C   UNL A   1      41.438  28.610  31.834  1.00  0.00     0.074 A 
ATOM     43  C   UNL A   1      39.621  29.682  30.537  1.00  0.00     0.049 A 
ATOM     44  N   UNL A   1      41.428  29.321  32.929  1.00  0.00    -0.248 NA
ATOM     45  C   UNL A   1      42.446  27.537  31.820  1.00  0.00     0.031 C 
ATOM     46  C   UNL A   1      38.706  29.876  29.410  1.00  0.00     0.029 A 
ATOM     47  N   UNL A   1      39.273  30.669  31.423  1.00  0.00    -0.354 N 
ATOM     48  C   UNL A   1      42.427  28.787  33.732  1.00  0.00     0.074 A 
ATOM     49  C   UNL A   1      42.988  27.658  33.022  1.00  0.00     0.031 C 
ATOM     50  C   UNL A   1      37.910  30.927  29.669  1.00  0.00     0.029 A 
ATOM     51  C   UNL A   1      38.241  31.464  30.986  1.00  0.00     0.049 A 
ATOM     52  H   UNL A   1      39.721  30.797  32.290  1.00  0.00     0.167 HD
ATOM     53  C   UNL A   1      42.855  29.216  34.943  1.00  0.00     0.037 A 
ATOM     54  C   UNL A   1      37.635  32.506  31.586  1.00  0.00     0.037 A 
ATOM     55  C   UNL A   1      42.301  30.346  35.637  1.00  0.00     0.049 A 
ATOM     56  C   UNL A   1      38.104  32.940  32.948  1.00  0.00     0.074 A 
ATOM     57  C   UNL A   1      42.680  30.881  36.854  1.00  0.00     0.029 A 
ATOM     58  N   UNL A   1      41.245  31.116  35.171  1.00  0.00    -0.354 N 
ATOM     59  N   UNL A   1      39.070  32.443  33.684  1.00  0.00    -0.248 NA
ATOM     60  C   UNL A   1      37.402  34.076  33.561  1.00  0.00     0.031 C 
ATOM     61  C   UNL A   1      41.835  31.959  37.139  1.00  0.00     0.029 A 
ATOM     62  C   UNL A   1      40.950  32.115  36.083  1.00  0.00     0.049 A 
ATOM     63  H   UNL A   1      40.776  30.974  34.318  1.00  0.00     0.167 HD
ATOM     64  C   UNL A   1      39.100  33.213  34.841  1.00  0.00     0.074 A 
ATOM     65  C   UNL A   1      38.066  34.218  34.700  1.00  0.00     0.031 C 
ATOM     66  C   UNL A   1      39.909  33.099  35.923  1.00  0.00     0.037 A 
BRANCH  53  67
ATOM     67  C   UNL A   1      43.987  28.460  35.577  1.00  0.00     0.058 A 
ATOM     68  C   UNL A   1      43.746  27.394  36.459  1.00  0.00     0.135 A 
ATOM     69  C   UNL A   1      45.321  28.794  35.299  1.00  0.00     0.135 A 
ATOM     70  F   UNL A   1      42.487  27.049  36.776  1.00  0.00    -0.206 F 
ATOM     71  C   UNL A   1      44.789  26.700  37.062  1.00  0.00     0.059 A 
ATOM     72  C   UNL A   1      46.380  28.099  35.874  1.00  0.00     0.059 A 
ATOM     73  F   UNL A   1      45.604  29.809  34.468  1.00  0.00    -0.206 F 
ATOM     74  C   UNL A   1      46.103  27.062  36.766  1.00  0.00     0.060 A 
BRANCH  74  75
ATOM     75  S   UNL A   1      47.446  26.154  37.560  1.00  0.00     0.124 S 
ATOM     76  O   UNL A   1      47.433  26.730  38.902  1.00  0.00    -0.237 OA
ATOM     77  O   UNL A   1      46.990  24.771  37.460  1.00  0.00    -0.237 OA
ATOM     78  O   UNL A   1      48.610  26.487  36.746  1.00  0.00    -0.744 OA
ENDBRANCH  74  75
ENDBRANCH  53  67
BRANCH  54  79
ATOM     79  C   UNL A   1      36.535  33.225  30.893  1.00  0.00     0.058 A 
ATOM     80  C   UNL A   1      35.205  33.068  31.306  1.00  0.00     0.135 A 
ATOM     81  C   UNL A   1      36.790  34.092  29.819  1.00  0.00     0.135 A 
ATOM     82  F   UNL A   1      34.913  32.244  32.325  1.00  0.00    -0.206 F 
ATOM     83  C   UNL A   1      34.162  33.738  30.676  1.00  0.00     0.059 A 
ATOM     84  C   UNL A   1      35.766  34.787  29.183  1.00  0.00     0.059 A 
ATOM     85  F   UNL A   1      38.048  34.283  29.394  1.00  0.00    -0.206 F 
ATOM     86  C   UNL A   1      34.453  34.598  29.616  1.00  0.00     0.060 A 
BRANCH  86  87
ATOM     87  S   UNL A   1      33.096  35.504  28.841  1.00  0.00     0.124 S 
ATOM     88  O   UNL A   1      33.817  36.512  28.073  1.00  0.00    -0.237 OA
ATOM     89  O   UNL A   1      32.436  34.459  28.063  1.00  0.00    -0.237 OA
ATOM     90  O   UNL A   1      32.333  36.003  29.981  1.00  0.00    -0.744 OA
ENDBRANCH  86  87
ENDBRANCH  54  79
BRANCH  66  91
ATOM     91  C   UNL A   1      39.709  34.087  37.036  1.00  0.00     0.058 A 
ATOM     92  C   UNL A   1      38.953  33.762  38.171  1.00  0.00     0.135 A 
ATOM     93  C   UNL A   1      40.325  35.348  36.990  1.00  0.00     0.135 A 
ATOM     94  F   UNL A   1      38.340  32.571  38.258  1.00  0.00    -0.206 F 
ATOM     95  C   UNL A   1      38.799  34.662  39.221  1.00  0.00     0.059 A 
ATOM     96  C   UNL A   1      40.202  36.255  38.038  1.00  0.00     0.059 A 
ATOM     97  F   UNL A   1      41.066  35.701  35.929  1.00  0.00    -0.206 F 
ATOM     98  C   UNL A   1      39.428  35.906  39.145  1.00  0.00     0.060 A 
BRANCH  98  99
ATOM     99  S   UNL A   1      39.252  37.051  40.530  1.00  0.00     0.124 S 
ATOM    100  O   UNL A   1      38.495  36.244  41.482  1.00  0.00    -0.237 OA
ATOM    101  O   UNL A   1      40.639  37.323  40.891  1.00  0.00    -0.237 OA
ATOM    102  O   UNL A   1      38.529  38.178  39.948  1.00  0.00    -0.744 OA
ENDBRANCH  98  99
ENDBRANCH  66  91
ENDBRANCH  40  41
ENDBRANCH  32  35
ENDBRANCH  30  31
ENDBRANCH   1  30
TORSDOF 15
ENDMDL
MODEL 3
REMARK VINA RESULT:     -12.4      0.955      2.081
REMARK SMILES Cc1ccc(C(=O)NCCCCNC(=O)c2ccc(-c3c4nc(c(-c5c(F)cc(S(=O)(=O)[O-])cc5F)c5ccc([nH]5)c(-c5c(F)cc(S(=O)(=O)[O-])cc5F)c5nc(c(-c6c(F)cc(S(=O)(=O)[O-])cc6F)c6ccc3[nH]6)C=C5)C=C4)cc2)c2c1N[C@H](c1ccccc1F)[C@H]1CC=C[C@@H]21
REMARK SMILES IDX 11 1 10 2 9 3 8 4 6 5 7 6 5 8 1 9 2 10 3 11 83 12 4 13 82 14
REMARK SMILES IDX 84 15 97 16 85 17 93 19 96 20 94 21 95 22 86 23 87 24 91 25
REMARK SMILES IDX 88 26 90 27 92 28 89 29 12 30 13 31 14 32 15 34 16 35 17 36
REMARK SMILES IDX 81 37 18 38 80 39 19 40 20 41 21 42 74 43 22 44 79 45 73 46
REMARK SMILES IDX 75 47 23 48 78 49 72 50 71 51 24 53 58 54 37 55 57 56 38 57
REMARK SMILES IDX 41 58 56 59 76 60 39 61 40 62 55 64 77 65 42 66 25 67 26 68
REMARK SMILES IDX 35 69 27 70 28 71 34 72 36 73 29 74 30 75 31 76 32 77 33 78
REMARK SMILES IDX 59 79 60 80 69 81 61 82 62 83 68 84 70 85 63 86 64 87 65 88
REMARK SMILES IDX 66 89 67 90 43 91 44 92 53 93 45 94 46 95 52 96 54 97 47 98
REMARK SMILES IDX 48 99 49 100 50 101 51 102
REMARK H PARENT 8 7 84 18 13 33 75 52 41 63
REMARK Flexibility Score: inf
ROOT
ATOM      1  C   UNL A   1      35.061  29.323  27.590  1.00  0.00     0.023 C 
ENDROOT
BRANCH   1   2
ATOM      2  C   UNL A   1      33.992  29.386  26.493  1.00  0.00     0.023 C 
BRANCH   2   3
ATOM      3  C   UNL A   1      33.654  28.029  25.867  1.00  0.00     0.116 C 
BRANCH   3   4
ATOM      4  N   UNL A   1      32.611  28.190  24.877  1.00  0.00    -0.352 N 
ATOM      5  C   UNL A   1      31.582  27.399  24.434  1.00  0.00     0.251 C 
ATOM      6  O   UNL A   1      31.042  27.807  23.407  1.00  0.00    -0.269 OA
ATOM      7  H   UNL A   1      32.650  29.061  24.419  1.00  0.00     0.163 HD
BRANCH   5   8
ATOM      8  C   UNL A   1      31.103  26.143  25.125  1.00  0.00     0.045 A 
ATOM      9  C   UNL A   1      29.474  22.625  27.076  1.00  0.00     0.046 C 
ATOM     10  C   UNL A   1      30.154  23.810  26.438  1.00  0.00    -0.028 A 
ATOM     11  C   UNL A   1      29.677  25.073  26.785  1.00  0.00     0.006 A 
ATOM     12  C   UNL A   1      31.175  23.696  25.470  1.00  0.00     0.042 A 
ATOM     13  C   UNL A   1      30.177  26.216  26.169  1.00  0.00     0.014 A 
ATOM     14  C   UNL A   1      31.626  24.858  24.783  1.00  0.00    -0.005 A 
ATOM     15  N   UNL A   1      31.704  22.449  25.182  1.00  0.00    -0.377 N 
ATOM     16  C   UNL A   1      32.725  24.704  23.751  1.00  0.00     0.050 C 
ATOM     17  C   UNL A   1      32.485  22.184  23.986  1.00  0.00     0.117 C 
ATOM     18  H   UNL A   1      31.543  21.712  25.813  1.00  0.00     0.161 HD
ATOM     19  C   UNL A   1      33.452  23.345  23.725  1.00  0.00     0.031 C 
ATOM     20  C   UNL A   1      32.304  24.851  22.312  1.00  0.00    -0.023 C 
ATOM     21  C   UNL A   1      34.036  23.279  22.300  1.00  0.00     0.034 C 
ATOM     22  C   UNL A   1      33.047  24.078  21.509  1.00  0.00    -0.030 C 
BRANCH  17  23
ATOM     23  C   UNL A   1      33.098  20.792  24.123  1.00  0.00     0.010 A 
ATOM     24  C   UNL A   1      32.417  19.703  23.540  1.00  0.00     0.009 A 
ATOM     25  C   UNL A   1      34.290  20.509  24.804  1.00  0.00     0.128 A 
ATOM     26  C   UNL A   1      32.916  18.400  23.631  1.00  0.00     0.001 A 
ATOM     27  C   UNL A   1      34.793  19.211  24.894  1.00  0.00     0.039 A 
ATOM     28  F   UNL A   1      35.009  21.475  25.389  1.00  0.00    -0.207 F 
ATOM     29  C   UNL A   1      34.107  18.154  24.307  1.00  0.00     0.003 A 
ENDBRANCH  17  23
ENDBRANCH   5   8
ENDBRANCH   3   4
ENDBRANCH   2   3
ENDBRANCH   1   2
BRANCH   1  30
ATOM     30  C   UNL A   1      35.602  30.677  28.035  1.00  0.00     0.116 C 
BRANCH  30  31
ATOM     31  N   UNL A   1      35.447  30.894  29.464  1.00  0.00    -0.352 N 
ATOM     32  C   UNL A   1      36.365  30.668  30.457  1.00  0.00     0.251 C 
ATOM     33  H   UNL A   1      34.575  31.246  29.754  1.00  0.00     0.163 HD
ATOM     34  O   UNL A   1      36.053  30.778  31.635  1.00  0.00    -0.269 OA
BRANCH  32  35
ATOM     35  C   UNL A   1      37.731  30.267  30.074  1.00  0.00     0.039 A 
ATOM     36  C   UNL A   1      38.545  29.649  31.024  1.00  0.00     0.014 A 
ATOM     37  C   UNL A   1      38.179  30.477  28.766  1.00  0.00     0.014 A 
ATOM     38  C   UNL A   1      39.812  29.207  30.652  1.00  0.00     0.010 A 
ATOM     39  C   UNL A   1      39.429  30.000  28.387  1.00  0.00     0.010 A 
ATOM     40  C   UNL A   1      40.256  29.372  29.331  1.00  0.00    -0.014 A 
BRANCH  40  41
ATOM     41  C   UNL A   1      41.616  28.951  28.930  1.00  0.00     0.031 A 
ATOM     42  C   UNL A   1      42.726  29.962  28.942  1.00  0.00     0.074 A 
ATOM     43  C   UNL A   1      41.839  27.687  28.528  1.00  0.00     0.049 A 
ATOM     44  N   UNL A   1      43.973  29.823  28.577  1.00  0.00    -0.248 NA
ATOM     45  C   UNL A   1      42.381  31.315  29.411  1.00  0.00     0.031 C 
ATOM     46  C   UNL A   1      40.829  26.629  28.462  1.00  0.00     0.029 A 
ATOM     47  N   UNL A   1      42.988  27.079  28.093  1.00  0.00    -0.354 N 
ATOM     48  C   UNL A   1      44.562  31.065  28.774  1.00  0.00     0.074 A 
ATOM     49  C   UNL A   1      43.525  31.960  29.240  1.00  0.00     0.031 C 
ATOM     50  C   UNL A   1      41.408  25.498  28.025  1.00  0.00     0.029 A 
ATOM     51  C   UNL A   1      42.820  25.758  27.758  1.00  0.00     0.049 A 
ATOM     52  H   UNL A   1      43.853  27.546  28.028  1.00  0.00     0.167 HD
ATOM     53  C   UNL A   1      45.857  31.420  28.606  1.00  0.00     0.037 A 
ATOM     54  C   UNL A   1      43.710  24.863  27.287  1.00  0.00     0.037 A 
ATOM     55  C   UNL A   1      46.884  30.521  28.154  1.00  0.00     0.049 A 
ATOM     56  C   UNL A   1      45.135  25.292  27.073  1.00  0.00     0.074 A 
ATOM     57  C   UNL A   1      48.233  30.772  27.977  1.00  0.00     0.029 A 
ATOM     58  N   UNL A   1      46.674  29.194  27.807  1.00  0.00    -0.354 N 
ATOM     59  N   UNL A   1      45.686  26.463  27.292  1.00  0.00    -0.248 NA
ATOM     60  C   UNL A   1      46.062  24.279  26.549  1.00  0.00     0.031 C 
ATOM     61  C   UNL A   1      48.834  29.604  27.496  1.00  0.00     0.029 A 
ATOM     62  C   UNL A   1      47.865  28.617  27.404  1.00  0.00     0.049 A 
ATOM     63  H   UNL A   1      45.806  28.733  27.844  1.00  0.00     0.167 HD
ATOM     64  C   UNL A   1      47.025  26.324  26.944  1.00  0.00     0.074 A 
ATOM     65  C   UNL A   1      47.204  24.952  26.516  1.00  0.00     0.031 C 
ATOM     66  C   UNL A   1      48.016  27.249  26.975  1.00  0.00     0.037 A 
BRANCH  53  67
ATOM     67  C   UNL A   1      46.226  32.839  28.928  1.00  0.00     0.058 A 
ATOM     68  C   UNL A   1      46.183  33.843  27.947  1.00  0.00     0.135 A 
ATOM     69  C   UNL A   1      46.619  33.204  30.225  1.00  0.00     0.135 A 
ATOM     70  F   UNL A   1      45.835  33.541  26.686  1.00  0.00    -0.206 F 
ATOM     71  C   UNL A   1      46.538  35.156  28.235  1.00  0.00     0.059 A 
ATOM     72  C   UNL A   1      46.959  34.516  30.540  1.00  0.00     0.059 A 
ATOM     73  F   UNL A   1      46.684  32.281  31.196  1.00  0.00    -0.206 F 
ATOM     74  C   UNL A   1      46.929  35.482  29.534  1.00  0.00     0.060 A 
BRANCH  74  75
ATOM     75  S   UNL A   1      47.391  37.191  29.890  1.00  0.00     0.124 S 
ATOM     76  O   UNL A   1      46.248  37.643  30.677  1.00  0.00    -0.237 OA
ATOM     77  O   UNL A   1      48.642  37.029  30.625  1.00  0.00    -0.237 OA
ATOM     78  O   UNL A   1      47.519  37.791  28.567  1.00  0.00    -0.744 OA
ENDBRANCH  74  75
ENDBRANCH  53  67
BRANCH  54  79
ATOM     79  C   UNL A   1      43.283  23.467  27.010  1.00  0.00     0.058 A 
ATOM     80  C   UNL A   1      43.080  23.029  25.694  1.00  0.00     0.135 A 
ATOM     81  C   UNL A   1      43.085  22.542  28.047  1.00  0.00     0.135 A 
ATOM     82  F   UNL A   1      43.251  23.880  24.670  1.00  0.00    -0.206 F 
ATOM     83  C   UNL A   1      42.689  21.724  25.413  1.00  0.00     0.059 A 
ATOM     84  C   UNL A   1      42.711  21.227  27.791  1.00  0.00     0.059 A 
ATOM     85  F   UNL A   1      43.278  22.912  29.322  1.00  0.00    -0.206 F 
ATOM     86  C   UNL A   1      42.509  20.830  26.469  1.00  0.00     0.060 A 
BRANCH  86  87
ATOM     87  S   UNL A   1      42.052  19.123  26.087  1.00  0.00     0.124 S 
ATOM     88  O   UNL A   1      42.933  18.829  24.963  1.00  0.00    -0.237 OA
ATOM     89  O   UNL A   1      42.361  18.437  27.338  1.00  0.00    -0.237 OA
ATOM     90  O   UNL A   1      40.631  19.221  25.768  1.00  0.00    -0.744 OA
ENDBRANCH  86  87
ENDBRANCH  54  79
BRANCH  66  91
ATOM     91  C   UNL A   1      49.381  26.804  26.537  1.00  0.00     0.058 A 
ATOM     92  C   UNL A   1      50.276  26.206  27.435  1.00  0.00     0.135 A 
ATOM     93  C   UNL A   1      49.775  26.927  25.195  1.00  0.00     0.135 A 
ATOM     94  F   UNL A   1      49.947  26.072  28.730  1.00  0.00    -0.206 F 
ATOM     95  C   UNL A   1      51.527  25.757  27.022  1.00  0.00     0.059 A 
ATOM     96  C   UNL A   1      51.012  26.466  24.755  1.00  0.00     0.059 A 
ATOM     97  F   UNL A   1      48.949  27.484  24.295  1.00  0.00    -0.206 F 
ATOM     98  C   UNL A   1      51.885  25.892  25.679  1.00  0.00     0.060 A 
BRANCH  98  99
ATOM     99  S   UNL A   1      53.496  25.273  25.147  1.00  0.00     0.124 S 
ATOM    100  O   UNL A   1      54.394  25.970  26.062  1.00  0.00    -0.237 OA
ATOM    101  O   UNL A   1      53.365  23.835  25.360  1.00  0.00    -0.237 OA
ATOM    102  O   UNL A   1      53.575  25.689  23.751  1.00  0.00    -0.744 OA
ENDBRANCH  98  99
ENDBRANCH  66  91
ENDBRANCH  40  41
ENDBRANCH  32  35
ENDBRANCH  30  31
ENDBRANCH   1  30
TORSDOF 15
ENDMDL
