MODEL 1
REMARK VINA RESULT:     -11.4      0.000      0.000
REMARK SMILES Cc1cn2c(CC(=O)N[C@@H](C(=O)NCCCCNC(=O)c3ccc(-c4c5nc(c(-c6c(F)cc(S(=O)(=O)[O-])cc6F)c6ccc([nH]6)c(-c6c(F)cc(S(=O)(=O)[O-])cc6F)c6nc(c(-c7c(F)cc(S(=O)(=O)[O-])cc7F)c7ccc4[nH]7)C=C6)C=C5)cc3)[C@H](C)O)csc2n1
REMARK SMILES IDX 15 1 14 2 13 3 11 4 12 5 10 7 9 8 7 9 8 10 6 12 5 13 1 14
REMARK SMILES IDX 2 15 3 16 93 17 4 18 92 19 91 20 90 21 87 22 88 23 89 24
REMARK SMILES IDX 16 26 17 27 18 28 19 29 20 31 21 32 22 33 86 34 23 35 85 36
REMARK SMILES IDX 24 37 25 38 26 39 79 40 27 41 84 42 78 43 80 44 28 45 83 46
REMARK SMILES IDX 77 47 76 48 29 50 63 51 42 52 62 53 43 54 46 55 61 56 81 57
REMARK SMILES IDX 44 58 45 59 60 61 82 62 47 63 30 64 31 65 40 66 32 67 33 68
REMARK SMILES IDX 39 69 41 70 34 71 35 72 36 73 37 74 38 75 64 76 65 77 74 78
REMARK SMILES IDX 66 79 67 80 73 81 75 82 68 83 69 84 70 85 71 86 72 87 48 88
REMARK SMILES IDX 49 89 58 90 50 91 51 92 57 93 59 94 52 95 53 96 54 97 55 98
REMARK SMILES IDX 56 99
REMARK H PARENT 13 6 9 11 89 25 18 30 80 49 46 60
REMARK Flexibility Score: inf
ROOT
ATOM      1  C   UNL A   1      37.904  23.602  26.066  1.00  0.00     0.023 C 
ENDROOT
BRANCH   1   2
ATOM      2  C   UNL A   1      36.665  22.915  25.502  1.00  0.00     0.116 C 
BRANCH   2   3
ATOM      3  N   UNL A   1      35.832  22.311  26.519  1.00  0.00    -0.354 N 
ATOM      4  C   UNL A   1      34.486  22.058  26.493  1.00  0.00     0.245 C 
ATOM      5  O   UNL A   1      34.063  21.233  27.304  1.00  0.00    -0.273 OA
ATOM      6  H   UNL A   1      36.298  22.045  27.345  1.00  0.00     0.163 HD
BRANCH   4   7
ATOM      7  C   UNL A   1      33.582  22.652  25.370  1.00  0.00     0.200 C 
BRANCH   7   8
ATOM      8  N   UNL A   1      32.464  23.445  25.927  1.00  0.00    -0.342 N 
ATOM      9  C   UNL A   1      32.383  24.780  26.210  1.00  0.00     0.226 C 
ATOM     10  O   UNL A   1      31.413  25.172  26.860  1.00  0.00    -0.275 OA
ATOM     11  H   UNL A   1      31.649  22.930  26.125  1.00  0.00     0.164 HD
BRANCH   9  12
ATOM     12  C   UNL A   1      33.462  25.755  25.744  1.00  0.00     0.155 C 
BRANCH  12  13
ATOM     13  C   UNL A   1      32.896  27.065  25.294  1.00  0.00     0.044 A 
ATOM     14  C   UNL A   1      34.527  30.969  27.950  1.00  0.00     0.068 C 
ATOM     15  C   UNL A   1      33.895  30.025  27.001  1.00  0.00     0.057 A 
ATOM     16  C   UNL A   1      34.157  28.673  26.833  1.00  0.00     0.117 A 
ATOM     17  N   UNL A   1      32.902  30.448  26.134  1.00  0.00    -0.224 NA
ATOM     18  N   UNL A   1      33.273  28.263  25.881  1.00  0.00    -0.294 N 
ATOM     19  C   UNL A   1      32.595  29.370  25.468  1.00  0.00     0.194 A 
ATOM     20  S   UNL A   1      31.453  28.976  24.226  1.00  0.00    -0.105 S 
ATOM     21  C   UNL A   1      31.945  27.276  24.358  1.00  0.00     0.091 A 
ENDBRANCH  12  13
ENDBRANCH   9  12
ENDBRANCH   7   8
BRANCH   7  22
ATOM     22  C   UNL A   1      33.058  21.524  24.429  1.00  0.00     0.143 C 
ATOM     23  C   UNL A   1      32.279  22.090  23.246  1.00  0.00     0.041 C 
BRANCH  22  24
ATOM     24  O   UNL A   1      32.167  20.619  25.101  1.00  0.00    -0.391 OA
ATOM     25  H   UNL A   1      31.327  20.574  24.618  1.00  0.00     0.211 HD
ENDBRANCH  22  24
ENDBRANCH   7  22
ENDBRANCH   4   7
ENDBRANCH   2   3
ENDBRANCH   1   2
BRANCH   1  26
ATOM     26  C   UNL A   1      39.004  22.634  26.503  1.00  0.00     0.023 C 
BRANCH  26  27
ATOM     27  C   UNL A   1      40.297  23.290  26.990  1.00  0.00     0.116 C 
BRANCH  27  28
ATOM     28  N   UNL A   1      40.998  24.039  25.961  1.00  0.00    -0.352 N 
ATOM     29  C   UNL A   1      41.487  25.328  26.018  1.00  0.00     0.251 C 
ATOM     30  H   UNL A   1      41.145  23.565  25.111  1.00  0.00     0.163 HD
ATOM     31  O   UNL A   1      41.970  25.846  25.023  1.00  0.00    -0.269 OA
BRANCH  29  32
ATOM     32  C   UNL A   1      41.372  26.091  27.284  1.00  0.00     0.039 A 
ATOM     33  C   UNL A   1      42.380  27.001  27.611  1.00  0.00     0.014 A 
ATOM     34  C   UNL A   1      40.262  25.942  28.117  1.00  0.00     0.014 A 
ATOM     35  C   UNL A   1      42.233  27.817  28.736  1.00  0.00     0.010 A 
ATOM     36  C   UNL A   1      40.081  26.809  29.192  1.00  0.00     0.010 A 
ATOM     37  C   UNL A   1      41.062  27.759  29.513  1.00  0.00    -0.014 A 
BRANCH  37  38
ATOM     38  C   UNL A   1      40.851  28.698  30.647  1.00  0.00     0.031 A 
ATOM     39  C   UNL A   1      41.676  28.577  31.900  1.00  0.00     0.074 A 
ATOM     40  C   UNL A   1      39.874  29.625  30.568  1.00  0.00     0.049 A 
ATOM     41  N   UNL A   1      41.618  29.291  32.996  1.00  0.00    -0.248 NA
ATOM     42  C   UNL A   1      42.675  27.499  31.942  1.00  0.00     0.031 C 
ATOM     43  C   UNL A   1      38.955  29.794  29.439  1.00  0.00     0.029 A 
ATOM     44  N   UNL A   1      39.485  30.597  31.456  1.00  0.00    -0.354 N 
ATOM     45  C   UNL A   1      42.560  28.741  33.858  1.00  0.00     0.074 A 
ATOM     46  C   UNL A   1      43.138  27.603  33.180  1.00  0.00     0.031 C 
ATOM     47  C   UNL A   1      38.129  30.822  29.693  1.00  0.00     0.029 A 
ATOM     48  C   UNL A   1      38.438  31.369  31.010  1.00  0.00     0.049 A 
ATOM     49  H   UNL A   1      39.916  30.729  32.332  1.00  0.00     0.167 HD
ATOM     50  C   UNL A   1      42.928  29.162  35.092  1.00  0.00     0.037 A 
ATOM     51  C   UNL A   1      37.798  32.402  31.594  1.00  0.00     0.037 A 
ATOM     52  C   UNL A   1      42.375  30.318  35.750  1.00  0.00     0.049 A 
ATOM     53  C   UNL A   1      38.257  32.877  32.946  1.00  0.00     0.074 A 
ATOM     54  C   UNL A   1      42.735  30.869  36.968  1.00  0.00     0.029 A 
ATOM     55  N   UNL A   1      41.350  31.104  35.244  1.00  0.00    -0.354 N 
ATOM     56  N   UNL A   1      39.208  32.394  33.711  1.00  0.00    -0.248 NA
ATOM     57  C   UNL A   1      37.570  34.047  33.508  1.00  0.00     0.031 C 
ATOM     58  C   UNL A   1      41.900  31.963  37.219  1.00  0.00     0.029 A 
ATOM     59  C   UNL A   1      41.053  32.124  36.134  1.00  0.00     0.049 A 
ATOM     60  H   UNL A   1      40.898  30.957  34.382  1.00  0.00     0.167 HD
ATOM     61  C   UNL A   1      39.249  33.218  34.830  1.00  0.00     0.074 A 
ATOM     62  C   UNL A   1      38.241  34.239  34.634  1.00  0.00     0.031 C 
ATOM     63  C   UNL A   1      40.051  33.137  35.923  1.00  0.00     0.037 A 
BRANCH  50  64
ATOM     64  C   UNL A   1      43.992  28.379  35.812  1.00  0.00     0.058 A 
ATOM     65  C   UNL A   1      45.356  28.679  35.662  1.00  0.00     0.135 A 
ATOM     66  C   UNL A   1      43.642  27.355  36.706  1.00  0.00     0.135 A 
ATOM     67  F   UNL A   1      45.748  29.638  34.808  1.00  0.00    -0.206 F 
ATOM     68  C   UNL A   1      46.336  27.979  36.358  1.00  0.00     0.059 A 
ATOM     69  C   UNL A   1      44.604  26.660  37.434  1.00  0.00     0.059 A 
ATOM     70  F   UNL A   1      42.353  27.025  36.887  1.00  0.00    -0.206 F 
ATOM     71  C   UNL A   1      45.949  26.973  37.245  1.00  0.00     0.060 A 
BRANCH  71  72
ATOM     72  S   UNL A   1      47.233  26.095  38.164  1.00  0.00     0.124 S 
ATOM     73  O   UNL A   1      48.032  27.203  38.678  1.00  0.00    -0.237 OA
ATOM     74  O   UNL A   1      46.458  25.360  39.157  1.00  0.00    -0.237 OA
ATOM     75  O   UNL A   1      47.880  25.275  37.145  1.00  0.00    -0.744 OA
ENDBRANCH  71  72
ENDBRANCH  50  64
BRANCH  51  76
ATOM     76  C   UNL A   1      36.673  33.077  30.893  1.00  0.00     0.058 A 
ATOM     77  C   UNL A   1      36.902  33.902  29.783  1.00  0.00     0.135 A 
ATOM     78  C   UNL A   1      35.347  32.915  31.323  1.00  0.00     0.135 A 
ATOM     79  F   UNL A   1      38.153  34.092  29.335  1.00  0.00    -0.206 F 
ATOM     80  C   UNL A   1      35.863  34.566  29.139  1.00  0.00     0.059 A 
ATOM     81  C   UNL A   1      34.287  33.547  30.680  1.00  0.00     0.059 A 
ATOM     82  F   UNL A   1      35.071  32.119  32.369  1.00  0.00    -0.206 F 
ATOM     83  C   UNL A   1      34.557  34.382  29.597  1.00  0.00     0.060 A 
BRANCH  83  84
ATOM     84  S   UNL A   1      33.209  35.222  28.736  1.00  0.00     0.124 S 
ATOM     85  O   UNL A   1      33.928  36.255  28.002  1.00  0.00    -0.237 OA
ATOM     86  O   UNL A   1      32.639  34.146  27.932  1.00  0.00    -0.237 OA
ATOM     87  O   UNL A   1      32.360  35.694  29.827  1.00  0.00    -0.744 OA
ENDBRANCH  83  84
ENDBRANCH  51  76
BRANCH  63  88
ATOM     88  C   UNL A   1      39.894  34.205  36.970  1.00  0.00     0.058 A 
ATOM     89  C   UNL A   1      40.537  35.447  36.863  1.00  0.00     0.135 A 
ATOM     90  C   UNL A   1      39.069  33.987  38.086  1.00  0.00     0.135 A 
ATOM     91  F   UNL A   1      41.339  35.705  35.818  1.00  0.00    -0.206 F 
ATOM     92  C   UNL A   1      40.401  36.423  37.846  1.00  0.00     0.059 A 
ATOM     93  C   UNL A   1      38.895  34.959  39.066  1.00  0.00     0.059 A 
ATOM     94  F   UNL A   1      38.419  32.821  38.231  1.00  0.00    -0.206 F 
ATOM     95  C   UNL A   1      39.581  36.167  38.946  1.00  0.00     0.060 A 
BRANCH  95  96
ATOM     96  S   UNL A   1      39.411  37.439  40.216  1.00  0.00     0.124 S 
ATOM     97  O   UNL A   1      40.786  37.907  40.349  1.00  0.00    -0.237 OA
ATOM     98  O   UNL A   1      38.479  38.377  39.598  1.00  0.00    -0.237 OA
ATOM     99  O   UNL A   1      38.883  36.705  41.363  1.00  0.00    -0.744 OA
ENDBRANCH  95  96
ENDBRANCH  63  88
ENDBRANCH  37  38
ENDBRANCH  29  32
ENDBRANCH  27  28
ENDBRANCH  26  27
ENDBRANCH   1  26
TORSDOF 19
ENDMDL
MODEL 2
REMARK VINA RESULT:     -11.4      1.177      2.242
REMARK SMILES Cc1cn2c(CC(=O)N[C@@H](C(=O)NCCCCNC(=O)c3ccc(-c4c5nc(c(-c6c(F)cc(S(=O)(=O)[O-])cc6F)c6ccc([nH]6)c(-c6c(F)cc(S(=O)(=O)[O-])cc6F)c6nc(c(-c7c(F)cc(S(=O)(=O)[O-])cc7F)c7ccc4[nH]7)C=C6)C=C5)cc3)[C@H](C)O)csc2n1
REMARK SMILES IDX 15 1 14 2 13 3 11 4 12 5 10 7 9 8 7 9 8 10 6 12 5 13 1 14
REMARK SMILES IDX 2 15 3 16 93 17 4 18 92 19 91 20 90 21 87 22 88 23 89 24
REMARK SMILES IDX 16 26 17 27 18 28 19 29 20 31 21 32 22 33 86 34 23 35 85 36
REMARK SMILES IDX 24 37 25 38 26 39 79 40 27 41 84 42 78 43 80 44 28 45 83 46
REMARK SMILES IDX 77 47 76 48 29 50 63 51 42 52 62 53 43 54 46 55 61 56 81 57
REMARK SMILES IDX 44 58 45 59 60 61 82 62 47 63 30 64 31 65 40 66 32 67 33 68
REMARK SMILES IDX 39 69 41 70 34 71 35 72 36 73 37 74 38 75 64 76 65 77 74 78
REMARK SMILES IDX 66 79 67 80 73 81 75 82 68 83 69 84 70 85 71 86 72 87 48 88
REMARK SMILES IDX 49 89 58 90 50 91 51 92 57 93 59 94 52 95 53 96 54 97 55 98
REMARK SMILES IDX 56 99
REMARK H PARENT 13 6 9 11 89 25 18 30 80 49 46 60
REMARK Flexibility Score: inf
ROOT
ATOM      1  C   UNL A   1      36.487  23.407  25.946  1.00  0.00     0.023 C 
ENDROOT
BRANCH   1   2
ATOM      2  C   UNL A   1      35.603  22.177  26.118  1.00  0.00     0.116 C 
BRANCH   2   3
ATOM      3  N   UNL A   1      34.725  22.258  27.265  1.00  0.00    -0.354 N 
ATOM      4  C   UNL A   1      33.430  22.701  27.329  1.00  0.00     0.245 C 
ATOM      5  O   UNL A   1      32.776  22.356  28.314  1.00  0.00    -0.273 OA
ATOM      6  H   UNL A   1      35.112  21.953  28.117  1.00  0.00     0.163 HD
BRANCH   4   7
ATOM      7  C   UNL A   1      32.779  23.448  26.125  1.00  0.00     0.200 C 
BRANCH   7   8
ATOM      8  N   UNL A   1      31.876  24.531  26.574  1.00  0.00    -0.342 N 
ATOM      9  C   UNL A   1      31.989  25.887  26.443  1.00  0.00     0.226 C 
ATOM     10  O   UNL A   1      31.206  26.593  27.079  1.00  0.00    -0.275 OA
ATOM     11  H   UNL A   1      31.065  24.227  27.041  1.00  0.00     0.164 HD
BRANCH   9  12
ATOM     12  C   UNL A   1      33.054  26.509  25.543  1.00  0.00     0.155 C 
BRANCH  12  13
ATOM     13  C   UNL A   1      32.642  26.544  24.105  1.00  0.00     0.044 A 
ATOM     14  C   UNL A   1      29.053  29.880  23.130  1.00  0.00     0.068 C 
ATOM     15  C   UNL A   1      30.108  28.840  23.118  1.00  0.00     0.057 A 
ATOM     16  C   UNL A   1      30.964  28.475  24.146  1.00  0.00     0.117 A 
ATOM     17  N   UNL A   1      30.339  28.079  21.985  1.00  0.00    -0.224 NA
ATOM     18  N   UNL A   1      31.695  27.443  23.639  1.00  0.00    -0.294 N 
ATOM     19  C   UNL A   1      31.316  27.291  22.340  1.00  0.00     0.194 A 
ATOM     20  S   UNL A   1      32.204  26.014  21.575  1.00  0.00    -0.105 S 
ATOM     21  C   UNL A   1      33.045  25.723  23.111  1.00  0.00     0.091 A 
ENDBRANCH  12  13
ENDBRANCH   9  12
ENDBRANCH   7   8
BRANCH   7  22
ATOM     22  C   UNL A   1      32.035  22.446  25.191  1.00  0.00     0.143 C 
ATOM     23  C   UNL A   1      30.959  23.137  24.361  1.00  0.00     0.041 C 
BRANCH  22  24
ATOM     24  O   UNL A   1      31.371  21.404  25.923  1.00  0.00    -0.391 OA
ATOM     25  H   UNL A   1      30.728  21.797  26.534  1.00  0.00     0.211 HD
ENDBRANCH  22  24
ENDBRANCH   7  22
ENDBRANCH   4   7
ENDBRANCH   2   3
ENDBRANCH   1   2
BRANCH   1  26
ATOM     26  C   UNL A   1      37.973  23.085  25.777  1.00  0.00     0.023 C 
BRANCH  26  27
ATOM     27  C   UNL A   1      38.921  23.880  26.675  1.00  0.00     0.116 C 
BRANCH  27  28
ATOM     28  N   UNL A   1      40.277  23.972  26.159  1.00  0.00    -0.352 N 
ATOM     29  C   UNL A   1      41.242  24.917  26.439  1.00  0.00     0.251 C 
ATOM     30  H   UNL A   1      40.544  23.265  25.527  1.00  0.00     0.163 HD
ATOM     31  O   UNL A   1      42.307  24.903  25.842  1.00  0.00    -0.269 OA
BRANCH  29  32
ATOM     32  C   UNL A   1      40.950  25.976  27.435  1.00  0.00     0.039 A 
ATOM     33  C   UNL A   1      39.941  25.753  28.375  1.00  0.00     0.014 A 
ATOM     34  C   UNL A   1      41.692  27.158  27.468  1.00  0.00     0.014 A 
ATOM     35  C   UNL A   1      39.731  26.684  29.396  1.00  0.00     0.010 A 
ATOM     36  C   UNL A   1      41.535  28.046  28.530  1.00  0.00     0.010 A 
ATOM     37  C   UNL A   1      40.555  27.818  29.508  1.00  0.00    -0.014 A 
BRANCH  37  38
ATOM     38  C   UNL A   1      40.409  28.757  30.651  1.00  0.00     0.031 A 
ATOM     39  C   UNL A   1      41.249  28.588  31.890  1.00  0.00     0.074 A 
ATOM     40  C   UNL A   1      39.477  29.731  30.596  1.00  0.00     0.049 A 
ATOM     41  N   UNL A   1      41.244  29.296  32.991  1.00  0.00    -0.248 NA
ATOM     42  C   UNL A   1      42.196  27.463  31.907  1.00  0.00     0.031 C 
ATOM     43  C   UNL A   1      38.548  29.952  29.485  1.00  0.00     0.029 A 
ATOM     44  N   UNL A   1      39.151  30.714  31.497  1.00  0.00    -0.354 N 
ATOM     45  C   UNL A   1      42.174  28.695  33.833  1.00  0.00     0.074 A 
ATOM     46  C   UNL A   1      42.684  27.535  33.137  1.00  0.00     0.031 C 
ATOM     47  C   UNL A   1      37.777  31.017  29.759  1.00  0.00     0.029 A 
ATOM     48  C   UNL A   1      38.134  31.539  31.075  1.00  0.00     0.049 A 
ATOM     49  H   UNL A   1      39.602  30.818  32.367  1.00  0.00     0.167 HD
ATOM     50  C   UNL A   1      42.582  29.089  35.063  1.00  0.00     0.037 A 
ATOM     51  C   UNL A   1      37.555  32.597  31.677  1.00  0.00     0.037 A 
ATOM     52  C   UNL A   1      42.097  30.265  35.738  1.00  0.00     0.049 A 
ATOM     53  C   UNL A   1      38.059  33.040  33.023  1.00  0.00     0.074 A 
ATOM     54  C   UNL A   1      42.503  30.789  36.953  1.00  0.00     0.029 A 
ATOM     55  N   UNL A   1      41.102  31.103  35.256  1.00  0.00    -0.354 N 
ATOM     56  N   UNL A   1      38.999  32.505  33.768  1.00  0.00    -0.248 NA
ATOM     57  C   UNL A   1      37.439  34.236  33.605  1.00  0.00     0.031 C 
ATOM     58  C   UNL A   1      41.726  31.920  37.226  1.00  0.00     0.029 A 
ATOM     59  C   UNL A   1      40.869  32.129  36.157  1.00  0.00     0.049 A 
ATOM     60  H   UNL A   1      40.629  30.984  34.400  1.00  0.00     0.167 HD
ATOM     61  C   UNL A   1      39.099  33.318  34.892  1.00  0.00     0.074 A 
ATOM     62  C   UNL A   1      38.138  34.388  34.720  1.00  0.00     0.031 C 
ATOM     63  C   UNL A   1      39.914  33.191  35.970  1.00  0.00     0.037 A 
BRANCH  50  64
ATOM     64  C   UNL A   1      43.619  28.251  35.759  1.00  0.00     0.058 A 
ATOM     65  C   UNL A   1      43.261  27.213  36.635  1.00  0.00     0.135 A 
ATOM     66  C   UNL A   1      44.986  28.449  35.505  1.00  0.00     0.135 A 
ATOM     67  F   UNL A   1      41.970  26.989  36.927  1.00  0.00    -0.206 F 
ATOM     68  C   UNL A   1      44.221  26.414  37.248  1.00  0.00     0.059 A 
ATOM     69  C   UNL A   1      45.962  27.644  36.086  1.00  0.00     0.059 A 
ATOM     70  F   UNL A   1      45.385  29.428  34.677  1.00  0.00    -0.206 F 
ATOM     71  C   UNL A   1      45.570  26.636  36.964  1.00  0.00     0.060 A 
BRANCH  71  72
ATOM     72  S   UNL A   1      46.801  25.569  37.745  1.00  0.00     0.124 S 
ATOM     73  O   UNL A   1      46.174  25.297  39.034  1.00  0.00    -0.237 OA
ATOM     74  O   UNL A   1      46.866  24.441  36.822  1.00  0.00    -0.237 OA
ATOM     75  O   UNL A   1      47.995  26.407  37.792  1.00  0.00    -0.744 OA
ENDBRANCH  71  72
ENDBRANCH  50  64
BRANCH  51  76
ATOM     76  C   UNL A   1      36.452  33.331  31.000  1.00  0.00     0.058 A 
ATOM     77  C   UNL A   1      35.128  33.227  31.452  1.00  0.00     0.135 A 
ATOM     78  C   UNL A   1      36.698  34.147  29.886  1.00  0.00     0.135 A 
ATOM     79  F   UNL A   1      34.840  32.455  32.513  1.00  0.00    -0.206 F 
ATOM     80  C   UNL A   1      34.082  33.881  30.809  1.00  0.00     0.059 A 
ATOM     81  C   UNL A   1      35.673  34.833  29.241  1.00  0.00     0.059 A 
ATOM     82  F   UNL A   1      37.950  34.298  29.425  1.00  0.00    -0.206 F 
ATOM     83  C   UNL A   1      34.366  34.681  29.701  1.00  0.00     0.060 A 
BRANCH  83  84
ATOM     84  S   UNL A   1      33.008  35.554  28.891  1.00  0.00     0.124 S 
ATOM     85  O   UNL A   1      33.724  36.576  28.138  1.00  0.00    -0.237 OA
ATOM     86  O   UNL A   1      32.388  34.495  28.102  1.00  0.00    -0.237 OA
ATOM     87  O   UNL A   1      32.208  36.039  30.012  1.00  0.00    -0.744 OA
ENDBRANCH  83  84
ENDBRANCH  51  76
BRANCH  63  88
ATOM     88  C   UNL A   1      39.827  34.257  37.027  1.00  0.00     0.058 A 
ATOM     89  C   UNL A   1      39.135  34.052  38.231  1.00  0.00     0.135 A 
ATOM     90  C   UNL A   1      40.464  35.494  36.840  1.00  0.00     0.135 A 
ATOM     91  F   UNL A   1      38.505  32.888  38.458  1.00  0.00    -0.206 F 
ATOM     92  C   UNL A   1      39.044  35.050  39.196  1.00  0.00     0.059 A 
ATOM     93  C   UNL A   1      40.411  36.496  37.804  1.00  0.00     0.059 A 
ATOM     94  F   UNL A   1      41.152  35.738  35.713  1.00  0.00    -0.206 F 
ATOM     95  C   UNL A   1      39.681  36.271  38.970  1.00  0.00     0.060 A 
BRANCH  95  96
ATOM     96  S   UNL A   1      39.558  37.560  40.228  1.00  0.00     0.124 S 
ATOM     97  O   UNL A   1      40.962  37.880  40.458  1.00  0.00    -0.237 OA
ATOM     98  O   UNL A   1      38.776  38.589  39.548  1.00  0.00    -0.237 OA
ATOM     99  O   UNL A   1      38.876  36.892  41.333  1.00  0.00    -0.744 OA
ENDBRANCH  95  96
ENDBRANCH  63  88
ENDBRANCH  37  38
ENDBRANCH  29  32
ENDBRANCH  27  28
ENDBRANCH  26  27
ENDBRANCH   1  26
TORSDOF 19
ENDMDL
MODEL 3
REMARK VINA RESULT:     -11.4      2.952      3.853
REMARK SMILES Cc1cn2c(CC(=O)N[C@@H](C(=O)NCCCCNC(=O)c3ccc(-c4c5nc(c(-c6c(F)cc(S(=O)(=O)[O-])cc6F)c6ccc([nH]6)c(-c6c(F)cc(S(=O)(=O)[O-])cc6F)c6nc(c(-c7c(F)cc(S(=O)(=O)[O-])cc7F)c7ccc4[nH]7)C=C6)C=C5)cc3)[C@H](C)O)csc2n1
REMARK SMILES IDX 15 1 14 2 13 3 11 4 12 5 10 7 9 8 7 9 8 10 6 12 5 13 1 14
REMARK SMILES IDX 2 15 3 16 93 17 4 18 92 19 91 20 90 21 87 22 88 23 89 24
REMARK SMILES IDX 16 26 17 27 18 28 19 29 20 31 21 32 22 33 86 34 23 35 85 36
REMARK SMILES IDX 24 37 25 38 26 39 79 40 27 41 84 42 78 43 80 44 28 45 83 46
REMARK SMILES IDX 77 47 76 48 29 50 63 51 42 52 62 53 43 54 46 55 61 56 81 57
REMARK SMILES IDX 44 58 45 59 60 61 82 62 47 63 30 64 31 65 40 66 32 67 33 68
REMARK SMILES IDX 39 69 41 70 34 71 35 72 36 73 37 74 38 75 64 76 65 77 74 78
REMARK SMILES IDX 66 79 67 80 73 81 75 82 68 83 69 84 70 85 71 86 72 87 48 88
REMARK SMILES IDX 49 89 58 90 50 91 51 92 57 93 59 94 52 95 53 96 54 97 55 98
REMARK SMILES IDX 56 99
REMARK H PARENT 13 6 9 11 89 25 18 30 80 49 46 60
REMARK Flexibility Score: inf
ROOT
ATOM      1  C   UNL A   1      35.501  21.871  26.069  1.00  0.00     0.023 C 
ENDROOT
BRANCH   1   2
ATOM      2  C   UNL A   1      34.369  21.566  27.044  1.00  0.00     0.116 C 
BRANCH   2   3
ATOM      3  N   UNL A   1      33.338  20.724  26.480  1.00  0.00    -0.354 N 
ATOM      4  C   UNL A   1      32.462  20.997  25.462  1.00  0.00     0.245 C 
ATOM      5  O   UNL A   1      31.923  20.031  24.922  1.00  0.00    -0.273 OA
ATOM      6  H   UNL A   1      33.254  19.829  26.883  1.00  0.00     0.163 HD
BRANCH   4   7
ATOM      7  C   UNL A   1      32.307  22.447  24.909  1.00  0.00     0.200 C 
BRANCH   7   8
ATOM      8  N   UNL A   1      31.144  23.141  25.506  1.00  0.00    -0.342 N 
ATOM      9  C   UNL A   1      31.078  24.313  26.206  1.00  0.00     0.226 C 
ATOM     10  O   UNL A   1      30.021  24.583  26.778  1.00  0.00    -0.275 OA
ATOM     11  H   UNL A   1      30.280  22.687  25.379  1.00  0.00     0.164 HD
BRANCH   9  12
ATOM     12  C   UNL A   1      32.277  25.255  26.286  1.00  0.00     0.155 C 
BRANCH  12  13
ATOM     13  C   UNL A   1      32.062  26.523  25.521  1.00  0.00     0.044 A 
ATOM     14  C   UNL A   1      34.440  30.463  27.467  1.00  0.00     0.068 C 
ATOM     15  C   UNL A   1      33.650  29.493  26.674  1.00  0.00     0.057 A 
ATOM     16  C   UNL A   1      33.591  28.115  26.815  1.00  0.00     0.117 A 
ATOM     17  N   UNL A   1      32.831  29.921  25.643  1.00  0.00    -0.224 NA
ATOM     18  N   UNL A   1      32.684  27.708  25.884  1.00  0.00    -0.294 N 
ATOM     19  C   UNL A   1      32.310  28.817  25.186  1.00  0.00     0.194 A 
ATOM     20  S   UNL A   1      31.170  28.418  23.943  1.00  0.00    -0.105 S 
ATOM     21  C   UNL A   1      31.237  26.724  24.471  1.00  0.00     0.091 A 
ENDBRANCH  12  13
ENDBRANCH   9  12
ENDBRANCH   7   8
BRANCH   7  22
ATOM     22  C   UNL A   1      32.217  22.437  23.352  1.00  0.00     0.143 C 
ATOM     23  C   UNL A   1      33.453  23.057  22.710  1.00  0.00     0.041 C 
BRANCH  22  24
ATOM     24  O   UNL A   1      31.092  23.184  22.863  1.00  0.00    -0.391 OA
ATOM     25  H   UNL A   1      30.459  23.326  23.585  1.00  0.00     0.211 HD
ENDBRANCH  22  24
ENDBRANCH   7  22
ENDBRANCH   4   7
ENDBRANCH   2   3
ENDBRANCH   1   2
BRANCH   1  26
ATOM     26  C   UNL A   1      35.766  23.364  25.873  1.00  0.00     0.023 C 
BRANCH  26  27
ATOM     27  C   UNL A   1      37.040  23.707  25.102  1.00  0.00     0.116 C 
BRANCH  27  28
ATOM     28  N   UNL A   1      38.124  22.761  25.309  1.00  0.00    -0.352 N 
ATOM     29  C   UNL A   1      39.301  22.940  26.006  1.00  0.00     0.251 C 
ATOM     30  H   UNL A   1      38.002  21.874  24.899  1.00  0.00     0.163 HD
ATOM     31  O   UNL A   1      40.156  22.068  26.002  1.00  0.00    -0.269 OA
BRANCH  29  32
ATOM     32  C   UNL A   1      39.535  24.221  26.714  1.00  0.00     0.039 A 
ATOM     33  C   UNL A   1      39.011  24.381  28.000  1.00  0.00     0.014 A 
ATOM     34  C   UNL A   1      40.299  25.236  26.135  1.00  0.00     0.014 A 
ATOM     35  C   UNL A   1      39.322  25.530  28.732  1.00  0.00     0.010 A 
ATOM     36  C   UNL A   1      40.670  26.343  26.895  1.00  0.00     0.010 A 
ATOM     37  C   UNL A   1      40.189  26.502  28.203  1.00  0.00    -0.014 A 
BRANCH  37  38
ATOM     38  C   UNL A   1      40.610  27.674  29.016  1.00  0.00     0.031 A 
ATOM     39  C   UNL A   1      41.935  27.671  29.731  1.00  0.00     0.074 A 
ATOM     40  C   UNL A   1      39.770  28.720  29.157  1.00  0.00     0.049 A 
ATOM     41  N   UNL A   1      42.458  28.592  30.500  1.00  0.00    -0.248 NA
ATOM     42  C   UNL A   1      42.768  26.467  29.589  1.00  0.00     0.031 C 
ATOM     43  C   UNL A   1      38.427  28.812  28.578  1.00  0.00     0.029 A 
ATOM     44  N   UNL A   1      39.918  29.905  29.834  1.00  0.00    -0.354 N 
ATOM     45  C   UNL A   1      43.671  28.074  30.942  1.00  0.00     0.074 A 
ATOM     46  C   UNL A   1      43.782  26.739  30.399  1.00  0.00     0.031 C 
ATOM     47  C   UNL A   1      37.887  29.997  28.904  1.00  0.00     0.029 A 
ATOM     48  C   UNL A   1      38.828  30.740  29.736  1.00  0.00     0.049 A 
ATOM     49  H   UNL A   1      40.728  30.136  30.345  1.00  0.00     0.167 HD
ATOM     50  C   UNL A   1      44.617  28.667  31.709  1.00  0.00     0.037 A 
ATOM     51  C   UNL A   1      38.611  31.964  30.256  1.00  0.00     0.037 A 
ATOM     52  C   UNL A   1      44.519  30.011  32.219  1.00  0.00     0.049 A 
ATOM     53  C   UNL A   1      39.697  32.618  31.067  1.00  0.00     0.074 A 
ATOM     54  C   UNL A   1      45.456  30.727  32.942  1.00  0.00     0.029 A 
ATOM     55  N   UNL A   1      43.420  30.842  32.056  1.00  0.00    -0.354 N 
ATOM     56  N   UNL A   1      40.874  32.144  31.404  1.00  0.00    -0.248 NA
ATOM     57  C   UNL A   1      39.436  33.979  31.554  1.00  0.00     0.031 C 
ATOM     58  C   UNL A   1      44.910  31.977  33.253  1.00  0.00     0.029 A 
ATOM     59  C   UNL A   1      43.650  32.058  32.681  1.00  0.00     0.049 A 
ATOM     60  H   UNL A   1      42.597  30.603  31.572  1.00  0.00     0.167 HD
ATOM     61  C   UNL A   1      41.501  33.159  32.119  1.00  0.00     0.074 A 
ATOM     62  C   UNL A   1      40.581  34.277  32.149  1.00  0.00     0.031 C 
ATOM     63  C   UNL A   1      42.728  33.164  32.698  1.00  0.00     0.037 A 
BRANCH  50  64
ATOM     64  C   UNL A   1      45.854  27.876  32.035  1.00  0.00     0.058 A 
ATOM     65  C   UNL A   1      45.945  27.098  33.201  1.00  0.00     0.135 A 
ATOM     66  C   UNL A   1      46.939  27.848  31.144  1.00  0.00     0.135 A 
ATOM     67  F   UNL A   1      44.944  27.100  34.095  1.00  0.00    -0.206 F 
ATOM     68  C   UNL A   1      47.074  26.336  33.481  1.00  0.00     0.059 A 
ATOM     69  C   UNL A   1      48.068  27.072  31.391  1.00  0.00     0.059 A 
ATOM     70  F   UNL A   1      46.907  28.574  30.015  1.00  0.00    -0.206 F 
ATOM     71  C   UNL A   1      48.130  26.327  32.568  1.00  0.00     0.060 A 
BRANCH  71  72
ATOM     72  S   UNL A   1      49.576  25.308  32.933  1.00  0.00     0.124 S 
ATOM     73  O   UNL A   1      50.409  26.243  33.683  1.00  0.00    -0.237 OA
ATOM     74  O   UNL A   1      48.999  24.214  33.706  1.00  0.00    -0.237 OA
ATOM     75  O   UNL A   1      50.077  24.943  31.611  1.00  0.00    -0.744 OA
ENDBRANCH  71  72
ENDBRANCH  50  64
BRANCH  51  76
ATOM     76  C   UNL A   1      37.325  32.667  30.002  1.00  0.00     0.058 A 
ATOM     77  C   UNL A   1      36.165  32.335  30.717  1.00  0.00     0.135 A 
ATOM     78  C   UNL A   1      37.229  33.682  29.038  1.00  0.00     0.135 A 
ATOM     79  F   UNL A   1      36.205  31.369  31.649  1.00  0.00    -0.206 F 
ATOM     80  C   UNL A   1      34.948  32.961  30.468  1.00  0.00     0.059 A 
ATOM     81  C   UNL A   1      36.029  34.342  28.788  1.00  0.00     0.059 A 
ATOM     82  F   UNL A   1      38.314  34.053  28.340  1.00  0.00    -0.206 F 
ATOM     83  C   UNL A   1      34.891  33.964  29.498  1.00  0.00     0.060 A 
BRANCH  83  84
ATOM     84  S   UNL A   1      33.314  34.795  29.201  1.00  0.00     0.124 S 
ATOM     85  O   UNL A   1      33.754  36.059  28.624  1.00  0.00    -0.237 OA
ATOM     86  O   UNL A   1      32.646  33.874  28.289  1.00  0.00    -0.237 OA
ATOM     87  O   UNL A   1      32.727  34.880  30.535  1.00  0.00    -0.744 OA
ENDBRANCH  83  84
ENDBRANCH  51  76
BRANCH  63  88
ATOM     88  C   UNL A   1      43.160  34.434  33.379  1.00  0.00     0.058 A 
ATOM     89  C   UNL A   1      43.023  34.615  34.764  1.00  0.00     0.135 A 
ATOM     90  C   UNL A   1      43.741  35.474  32.636  1.00  0.00     0.135 A 
ATOM     91  F   UNL A   1      42.470  33.652  35.519  1.00  0.00    -0.206 F 
ATOM     92  C   UNL A   1      43.408  35.799  35.384  1.00  0.00     0.059 A 
ATOM     93  C   UNL A   1      44.161  36.655  33.238  1.00  0.00     0.059 A 
ATOM     94  F   UNL A   1      43.910  35.348  31.310  1.00  0.00    -0.206 F 
ATOM     95  C   UNL A   1      43.972  36.816  34.611  1.00  0.00     0.060 A 
BRANCH  95  96
ATOM     96  S   UNL A   1      44.470  38.349  35.424  1.00  0.00     0.124 S 
ATOM     97  O   UNL A   1      45.924  38.262  35.349  1.00  0.00    -0.237 OA
ATOM     98  O   UNL A   1      43.853  39.368  34.579  1.00  0.00    -0.237 OA
ATOM     99  O   UNL A   1      43.900  38.225  36.762  1.00  0.00    -0.744 OA
ENDBRANCH  95  96
ENDBRANCH  63  88
ENDBRANCH  37  38
ENDBRANCH  29  32
ENDBRANCH  27  28
ENDBRANCH  26  27
ENDBRANCH   1  26
TORSDOF 19
ENDMDL
