MODEL 1
REMARK VINA RESULT:     -13.0      0.000      0.000
REMARK SMILES CCc1cc(N2CCC[C@H](C(=O)NCCCCNC(=O)c3ccc(-c4c5nc(c(-c6c(F)cc(S(=O)(=O)[O-])cc6F)c6ccc([nH]6)c(-c6c(F)cc(S(=O)(=O)[O-])cc6F)c6nc(c(-c7c(F)cc(S(=O)(=O)[O-])cc7F)c7ccc4[nH]7)C=C6)C=C5)cc3)C2)nc(-c2ccc(Cl)cc2)n1
REMARK SMILES IDX 16 1 15 2 14 3 13 4 11 5 12 6 10 8 6 9 7 10 87 11 8 12 9 13
REMARK SMILES IDX 5 14 3 15 4 16 97 17 89 18 88 19 2 20 1 21 90 22 91 23 96 24
REMARK SMILES IDX 92 25 95 26 93 27 94 28 17 29 18 30 19 31 20 33 21 34 22 35
REMARK SMILES IDX 86 36 23 37 85 38 24 39 25 40 26 41 79 42 27 43 84 44 78 45
REMARK SMILES IDX 80 46 28 47 83 48 77 49 76 50 29 52 63 53 42 54 62 55 43 56
REMARK SMILES IDX 46 57 61 58 81 59 44 60 45 61 60 63 82 64 47 65 30 66 31 67
REMARK SMILES IDX 40 68 32 69 33 70 39 71 41 72 34 73 35 74 36 75 37 76 38 77
REMARK SMILES IDX 64 78 65 79 74 80 66 81 67 82 73 83 75 84 68 85 69 86 70 87
REMARK SMILES IDX 71 88 72 89 48 90 49 91 58 92 50 93 51 94 57 95 59 96 52 97
REMARK SMILES IDX 53 98 54 99 55 100 56 101
REMARK H PARENT 13 7 18 32 80 51 46 62
REMARK Flexibility Score: inf
ROOT
ATOM      1  C   UNL A   1      33.016  28.766  25.561  1.00  0.00     0.023 C 
ENDROOT
BRANCH   1   2
ATOM      2  C   UNL A   1      34.063  28.674  24.457  1.00  0.00     0.023 C 
BRANCH   2   3
ATOM      3  C   UNL A   1      33.497  28.750  23.043  1.00  0.00     0.116 C 
BRANCH   3   4
ATOM      4  N   UNL A   1      33.748  27.563  22.256  1.00  0.00    -0.356 N 
ATOM      5  C   UNL A   1      33.226  26.315  22.361  1.00  0.00     0.224 C 
ATOM      6  O   UNL A   1      33.445  25.541  21.420  1.00  0.00    -0.275 OA
ATOM      7  H   UNL A   1      34.400  27.680  21.528  1.00  0.00     0.163 HD
BRANCH   5   8
ATOM      8  C   UNL A   1      32.420  25.811  23.562  1.00  0.00     0.098 C 
ATOM      9  N   UNL A   1      32.797  23.448  24.185  1.00  0.00    -0.356 N 
ATOM     10  C   UNL A   1      31.393  23.082  24.155  1.00  0.00     0.118 C 
ATOM     11  C   UNL A   1      33.169  24.827  24.458  1.00  0.00     0.131 C 
ATOM     12  C   UNL A   1      30.652  23.956  23.140  1.00  0.00     0.022 C 
ATOM     13  C   UNL A   1      30.960  25.447  23.262  1.00  0.00     0.017 C 
BRANCH   9  14
ATOM     14  C   UNL A   1      33.758  22.485  24.420  1.00  0.00     0.132 A 
ATOM     15  C   UNL A   1      35.993  21.795  24.727  1.00  0.00     0.046 A 
ATOM     16  C   UNL A   1      35.095  22.823  24.525  1.00  0.00     0.070 A 
ATOM     17  N   UNL A   1      35.587  20.525  24.864  1.00  0.00    -0.233 NA
ATOM     18  C   UNL A   1      34.277  20.275  24.731  1.00  0.00     0.161 A 
ATOM     19  N   UNL A   1      33.342  21.206  24.485  1.00  0.00    -0.211 NA
BRANCH  15  20
ATOM     20  C   UNL A   1      37.477  22.062  24.749  1.00  0.00     0.053 C 
ATOM     21  C   UNL A   1      37.918  23.002  25.868  1.00  0.00     0.011 C 
ENDBRANCH  15  20
BRANCH  18  22
ATOM     22  C   UNL A   1      33.906  18.858  24.750  1.00  0.00     0.019 A 
ATOM     23  C   UNL A   1      32.660  18.457  25.271  1.00  0.00     0.013 A 
ATOM     24  C   UNL A   1      34.822  17.858  24.381  1.00  0.00     0.013 A 
ATOM     25  C   UNL A   1      32.361  17.108  25.476  1.00  0.00     0.021 A 
ATOM     26  C   UNL A   1      34.532  16.506  24.598  1.00  0.00     0.021 A 
ATOM     27  C   UNL A   1      33.311  16.139  25.165  1.00  0.00     0.041 A 
ATOM     28  Cl  UNL A   1      32.973  14.483  25.472  1.00  0.00    -0.084 Cl
ENDBRANCH  18  22
ENDBRANCH   9  14
ENDBRANCH   5   8
ENDBRANCH   3   4
ENDBRANCH   2   3
ENDBRANCH   1   2
BRANCH   1  29
ATOM     29  C   UNL A   1      33.568  28.828  26.982  1.00  0.00     0.116 C 
BRANCH  29  30
ATOM     30  N   UNL A   1      33.515  30.147  27.601  1.00  0.00    -0.352 N 
ATOM     31  C   UNL A   1      34.515  30.794  28.297  1.00  0.00     0.251 C 
ATOM     32  H   UNL A   1      32.664  30.634  27.512  1.00  0.00     0.163 HD
ATOM     33  O   UNL A   1      34.311  31.884  28.825  1.00  0.00    -0.269 OA
BRANCH  31  34
ATOM     34  C   UNL A   1      35.836  30.137  28.425  1.00  0.00     0.039 A 
ATOM     35  C   UNL A   1      36.733  30.161  27.357  1.00  0.00     0.014 A 
ATOM     36  C   UNL A   1      36.211  29.570  29.643  1.00  0.00     0.014 A 
ATOM     37  C   UNL A   1      38.041  29.702  27.548  1.00  0.00     0.010 A 
ATOM     38  C   UNL A   1      37.522  29.175  29.854  1.00  0.00     0.010 A 
ATOM     39  C   UNL A   1      38.455  29.250  28.813  1.00  0.00    -0.014 A 
BRANCH  39  40
ATOM     40  C   UNL A   1      39.865  28.900  29.106  1.00  0.00     0.031 A 
ATOM     41  C   UNL A   1      40.795  29.933  29.674  1.00  0.00     0.074 A 
ATOM     42  C   UNL A   1      40.331  27.695  28.725  1.00  0.00     0.049 A 
ATOM     43  N   UNL A   1      42.082  29.856  29.895  1.00  0.00    -0.248 NA
ATOM     44  C   UNL A   1      40.206  31.241  30.000  1.00  0.00     0.031 C 
ATOM     45  C   UNL A   1      39.537  26.645  28.082  1.00  0.00     0.029 A 
ATOM     46  N   UNL A   1      41.590  27.156  28.804  1.00  0.00    -0.354 N 
ATOM     47  C   UNL A   1      42.461  31.110  30.360  1.00  0.00     0.074 A 
ATOM     48  C   UNL A   1      41.277  31.942  30.340  1.00  0.00     0.031 C 
ATOM     49  C   UNL A   1      40.320  25.579  27.851  1.00  0.00     0.029 A 
ATOM     50  C   UNL A   1      41.676  25.879  28.302  1.00  0.00     0.049 A 
ATOM     51  H   UNL A   1      42.359  27.638  29.186  1.00  0.00     0.167 HD
ATOM     52  C   UNL A   1      43.680  31.521  30.784  1.00  0.00     0.037 A 
ATOM     53  C   UNL A   1      42.729  25.044  28.222  1.00  0.00     0.037 A 
ATOM     54  C   UNL A   1      44.841  30.669  30.827  1.00  0.00     0.049 A 
ATOM     55  C   UNL A   1      44.061  25.501  28.749  1.00  0.00     0.074 A 
ATOM     56  C   UNL A   1      46.104  30.953  31.313  1.00  0.00     0.029 A 
ATOM     57  N   UNL A   1      44.877  29.360  30.363  1.00  0.00    -0.354 N 
ATOM     58  N   UNL A   1      44.388  26.663  29.264  1.00  0.00    -0.248 NA
ATOM     59  C   UNL A   1      45.163  24.533  28.696  1.00  0.00     0.031 C 
ATOM     60  C   UNL A   1      46.912  29.826  31.118  1.00  0.00     0.029 A 
ATOM     61  C   UNL A   1      46.142  28.826  30.546  1.00  0.00     0.049 A 
ATOM     62  H   UNL A   1      44.115  28.882  29.964  1.00  0.00     0.167 HD
ATOM     63  C   UNL A   1      45.726  26.556  29.624  1.00  0.00     0.074 A 
ATOM     64  C   UNL A   1      46.144  25.213  29.274  1.00  0.00     0.031 C 
ATOM     65  C   UNL A   1      46.534  27.483  30.197  1.00  0.00     0.037 A 
BRANCH  52  66
ATOM     66  C   UNL A   1      43.810  32.947  31.248  1.00  0.00     0.058 A 
ATOM     67  C   UNL A   1      43.648  33.301  32.597  1.00  0.00     0.135 A 
ATOM     68  C   UNL A   1      44.110  33.974  30.338  1.00  0.00     0.135 A 
ATOM     69  F   UNL A   1      43.350  32.364  33.511  1.00  0.00    -0.206 F 
ATOM     70  C   UNL A   1      43.734  34.623  33.021  1.00  0.00     0.059 A 
ATOM     71  C   UNL A   1      44.233  35.301  30.745  1.00  0.00     0.059 A 
ATOM     72  F   UNL A   1      44.284  33.696  29.036  1.00  0.00    -0.206 F 
ATOM     73  C   UNL A   1      44.021  35.618  32.086  1.00  0.00     0.060 A 
BRANCH  73  74
ATOM     74  S   UNL A   1      44.124  37.330  32.650  1.00  0.00     0.124 S 
ATOM     75  O   UNL A   1      45.472  37.372  33.209  1.00  0.00    -0.237 OA
ATOM     76  O   UNL A   1      43.928  38.082  31.415  1.00  0.00    -0.237 OA
ATOM     77  O   UNL A   1      43.038  37.433  33.620  1.00  0.00    -0.744 OA
ENDBRANCH  73  74
ENDBRANCH  52  66
BRANCH  53  78
ATOM     78  C   UNL A   1      42.544  23.669  27.690  1.00  0.00     0.058 A 
ATOM     79  C   UNL A   1      42.587  23.433  26.308  1.00  0.00     0.135 A 
ATOM     80  C   UNL A   1      42.362  22.567  28.537  1.00  0.00     0.135 A 
ATOM     81  F   UNL A   1      42.757  24.457  25.458  1.00  0.00    -0.206 F 
ATOM     82  C   UNL A   1      42.446  22.153  25.782  1.00  0.00     0.059 A 
ATOM     83  C   UNL A   1      42.239  21.273  28.036  1.00  0.00     0.059 A 
ATOM     84  F   UNL A   1      42.334  22.738  29.869  1.00  0.00    -0.206 F 
ATOM     85  C   UNL A   1      42.276  21.078  26.656  1.00  0.00     0.060 A 
BRANCH  85  86
ATOM     86  S   UNL A   1      42.157  19.414  25.964  1.00  0.00     0.124 S 
ATOM     87  O   UNL A   1      40.721  19.288  25.746  1.00  0.00    -0.237 OA
ATOM     88  O   UNL A   1      42.978  19.524  24.761  1.00  0.00    -0.237 OA
ATOM     89  O   UNL A   1      42.714  18.572  27.017  1.00  0.00    -0.744 OA
ENDBRANCH  85  86
ENDBRANCH  53  78
BRANCH  65  90
ATOM     90  C   UNL A   1      47.941  27.064  30.512  1.00  0.00     0.058 A 
ATOM     91  C   UNL A   1      48.973  27.171  29.568  1.00  0.00     0.135 A 
ATOM     92  C   UNL A   1      48.269  26.590  31.793  1.00  0.00     0.135 A 
ATOM     93  F   UNL A   1      48.711  27.611  28.327  1.00  0.00    -0.206 F 
ATOM     94  C   UNL A   1      50.279  26.801  29.875  1.00  0.00     0.059 A 
ATOM     95  C   UNL A   1      49.572  26.237  32.130  1.00  0.00     0.059 A 
ATOM     96  F   UNL A   1      47.319  26.476  32.736  1.00  0.00    -0.206 F 
ATOM     97  C   UNL A   1      50.569  26.336  31.159  1.00  0.00     0.060 A 
BRANCH  97  98
ATOM     98  S   UNL A   1      52.272  25.889  31.556  1.00  0.00     0.124 S 
ATOM     99  O   UNL A   1      52.938  26.106  30.276  1.00  0.00    -0.237 OA
ATOM    100  O   UNL A   1      52.607  26.839  32.612  1.00  0.00    -0.237 OA
ATOM    101  O   UNL A   1      52.167  24.498  31.984  1.00  0.00    -0.744 OA
ENDBRANCH  97  98
ENDBRANCH  65  90
ENDBRANCH  39  40
ENDBRANCH  31  34
ENDBRANCH  29  30
ENDBRANCH   1  29
TORSDOF 17
ENDMDL
MODEL 2
REMARK VINA RESULT:     -12.1      5.063     10.767
REMARK SMILES CCc1cc(N2CCC[C@H](C(=O)NCCCCNC(=O)c3ccc(-c4c5nc(c(-c6c(F)cc(S(=O)(=O)[O-])cc6F)c6ccc([nH]6)c(-c6c(F)cc(S(=O)(=O)[O-])cc6F)c6nc(c(-c7c(F)cc(S(=O)(=O)[O-])cc7F)c7ccc4[nH]7)C=C6)C=C5)cc3)C2)nc(-c2ccc(Cl)cc2)n1
REMARK SMILES IDX 16 1 15 2 14 3 13 4 11 5 12 6 10 8 6 9 7 10 87 11 8 12 9 13
REMARK SMILES IDX 5 14 3 15 4 16 97 17 89 18 88 19 2 20 1 21 90 22 91 23 96 24
REMARK SMILES IDX 92 25 95 26 93 27 94 28 17 29 18 30 19 31 20 33 21 34 22 35
REMARK SMILES IDX 86 36 23 37 85 38 24 39 25 40 26 41 79 42 27 43 84 44 78 45
REMARK SMILES IDX 80 46 28 47 83 48 77 49 76 50 29 52 63 53 42 54 62 55 43 56
REMARK SMILES IDX 46 57 61 58 81 59 44 60 45 61 60 63 82 64 47 65 30 66 31 67
REMARK SMILES IDX 40 68 32 69 33 70 39 71 41 72 34 73 35 74 36 75 37 76 38 77
REMARK SMILES IDX 64 78 65 79 74 80 66 81 67 82 73 83 75 84 68 85 69 86 70 87
REMARK SMILES IDX 71 88 72 89 48 90 49 91 58 92 50 93 51 94 57 95 59 96 52 97
REMARK SMILES IDX 53 98 54 99 55 100 56 101
REMARK H PARENT 13 7 18 32 80 51 46 62
REMARK Flexibility Score: inf
ROOT
ATOM      1  C   UNL A   1      39.264  23.003  26.935  1.00  0.00     0.023 C 
ENDROOT
BRANCH   1   2
ATOM      2  C   UNL A   1      39.005  21.810  26.023  1.00  0.00     0.023 C 
BRANCH   2   3
ATOM      3  C   UNL A   1      37.623  21.799  25.376  1.00  0.00     0.116 C 
BRANCH   3   4
ATOM      4  N   UNL A   1      36.576  22.294  26.240  1.00  0.00    -0.356 N 
ATOM      5  C   UNL A   1      35.250  22.457  26.006  1.00  0.00     0.224 C 
ATOM      6  O   UNL A   1      34.536  22.691  26.990  1.00  0.00    -0.275 OA
ATOM      7  H   UNL A   1      36.872  22.553  27.143  1.00  0.00     0.163 HD
BRANCH   5   8
ATOM      8  C   UNL A   1      34.601  22.395  24.619  1.00  0.00     0.098 C 
ATOM      9  N   UNL A   1      32.476  23.637  24.379  1.00  0.00    -0.356 N 
ATOM     10  C   UNL A   1      31.727  22.510  23.856  1.00  0.00     0.118 C 
ATOM     11  C   UNL A   1      33.916  23.689  24.184  1.00  0.00     0.131 C 
ATOM     12  C   UNL A   1      32.302  21.205  24.411  1.00  0.00     0.022 C 
ATOM     13  C   UNL A   1      33.824  21.107  24.319  1.00  0.00     0.017 C 
BRANCH   9  14
ATOM     14  C   UNL A   1      31.838  24.836  24.629  1.00  0.00     0.132 A 
ATOM     15  C   UNL A   1      30.010  26.312  24.423  1.00  0.00     0.046 A 
ATOM     16  C   UNL A   1      30.561  25.076  24.156  1.00  0.00     0.070 A 
ATOM     17  N   UNL A   1      30.662  27.230  25.151  1.00  0.00    -0.233 NA
ATOM     18  C   UNL A   1      31.904  26.929  25.558  1.00  0.00     0.161 A 
ATOM     19  N   UNL A   1      32.534  25.772  25.302  1.00  0.00    -0.211 NA
BRANCH  15  20
ATOM     20  C   UNL A   1      28.666  26.695  23.857  1.00  0.00     0.053 C 
ATOM     21  C   UNL A   1      28.668  28.026  23.110  1.00  0.00     0.011 C 
ENDBRANCH  15  20
BRANCH  18  22
ATOM     22  C   UNL A   1      32.622  28.016  26.228  1.00  0.00     0.019 A 
ATOM     23  C   UNL A   1      31.984  29.249  26.463  1.00  0.00     0.013 A 
ATOM     24  C   UNL A   1      33.991  27.910  26.529  1.00  0.00     0.013 A 
ATOM     25  C   UNL A   1      32.699  30.358  26.925  1.00  0.00     0.021 A 
ATOM     26  C   UNL A   1      34.713  29.023  26.977  1.00  0.00     0.021 A 
ATOM     27  C   UNL A   1      34.067  30.246  27.152  1.00  0.00     0.041 A 
ATOM     28  Cl  UNL A   1      34.963  31.622  27.660  1.00  0.00    -0.084 Cl
ENDBRANCH  18  22
ENDBRANCH   9  14
ENDBRANCH   5   8
ENDBRANCH   3   4
ENDBRANCH   2   3
ENDBRANCH   1   2
BRANCH   1  29
ATOM     29  C   UNL A   1      40.710  23.487  26.985  1.00  0.00     0.116 C 
BRANCH  29  30
ATOM     30  N   UNL A   1      41.099  24.365  25.889  1.00  0.00    -0.352 N 
ATOM     31  C   UNL A   1      41.399  25.711  25.950  1.00  0.00     0.251 C 
ATOM     32  H   UNL A   1      41.154  23.950  24.998  1.00  0.00     0.163 HD
ATOM     33  O   UNL A   1      41.649  26.347  24.930  1.00  0.00    -0.269 OA
BRANCH  31  34
ATOM     34  C   UNL A   1      41.383  26.386  27.268  1.00  0.00     0.039 A 
ATOM     35  C   UNL A   1      42.520  27.056  27.723  1.00  0.00     0.014 A 
ATOM     36  C   UNL A   1      40.203  26.422  28.013  1.00  0.00     0.014 A 
ATOM     37  C   UNL A   1      42.438  27.842  28.877  1.00  0.00     0.010 A 
ATOM     38  C   UNL A   1      40.102  27.251  29.119  1.00  0.00     0.010 A 
ATOM     39  C   UNL A   1      41.214  27.981  29.554  1.00  0.00    -0.014 A 
BRANCH  39  40
ATOM     40  C   UNL A   1      41.039  28.920  30.687  1.00  0.00     0.031 A 
ATOM     41  C   UNL A   1      41.870  28.768  31.928  1.00  0.00     0.074 A 
ATOM     42  C   UNL A   1      40.032  29.815  30.643  1.00  0.00     0.049 A 
ATOM     43  N   UNL A   1      41.790  29.415  33.062  1.00  0.00    -0.248 NA
ATOM     44  C   UNL A   1      42.902  27.721  31.904  1.00  0.00     0.031 C 
ATOM     45  C   UNL A   1      39.105  29.991  29.522  1.00  0.00     0.029 A 
ATOM     46  N   UNL A   1      39.608  30.732  31.570  1.00  0.00    -0.354 N 
ATOM     47  C   UNL A   1      42.741  28.837  33.894  1.00  0.00     0.074 A 
ATOM     48  C   UNL A   1      43.349  27.754  33.151  1.00  0.00     0.031 C 
ATOM     49  C   UNL A   1      38.239  30.974  29.817  1.00  0.00     0.029 A 
ATOM     50  C   UNL A   1      38.531  31.478  31.155  1.00  0.00     0.049 A 
ATOM     51  H   UNL A   1      40.035  30.845  32.450  1.00  0.00     0.167 HD
ATOM     52  C   UNL A   1      43.090  29.192  35.155  1.00  0.00     0.037 A 
ATOM     53  C   UNL A   1      37.860  32.463  31.782  1.00  0.00     0.037 A 
ATOM     54  C   UNL A   1      42.496  30.294  35.868  1.00  0.00     0.049 A 
ATOM     55  C   UNL A   1      38.299  32.878  33.159  1.00  0.00     0.074 A 
ATOM     56  C   UNL A   1      42.826  30.795  37.113  1.00  0.00     0.029 A 
ATOM     57  N   UNL A   1      41.445  31.067  35.392  1.00  0.00    -0.354 N 
ATOM     58  N   UNL A   1      39.255  32.378  33.905  1.00  0.00    -0.248 NA
ATOM     59  C   UNL A   1      37.576  33.998  33.777  1.00  0.00     0.031 C 
ATOM     60  C   UNL A   1      41.956  31.853  37.404  1.00  0.00     0.029 A 
ATOM     61  C   UNL A   1      41.109  32.037  36.323  1.00  0.00     0.049 A 
ATOM     62  H   UNL A   1      41.003  30.944  34.521  1.00  0.00     0.167 HD
ATOM     63  C   UNL A   1      39.271  33.140  35.067  1.00  0.00     0.074 A 
ATOM     64  C   UNL A   1      38.231  34.140  34.921  1.00  0.00     0.031 C 
ATOM     65  C   UNL A   1      40.075  33.027  36.153  1.00  0.00     0.037 A 
BRANCH  52  66
ATOM     66  C   UNL A   1      44.170  28.390  35.829  1.00  0.00     0.058 A 
ATOM     67  C   UNL A   1      45.531  28.697  35.659  1.00  0.00     0.135 A 
ATOM     68  C   UNL A   1      43.847  27.308  36.664  1.00  0.00     0.135 A 
ATOM     69  F   UNL A   1      45.901  29.714  34.865  1.00  0.00    -0.206 F 
ATOM     70  C   UNL A   1      46.531  27.935  36.255  1.00  0.00     0.059 A 
ATOM     71  C   UNL A   1      44.831  26.550  37.296  1.00  0.00     0.059 A 
ATOM     72  F   UNL A   1      42.564  26.972  36.870  1.00  0.00    -0.206 F 
ATOM     73  C   UNL A   1      46.171  26.859  37.067  1.00  0.00     0.060 A 
BRANCH  73  74
ATOM     74  S   UNL A   1      47.481  25.876  37.829  1.00  0.00     0.124 S 
ATOM     75  O   UNL A   1      48.328  26.916  38.405  1.00  0.00    -0.237 OA
ATOM     76  O   UNL A   1      46.744  25.057  38.786  1.00  0.00    -0.237 OA
ATOM     77  O   UNL A   1      48.058  25.149  36.702  1.00  0.00    -0.744 OA
ENDBRANCH  73  74
ENDBRANCH  52  66
BRANCH  53  78
ATOM     78  C   UNL A   1      36.757  33.169  31.081  1.00  0.00     0.058 A 
ATOM     79  C   UNL A   1      37.042  34.123  30.093  1.00  0.00     0.135 A 
ATOM     80  C   UNL A   1      35.410  32.884  31.347  1.00  0.00     0.135 A 
ATOM     81  F   UNL A   1      38.315  34.430  29.805  1.00  0.00    -0.206 F 
ATOM     82  C   UNL A   1      36.030  34.779  29.399  1.00  0.00     0.059 A 
ATOM     83  C   UNL A   1      34.380  33.513  30.653  1.00  0.00     0.059 A 
ATOM     84  F   UNL A   1      35.086  31.964  32.269  1.00  0.00    -0.206 F 
ATOM     85  C   UNL A   1      34.701  34.464  29.684  1.00  0.00     0.060 A 
BRANCH  85  86
ATOM     86  S   UNL A   1      33.399  35.277  28.733  1.00  0.00     0.124 S 
ATOM     87  O   UNL A   1      34.169  35.951  27.695  1.00  0.00    -0.237 OA
ATOM     88  O   UNL A   1      32.588  34.145  28.293  1.00  0.00    -0.237 OA
ATOM     89  O   UNL A   1      32.761  36.149  29.715  1.00  0.00    -0.744 OA
ENDBRANCH  85  86
ENDBRANCH  53  78
BRANCH  65  90
ATOM     90  C   UNL A   1      39.884  34.031  37.254  1.00  0.00     0.058 A 
ATOM     91  C   UNL A   1      40.482  35.299  37.209  1.00  0.00     0.135 A 
ATOM     92  C   UNL A   1      39.054  33.733  38.347  1.00  0.00     0.135 A 
ATOM     93  F   UNL A   1      41.290  35.629  36.190  1.00  0.00    -0.206 F 
ATOM     94  C   UNL A   1      40.283  36.231  38.223  1.00  0.00     0.059 A 
ATOM     95  C   UNL A   1      38.820  34.658  39.359  1.00  0.00     0.059 A 
ATOM     96  F   UNL A   1      38.451  32.536  38.434  1.00  0.00    -0.206 F 
ATOM     97  C   UNL A   1      39.449  35.902  39.293  1.00  0.00     0.060 A 
BRANCH  97  98
ATOM     98  S   UNL A   1      39.172  37.131  40.586  1.00  0.00     0.124 S 
ATOM     99  O   UNL A   1      38.642  36.306  41.666  1.00  0.00    -0.237 OA
ATOM    100  O   UNL A   1      40.512  37.669  40.800  1.00  0.00    -0.237 OA
ATOM    101  O   UNL A   1      38.222  38.057  39.977  1.00  0.00    -0.744 OA
ENDBRANCH  97  98
ENDBRANCH  65  90
ENDBRANCH  39  40
ENDBRANCH  31  34
ENDBRANCH  29  30
ENDBRANCH   1  29
TORSDOF 17
ENDMDL
MODEL 3
REMARK VINA RESULT:     -11.8      2.564      3.253
REMARK SMILES CCc1cc(N2CCC[C@H](C(=O)NCCCCNC(=O)c3ccc(-c4c5nc(c(-c6c(F)cc(S(=O)(=O)[O-])cc6F)c6ccc([nH]6)c(-c6c(F)cc(S(=O)(=O)[O-])cc6F)c6nc(c(-c7c(F)cc(S(=O)(=O)[O-])cc7F)c7ccc4[nH]7)C=C6)C=C5)cc3)C2)nc(-c2ccc(Cl)cc2)n1
REMARK SMILES IDX 16 1 15 2 14 3 13 4 11 5 12 6 10 8 6 9 7 10 87 11 8 12 9 13
REMARK SMILES IDX 5 14 3 15 4 16 97 17 89 18 88 19 2 20 1 21 90 22 91 23 96 24
REMARK SMILES IDX 92 25 95 26 93 27 94 28 17 29 18 30 19 31 20 33 21 34 22 35
REMARK SMILES IDX 86 36 23 37 85 38 24 39 25 40 26 41 79 42 27 43 84 44 78 45
REMARK SMILES IDX 80 46 28 47 83 48 77 49 76 50 29 52 63 53 42 54 62 55 43 56
REMARK SMILES IDX 46 57 61 58 81 59 44 60 45 61 60 63 82 64 47 65 30 66 31 67
REMARK SMILES IDX 40 68 32 69 33 70 39 71 41 72 34 73 35 74 36 75 37 76 38 77
REMARK SMILES IDX 64 78 65 79 74 80 66 81 67 82 73 83 75 84 68 85 69 86 70 87
REMARK SMILES IDX 71 88 72 89 48 90 49 91 58 92 50 93 51 94 57 95 59 96 52 97
REMARK SMILES IDX 53 98 54 99 55 100 56 101
REMARK H PARENT 13 7 18 32 80 51 46 62
REMARK Flexibility Score: inf
ROOT
ATOM      1  C   UNL A   1      33.038  28.220  25.752  1.00  0.00     0.023 C 
ENDROOT
BRANCH   1   2
ATOM      2  C   UNL A   1      33.692  26.955  25.211  1.00  0.00     0.023 C 
BRANCH   2   3
ATOM      3  C   UNL A   1      33.184  25.662  25.841  1.00  0.00     0.116 C 
BRANCH   3   4
ATOM      4  N   UNL A   1      31.814  25.740  26.294  1.00  0.00    -0.356 N 
ATOM      5  C   UNL A   1      30.692  25.159  25.796  1.00  0.00     0.224 C 
ATOM      6  O   UNL A   1      29.679  25.211  26.505  1.00  0.00    -0.275 OA
ATOM      7  H   UNL A   1      31.671  26.301  27.089  1.00  0.00     0.163 HD
BRANCH   5   8
ATOM      8  C   UNL A   1      30.603  24.481  24.426  1.00  0.00     0.098 C 
ATOM      9  N   UNL A   1      32.657  23.330  23.668  1.00  0.00    -0.356 N 
ATOM     10  C   UNL A   1      32.724  24.016  22.391  1.00  0.00     0.118 C 
ATOM     11  C   UNL A   1      31.368  23.163  24.321  1.00  0.00     0.131 C 
ATOM     12  C   UNL A   1      32.102  25.408  22.518  1.00  0.00     0.022 C 
ATOM     13  C   UNL A   1      30.746  25.421  23.222  1.00  0.00     0.017 C 
BRANCH   9  14
ATOM     14  C   UNL A   1      33.661  22.458  24.039  1.00  0.00     0.132 A 
ATOM     15  C   UNL A   1      35.927  21.914  24.403  1.00  0.00     0.046 A 
ATOM     16  C   UNL A   1      34.984  22.859  24.052  1.00  0.00     0.070 A 
ATOM     17  N   UNL A   1      35.576  20.672  24.764  1.00  0.00    -0.233 NA
ATOM     18  C   UNL A   1      34.275  20.355  24.707  1.00  0.00     0.161 A 
ATOM     19  N   UNL A   1      33.298  21.194  24.331  1.00  0.00    -0.211 NA
BRANCH  15  20
ATOM     20  C   UNL A   1      37.399  22.236  24.343  1.00  0.00     0.053 C 
ATOM     21  C   UNL A   1      38.175  21.810  25.586  1.00  0.00     0.011 C 
ENDBRANCH  15  20
BRANCH  18  22
ATOM     22  C   UNL A   1      33.962  18.949  24.976  1.00  0.00     0.019 A 
ATOM     23  C   UNL A   1      34.707  17.925  24.360  1.00  0.00     0.013 A 
ATOM     24  C   UNL A   1      32.839  18.583  25.739  1.00  0.00     0.013 A 
ATOM     25  C   UNL A   1      34.313  16.588  24.448  1.00  0.00     0.021 A 
ATOM     26  C   UNL A   1      32.432  17.246  25.818  1.00  0.00     0.021 A 
ATOM     27  C   UNL A   1      33.159  16.258  25.154  1.00  0.00     0.041 A 
ATOM     28  Cl  UNL A   1      32.634  14.623  25.215  1.00  0.00    -0.084 Cl
ENDBRANCH  18  22
ENDBRANCH   9  14
ENDBRANCH   5   8
ENDBRANCH   3   4
ENDBRANCH   2   3
ENDBRANCH   1   2
BRANCH   1  29
ATOM     29  C   UNL A   1      33.623  28.751  27.058  1.00  0.00     0.116 C 
BRANCH  29  30
ATOM     30  N   UNL A   1      33.681  30.204  27.155  1.00  0.00    -0.352 N 
ATOM     31  C   UNL A   1      34.695  30.976  27.684  1.00  0.00     0.251 C 
ATOM     32  H   UNL A   1      32.904  30.694  26.802  1.00  0.00     0.163 HD
ATOM     33  O   UNL A   1      34.583  32.196  27.761  1.00  0.00    -0.269 OA
BRANCH  31  34
ATOM     34  C   UNL A   1      35.915  30.304  28.189  1.00  0.00     0.039 A 
ATOM     35  C   UNL A   1      37.091  30.338  27.439  1.00  0.00     0.014 A 
ATOM     36  C   UNL A   1      35.905  29.711  29.451  1.00  0.00     0.014 A 
ATOM     37  C   UNL A   1      38.280  29.864  28.003  1.00  0.00     0.010 A 
ATOM     38  C   UNL A   1      37.092  29.299  30.037  1.00  0.00     0.010 A 
ATOM     39  C   UNL A   1      38.293  29.385  29.325  1.00  0.00    -0.014 A 
BRANCH  39  40
ATOM     40  C   UNL A   1      39.549  29.016  30.020  1.00  0.00     0.031 A 
ATOM     41  C   UNL A   1      40.018  29.813  31.203  1.00  0.00     0.074 A 
ATOM     42  C   UNL A   1      40.330  28.053  29.491  1.00  0.00     0.049 A 
ATOM     43  N   UNL A   1      41.137  29.719  31.874  1.00  0.00    -0.248 NA
ATOM     44  C   UNL A   1      39.125  30.885  31.669  1.00  0.00     0.031 C 
ATOM     45  C   UNL A   1      40.016  27.274  28.291  1.00  0.00     0.029 A 
ATOM     46  N   UNL A   1      41.556  27.579  29.882  1.00  0.00    -0.354 N 
ATOM     47  C   UNL A   1      41.095  30.734  32.822  1.00  0.00     0.074 A 
ATOM     48  C   UNL A   1      39.864  31.463  32.605  1.00  0.00     0.031 C 
ATOM     49  C   UNL A   1      41.009  26.401  28.060  1.00  0.00     0.029 A 
ATOM     50  C   UNL A   1      42.042  26.577  29.076  1.00  0.00     0.049 A 
ATOM     51  H   UNL A   1      42.042  27.924  30.666  1.00  0.00     0.167 HD
ATOM     52  C   UNL A   1      41.992  31.018  33.798  1.00  0.00     0.037 A 
ATOM     53  C   UNL A   1      43.189  25.876  29.155  1.00  0.00     0.037 A 
ATOM     54  C   UNL A   1      43.198  30.261  34.019  1.00  0.00     0.049 A 
ATOM     55  C   UNL A   1      44.145  26.170  30.278  1.00  0.00     0.074 A 
ATOM     56  C   UNL A   1      44.136  30.406  35.024  1.00  0.00     0.029 A 
ATOM     57  N   UNL A   1      43.630  29.213  33.216  1.00  0.00    -0.354 N 
ATOM     58  N   UNL A   1      44.056  27.079  31.219  1.00  0.00    -0.248 NA
ATOM     59  C   UNL A   1      45.352  25.337  30.357  1.00  0.00     0.031 C 
ATOM     60  C   UNL A   1      45.151  29.465  34.814  1.00  0.00     0.029 A 
ATOM     61  C   UNL A   1      44.826  28.707  33.701  1.00  0.00     0.049 A 
ATOM     62  H   UNL A   1      43.157  28.879  32.421  1.00  0.00     0.167 HD
ATOM     63  C   UNL A   1      45.177  26.909  32.021  1.00  0.00     0.074 A 
ATOM     64  C   UNL A   1      45.928  25.805  31.457  1.00  0.00     0.031 C 
ATOM     65  C   UNL A   1      45.551  27.600  33.127  1.00  0.00     0.037 A 
BRANCH  52  66
ATOM     66  C   UNL A   1      41.690  32.183  34.701  1.00  0.00     0.058 A 
ATOM     67  C   UNL A   1      40.920  32.031  35.866  1.00  0.00     0.135 A 
ATOM     68  C   UNL A   1      42.185  33.465  34.410  1.00  0.00     0.135 A 
ATOM     69  F   UNL A   1      40.412  30.832  36.190  1.00  0.00    -0.206 F 
ATOM     70  C   UNL A   1      40.612  33.115  36.684  1.00  0.00     0.059 A 
ATOM     71  C   UNL A   1      41.915  34.558  35.232  1.00  0.00     0.059 A 
ATOM     72  F   UNL A   1      42.934  33.670  33.316  1.00  0.00    -0.206 F 
ATOM     73  C   UNL A   1      41.110  34.375  36.355  1.00  0.00     0.060 A 
BRANCH  73  74
ATOM     74  S   UNL A   1      40.697  35.772  37.423  1.00  0.00     0.124 S 
ATOM     75  O   UNL A   1      39.817  36.550  36.557  1.00  0.00    -0.237 OA
ATOM     76  O   UNL A   1      40.053  35.122  38.559  1.00  0.00    -0.237 OA
ATOM     77  O   UNL A   1      41.995  36.378  37.706  1.00  0.00    -0.744 OA
ENDBRANCH  73  74
ENDBRANCH  52  66
BRANCH  53  78
ATOM     78  C   UNL A   1      43.454  24.781  28.186  1.00  0.00     0.058 A 
ATOM     79  C   UNL A   1      43.020  23.475  28.456  1.00  0.00     0.135 A 
ATOM     80  C   UNL A   1      44.103  25.016  26.965  1.00  0.00     0.135 A 
ATOM     81  F   UNL A   1      42.396  23.202  29.612  1.00  0.00    -0.206 F 
ATOM     82  C   UNL A   1      43.228  22.436  27.556  1.00  0.00     0.059 A 
ATOM     83  C   UNL A   1      44.305  23.997  26.038  1.00  0.00     0.059 A 
ATOM     84  F   UNL A   1      44.519  26.253  26.651  1.00  0.00    -0.206 F 
ATOM     85  C   UNL A   1      43.869  22.708  26.346  1.00  0.00     0.060 A 
BRANCH  85  86
ATOM     86  S   UNL A   1      44.077  21.364  25.159  1.00  0.00     0.124 S 
ATOM     87  O   UNL A   1      43.980  22.074  23.889  1.00  0.00    -0.237 OA
ATOM     88  O   UNL A   1      45.399  20.851  25.505  1.00  0.00    -0.237 OA
ATOM     89  O   UNL A   1      42.967  20.468  25.469  1.00  0.00    -0.744 OA
ENDBRANCH  85  86
ENDBRANCH  53  78
BRANCH  65  90
ATOM     90  C   UNL A   1      46.810  27.159  33.818  1.00  0.00     0.058 A 
ATOM     91  C   UNL A   1      48.058  27.715  33.504  1.00  0.00     0.135 A 
ATOM     92  C   UNL A   1      46.756  26.197  34.840  1.00  0.00     0.135 A 
ATOM     93  F   UNL A   1      48.164  28.632  32.529  1.00  0.00    -0.206 F 
ATOM     94  C   UNL A   1      49.217  27.316  34.164  1.00  0.00     0.059 A 
ATOM     95  C   UNL A   1      47.897  25.801  35.530  1.00  0.00     0.059 A 
ATOM     96  F   UNL A   1      45.584  25.640  35.184  1.00  0.00    -0.206 F 
ATOM     97  C   UNL A   1      49.126  26.359  35.176  1.00  0.00     0.060 A 
BRANCH  97  98
ATOM     98  S   UNL A   1      50.630  25.873  36.048  1.00  0.00     0.124 S 
ATOM     99  O   UNL A   1      50.314  26.263  37.418  1.00  0.00    -0.237 OA
ATOM    100  O   UNL A   1      50.688  24.437  35.796  1.00  0.00    -0.237 OA
ATOM    101  O   UNL A   1      51.671  26.659  35.394  1.00  0.00    -0.744 OA
ENDBRANCH  97  98
ENDBRANCH  65  90
ENDBRANCH  39  40
ENDBRANCH  31  34
ENDBRANCH  29  30
ENDBRANCH   1  29
TORSDOF 17
ENDMDL
