MODEL 1
REMARK VINA RESULT:     -11.6      0.000      0.000
REMARK SMILES Cc1oc(CNC(=O)c2ccnn2C)cc1C(=O)NCCCCNC(=O)c1ccc(-c2c3nc(c(-c4c(F)cc(S(=O)(=O)[O-])cc4F)c4ccc([nH]4)c(-c4c(F)cc(S(=O)(=O)[O-])cc4F)c4nc(c(-c5c(F)cc(S(=O)(=O)[O-])cc5F)c5ccc2[nH]5)C=C4)C=C3)cc1
REMARK SMILES IDX 21 1 20 2 19 3 17 4 18 5 16 7 1 8 2 9 3 10 4 11 15 12 5 13
REMARK SMILES IDX 6 14 7 15 8 17 9 18 10 19 13 20 11 21 12 22 14 23 22 24
REMARK SMILES IDX 23 25 24 26 25 27 26 29 27 30 28 31 92 32 29 33 91 34 30 35
REMARK SMILES IDX 31 36 32 37 85 38 33 39 90 40 84 41 86 42 34 43 89 44 83 45
REMARK SMILES IDX 82 46 35 48 69 49 48 50 68 51 49 52 52 53 67 54 87 55 50 56
REMARK SMILES IDX 51 57 66 59 88 60 53 61 36 62 37 63 46 64 38 65 39 66 45 67
REMARK SMILES IDX 47 68 40 69 41 70 42 71 43 72 44 73 70 74 71 75 80 76 72 77
REMARK SMILES IDX 73 78 79 79 81 80 74 81 75 82 76 83 77 84 78 85 54 86 55 87
REMARK SMILES IDX 64 88 56 89 57 90 63 91 65 92 58 93 59 94 60 95 61 96 62 97
REMARK H PARENT 19 6 6 16 24 28 86 47 52 58
REMARK Flexibility Score: inf
ROOT
ATOM      1  C   UNL A   1      32.907  29.577  24.981  1.00  0.00     0.023 C 
ENDROOT
BRANCH   1   2
ATOM      2  C   UNL A   1      31.391  29.687  25.126  1.00  0.00     0.116 C 
BRANCH   2   3
ATOM      3  N   UNL A   1      30.756  29.656  23.833  1.00  0.00    -0.352 N 
ATOM      4  C   UNL A   1      30.629  28.694  22.873  1.00  0.00     0.254 C 
ATOM      5  O   UNL A   1      29.974  29.031  21.881  1.00  0.00    -0.269 OA
ATOM      6  H   UNL A   1      30.324  30.507  23.591  1.00  0.00     0.163 HD
BRANCH   4   7
ATOM      7  C   UNL A   1      31.138  27.326  22.962  1.00  0.00     0.081 A 
ATOM      8  C   UNL A   1      33.563  26.965  21.865  1.00  0.00     0.088 C 
ATOM      9  C   UNL A   1      32.302  26.665  22.572  1.00  0.00     0.113 A 
ATOM     10  O   UNL A   1      32.230  25.343  22.910  1.00  0.00    -0.464 OA
ATOM     11  C   UNL A   1      31.018  25.107  23.461  1.00  0.00     0.124 A 
ATOM     12  C   UNL A   1      30.311  26.279  23.514  1.00  0.00     0.061 A 
BRANCH  11  13
ATOM     13  C   UNL A   1      30.735  23.720  23.888  1.00  0.00     0.191 C 
BRANCH  13  14
ATOM     14  N   UNL A   1      30.431  23.703  25.304  1.00  0.00    -0.343 N 
ATOM     15  C   UNL A   1      31.276  23.493  26.360  1.00  0.00     0.269 C 
ATOM     16  H   UNL A   1      29.488  23.863  25.540  1.00  0.00     0.164 HD
ATOM     17  O   UNL A   1      30.785  23.293  27.471  1.00  0.00    -0.268 OA
BRANCH  15  18
ATOM     18  C   UNL A   1      32.694  23.502  26.134  1.00  0.00     0.125 A 
ATOM     19  C   UNL A   1      33.531  24.599  26.035  1.00  0.00     0.055 A 
ATOM     20  N   UNL A   1      33.499  22.422  25.870  1.00  0.00    -0.263 N 
ATOM     21  C   UNL A   1      34.811  24.072  25.808  1.00  0.00     0.136 A 
ATOM     22  N   UNL A   1      34.802  22.741  25.726  1.00  0.00    -0.181 NA
ATOM     23  C   UNL A   1      33.111  21.039  25.717  1.00  0.00     0.174 C 
ENDBRANCH  15  18
ENDBRANCH  13  14
ENDBRANCH  11  13
ENDBRANCH   4   7
ENDBRANCH   2   3
ENDBRANCH   1   2
BRANCH   1  24
ATOM     24  C   UNL A   1      33.541  28.380  25.698  1.00  0.00     0.023 C 
BRANCH  24  25
ATOM     25  C   UNL A   1      33.658  28.519  27.212  1.00  0.00     0.116 C 
BRANCH  25  26
ATOM     26  N   UNL A   1      33.539  29.892  27.674  1.00  0.00    -0.352 N 
ATOM     27  C   UNL A   1      34.494  30.671  28.283  1.00  0.00     0.251 C 
ATOM     28  H   UNL A   1      32.663  30.318  27.533  1.00  0.00     0.163 HD
ATOM     29  O   UNL A   1      34.205  31.788  28.698  1.00  0.00    -0.269 OA
BRANCH  27  30
ATOM     30  C   UNL A   1      35.853  30.127  28.480  1.00  0.00     0.039 A 
ATOM     31  C   UNL A   1      36.746  30.161  27.407  1.00  0.00     0.014 A 
ATOM     32  C   UNL A   1      36.252  29.624  29.721  1.00  0.00     0.014 A 
ATOM     33  C   UNL A   1      38.068  29.756  27.597  1.00  0.00     0.010 A 
ATOM     34  C   UNL A   1      37.582  29.263  29.921  1.00  0.00     0.010 A 
ATOM     35  C   UNL A   1      38.501  29.338  28.865  1.00  0.00    -0.014 A 
BRANCH  35  36
ATOM     36  C   UNL A   1      39.922  28.999  29.114  1.00  0.00     0.031 A 
ATOM     37  C   UNL A   1      40.858  30.031  29.671  1.00  0.00     0.074 A 
ATOM     38  C   UNL A   1      40.381  27.784  28.759  1.00  0.00     0.049 A 
ATOM     39  N   UNL A   1      42.149  29.955  29.862  1.00  0.00    -0.248 NA
ATOM     40  C   UNL A   1      40.267  31.328  30.038  1.00  0.00     0.031 C 
ATOM     41  C   UNL A   1      39.576  26.716  28.161  1.00  0.00     0.029 A 
ATOM     42  N   UNL A   1      41.640  27.247  28.838  1.00  0.00    -0.354 N 
ATOM     43  C   UNL A   1      42.533  31.200  30.341  1.00  0.00     0.074 A 
ATOM     44  C   UNL A   1      41.339  32.019  30.397  1.00  0.00     0.031 C 
ATOM     45  C   UNL A   1      40.360  25.648  27.937  1.00  0.00     0.029 A 
ATOM     46  C   UNL A   1      41.724  25.964  28.355  1.00  0.00     0.049 A 
ATOM     47  H   UNL A   1      42.412  27.735  29.206  1.00  0.00     0.167 HD
ATOM     48  C   UNL A   1      43.766  31.621  30.707  1.00  0.00     0.037 A 
ATOM     49  C   UNL A   1      42.780  25.135  28.259  1.00  0.00     0.037 A 
ATOM     50  C   UNL A   1      44.944  30.794  30.686  1.00  0.00     0.049 A 
ATOM     51  C   UNL A   1      44.124  25.598  28.742  1.00  0.00     0.074 A 
ATOM     52  C   UNL A   1      46.232  31.115  31.077  1.00  0.00     0.029 A 
ATOM     53  N   UNL A   1      44.971  29.474  30.261  1.00  0.00    -0.354 N 
ATOM     54  N   UNL A   1      44.464  26.770  29.223  1.00  0.00    -0.248 NA
ATOM     55  C   UNL A   1      45.226  24.629  28.676  1.00  0.00     0.031 C 
ATOM     56  C   UNL A   1      47.041  29.989  30.882  1.00  0.00     0.029 A 
ATOM     57  C   UNL A   1      46.252  28.964  30.385  1.00  0.00     0.049 A 
ATOM     58  H   UNL A   1      44.195  28.974  29.921  1.00  0.00     0.167 HD
ATOM     59  C   UNL A   1      45.815  26.674  29.533  1.00  0.00     0.074 A 
ATOM     60  C   UNL A   1      46.229  25.328  29.190  1.00  0.00     0.031 C 
ATOM     61  C   UNL A   1      46.637  27.617  30.052  1.00  0.00     0.037 A 
BRANCH  48  62
ATOM     62  C   UNL A   1      43.895  33.044  31.159  1.00  0.00     0.058 A 
ATOM     63  C   UNL A   1      44.053  34.092  30.239  1.00  0.00     0.135 A 
ATOM     64  C   UNL A   1      43.868  33.364  32.524  1.00  0.00     0.135 A 
ATOM     65  F   UNL A   1      44.104  33.832  28.925  1.00  0.00    -0.206 F 
ATOM     66  C   UNL A   1      44.213  35.408  30.659  1.00  0.00     0.059 A 
ATOM     67  C   UNL A   1      44.010  34.676  32.965  1.00  0.00     0.059 A 
ATOM     68  F   UNL A   1      43.724  32.397  33.441  1.00  0.00    -0.206 F 
ATOM     69  C   UNL A   1      44.202  35.688  32.026  1.00  0.00     0.060 A 
BRANCH  69  70
ATOM     70  S   UNL A   1      44.437  37.393  32.572  1.00  0.00     0.124 S 
ATOM     71  O   UNL A   1      45.782  37.331  33.135  1.00  0.00    -0.237 OA
ATOM     72  O   UNL A   1      44.306  38.149  31.331  1.00  0.00    -0.237 OA
ATOM     73  O   UNL A   1      43.359  37.587  33.536  1.00  0.00    -0.744 OA
ENDBRANCH  69  70
ENDBRANCH  48  62
BRANCH  49  74
ATOM     74  C   UNL A   1      42.595  23.769  27.715  1.00  0.00     0.058 A 
ATOM     75  C   UNL A   1      42.639  23.539  26.334  1.00  0.00     0.135 A 
ATOM     76  C   UNL A   1      42.406  22.667  28.560  1.00  0.00     0.135 A 
ATOM     77  F   UNL A   1      42.817  24.567  25.490  1.00  0.00    -0.206 F 
ATOM     78  C   UNL A   1      42.497  22.262  25.804  1.00  0.00     0.059 A 
ATOM     79  C   UNL A   1      42.274  21.378  28.055  1.00  0.00     0.059 A 
ATOM     80  F   UNL A   1      42.375  22.839  29.890  1.00  0.00    -0.206 F 
ATOM     81  C   UNL A   1      42.315  21.186  26.675  1.00  0.00     0.060 A 
BRANCH  81  82
ATOM     82  S   UNL A   1      42.199  19.517  25.992  1.00  0.00     0.124 S 
ATOM     83  O   UNL A   1      43.093  19.609  24.845  1.00  0.00    -0.237 OA
ATOM     84  O   UNL A   1      42.665  18.690  27.101  1.00  0.00    -0.237 OA
ATOM     85  O   UNL A   1      40.778  19.388  25.683  1.00  0.00    -0.744 OA
ENDBRANCH  81  82
ENDBRANCH  49  74
BRANCH  61  86
ATOM     86  C   UNL A   1      48.059  27.217  30.306  1.00  0.00     0.058 A 
ATOM     87  C   UNL A   1      49.068  27.480  29.368  1.00  0.00     0.135 A 
ATOM     88  C   UNL A   1      48.422  26.611  31.517  1.00  0.00     0.135 A 
ATOM     89  F   UNL A   1      48.765  28.052  28.193  1.00  0.00    -0.206 F 
ATOM     90  C   UNL A   1      50.394  27.146  29.621  1.00  0.00     0.059 A 
ATOM     91  C   UNL A   1      49.743  26.279  31.795  1.00  0.00     0.059 A 
ATOM     92  F   UNL A   1      47.488  26.344  32.444  1.00  0.00    -0.206 F 
ATOM     93  C   UNL A   1      50.722  26.544  30.836  1.00  0.00     0.060 A 
BRANCH  93  94
ATOM     94  S   UNL A   1      52.450  26.148  31.181  1.00  0.00     0.124 S 
ATOM     95  O   UNL A   1      52.842  27.265  32.031  1.00  0.00    -0.237 OA
ATOM     96  O   UNL A   1      52.354  24.850  31.843  1.00  0.00    -0.237 OA
ATOM     97  O   UNL A   1      53.057  26.122  29.853  1.00  0.00    -0.744 OA
ENDBRANCH  93  94
ENDBRANCH  61  86
ENDBRANCH  35  36
ENDBRANCH  27  30
ENDBRANCH  25  26
ENDBRANCH  24  25
ENDBRANCH   1  24
TORSDOF 17
ENDMDL
MODEL 2
REMARK VINA RESULT:     -10.9      3.072      9.581
REMARK SMILES Cc1oc(CNC(=O)c2ccnn2C)cc1C(=O)NCCCCNC(=O)c1ccc(-c2c3nc(c(-c4c(F)cc(S(=O)(=O)[O-])cc4F)c4ccc([nH]4)c(-c4c(F)cc(S(=O)(=O)[O-])cc4F)c4nc(c(-c5c(F)cc(S(=O)(=O)[O-])cc5F)c5ccc2[nH]5)C=C4)C=C3)cc1
REMARK SMILES IDX 21 1 20 2 19 3 17 4 18 5 16 7 1 8 2 9 3 10 4 11 15 12 5 13
REMARK SMILES IDX 6 14 7 15 8 17 9 18 10 19 13 20 11 21 12 22 14 23 22 24
REMARK SMILES IDX 23 25 24 26 25 27 26 29 27 30 28 31 92 32 29 33 91 34 30 35
REMARK SMILES IDX 31 36 32 37 85 38 33 39 90 40 84 41 86 42 34 43 89 44 83 45
REMARK SMILES IDX 82 46 35 48 69 49 48 50 68 51 49 52 52 53 67 54 87 55 50 56
REMARK SMILES IDX 51 57 66 59 88 60 53 61 36 62 37 63 46 64 38 65 39 66 45 67
REMARK SMILES IDX 47 68 40 69 41 70 42 71 43 72 44 73 70 74 71 75 80 76 72 77
REMARK SMILES IDX 73 78 79 79 81 80 74 81 75 82 76 83 77 84 78 85 54 86 55 87
REMARK SMILES IDX 64 88 56 89 57 90 63 91 65 92 58 93 59 94 60 95 61 96 62 97
REMARK H PARENT 19 6 6 16 24 28 86 47 52 58
REMARK Flexibility Score: inf
ROOT
ATOM      1  C   UNL A   1      34.302  23.382  25.174  1.00  0.00     0.023 C 
ENDROOT
BRANCH   1   2
ATOM      2  C   UNL A   1      33.167  24.202  25.783  1.00  0.00     0.116 C 
BRANCH   2   3
ATOM      3  N   UNL A   1      33.632  25.514  26.150  1.00  0.00    -0.352 N 
ATOM      4  C   UNL A   1      33.523  26.744  25.570  1.00  0.00     0.254 C 
ATOM      5  O   UNL A   1      34.038  27.669  26.208  1.00  0.00    -0.269 OA
ATOM      6  H   UNL A   1      34.135  25.526  26.997  1.00  0.00     0.163 HD
BRANCH   4   7
ATOM      7  C   UNL A   1      32.811  27.043  24.327  1.00  0.00     0.081 A 
ATOM      8  C   UNL A   1      33.402  25.407  22.282  1.00  0.00     0.088 C 
ATOM      9  C   UNL A   1      32.765  26.498  23.046  1.00  0.00     0.113 A 
ATOM     10  O   UNL A   1      31.906  27.213  22.259  1.00  0.00    -0.464 OA
ATOM     11  C   UNL A   1      31.431  28.254  22.980  1.00  0.00     0.124 A 
ATOM     12  C   UNL A   1      31.952  28.201  24.246  1.00  0.00     0.061 A 
BRANCH  11  13
ATOM     13  C   UNL A   1      30.486  29.165  22.298  1.00  0.00     0.191 C 
BRANCH  13  14
ATOM     14  N   UNL A   1      29.127  28.746  22.576  1.00  0.00    -0.343 N 
ATOM     15  C   UNL A   1      27.979  29.491  22.555  1.00  0.00     0.269 C 
ATOM     16  H   UNL A   1      29.013  27.798  22.813  1.00  0.00     0.164 HD
ATOM     17  O   UNL A   1      26.958  29.006  23.040  1.00  0.00    -0.268 OA
BRANCH  15  18
ATOM     18  C   UNL A   1      28.009  30.808  21.981  1.00  0.00     0.125 A 
ATOM     19  C   UNL A   1      27.793  31.164  20.662  1.00  0.00     0.055 A 
ATOM     20  N   UNL A   1      28.358  31.978  22.608  1.00  0.00    -0.263 N 
ATOM     21  C   UNL A   1      27.942  32.558  20.623  1.00  0.00     0.136 A 
ATOM     22  N   UNL A   1      28.268  33.064  21.813  1.00  0.00    -0.181 NA
ATOM     23  C   UNL A   1      28.814  32.159  23.966  1.00  0.00     0.174 C 
ENDBRANCH  15  18
ENDBRANCH  13  14
ENDBRANCH  11  13
ENDBRANCH   4   7
ENDBRANCH   2   3
ENDBRANCH   1   2
BRANCH   1  24
ATOM     24  C   UNL A   1      35.588  23.337  26.007  1.00  0.00     0.023 C 
BRANCH  24  25
ATOM     25  C   UNL A   1      36.857  23.734  25.263  1.00  0.00     0.116 C 
BRANCH  25  26
ATOM     26  N   UNL A   1      37.943  22.781  25.429  1.00  0.00    -0.352 N 
ATOM     27  C   UNL A   1      39.134  22.956  26.092  1.00  0.00     0.251 C 
ATOM     28  H   UNL A   1      37.807  21.899  25.015  1.00  0.00     0.163 HD
ATOM     29  O   UNL A   1      39.990  22.078  26.061  1.00  0.00    -0.269 OA
BRANCH  27  30
ATOM     30  C   UNL A   1      39.394  24.231  26.790  1.00  0.00     0.039 A 
ATOM     31  C   UNL A   1      38.898  24.393  28.086  1.00  0.00     0.014 A 
ATOM     32  C   UNL A   1      40.148  25.241  26.187  1.00  0.00     0.014 A 
ATOM     33  C   UNL A   1      39.222  25.542  28.809  1.00  0.00     0.010 A 
ATOM     34  C   UNL A   1      40.508  26.365  26.926  1.00  0.00     0.010 A 
ATOM     35  C   UNL A   1      40.058  26.517  28.245  1.00  0.00    -0.014 A 
BRANCH  35  36
ATOM     36  C   UNL A   1      40.495  27.696  29.029  1.00  0.00     0.031 A 
ATOM     37  C   UNL A   1      41.818  27.684  29.736  1.00  0.00     0.074 A 
ATOM     38  C   UNL A   1      39.659  28.743  29.166  1.00  0.00     0.049 A 
ATOM     39  N   UNL A   1      42.327  28.573  30.548  1.00  0.00    -0.248 NA
ATOM     40  C   UNL A   1      42.670  26.502  29.521  1.00  0.00     0.031 C 
ATOM     41  C   UNL A   1      38.326  28.847  28.568  1.00  0.00     0.029 A 
ATOM     42  N   UNL A   1      39.802  29.913  29.866  1.00  0.00    -0.354 N 
ATOM     43  C   UNL A   1      43.543  28.049  30.967  1.00  0.00     0.074 A 
ATOM     44  C   UNL A   1      43.688  26.755  30.331  1.00  0.00     0.031 C 
ATOM     45  C   UNL A   1      37.778  30.023  28.917  1.00  0.00     0.029 A 
ATOM     46  C   UNL A   1      38.710  30.743  29.780  1.00  0.00     0.049 A 
ATOM     47  H   UNL A   1      40.610  30.138  30.381  1.00  0.00     0.167 HD
ATOM     48  C   UNL A   1      44.457  28.599  31.800  1.00  0.00     0.037 A 
ATOM     49  C   UNL A   1      38.486  31.949  30.334  1.00  0.00     0.037 A 
ATOM     50  C   UNL A   1      44.329  29.900  32.399  1.00  0.00     0.049 A 
ATOM     51  C   UNL A   1      39.548  32.572  31.195  1.00  0.00     0.074 A 
ATOM     52  C   UNL A   1      45.220  30.563  33.225  1.00  0.00     0.029 A 
ATOM     53  N   UNL A   1      43.240  30.742  32.226  1.00  0.00    -0.354 N 
ATOM     54  N   UNL A   1      40.707  32.076  31.556  1.00  0.00    -0.248 NA
ATOM     55  C   UNL A   1      39.276  33.918  31.717  1.00  0.00     0.031 C 
ATOM     56  C   UNL A   1      44.666  31.806  33.555  1.00  0.00     0.029 A 
ATOM     57  C   UNL A   1      43.439  31.921  32.924  1.00  0.00     0.049 A 
ATOM     58  H   UNL A   1      42.444  30.533  31.687  1.00  0.00     0.167 HD
ATOM     59  C   UNL A   1      41.311  33.055  32.334  1.00  0.00     0.074 A 
ATOM     60  C   UNL A   1      40.392  34.174  32.388  1.00  0.00     0.031 C 
ATOM     61  C   UNL A   1      42.517  33.027  32.951  1.00  0.00     0.037 A 
BRANCH  48  62
ATOM     62  C   UNL A   1      45.677  27.782  32.107  1.00  0.00     0.058 A 
ATOM     63  C   UNL A   1      45.714  26.906  33.201  1.00  0.00     0.135 A 
ATOM     64  C   UNL A   1      46.823  27.883  31.305  1.00  0.00     0.135 A 
ATOM     65  F   UNL A   1      44.649  26.791  34.008  1.00  0.00    -0.206 F 
ATOM     66  C   UNL A   1      46.858  26.179  33.511  1.00  0.00     0.059 A 
ATOM     67  C   UNL A   1      47.973  27.153  31.587  1.00  0.00     0.059 A 
ATOM     68  F   UNL A   1      46.838  28.711  30.250  1.00  0.00    -0.206 F 
ATOM     69  C   UNL A   1      47.987  26.319  32.704  1.00  0.00     0.060 A 
BRANCH  69  70
ATOM     70  S   UNL A   1      49.482  25.396  33.122  1.00  0.00     0.124 S 
ATOM     71  O   UNL A   1      49.972  25.029  31.796  1.00  0.00    -0.237 OA
ATOM     72  O   UNL A   1      50.280  26.383  33.839  1.00  0.00    -0.237 OA
ATOM     73  O   UNL A   1      48.977  24.293  33.933  1.00  0.00    -0.744 OA
ENDBRANCH  69  70
ENDBRANCH  48  62
BRANCH  49  74
ATOM     74  C   UNL A   1      37.214  32.659  30.060  1.00  0.00     0.058 A 
ATOM     75  C   UNL A   1      36.071  32.396  30.825  1.00  0.00     0.135 A 
ATOM     76  C   UNL A   1      37.126  33.634  29.056  1.00  0.00     0.135 A 
ATOM     77  F   UNL A   1      36.112  31.470  31.795  1.00  0.00    -0.206 F 
ATOM     78  C   UNL A   1      34.877  33.072  30.603  1.00  0.00     0.059 A 
ATOM     79  C   UNL A   1      35.946  34.332  28.823  1.00  0.00     0.059 A 
ATOM     80  F   UNL A   1      38.201  33.930  28.312  1.00  0.00    -0.206 F 
ATOM     81  C   UNL A   1      34.824  34.039  29.598  1.00  0.00     0.060 A 
BRANCH  81  82
ATOM     82  S   UNL A   1      33.293  34.966  29.354  1.00  0.00     0.124 S 
ATOM     83  O   UNL A   1      33.800  36.249  28.885  1.00  0.00    -0.237 OA
ATOM     84  O   UNL A   1      32.589  34.156  28.363  1.00  0.00    -0.237 OA
ATOM     85  O   UNL A   1      32.694  34.966  30.685  1.00  0.00    -0.744 OA
ENDBRANCH  81  82
ENDBRANCH  49  74
BRANCH  61  86
ATOM     86  C   UNL A   1      42.922  34.253  33.712  1.00  0.00     0.058 A 
ATOM     87  C   UNL A   1      42.658  34.378  35.083  1.00  0.00     0.135 A 
ATOM     88  C   UNL A   1      43.624  35.286  33.075  1.00  0.00     0.135 A 
ATOM     89  F   UNL A   1      41.983  33.417  35.731  1.00  0.00    -0.206 F 
ATOM     90  C   UNL A   1      43.070  35.497  35.799  1.00  0.00     0.059 A 
ATOM     91  C   UNL A   1      44.055  36.408  33.774  1.00  0.00     0.059 A 
ATOM     92  F   UNL A   1      43.902  35.205  31.764  1.00  0.00    -0.206 F 
ATOM     93  C   UNL A   1      43.766  36.508  35.135  1.00  0.00     0.060 A 
BRANCH  93  94
ATOM     94  S   UNL A   1      44.337  37.941  36.073  1.00  0.00     0.124 S 
ATOM     95  O   UNL A   1      45.757  37.647  36.222  1.00  0.00    -0.237 OA
ATOM     96  O   UNL A   1      44.009  39.054  35.187  1.00  0.00    -0.237 OA
ATOM     97  O   UNL A   1      43.546  37.874  37.300  1.00  0.00    -0.744 OA
ENDBRANCH  93  94
ENDBRANCH  61  86
ENDBRANCH  35  36
ENDBRANCH  27  30
ENDBRANCH  25  26
ENDBRANCH  24  25
ENDBRANCH   1  24
TORSDOF 17
ENDMDL
MODEL 3
REMARK VINA RESULT:     -10.9      3.555      6.656
REMARK SMILES Cc1oc(CNC(=O)c2ccnn2C)cc1C(=O)NCCCCNC(=O)c1ccc(-c2c3nc(c(-c4c(F)cc(S(=O)(=O)[O-])cc4F)c4ccc([nH]4)c(-c4c(F)cc(S(=O)(=O)[O-])cc4F)c4nc(c(-c5c(F)cc(S(=O)(=O)[O-])cc5F)c5ccc2[nH]5)C=C4)C=C3)cc1
REMARK SMILES IDX 21 1 20 2 19 3 17 4 18 5 16 7 1 8 2 9 3 10 4 11 15 12 5 13
REMARK SMILES IDX 6 14 7 15 8 17 9 18 10 19 13 20 11 21 12 22 14 23 22 24
REMARK SMILES IDX 23 25 24 26 25 27 26 29 27 30 28 31 92 32 29 33 91 34 30 35
REMARK SMILES IDX 31 36 32 37 85 38 33 39 90 40 84 41 86 42 34 43 89 44 83 45
REMARK SMILES IDX 82 46 35 48 69 49 48 50 68 51 49 52 52 53 67 54 87 55 50 56
REMARK SMILES IDX 51 57 66 59 88 60 53 61 36 62 37 63 46 64 38 65 39 66 45 67
REMARK SMILES IDX 47 68 40 69 41 70 42 71 43 72 44 73 70 74 71 75 80 76 72 77
REMARK SMILES IDX 73 78 79 79 81 80 74 81 75 82 76 83 77 84 78 85 54 86 55 87
REMARK SMILES IDX 64 88 56 89 57 90 63 91 65 92 58 93 59 94 60 95 61 96 62 97
REMARK H PARENT 19 6 6 16 24 28 86 47 52 58
REMARK Flexibility Score: inf
ROOT
ATOM      1  C   UNL A   1      35.120  32.292  31.644  1.00  0.00     0.023 C 
ENDROOT
BRANCH   1   2
ATOM      2  C   UNL A   1      35.132  32.931  33.031  1.00  0.00     0.116 C 
BRANCH   2   3
ATOM      3  N   UNL A   1      36.340  33.691  33.226  1.00  0.00    -0.352 N 
ATOM      4  C   UNL A   1      37.605  33.359  33.616  1.00  0.00     0.254 C 
ATOM      5  O   UNL A   1      38.406  34.299  33.642  1.00  0.00    -0.269 OA
ATOM      6  H   UNL A   1      36.230  34.652  33.039  1.00  0.00     0.163 HD
BRANCH   4   7
ATOM      7  C   UNL A   1      38.076  32.010  33.932  1.00  0.00     0.081 A 
ATOM      8  C   UNL A   1      38.081  31.415  36.550  1.00  0.00     0.088 C 
ATOM      9  C   UNL A   1      38.243  31.256  35.091  1.00  0.00     0.113 A 
ATOM     10  O   UNL A   1      38.745  30.022  34.784  1.00  0.00    -0.464 OA
ATOM     11  C   UNL A   1      38.967  29.970  33.451  1.00  0.00     0.124 A 
ATOM     12  C   UNL A   1      38.580  31.155  32.883  1.00  0.00     0.061 A 
BRANCH  11  13
ATOM     13  C   UNL A   1      39.524  28.711  32.913  1.00  0.00     0.191 C 
BRANCH  13  14
ATOM     14  N   UNL A   1      40.910  28.915  32.541  1.00  0.00    -0.343 N 
ATOM     15  C   UNL A   1      42.035  28.737  33.298  1.00  0.00     0.269 C 
ATOM     16  H   UNL A   1      41.062  29.225  31.620  1.00  0.00     0.164 HD
ATOM     17  O   UNL A   1      43.102  29.180  32.873  1.00  0.00    -0.268 OA
BRANCH  15  18
ATOM     18  C   UNL A   1      41.932  28.053  34.557  1.00  0.00     0.125 A 
ATOM     19  C   UNL A   1      41.780  26.696  34.776  1.00  0.00     0.055 A 
ATOM     20  N   UNL A   1      41.864  28.620  35.805  1.00  0.00    -0.263 N 
ATOM     21  C   UNL A   1      41.724  26.547  36.170  1.00  0.00     0.136 A 
ATOM     22  N   UNL A   1      41.796  27.717  36.806  1.00  0.00    -0.181 NA
ATOM     23  C   UNL A   1      41.838  30.023  36.146  1.00  0.00     0.174 C 
ENDBRANCH  15  18
ENDBRANCH  13  14
ENDBRANCH  11  13
ENDBRANCH   4   7
ENDBRANCH   2   3
ENDBRANCH   1   2
BRANCH   1  24
ATOM     24  C   UNL A   1      34.598  33.194  30.521  1.00  0.00     0.023 C 
BRANCH  24  25
ATOM     25  C   UNL A   1      35.030  32.793  29.115  1.00  0.00     0.116 C 
BRANCH  25  26
ATOM     26  N   UNL A   1      34.154  31.806  28.504  1.00  0.00    -0.352 N 
ATOM     27  C   UNL A   1      34.466  30.535  28.086  1.00  0.00     0.251 C 
ATOM     28  H   UNL A   1      33.219  32.084  28.374  1.00  0.00     0.163 HD
ATOM     29  O   UNL A   1      33.628  29.856  27.502  1.00  0.00    -0.269 OA
BRANCH  27  30
ATOM     30  C   UNL A   1      35.834  30.019  28.296  1.00  0.00     0.039 A 
ATOM     31  C   UNL A   1      36.734  30.067  27.229  1.00  0.00     0.014 A 
ATOM     32  C   UNL A   1      36.234  29.529  29.541  1.00  0.00     0.014 A 
ATOM     33  C   UNL A   1      38.063  29.689  27.431  1.00  0.00     0.010 A 
ATOM     34  C   UNL A   1      37.569  29.196  29.753  1.00  0.00     0.010 A 
ATOM     35  C   UNL A   1      38.495  29.285  28.704  1.00  0.00    -0.014 A 
BRANCH  35  36
ATOM     36  C   UNL A   1      39.920  28.975  28.964  1.00  0.00     0.031 A 
ATOM     37  C   UNL A   1      40.835  30.032  29.508  1.00  0.00     0.074 A 
ATOM     38  C   UNL A   1      40.402  27.762  28.633  1.00  0.00     0.049 A 
ATOM     39  N   UNL A   1      42.126  29.983  29.705  1.00  0.00    -0.248 NA
ATOM     40  C   UNL A   1      40.219  31.325  29.850  1.00  0.00     0.031 C 
ATOM     41  C   UNL A   1      39.619  26.670  28.050  1.00  0.00     0.029 A 
ATOM     42  N   UNL A   1      41.670  27.249  28.726  1.00  0.00    -0.354 N 
ATOM     43  C   UNL A   1      42.486  31.242  30.165  1.00  0.00     0.074 A 
ATOM     44  C   UNL A   1      41.278  32.041  30.202  1.00  0.00     0.031 C 
ATOM     45  C   UNL A   1      40.422  25.612  27.847  1.00  0.00     0.029 A 
ATOM     46  C   UNL A   1      41.778  25.959  28.265  1.00  0.00     0.049 A 
ATOM     47  H   UNL A   1      42.431  27.757  29.089  1.00  0.00     0.167 HD
ATOM     48  C   UNL A   1      43.710  31.691  30.529  1.00  0.00     0.037 A 
ATOM     49  C   UNL A   1      42.849  25.148  28.189  1.00  0.00     0.037 A 
ATOM     50  C   UNL A   1      44.902  30.885  30.528  1.00  0.00     0.049 A 
ATOM     51  C   UNL A   1      44.183  25.643  28.669  1.00  0.00     0.074 A 
ATOM     52  C   UNL A   1      46.182  31.235  30.918  1.00  0.00     0.029 A 
ATOM     53  N   UNL A   1      44.954  29.559  30.126  1.00  0.00    -0.354 N 
ATOM     54  N   UNL A   1      44.500  26.829  29.131  1.00  0.00    -0.248 NA
ATOM     55  C   UNL A   1      45.302  24.692  28.625  1.00  0.00     0.031 C 
ATOM     56  C   UNL A   1      47.012  30.120  30.747  1.00  0.00     0.029 A 
ATOM     57  C   UNL A   1      46.243  29.073  30.263  1.00  0.00     0.049 A 
ATOM     58  H   UNL A   1      44.189  29.039  29.791  1.00  0.00     0.167 HD
ATOM     59  C   UNL A   1      45.851  26.761  29.449  1.00  0.00     0.074 A 
ATOM     60  C   UNL A   1      46.290  25.418  29.131  1.00  0.00     0.031 C 
ATOM     61  C   UNL A   1      46.654  27.728  29.955  1.00  0.00     0.037 A 
BRANCH  48  62
ATOM     62  C   UNL A   1      43.811  33.124  30.957  1.00  0.00     0.058 A 
ATOM     63  C   UNL A   1      43.941  34.160  30.020  1.00  0.00     0.135 A 
ATOM     64  C   UNL A   1      43.787  33.466  32.317  1.00  0.00     0.135 A 
ATOM     65  F   UNL A   1      43.988  33.880  28.710  1.00  0.00    -0.206 F 
ATOM     66  C   UNL A   1      44.076  35.485  30.417  1.00  0.00     0.059 A 
ATOM     67  C   UNL A   1      43.905  34.787  32.736  1.00  0.00     0.059 A 
ATOM     68  F   UNL A   1      43.670  32.511  33.251  1.00  0.00    -0.206 F 
ATOM     69  C   UNL A   1      44.069  35.788  31.779  1.00  0.00     0.060 A 
BRANCH  69  70
ATOM     70  S   UNL A   1      44.271  37.506  32.296  1.00  0.00     0.124 S 
ATOM     71  O   UNL A   1      43.276  37.604  33.360  1.00  0.00    -0.237 OA
ATOM     72  O   UNL A   1      45.664  37.550  32.727  1.00  0.00    -0.237 OA
ATOM     73  O   UNL A   1      43.971  38.258  31.082  1.00  0.00    -0.744 OA
ENDBRANCH  69  70
ENDBRANCH  48  62
BRANCH  49  74
ATOM     74  C   UNL A   1      42.691  23.770  27.666  1.00  0.00     0.058 A 
ATOM     75  C   UNL A   1      42.583  22.682  28.542  1.00  0.00     0.135 A 
ATOM     76  C   UNL A   1      42.610  23.518  26.290  1.00  0.00     0.135 A 
ATOM     77  F   UNL A   1      42.656  22.880  29.867  1.00  0.00    -0.206 F 
ATOM     78  C   UNL A   1      42.404  21.386  28.073  1.00  0.00     0.059 A 
ATOM     79  C   UNL A   1      42.419  22.232  25.796  1.00  0.00     0.059 A 
ATOM     80  F   UNL A   1      42.690  24.532  25.416  1.00  0.00    -0.206 F 
ATOM     81  C   UNL A   1      42.324  21.171  26.696  1.00  0.00     0.060 A 
BRANCH  81  82
ATOM     82  S   UNL A   1      42.023  19.497  26.088  1.00  0.00     0.124 S 
ATOM     83  O   UNL A   1      42.441  18.692  27.229  1.00  0.00    -0.237 OA
ATOM     84  O   UNL A   1      40.590  19.515  25.809  1.00  0.00    -0.237 OA
ATOM     85  O   UNL A   1      42.878  19.418  24.908  1.00  0.00    -0.744 OA
ENDBRANCH  81  82
ENDBRANCH  49  74
BRANCH  61  86
ATOM     86  C   UNL A   1      48.081  27.357  30.222  1.00  0.00     0.058 A 
ATOM     87  C   UNL A   1      49.103  27.704  29.327  1.00  0.00     0.135 A 
ATOM     88  C   UNL A   1      48.435  26.694  31.407  1.00  0.00     0.135 A 
ATOM     89  F   UNL A   1      48.810  28.333  28.179  1.00  0.00    -0.206 F 
ATOM     90  C   UNL A   1      50.433  27.397  29.594  1.00  0.00     0.059 A 
ATOM     91  C   UNL A   1      49.759  26.387  31.698  1.00  0.00     0.059 A 
ATOM     92  F   UNL A   1      47.488  26.347  32.293  1.00  0.00    -0.206 F 
ATOM     93  C   UNL A   1      50.751  26.736  30.781  1.00  0.00     0.060 A 
BRANCH  93  94
ATOM     94  S   UNL A   1      52.482  26.374  31.147  1.00  0.00     0.124 S 
ATOM     95  O   UNL A   1      52.366  25.146  31.925  1.00  0.00    -0.237 OA
ATOM     96  O   UNL A   1      53.066  26.230  29.817  1.00  0.00    -0.237 OA
ATOM     97  O   UNL A   1      52.919  27.553  31.890  1.00  0.00    -0.744 OA
ENDBRANCH  93  94
ENDBRANCH  61  86
ENDBRANCH  35  36
ENDBRANCH  27  30
ENDBRANCH  25  26
ENDBRANCH  24  25
ENDBRANCH   1  24
TORSDOF 17
ENDMDL
