MODEL 1
REMARK VINA RESULT:     -10.7      0.000      0.000
REMARK SMILES CCCCCCCCNC(=O)Oc1cccc(-c2ccc([C@@H](C)C(=O)NCCCCNC(=O)c3ccc(-c4c5nc(c(-c6c(F)cc(S(=O)(=O)[O-])cc6F)c6ccc([nH]6)c(-c6c(F)cc(S(=O)(=O)[O-])cc6F)c6nc(c(-c7c(F)cc(S(=O)(=O)[O-])cc7F)c7ccc4[nH]7)C=C6)C=C5)cc3)cc2F)c1
REMARK SMILES IDX 18 1 19 2 20 3 21 4 100 5 101 6 102 7 17 8 13 9 14 10 103 11
REMARK SMILES IDX 15 12 16 13 12 14 10 15 9 16 11 18 8 19 7 20 6 21 5 22 4 23
REMARK SMILES IDX 3 24 2 25 1 26 22 27 23 28 24 29 25 30 26 31 27 33 28 34
REMARK SMILES IDX 29 35 30 36 31 37 32 38 33 40 34 41 35 42 99 43 36 44 98 45
REMARK SMILES IDX 37 46 38 47 39 48 92 49 40 50 97 51 91 52 93 53 41 54 96 55
REMARK SMILES IDX 90 56 89 57 42 59 76 60 55 61 75 62 56 63 59 64 74 65 94 66
REMARK SMILES IDX 57 67 58 68 73 70 95 71 60 72 43 73 44 74 53 75 45 76 46 77
REMARK SMILES IDX 52 78 54 79 47 80 48 81 49 82 50 83 51 84 77 85 78 86 87 87
REMARK SMILES IDX 79 88 80 89 86 90 88 91 81 92 82 93 83 94 84 95 85 96 61 97
REMARK SMILES IDX 62 98 71 99 63 100 64 101 70 102 72 103 65 104 66 105 67 106
REMARK SMILES IDX 68 107 69 108
REMARK H PARENT 9 17 26 32 31 39 93 58 59 69
REMARK Flexibility Score: inf
ROOT
ATOM      1  C   UNL A   1      37.824  23.036  25.845  1.00  0.00     0.018 A 
ATOM      2  C   UNL A   1      38.596  24.106  26.324  1.00  0.00     0.012 A 
ATOM      3  C   UNL A   1      39.922  23.932  26.731  1.00  0.00     0.005 A 
ATOM      4  C   UNL A   1      40.507  22.663  26.763  1.00  0.00    -0.033 A 
ATOM      5  C   UNL A   1      39.762  21.594  26.245  1.00  0.00     0.044 A 
ATOM      6  C   UNL A   1      38.459  21.788  25.777  1.00  0.00     0.131 A 
ATOM      7  F   UNL A   1      37.821  20.725  25.261  1.00  0.00    -0.206 F 
ENDROOT
BRANCH   1   8
ATOM      8  C   UNL A   1      36.405  23.240  25.490  1.00  0.00    -0.012 A 
ATOM      9  C   UNL A   1      34.692  23.853  23.878  1.00  0.00     0.133 A 
ATOM     10  C   UNL A   1      33.678  23.499  24.760  1.00  0.00     0.047 A 
ATOM     11  C   UNL A   1      36.038  23.741  24.232  1.00  0.00     0.056 A 
ATOM     12  C   UNL A   1      34.018  23.007  26.014  1.00  0.00     0.004 A 
ATOM     13  C   UNL A   1      35.365  22.886  26.374  1.00  0.00     0.009 A 
BRANCH   9  14
ATOM     14  O   UNL A   1      34.317  24.435  22.664  1.00  0.00    -0.410 OA
BRANCH  14  15
ATOM     15  C   UNL A   1      33.188  23.920  22.045  1.00  0.00     0.412 C 
ATOM     16  N   UNL A   1      32.270  24.886  21.743  1.00  0.00    -0.321 N 
ATOM     17  H   UNL A   1      31.425  24.585  21.337  1.00  0.00     0.167 HD
ATOM     18  O   UNL A   1      32.980  22.744  21.779  1.00  0.00    -0.224 OA
BRANCH  16  19
ATOM     19  C   UNL A   1      32.417  26.310  21.961  1.00  0.00     0.119 C 
BRANCH  19  20
ATOM     20  C   UNL A   1      31.978  26.717  23.367  1.00  0.00     0.021 C 
BRANCH  20  21
ATOM     21  C   UNL A   1      33.103  27.272  24.248  1.00  0.00     0.002 C 
BRANCH  21  22
ATOM     22  C   UNL A   1      32.712  27.531  25.708  1.00  0.00     0.000 C 
BRANCH  22  23
ATOM     23  C   UNL A   1      33.850  28.049  26.593  1.00  0.00    -0.000 C 
BRANCH  23  24
ATOM     24  C   UNL A   1      33.523  29.320  27.383  1.00  0.00    -0.000 C 
BRANCH  24  25
ATOM     25  C   UNL A   1      34.689  30.296  27.555  1.00  0.00    -0.003 C 
ATOM     26  C   UNL A   1      36.035  29.604  27.705  1.00  0.00     0.004 C 
ENDBRANCH  24  25
ENDBRANCH  23  24
ENDBRANCH  22  23
ENDBRANCH  21  22
ENDBRANCH  20  21
ENDBRANCH  19  20
ENDBRANCH  16  19
ENDBRANCH  14  15
ENDBRANCH   9  14
ENDBRANCH   1   8
BRANCH   4  27
ATOM     27  C   UNL A   1      41.872  22.400  27.377  1.00  0.00     0.105 C 
ATOM     28  C   UNL A   1      42.014  22.759  28.855  1.00  0.00     0.023 C 
BRANCH  27  29
ATOM     29  C   UNL A   1      42.464  21.029  27.007  1.00  0.00     0.227 C 
ATOM     30  O   UNL A   1      41.912  19.998  27.410  1.00  0.00    -0.274 OA
ATOM     31  N   UNL A   1      43.571  20.863  26.232  1.00  0.00    -0.356 N 
ATOM     32  H   UNL A   1      43.780  19.923  26.027  1.00  0.00     0.163 HD
BRANCH  31  33
ATOM     33  C   UNL A   1      44.495  21.816  25.655  1.00  0.00     0.116 C 
BRANCH  33  34
ATOM     34  C   UNL A   1      45.245  22.610  26.726  1.00  0.00     0.023 C 
BRANCH  34  35
ATOM     35  C   UNL A   1      46.030  23.809  26.204  1.00  0.00     0.023 C 
BRANCH  35  36
ATOM     36  C   UNL A   1      45.340  25.157  26.374  1.00  0.00     0.116 C 
BRANCH  36  37
ATOM     37  N   UNL A   1      44.217  25.363  25.470  1.00  0.00    -0.352 N 
ATOM     38  C   UNL A   1      43.053  26.060  25.709  1.00  0.00     0.251 C 
ATOM     39  H   UNL A   1      44.299  24.955  24.579  1.00  0.00     0.163 HD
ATOM     40  O   UNL A   1      42.153  26.068  24.877  1.00  0.00    -0.269 OA
BRANCH  38  41
ATOM     41  C   UNL A   1      42.891  26.759  27.002  1.00  0.00     0.039 A 
ATOM     42  C   UNL A   1      43.386  28.056  27.137  1.00  0.00     0.014 A 
ATOM     43  C   UNL A   1      42.186  26.157  28.047  1.00  0.00     0.014 A 
ATOM     44  C   UNL A   1      43.106  28.779  28.298  1.00  0.00     0.010 A 
ATOM     45  C   UNL A   1      41.831  26.909  29.160  1.00  0.00     0.010 A 
ATOM     46  C   UNL A   1      42.289  28.227  29.301  1.00  0.00    -0.014 A 
BRANCH  46  47
ATOM     47  C   UNL A   1      41.905  29.017  30.500  1.00  0.00     0.031 A 
ATOM     48  C   UNL A   1      42.697  28.886  31.773  1.00  0.00     0.074 A 
ATOM     49  C   UNL A   1      40.811  29.803  30.457  1.00  0.00     0.049 A 
ATOM     50  N   UNL A   1      42.497  29.460  32.931  1.00  0.00    -0.248 NA
ATOM     51  C   UNL A   1      43.847  27.966  31.753  1.00  0.00     0.031 C 
ATOM     52  C   UNL A   1      39.924  29.961  29.301  1.00  0.00     0.029 A 
ATOM     53  N   UNL A   1      40.253  30.617  31.412  1.00  0.00    -0.354 N 
ATOM     54  C   UNL A   1      43.484  28.965  33.775  1.00  0.00     0.074 A 
ATOM     55  C   UNL A   1      44.243  27.996  33.017  1.00  0.00     0.031 C 
ATOM     56  C   UNL A   1      38.955  30.840  29.605  1.00  0.00     0.029 A 
ATOM     57  C   UNL A   1      39.126  31.280  30.985  1.00  0.00     0.049 A 
ATOM     58  H   UNL A   1      40.625  30.716  32.318  1.00  0.00     0.167 HD
ATOM     59  C   UNL A   1      43.752  29.308  35.057  1.00  0.00     0.037 A 
ATOM     60  C   UNL A   1      38.319  32.143  31.634  1.00  0.00     0.037 A 
ATOM     61  C   UNL A   1      43.009  30.295  35.796  1.00  0.00     0.049 A 
ATOM     62  C   UNL A   1      38.645  32.516  33.055  1.00  0.00     0.074 A 
ATOM     63  C   UNL A   1      43.240  30.764  37.076  1.00  0.00     0.029 A 
ATOM     64  N   UNL A   1      41.889  30.963  35.322  1.00  0.00    -0.354 N 
ATOM     65  N   UNL A   1      39.632  32.097  33.813  1.00  0.00    -0.248 NA
ATOM     66  C   UNL A   1      37.756  33.486  33.709  1.00  0.00     0.031 C 
ATOM     67  C   UNL A   1      42.230  31.678  37.396  1.00  0.00     0.029 A 
ATOM     68  C   UNL A   1      41.405  31.823  36.294  1.00  0.00     0.049 A 
ATOM     69  H   UNL A   1      41.497  30.844  34.426  1.00  0.00     0.167 HD
ATOM     70  C   UNL A   1      39.498  32.773  35.021  1.00  0.00     0.074 A 
ATOM     71  C   UNL A   1      38.345  33.641  34.886  1.00  0.00     0.031 C 
ATOM     72  C   UNL A   1      40.258  32.685  36.140  1.00  0.00     0.037 A 
BRANCH  59  73
ATOM     73  C   UNL A   1      44.903  28.621  35.741  1.00  0.00     0.058 A 
ATOM     74  C   UNL A   1      46.208  29.137  35.690  1.00  0.00     0.135 A 
ATOM     75  C   UNL A   1      44.692  27.456  36.497  1.00  0.00     0.135 A 
ATOM     76  F   UNL A   1      46.473  30.238  34.967  1.00  0.00    -0.206 F 
ATOM     77  C   UNL A   1      47.266  28.511  36.340  1.00  0.00     0.059 A 
ATOM     78  C   UNL A   1      45.729  26.830  37.182  1.00  0.00     0.059 A 
ATOM     79  F   UNL A   1      43.466  26.916  36.580  1.00  0.00    -0.206 F 
ATOM     80  C   UNL A   1      47.016  27.359  37.088  1.00  0.00     0.060 A 
BRANCH  80  81
ATOM     81  S   UNL A   1      48.397  26.573  37.944  1.00  0.00     0.124 S 
ATOM     82  O   UNL A   1      47.959  26.651  39.335  1.00  0.00    -0.237 OA
ATOM     83  O   UNL A   1      48.407  25.237  37.358  1.00  0.00    -0.237 OA
ATOM     84  O   UNL A   1      49.536  27.417  37.598  1.00  0.00    -0.744 OA
ENDBRANCH  80  81
ENDBRANCH  59  73
BRANCH  60  85
ATOM     85  C   UNL A   1      37.140  32.730  30.941  1.00  0.00     0.058 A 
ATOM     86  C   UNL A   1      37.279  33.828  30.079  1.00  0.00     0.135 A 
ATOM     87  C   UNL A   1      35.850  32.206  31.126  1.00  0.00     0.135 A 
ATOM     88  F   UNL A   1      38.489  34.370  29.872  1.00  0.00    -0.206 F 
ATOM     89  C   UNL A   1      36.181  34.402  29.444  1.00  0.00     0.059 A 
ATOM     90  C   UNL A   1      34.742  32.744  30.480  1.00  0.00     0.059 A 
ATOM     91  F   UNL A   1      35.664  31.145  31.926  1.00  0.00    -0.206 F 
ATOM     92  C   UNL A   1      34.915  33.852  29.651  1.00  0.00     0.060 A 
BRANCH  92  93
ATOM     93  S   UNL A   1      33.502  34.584  28.796  1.00  0.00     0.124 S 
ATOM     94  O   UNL A   1      34.105  35.766  28.193  1.00  0.00    -0.237 OA
ATOM     95  O   UNL A   1      33.118  33.520  27.873  1.00  0.00    -0.237 OA
ATOM     96  O   UNL A   1      32.553  34.839  29.876  1.00  0.00    -0.744 OA
ENDBRANCH  92  93
ENDBRANCH  60  85
BRANCH  72  97
ATOM     97  C   UNL A   1      39.892  33.574  37.297  1.00  0.00     0.058 A 
ATOM     98  C   UNL A   1      38.950  33.185  38.262  1.00  0.00     0.135 A 
ATOM     99  C   UNL A   1      40.527  34.816  37.466  1.00  0.00     0.135 A 
ATOM    100  F   UNL A   1      38.311  32.009  38.147  1.00  0.00    -0.206 F 
ATOM    101  C   UNL A   1      38.626  34.008  39.335  1.00  0.00     0.059 A 
ATOM    102  C   UNL A   1      40.243  35.641  38.548  1.00  0.00     0.059 A 
ATOM    103  F   UNL A   1      41.447  35.232  36.579  1.00  0.00    -0.206 F 
ATOM    104  C   UNL A   1      39.279  35.235  39.469  1.00  0.00     0.060 A 
BRANCH 104 105
ATOM    105  S   UNL A   1      38.865  36.284  40.878  1.00  0.00     0.124 S 
ATOM    106  O   UNL A   1      38.492  37.531  40.217  1.00  0.00    -0.237 OA
ATOM    107  O   UNL A   1      37.773  35.548  41.507  1.00  0.00    -0.237 OA
ATOM    108  O   UNL A   1      40.107  36.328  41.646  1.00  0.00    -0.744 OA
ENDBRANCH 104 105
ENDBRANCH  72  97
ENDBRANCH  46  47
ENDBRANCH  38  41
ENDBRANCH  36  37
ENDBRANCH  35  36
ENDBRANCH  34  35
ENDBRANCH  33  34
ENDBRANCH  31  33
ENDBRANCH  27  29
ENDBRANCH   4  27
TORSDOF 25
ENDMDL
MODEL 2
REMARK VINA RESULT:     -10.4      1.528      2.881
REMARK SMILES CCCCCCCCNC(=O)Oc1cccc(-c2ccc([C@@H](C)C(=O)NCCCCNC(=O)c3ccc(-c4c5nc(c(-c6c(F)cc(S(=O)(=O)[O-])cc6F)c6ccc([nH]6)c(-c6c(F)cc(S(=O)(=O)[O-])cc6F)c6nc(c(-c7c(F)cc(S(=O)(=O)[O-])cc7F)c7ccc4[nH]7)C=C6)C=C5)cc3)cc2F)c1
REMARK SMILES IDX 18 1 19 2 20 3 21 4 100 5 101 6 102 7 17 8 13 9 14 10 103 11
REMARK SMILES IDX 15 12 16 13 12 14 10 15 9 16 11 18 8 19 7 20 6 21 5 22 4 23
REMARK SMILES IDX 3 24 2 25 1 26 22 27 23 28 24 29 25 30 26 31 27 33 28 34
REMARK SMILES IDX 29 35 30 36 31 37 32 38 33 40 34 41 35 42 99 43 36 44 98 45
REMARK SMILES IDX 37 46 38 47 39 48 92 49 40 50 97 51 91 52 93 53 41 54 96 55
REMARK SMILES IDX 90 56 89 57 42 59 76 60 55 61 75 62 56 63 59 64 74 65 94 66
REMARK SMILES IDX 57 67 58 68 73 70 95 71 60 72 43 73 44 74 53 75 45 76 46 77
REMARK SMILES IDX 52 78 54 79 47 80 48 81 49 82 50 83 51 84 77 85 78 86 87 87
REMARK SMILES IDX 79 88 80 89 86 90 88 91 81 92 82 93 83 94 84 95 85 96 61 97
REMARK SMILES IDX 62 98 71 99 63 100 64 101 70 102 72 103 65 104 66 105 67 106
REMARK SMILES IDX 68 107 69 108
REMARK H PARENT 9 17 26 32 31 39 93 58 59 69
REMARK Flexibility Score: inf
ROOT
ATOM      1  C   UNL A   1      37.918  23.107  25.777  1.00  0.00     0.018 A 
ATOM      2  C   UNL A   1      38.629  24.126  26.428  1.00  0.00     0.012 A 
ATOM      3  C   UNL A   1      39.937  23.933  26.885  1.00  0.00     0.005 A 
ATOM      4  C   UNL A   1      40.558  22.684  26.790  1.00  0.00    -0.033 A 
ATOM      5  C   UNL A   1      39.875  21.672  26.101  1.00  0.00     0.044 A 
ATOM      6  C   UNL A   1      38.593  21.893  25.588  1.00  0.00     0.131 A 
ATOM      7  F   UNL A   1      38.016  20.889  24.908  1.00  0.00    -0.206 F 
ENDROOT
BRANCH   1   8
ATOM      8  C   UNL A   1      36.513  23.321  25.370  1.00  0.00    -0.012 A 
ATOM      9  C   UNL A   1      34.205  23.844  25.921  1.00  0.00     0.133 A 
ATOM     10  C   UNL A   1      33.847  23.868  24.578  1.00  0.00     0.047 A 
ATOM     11  C   UNL A   1      35.512  23.563  26.322  1.00  0.00     0.056 A 
ATOM     12  C   UNL A   1      34.821  23.624  23.618  1.00  0.00     0.004 A 
ATOM     13  C   UNL A   1      36.135  23.348  24.011  1.00  0.00     0.009 A 
BRANCH   9  14
ATOM     14  O   UNL A   1      33.183  23.996  26.863  1.00  0.00    -0.410 OA
BRANCH  14  15
ATOM     15  C   UNL A   1      32.215  24.949  26.587  1.00  0.00     0.412 C 
ATOM     16  N   UNL A   1      30.963  24.410  26.492  1.00  0.00    -0.321 N 
ATOM     17  H   UNL A   1      30.230  25.025  26.258  1.00  0.00     0.167 HD
ATOM     18  O   UNL A   1      32.401  26.148  26.432  1.00  0.00    -0.224 OA
BRANCH  16  19
ATOM     19  C   UNL A   1      30.606  23.022  26.702  1.00  0.00     0.119 C 
BRANCH  19  20
ATOM     20  C   UNL A   1      30.716  22.209  25.413  1.00  0.00     0.021 C 
BRANCH  20  21
ATOM     21  C   UNL A   1      31.830  21.155  25.420  1.00  0.00     0.002 C 
BRANCH  21  22
ATOM     22  C   UNL A   1      32.107  20.499  24.062  1.00  0.00     0.000 C 
BRANCH  22  23
ATOM     23  C   UNL A   1      33.269  19.501  24.059  1.00  0.00    -0.000 C 
BRANCH  23  24
ATOM     24  C   UNL A   1      32.953  18.149  23.411  1.00  0.00    -0.000 C 
BRANCH  24  25
ATOM     25  C   UNL A   1      33.664  16.947  24.037  1.00  0.00    -0.003 C 
ATOM     26  C   UNL A   1      35.070  17.266  24.522  1.00  0.00     0.004 C 
ENDBRANCH  24  25
ENDBRANCH  23  24
ENDBRANCH  22  23
ENDBRANCH  21  22
ENDBRANCH  20  21
ENDBRANCH  19  20
ENDBRANCH  16  19
ENDBRANCH  14  15
ENDBRANCH   9  14
ENDBRANCH   1   8
BRANCH   4  27
ATOM     27  C   UNL A   1      41.896  22.377  27.443  1.00  0.00     0.105 C 
ATOM     28  C   UNL A   1      41.975  22.637  28.946  1.00  0.00     0.023 C 
BRANCH  27  29
ATOM     29  C   UNL A   1      42.503  21.033  27.008  1.00  0.00     0.227 C 
ATOM     30  O   UNL A   1      41.996  19.977  27.407  1.00  0.00    -0.274 OA
ATOM     31  N   UNL A   1      43.577  20.915  26.179  1.00  0.00    -0.356 N 
ATOM     32  H   UNL A   1      43.799  19.987  25.939  1.00  0.00     0.163 HD
BRANCH  31  33
ATOM     33  C   UNL A   1      44.450  21.907  25.587  1.00  0.00     0.116 C 
BRANCH  33  34
ATOM     34  C   UNL A   1      45.191  22.724  26.646  1.00  0.00     0.023 C 
BRANCH  34  35
ATOM     35  C   UNL A   1      45.934  23.945  26.111  1.00  0.00     0.023 C 
BRANCH  35  36
ATOM     36  C   UNL A   1      45.212  25.274  26.299  1.00  0.00     0.116 C 
BRANCH  36  37
ATOM     37  N   UNL A   1      44.064  25.452  25.421  1.00  0.00    -0.352 N 
ATOM     38  C   UNL A   1      42.893  26.126  25.685  1.00  0.00     0.251 C 
ATOM     39  H   UNL A   1      44.133  25.041  24.530  1.00  0.00     0.163 HD
ATOM     40  O   UNL A   1      41.972  26.111  24.874  1.00  0.00    -0.269 OA
BRANCH  38  41
ATOM     41  C   UNL A   1      42.747  26.829  26.977  1.00  0.00     0.039 A 
ATOM     42  C   UNL A   1      43.233  28.131  27.099  1.00  0.00     0.014 A 
ATOM     43  C   UNL A   1      42.064  26.225  28.036  1.00  0.00     0.014 A 
ATOM     44  C   UNL A   1      42.968  28.855  28.262  1.00  0.00     0.010 A 
ATOM     45  C   UNL A   1      41.722  26.979  29.153  1.00  0.00     0.010 A 
ATOM     46  C   UNL A   1      42.172  28.301  29.281  1.00  0.00    -0.014 A 
BRANCH  46  47
ATOM     47  C   UNL A   1      41.802  29.092  30.483  1.00  0.00     0.031 A 
ATOM     48  C   UNL A   1      42.600  28.952  31.751  1.00  0.00     0.074 A 
ATOM     49  C   UNL A   1      40.715  29.888  30.448  1.00  0.00     0.049 A 
ATOM     50  N   UNL A   1      42.412  29.527  32.911  1.00  0.00    -0.248 NA
ATOM     51  C   UNL A   1      43.742  28.023  31.723  1.00  0.00     0.031 C 
ATOM     52  C   UNL A   1      39.822  30.055  29.298  1.00  0.00     0.029 A 
ATOM     53  N   UNL A   1      40.170  30.705  31.407  1.00  0.00    -0.354 N 
ATOM     54  C   UNL A   1      43.400  29.021  33.749  1.00  0.00     0.074 A 
ATOM     55  C   UNL A   1      44.146  28.048  32.985  1.00  0.00     0.031 C 
ATOM     56  C   UNL A   1      38.863  30.942  29.608  1.00  0.00     0.029 A 
ATOM     57  C   UNL A   1      39.046  31.379  30.988  1.00  0.00     0.049 A 
ATOM     58  H   UNL A   1      40.548  30.800  32.311  1.00  0.00     0.167 HD
ATOM     59  C   UNL A   1      43.679  29.360  35.029  1.00  0.00     0.037 A 
ATOM     60  C   UNL A   1      38.251  32.248  31.643  1.00  0.00     0.037 A 
ATOM     61  C   UNL A   1      42.948  30.353  35.774  1.00  0.00     0.049 A 
ATOM     62  C   UNL A   1      38.588  32.616  33.063  1.00  0.00     0.074 A 
ATOM     63  C   UNL A   1      43.192  30.818  37.054  1.00  0.00     0.029 A 
ATOM     64  N   UNL A   1      41.832  31.031  35.307  1.00  0.00    -0.354 N 
ATOM     65  N   UNL A   1      39.576  32.187  33.814  1.00  0.00    -0.248 NA
ATOM     66  C   UNL A   1      37.712  33.592  33.723  1.00  0.00     0.031 C 
ATOM     67  C   UNL A   1      42.192  31.740  37.381  1.00  0.00     0.029 A 
ATOM     68  C   UNL A   1      41.361  31.894  36.284  1.00  0.00     0.049 A 
ATOM     69  H   UNL A   1      41.434  30.917  34.414  1.00  0.00     0.167 HD
ATOM     70  C   UNL A   1      39.455  32.863  35.023  1.00  0.00     0.074 A 
ATOM     71  C   UNL A   1      38.309  33.741  34.897  1.00  0.00     0.031 C 
ATOM     72  C   UNL A   1      40.221  32.766  36.138  1.00  0.00     0.037 A 
BRANCH  59  73
ATOM     73  C   UNL A   1      44.828  28.662  35.706  1.00  0.00     0.058 A 
ATOM     74  C   UNL A   1      46.137  29.167  35.648  1.00  0.00     0.135 A 
ATOM     75  C   UNL A   1      44.610  27.498  36.461  1.00  0.00     0.135 A 
ATOM     76  F   UNL A   1      46.407  30.267  34.926  1.00  0.00    -0.206 F 
ATOM     77  C   UNL A   1      47.193  28.531  36.291  1.00  0.00     0.059 A 
ATOM     78  C   UNL A   1      45.647  26.862  37.139  1.00  0.00     0.059 A 
ATOM     79  F   UNL A   1      43.380  26.969  36.550  1.00  0.00    -0.206 F 
ATOM     80  C   UNL A   1      46.937  27.380  37.038  1.00  0.00     0.060 A 
BRANCH  80  81
ATOM     81  S   UNL A   1      48.316  26.581  37.885  1.00  0.00     0.124 S 
ATOM     82  O   UNL A   1      47.887  26.660  39.279  1.00  0.00    -0.237 OA
ATOM     83  O   UNL A   1      48.311  25.245  37.296  1.00  0.00    -0.237 OA
ATOM     84  O   UNL A   1      49.461  27.415  37.533  1.00  0.00    -0.744 OA
ENDBRANCH  80  81
ENDBRANCH  59  73
BRANCH  60  85
ATOM     85  C   UNL A   1      37.073  32.847  30.958  1.00  0.00     0.058 A 
ATOM     86  C   UNL A   1      37.217  33.941  30.093  1.00  0.00     0.135 A 
ATOM     87  C   UNL A   1      35.779  32.336  31.153  1.00  0.00     0.135 A 
ATOM     88  F   UNL A   1      38.431  34.470  29.876  1.00  0.00    -0.206 F 
ATOM     89  C   UNL A   1      36.120  34.526  29.465  1.00  0.00     0.059 A 
ATOM     90  C   UNL A   1      34.671  32.886  30.515  1.00  0.00     0.059 A 
ATOM     91  F   UNL A   1      35.587  31.280  31.957  1.00  0.00    -0.206 F 
ATOM     92  C   UNL A   1      34.850  33.989  29.683  1.00  0.00     0.060 A 
BRANCH  92  93
ATOM     93  S   UNL A   1      33.439  34.735  28.837  1.00  0.00     0.124 S 
ATOM     94  O   UNL A   1      34.049  35.910  28.226  1.00  0.00    -0.237 OA
ATOM     95  O   UNL A   1      33.035  33.674  27.920  1.00  0.00    -0.237 OA
ATOM     96  O   UNL A   1      32.500  35.004  29.924  1.00  0.00    -0.744 OA
ENDBRANCH  92  93
ENDBRANCH  60  85
BRANCH  72  97
ATOM     97  C   UNL A   1      39.869  33.657  37.299  1.00  0.00     0.058 A 
ATOM     98  C   UNL A   1      38.944  33.267  38.279  1.00  0.00     0.135 A 
ATOM     99  C   UNL A   1      40.503  34.901  37.454  1.00  0.00     0.135 A 
ATOM    100  F   UNL A   1      38.308  32.088  38.177  1.00  0.00    -0.206 F 
ATOM    101  C   UNL A   1      38.634  34.091  39.355  1.00  0.00     0.059 A 
ATOM    102  C   UNL A   1      40.232  35.728  38.539  1.00  0.00     0.059 A 
ATOM    103  F   UNL A   1      41.407  35.319  36.553  1.00  0.00    -0.206 F 
ATOM    104  C   UNL A   1      39.284  35.321  39.476  1.00  0.00     0.060 A 
BRANCH 104 105
ATOM    105  S   UNL A   1      38.888  36.372  40.889  1.00  0.00     0.124 S 
ATOM    106  O   UNL A   1      38.493  37.613  40.231  1.00  0.00    -0.237 OA
ATOM    107  O   UNL A   1      37.814  35.629  41.540  1.00  0.00    -0.237 OA
ATOM    108  O   UNL A   1      40.144  36.429  41.633  1.00  0.00    -0.744 OA
ENDBRANCH 104 105
ENDBRANCH  72  97
ENDBRANCH  46  47
ENDBRANCH  38  41
ENDBRANCH  36  37
ENDBRANCH  35  36
ENDBRANCH  34  35
ENDBRANCH  33  34
ENDBRANCH  31  33
ENDBRANCH  27  29
ENDBRANCH   4  27
TORSDOF 25
ENDMDL
MODEL 3
REMARK VINA RESULT:     -10.0      1.552      2.522
REMARK SMILES CCCCCCCCNC(=O)Oc1cccc(-c2ccc([C@@H](C)C(=O)NCCCCNC(=O)c3ccc(-c4c5nc(c(-c6c(F)cc(S(=O)(=O)[O-])cc6F)c6ccc([nH]6)c(-c6c(F)cc(S(=O)(=O)[O-])cc6F)c6nc(c(-c7c(F)cc(S(=O)(=O)[O-])cc7F)c7ccc4[nH]7)C=C6)C=C5)cc3)cc2F)c1
REMARK SMILES IDX 18 1 19 2 20 3 21 4 100 5 101 6 102 7 17 8 13 9 14 10 103 11
REMARK SMILES IDX 15 12 16 13 12 14 10 15 9 16 11 18 8 19 7 20 6 21 5 22 4 23
REMARK SMILES IDX 3 24 2 25 1 26 22 27 23 28 24 29 25 30 26 31 27 33 28 34
REMARK SMILES IDX 29 35 30 36 31 37 32 38 33 40 34 41 35 42 99 43 36 44 98 45
REMARK SMILES IDX 37 46 38 47 39 48 92 49 40 50 97 51 91 52 93 53 41 54 96 55
REMARK SMILES IDX 90 56 89 57 42 59 76 60 55 61 75 62 56 63 59 64 74 65 94 66
REMARK SMILES IDX 57 67 58 68 73 70 95 71 60 72 43 73 44 74 53 75 45 76 46 77
REMARK SMILES IDX 52 78 54 79 47 80 48 81 49 82 50 83 51 84 77 85 78 86 87 87
REMARK SMILES IDX 79 88 80 89 86 90 88 91 81 92 82 93 83 94 84 95 85 96 61 97
REMARK SMILES IDX 62 98 71 99 63 100 64 101 70 102 72 103 65 104 66 105 67 106
REMARK SMILES IDX 68 107 69 108
REMARK H PARENT 9 17 26 32 31 39 93 58 59 69
REMARK Flexibility Score: inf
ROOT
ATOM      1  C   UNL A   1      37.284  22.631  26.008  1.00  0.00     0.018 A 
ATOM      2  C   UNL A   1      38.301  23.456  26.514  1.00  0.00     0.012 A 
ATOM      3  C   UNL A   1      39.644  23.069  26.485  1.00  0.00     0.005 A 
ATOM      4  C   UNL A   1      40.021  21.802  26.032  1.00  0.00    -0.033 A 
ATOM      5  C   UNL A   1      39.021  20.987  25.482  1.00  0.00     0.044 A 
ATOM      6  C   UNL A   1      37.688  21.409  25.453  1.00  0.00     0.131 A 
ATOM      7  F   UNL A   1      36.792  20.591  24.879  1.00  0.00    -0.206 F 
ENDROOT
BRANCH   1   8
ATOM      8  C   UNL A   1      35.868  23.039  26.118  1.00  0.00    -0.012 A 
ATOM      9  C   UNL A   1      34.105  24.679  25.787  1.00  0.00     0.133 A 
ATOM     10  C   UNL A   1      33.132  23.775  26.198  1.00  0.00     0.047 A 
ATOM     11  C   UNL A   1      35.457  24.331  25.756  1.00  0.00     0.056 A 
ATOM     12  C   UNL A   1      33.518  22.494  26.569  1.00  0.00     0.004 A 
ATOM     13  C   UNL A   1      34.870  22.134  26.534  1.00  0.00     0.009 A 
BRANCH   9  14
ATOM     14  O   UNL A   1      33.696  25.988  25.515  1.00  0.00    -0.410 OA
BRANCH  14  15
ATOM     15  C   UNL A   1      33.723  26.389  24.189  1.00  0.00     0.412 C 
ATOM     16  N   UNL A   1      33.755  27.749  24.054  1.00  0.00    -0.321 N 
ATOM     17  H   UNL A   1      33.735  28.105  23.136  1.00  0.00     0.167 HD
ATOM     18  O   UNL A   1      33.715  25.656  23.209  1.00  0.00    -0.224 OA
BRANCH  16  19
ATOM     19  C   UNL A   1      33.816  28.718  25.127  1.00  0.00     0.119 C 
BRANCH  19  20
ATOM     20  C   UNL A   1      32.721  29.776  24.998  1.00  0.00     0.021 C 
BRANCH  20  21
ATOM     21  C   UNL A   1      31.293  29.234  25.136  1.00  0.00     0.002 C 
BRANCH  21  22
ATOM     22  C   UNL A   1      30.470  29.245  23.843  1.00  0.00     0.000 C 
BRANCH  22  23
ATOM     23  C   UNL A   1      29.506  30.427  23.708  1.00  0.00    -0.000 C 
BRANCH  23  24
ATOM     24  C   UNL A   1      28.161  30.089  23.057  1.00  0.00    -0.000 C 
BRANCH  24  25
ATOM     25  C   UNL A   1      27.547  31.211  22.217  1.00  0.00    -0.003 C 
ATOM     26  C   UNL A   1      28.562  32.249  21.765  1.00  0.00     0.004 C 
ENDBRANCH  24  25
ENDBRANCH  23  24
ENDBRANCH  22  23
ENDBRANCH  21  22
ENDBRANCH  20  21
ENDBRANCH  19  20
ENDBRANCH  16  19
ENDBRANCH  14  15
ENDBRANCH   9  14
ENDBRANCH   1   8
BRANCH   4  27
ATOM     27  C   UNL A   1      41.437  21.268  26.161  1.00  0.00     0.105 C 
ATOM     28  C   UNL A   1      42.528  22.117  25.511  1.00  0.00     0.023 C 
BRANCH  27  29
ATOM     29  C   UNL A   1      41.788  20.777  27.576  1.00  0.00     0.227 C 
ATOM     30  O   UNL A   1      41.636  19.584  27.864  1.00  0.00    -0.274 OA
ATOM     31  N   UNL A   1      42.284  21.580  28.559  1.00  0.00    -0.356 N 
ATOM     32  H   UNL A   1      42.525  21.102  29.385  1.00  0.00     0.163 HD
BRANCH  31  33
ATOM     33  C   UNL A   1      42.521  23.007  28.608  1.00  0.00     0.116 C 
BRANCH  33  34
ATOM     34  C   UNL A   1      44.012  23.343  28.557  1.00  0.00     0.023 C 
BRANCH  34  35
ATOM     35  C   UNL A   1      44.334  24.834  28.538  1.00  0.00     0.023 C 
BRANCH  35  36
ATOM     36  C   UNL A   1      44.871  25.363  27.213  1.00  0.00     0.116 C 
BRANCH  36  37
ATOM     37  N   UNL A   1      43.933  25.241  26.105  1.00  0.00    -0.352 N 
ATOM     38  C   UNL A   1      42.690  25.818  25.979  1.00  0.00     0.251 C 
ATOM     39  H   UNL A   1      44.224  24.677  25.354  1.00  0.00     0.163 HD
ATOM     40  O   UNL A   1      41.973  25.546  25.022  1.00  0.00    -0.269 OA
BRANCH  38  41
ATOM     41  C   UNL A   1      42.217  26.735  27.038  1.00  0.00     0.039 A 
ATOM     42  C   UNL A   1      41.244  26.290  27.934  1.00  0.00     0.014 A 
ATOM     43  C   UNL A   1      42.791  28.000  27.186  1.00  0.00     0.014 A 
ATOM     44  C   UNL A   1      40.901  27.089  29.026  1.00  0.00     0.010 A 
ATOM     45  C   UNL A   1      42.515  28.752  28.322  1.00  0.00     0.010 A 
ATOM     46  C   UNL A   1      41.565  28.308  29.253  1.00  0.00    -0.014 A 
BRANCH  46  47
ATOM     47  C   UNL A   1      41.278  29.126  30.459  1.00  0.00     0.031 A 
ATOM     48  C   UNL A   1      42.112  28.957  31.701  1.00  0.00     0.074 A 
ATOM     49  C   UNL A   1      40.231  29.975  30.455  1.00  0.00     0.049 A 
ATOM     50  N   UNL A   1      41.994  29.549  32.861  1.00  0.00    -0.248 NA
ATOM     51  C   UNL A   1      43.205  27.971  31.642  1.00  0.00     0.031 C 
ATOM     52  C   UNL A   1      39.308  30.178  29.335  1.00  0.00     0.029 A 
ATOM     53  N   UNL A   1      39.761  30.826  31.424  1.00  0.00    -0.354 N 
ATOM     54  C   UNL A   1      42.985  29.001  33.669  1.00  0.00     0.074 A 
ATOM     55  C   UNL A   1      43.654  27.986  32.888  1.00  0.00     0.031 C 
ATOM     56  C   UNL A   1      38.405  31.114  29.670  1.00  0.00     0.029 A 
ATOM     57  C   UNL A   1      38.658  31.552  31.039  1.00  0.00     0.049 A 
ATOM     58  H   UNL A   1      40.175  30.909  32.314  1.00  0.00     0.167 HD
ATOM     59  C   UNL A   1      43.325  29.337  34.935  1.00  0.00     0.037 A 
ATOM     60  C   UNL A   1      37.931  32.465  31.712  1.00  0.00     0.037 A 
ATOM     61  C   UNL A   1      42.671  30.370  35.695  1.00  0.00     0.049 A 
ATOM     62  C   UNL A   1      38.336  32.827  33.116  1.00  0.00     0.074 A 
ATOM     63  C   UNL A   1      42.982  30.833  36.961  1.00  0.00     0.029 A 
ATOM     64  N   UNL A   1      41.574  31.100  35.261  1.00  0.00    -0.354 N 
ATOM     65  N   UNL A   1      39.327  32.355  33.836  1.00  0.00    -0.248 NA
ATOM     66  C   UNL A   1      37.533  33.851  33.796  1.00  0.00     0.031 C 
ATOM     67  C   UNL A   1      42.042  31.806  37.314  1.00  0.00     0.029 A 
ATOM     68  C   UNL A   1      41.181  31.992  36.245  1.00  0.00     0.049 A 
ATOM     69  H   UNL A   1      41.139  30.998  34.383  1.00  0.00     0.167 HD
ATOM     70  C   UNL A   1      39.282  33.045  35.042  1.00  0.00     0.074 A 
ATOM     71  C   UNL A   1      38.178  33.979  34.947  1.00  0.00     0.031 C 
ATOM     72  C   UNL A   1      40.082  32.919  36.131  1.00  0.00     0.037 A 
BRANCH  59  73
ATOM     73  C   UNL A   1      44.461  28.587  35.578  1.00  0.00     0.058 A 
ATOM     74  C   UNL A   1      44.243  27.424  36.335  1.00  0.00     0.135 A 
ATOM     75  C   UNL A   1      45.787  29.009  35.397  1.00  0.00     0.135 A 
ATOM     76  F   UNL A   1      42.994  26.984  36.557  1.00  0.00    -0.206 F 
ATOM     77  C   UNL A   1      45.296  26.722  36.911  1.00  0.00     0.059 A 
ATOM     78  C   UNL A   1      46.860  28.304  35.937  1.00  0.00     0.059 A 
ATOM     79  F   UNL A   1      46.055  30.114  34.685  1.00  0.00    -0.206 F 
ATOM     80  C   UNL A   1      46.603  27.167  36.703  1.00  0.00     0.060 A 
BRANCH  80  81
ATOM     81  S   UNL A   1      47.958  26.231  37.439  1.00  0.00     0.124 S 
ATOM     82  O   UNL A   1      49.021  26.438  36.459  1.00  0.00    -0.237 OA
ATOM     83  O   UNL A   1      48.140  26.902  38.722  1.00  0.00    -0.237 OA
ATOM     84  O   UNL A   1      47.431  24.871  37.514  1.00  0.00    -0.744 OA
ENDBRANCH  80  81
ENDBRANCH  59  73
BRANCH  60  85
ATOM     85  C   UNL A   1      36.760  33.116  31.062  1.00  0.00     0.058 A 
ATOM     86  C   UNL A   1      36.932  34.052  30.032  1.00  0.00     0.135 A 
ATOM     87  C   UNL A   1      35.447  32.816  31.458  1.00  0.00     0.135 A 
ATOM     88  F   UNL A   1      38.166  34.378  29.620  1.00  0.00    -0.206 F 
ATOM     89  C   UNL A   1      35.847  34.687  29.433  1.00  0.00     0.059 A 
ATOM     90  C   UNL A   1      34.345  33.416  30.855  1.00  0.00     0.059 A 
ATOM     91  F   UNL A   1      35.225  31.915  32.427  1.00  0.00    -0.206 F 
ATOM     92  C   UNL A   1      34.556  34.360  29.853  1.00  0.00     0.060 A 
BRANCH  92  93
ATOM     93  S   UNL A   1      33.154  35.165  29.046  1.00  0.00     0.124 S 
ATOM     94  O   UNL A   1      32.693  34.117  28.144  1.00  0.00    -0.237 OA
ATOM     95  O   UNL A   1      32.282  35.466  30.177  1.00  0.00    -0.237 OA
ATOM     96  O   UNL A   1      33.759  36.329  28.404  1.00  0.00    -0.744 OA
ENDBRANCH  92  93
ENDBRANCH  60  85
BRANCH  72  97
ATOM     97  C   UNL A   1      39.816  33.836  37.294  1.00  0.00     0.058 A 
ATOM     98  C   UNL A   1      40.372  35.121  37.368  1.00  0.00     0.135 A 
ATOM     99  C   UNL A   1      38.953  33.435  38.329  1.00  0.00     0.135 A 
ATOM    100  F   UNL A   1      41.206  35.553  36.407  1.00  0.00    -0.206 F 
ATOM    101  C   UNL A   1      40.111  35.966  38.441  1.00  0.00     0.059 A 
ATOM    102  C   UNL A   1      38.652  34.275  39.395  1.00  0.00     0.059 A 
ATOM    103  F   UNL A   1      38.382  32.219  38.302  1.00  0.00    -0.206 F 
ATOM    104  C   UNL A   1      39.249  35.533  39.450  1.00  0.00     0.060 A 
BRANCH 104 105
ATOM    105  S   UNL A   1      38.901  36.648  40.827  1.00  0.00     0.124 S 
ATOM    106  O   UNL A   1      38.353  37.809  40.134  1.00  0.00    -0.237 OA
ATOM    107  O   UNL A   1      37.951  35.876  41.621  1.00  0.00    -0.237 OA
ATOM    108  O   UNL A   1      40.210  36.845  41.443  1.00  0.00    -0.744 OA
ENDBRANCH 104 105
ENDBRANCH  72  97
ENDBRANCH  46  47
ENDBRANCH  38  41
ENDBRANCH  36  37
ENDBRANCH  35  36
ENDBRANCH  34  35
ENDBRANCH  33  34
ENDBRANCH  31  33
ENDBRANCH  27  29
ENDBRANCH   4  27
TORSDOF 25
ENDMDL
