MODEL 1
REMARK VINA RESULT:     -11.8      0.000      0.000
REMARK SMILES Cc1cccc2c(C(=O)NCCCCNC(=O)c3ccc(-c4c5nc(c(-c6c(F)cc(S(=O)(=O)[O-])cc6F)c6ccc([nH]6)c(-c6c(F)cc(S(=O)(=O)[O-])cc6F)c6nc(c(-c7c(F)cc(S(=O)(=O)[O-])cc7F)c7ccc4[nH]7)C=C6)C=C5)cc3)cc(=O)[nH]c12
REMARK SMILES IDX 14 1 13 2 12 3 11 4 10 5 8 6 9 7 7 9 1 10 2 11 3 12 88 13
REMARK SMILES IDX 4 14 6 15 87 16 5 17 85 18 84 20 86 21 15 22 16 23 17 25
REMARK SMILES IDX 18 26 19 27 83 28 20 29 82 30 21 31 22 32 23 33 76 34 24 35
REMARK SMILES IDX 81 36 75 37 77 38 25 39 80 40 74 41 73 42 26 44 60 45 39 46
REMARK SMILES IDX 59 47 40 48 43 49 58 50 78 51 41 52 42 53 57 55 79 56 44 57
REMARK SMILES IDX 27 58 28 59 37 60 29 61 30 62 36 63 38 64 31 65 32 66 33 67
REMARK SMILES IDX 34 68 35 69 61 70 62 71 71 72 63 73 64 74 70 75 72 76 65 77
REMARK SMILES IDX 66 78 67 79 68 80 69 81 45 82 46 83 55 84 47 85 48 86 54 87
REMARK SMILES IDX 56 88 49 89 50 90 51 91 52 92 53 93
REMARK H PARENT 10 8 87 19 15 24 77 43 43 54
REMARK Flexibility Score: inf
ROOT
ATOM      1  C   UNL A   1      33.543  28.635  27.254  1.00  0.00     0.116 C 
ENDROOT
BRANCH   1   2
ATOM      2  C   UNL A   1      33.813  28.507  25.760  1.00  0.00     0.023 C 
BRANCH   2   3
ATOM      3  C   UNL A   1      32.777  29.182  24.856  1.00  0.00     0.023 C 
BRANCH   3   4
ATOM      4  C   UNL A   1      31.391  28.527  24.882  1.00  0.00     0.116 C 
BRANCH   4   5
ATOM      5  N   UNL A   1      31.265  27.572  23.798  1.00  0.00    -0.352 N 
ATOM      6  C   UNL A   1      31.407  26.223  23.681  1.00  0.00     0.252 C 
ATOM      7  O   UNL A   1      31.345  25.806  22.522  1.00  0.00    -0.269 OA
ATOM      8  H   UNL A   1      31.020  27.999  22.946  1.00  0.00     0.163 HD
BRANCH   6   9
ATOM      9  C   UNL A   1      31.561  25.271  24.847  1.00  0.00     0.054 A 
ATOM     10  C   UNL A   1      34.192  21.960  27.664  1.00  0.00     0.046 C 
ATOM     11  C   UNL A   1      34.128  23.057  26.638  1.00  0.00    -0.027 A 
ATOM     12  C   UNL A   1      35.320  23.462  26.027  1.00  0.00     0.005 A 
ATOM     13  C   UNL A   1      32.920  23.669  26.238  1.00  0.00     0.052 A 
ATOM     14  C   UNL A   1      35.308  24.451  25.052  1.00  0.00     0.001 A 
ATOM     15  C   UNL A   1      32.878  24.656  25.225  1.00  0.00     0.011 A 
ATOM     16  N   UNL A   1      31.732  23.326  26.894  1.00  0.00    -0.322 N 
ATOM     17  C   UNL A   1      34.102  25.030  24.651  1.00  0.00     0.011 A 
ATOM     18  C   UNL A   1      30.549  23.958  26.691  1.00  0.00     0.249 A 
ATOM     19  H   UNL A   1      31.756  22.584  27.540  1.00  0.00     0.170 HD
ATOM     20  C   UNL A   1      30.516  24.992  25.645  1.00  0.00     0.086 A 
ATOM     21  O   UNL A   1      29.537  23.676  27.325  1.00  0.00    -0.270 OA
ENDBRANCH   6   9
ENDBRANCH   4   5
ENDBRANCH   3   4
ENDBRANCH   2   3
ENDBRANCH   1   2
BRANCH   1  22
ATOM     22  N   UNL A   1      33.539  30.009  27.737  1.00  0.00    -0.352 N 
ATOM     23  C   UNL A   1      34.584  30.708  28.304  1.00  0.00     0.251 C 
ATOM     24  H   UNL A   1      32.689  30.498  27.648  1.00  0.00     0.163 HD
ATOM     25  O   UNL A   1      34.421  31.838  28.743  1.00  0.00    -0.269 OA
BRANCH  23  26
ATOM     26  C   UNL A   1      35.894  30.033  28.417  1.00  0.00     0.039 A 
ATOM     27  C   UNL A   1      36.283  29.469  29.632  1.00  0.00     0.014 A 
ATOM     28  C   UNL A   1      36.780  30.077  27.338  1.00  0.00     0.014 A 
ATOM     29  C   UNL A   1      37.614  29.134  29.829  1.00  0.00     0.010 A 
ATOM     30  C   UNL A   1      38.100  29.649  27.514  1.00  0.00     0.010 A 
ATOM     31  C   UNL A   1      38.545  29.239  28.781  1.00  0.00    -0.014 A 
BRANCH  31  32
ATOM     32  C   UNL A   1      39.978  28.956  29.060  1.00  0.00     0.031 A 
ATOM     33  C   UNL A   1      40.592  27.634  28.671  1.00  0.00     0.074 A 
ATOM     34  C   UNL A   1      40.750  29.933  29.575  1.00  0.00     0.049 A 
ATOM     35  N   UNL A   1      41.840  27.248  28.767  1.00  0.00    -0.248 NA
ATOM     36  C   UNL A   1      39.697  26.612  28.107  1.00  0.00     0.031 C 
ATOM     37  C   UNL A   1      40.268  31.257  29.978  1.00  0.00     0.029 A 
ATOM     38  N   UNL A   1      42.100  29.987  29.807  1.00  0.00    -0.354 N 
ATOM     39  C   UNL A   1      41.876  25.942  28.292  1.00  0.00     0.074 A 
ATOM     40  C   UNL A   1      40.519  25.585  27.940  1.00  0.00     0.031 C 
ATOM     41  C   UNL A   1      41.315  32.014  30.338  1.00  0.00     0.029 A 
ATOM     42  C   UNL A   1      42.533  31.214  30.253  1.00  0.00     0.049 A 
ATOM     43  H   UNL A   1      42.702  29.221  29.666  1.00  0.00     0.167 HD
ATOM     44  C   UNL A   1      42.944  25.123  28.144  1.00  0.00     0.037 A 
ATOM     45  C   UNL A   1      43.769  31.648  30.565  1.00  0.00     0.037 A 
ATOM     46  C   UNL A   1      44.297  25.494  28.464  1.00  0.00     0.049 A 
ATOM     47  C   UNL A   1      44.931  30.706  30.432  1.00  0.00     0.074 A 
ATOM     48  C   UNL A   1      45.452  24.744  28.320  1.00  0.00     0.029 A 
ATOM     49  N   UNL A   1      44.682  26.720  28.987  1.00  0.00    -0.354 N 
ATOM     50  N   UNL A   1      44.943  29.479  29.970  1.00  0.00    -0.248 NA
ATOM     51  C   UNL A   1      46.241  31.196  30.879  1.00  0.00     0.031 C 
ATOM     52  C   UNL A   1      46.527  25.499  28.797  1.00  0.00     0.029 A 
ATOM     53  C   UNL A   1      46.050  26.738  29.197  1.00  0.00     0.049 A 
ATOM     54  H   UNL A   1      44.071  27.468  29.180  1.00  0.00     0.167 HD
ATOM     55  C   UNL A   1      46.262  29.051  30.068  1.00  0.00     0.074 A 
ATOM     56  C   UNL A   1      47.021  30.157  30.612  1.00  0.00     0.031 C 
ATOM     57  C   UNL A   1      46.791  27.846  29.745  1.00  0.00     0.037 A 
BRANCH  44  58
ATOM     58  C   UNL A   1      42.702  23.737  27.612  1.00  0.00     0.058 A 
ATOM     59  C   UNL A   1      42.769  23.453  26.238  1.00  0.00     0.135 A 
ATOM     60  C   UNL A   1      42.464  22.665  28.489  1.00  0.00     0.135 A 
ATOM     61  F   UNL A   1      42.978  24.441  25.354  1.00  0.00    -0.206 F 
ATOM     62  C   UNL A   1      42.590  22.161  25.753  1.00  0.00     0.059 A 
ATOM     63  C   UNL A   1      42.306  21.361  28.028  1.00  0.00     0.059 A 
ATOM     64  F   UNL A   1      42.392  22.881  29.813  1.00  0.00    -0.206 F 
ATOM     65  C   UNL A   1      42.361  21.122  26.655  1.00  0.00     0.060 A 
BRANCH  65  66
ATOM     66  S   UNL A   1      42.144  19.451  26.006  1.00  0.00     0.124 S 
ATOM     67  O   UNL A   1      42.633  18.642  27.119  1.00  0.00    -0.237 OA
ATOM     68  O   UNL A   1      40.706  19.394  25.767  1.00  0.00    -0.237 OA
ATOM     69  O   UNL A   1      42.978  19.438  24.809  1.00  0.00    -0.744 OA
ENDBRANCH  65  66
ENDBRANCH  44  58
BRANCH  45  70
ATOM     70  C   UNL A   1      43.959  33.045  31.035  1.00  0.00     0.058 A 
ATOM     71  C   UNL A   1      44.114  34.098  30.122  1.00  0.00     0.135 A 
ATOM     72  C   UNL A   1      43.941  33.361  32.402  1.00  0.00     0.135 A 
ATOM     73  F   UNL A   1      44.143  33.846  28.805  1.00  0.00    -0.206 F 
ATOM     74  C   UNL A   1      44.243  35.416  30.548  1.00  0.00     0.059 A 
ATOM     75  C   UNL A   1      44.043  34.672  32.852  1.00  0.00     0.059 A 
ATOM     76  F   UNL A   1      43.781  32.389  33.315  1.00  0.00    -0.206 F 
ATOM     77  C   UNL A   1      44.199  35.693  31.916  1.00  0.00     0.060 A 
BRANCH  77  78
ATOM     78  S   UNL A   1      44.299  37.414  32.453  1.00  0.00     0.124 S 
ATOM     79  O   UNL A   1      43.965  38.124  31.224  1.00  0.00    -0.237 OA
ATOM     80  O   UNL A   1      43.296  37.462  33.512  1.00  0.00    -0.237 OA
ATOM     81  O   UNL A   1      45.681  37.546  32.904  1.00  0.00    -0.744 OA
ENDBRANCH  77  78
ENDBRANCH  45  70
BRANCH  57  82
ATOM     82  C   UNL A   1      48.261  27.645  29.976  1.00  0.00     0.058 A 
ATOM     83  C   UNL A   1      48.734  27.045  31.152  1.00  0.00     0.135 A 
ATOM     84  C   UNL A   1      49.193  27.960  28.974  1.00  0.00     0.135 A 
ATOM     85  F   UNL A   1      47.883  26.735  32.143  1.00  0.00    -0.206 F 
ATOM     86  C   UNL A   1      50.084  26.759  31.326  1.00  0.00     0.059 A 
ATOM     87  C   UNL A   1      50.544  27.662  29.118  1.00  0.00     0.059 A 
ATOM     88  F   UNL A   1      48.788  28.530  27.829  1.00  0.00    -0.206 F 
ATOM     89  C   UNL A   1      50.980  27.060  30.299  1.00  0.00     0.060 A 
BRANCH  89  90
ATOM     90  S   UNL A   1      52.715  26.608  30.510  1.00  0.00     0.124 S 
ATOM     91  O   UNL A   1      53.278  27.841  31.051  1.00  0.00    -0.237 OA
ATOM     92  O   UNL A   1      52.632  25.487  31.442  1.00  0.00    -0.237 OA
ATOM     93  O   UNL A   1      53.144  26.262  29.159  1.00  0.00    -0.744 OA
ENDBRANCH  89  90
ENDBRANCH  57  82
ENDBRANCH  31  32
ENDBRANCH  23  26
ENDBRANCH   1  22
TORSDOF 14
ENDMDL
MODEL 2
REMARK VINA RESULT:     -11.4      1.322      2.996
REMARK SMILES Cc1cccc2c(C(=O)NCCCCNC(=O)c3ccc(-c4c5nc(c(-c6c(F)cc(S(=O)(=O)[O-])cc6F)c6ccc([nH]6)c(-c6c(F)cc(S(=O)(=O)[O-])cc6F)c6nc(c(-c7c(F)cc(S(=O)(=O)[O-])cc7F)c7ccc4[nH]7)C=C6)C=C5)cc3)cc(=O)[nH]c12
REMARK SMILES IDX 14 1 13 2 12 3 11 4 10 5 8 6 9 7 7 9 1 10 2 11 3 12 88 13
REMARK SMILES IDX 4 14 6 15 87 16 5 17 85 18 84 20 86 21 15 22 16 23 17 25
REMARK SMILES IDX 18 26 19 27 83 28 20 29 82 30 21 31 22 32 23 33 76 34 24 35
REMARK SMILES IDX 81 36 75 37 77 38 25 39 80 40 74 41 73 42 26 44 60 45 39 46
REMARK SMILES IDX 59 47 40 48 43 49 58 50 78 51 41 52 42 53 57 55 79 56 44 57
REMARK SMILES IDX 27 58 28 59 37 60 29 61 30 62 36 63 38 64 31 65 32 66 33 67
REMARK SMILES IDX 34 68 35 69 61 70 62 71 71 72 63 73 64 74 70 75 72 76 65 77
REMARK SMILES IDX 66 78 67 79 68 80 69 81 45 82 46 83 55 84 47 85 48 86 54 87
REMARK SMILES IDX 56 88 49 89 50 90 51 91 52 92 53 93
REMARK H PARENT 10 8 87 19 15 24 77 43 43 54
REMARK Flexibility Score: inf
ROOT
ATOM      1  C   UNL A   1      33.334  28.694  27.277  1.00  0.00     0.116 C 
ENDROOT
BRANCH   1   2
ATOM      2  C   UNL A   1      32.068  27.957  27.691  1.00  0.00     0.023 C 
BRANCH   2   3
ATOM      3  C   UNL A   1      31.426  27.104  26.591  1.00  0.00     0.023 C 
BRANCH   3   4
ATOM      4  C   UNL A   1      32.136  25.771  26.330  1.00  0.00     0.116 C 
BRANCH   4   5
ATOM      5  N   UNL A   1      31.535  25.094  25.197  1.00  0.00    -0.352 N 
ATOM      6  C   UNL A   1      30.996  25.492  24.012  1.00  0.00     0.252 C 
ATOM      7  O   UNL A   1      30.455  24.588  23.372  1.00  0.00    -0.269 OA
ATOM      8  H   UNL A   1      31.509  24.117  25.312  1.00  0.00     0.163 HD
BRANCH   6   9
ATOM      9  C   UNL A   1      31.091  26.897  23.454  1.00  0.00     0.054 A 
ATOM     10  C   UNL A   1      29.066  31.141  21.529  1.00  0.00     0.046 C 
ATOM     11  C   UNL A   1      28.939  29.843  22.277  1.00  0.00    -0.027 A 
ATOM     12  C   UNL A   1      27.664  29.442  22.694  1.00  0.00     0.005 A 
ATOM     13  C   UNL A   1      30.037  28.997  22.545  1.00  0.00     0.052 A 
ATOM     14  C   UNL A   1      27.492  28.237  23.363  1.00  0.00     0.001 A 
ATOM     15  C   UNL A   1      29.882  27.750  23.196  1.00  0.00     0.011 A 
ATOM     16  N   UNL A   1      31.325  29.421  22.199  1.00  0.00    -0.322 N 
ATOM     17  C   UNL A   1      28.584  27.400  23.599  1.00  0.00     0.011 A 
ATOM     18  C   UNL A   1      32.456  28.755  22.544  1.00  0.00     0.249 A 
ATOM     19  H   UNL A   1      31.416  30.250  21.677  1.00  0.00     0.170 HD
ATOM     20  C   UNL A   1      32.287  27.465  23.233  1.00  0.00     0.086 A 
ATOM     21  O   UNL A   1      33.575  29.182  22.280  1.00  0.00    -0.270 OA
ENDBRANCH   6   9
ENDBRANCH   4   5
ENDBRANCH   3   4
ENDBRANCH   2   3
ENDBRANCH   1   2
BRANCH   1  22
ATOM     22  N   UNL A   1      33.355  30.098  27.668  1.00  0.00    -0.352 N 
ATOM     23  C   UNL A   1      34.412  30.812  28.193  1.00  0.00     0.251 C 
ATOM     24  H   UNL A   1      32.516  30.595  27.543  1.00  0.00     0.163 HD
ATOM     25  O   UNL A   1      34.269  31.971  28.557  1.00  0.00    -0.269 OA
BRANCH  23  26
ATOM     26  C   UNL A   1      35.708  30.121  28.358  1.00  0.00     0.039 A 
ATOM     27  C   UNL A   1      36.079  29.628  29.610  1.00  0.00     0.014 A 
ATOM     28  C   UNL A   1      36.600  30.078  27.284  1.00  0.00     0.014 A 
ATOM     29  C   UNL A   1      37.403  29.280  29.836  1.00  0.00     0.010 A 
ATOM     30  C   UNL A   1      37.910  29.637  27.496  1.00  0.00     0.010 A 
ATOM     31  C   UNL A   1      38.340  29.300  28.789  1.00  0.00    -0.014 A 
BRANCH  31  32
ATOM     32  C   UNL A   1      39.766  29.008  29.095  1.00  0.00     0.031 A 
ATOM     33  C   UNL A   1      40.380  27.684  28.714  1.00  0.00     0.074 A 
ATOM     34  C   UNL A   1      40.533  29.980  29.626  1.00  0.00     0.049 A 
ATOM     35  N   UNL A   1      41.624  27.291  28.833  1.00  0.00    -0.248 NA
ATOM     36  C   UNL A   1      39.490  26.668  28.130  1.00  0.00     0.031 C 
ATOM     37  C   UNL A   1      40.052  31.306  30.024  1.00  0.00     0.029 A 
ATOM     38  N   UNL A   1      41.880  30.025  29.884  1.00  0.00    -0.354 N 
ATOM     39  C   UNL A   1      41.661  25.986  28.355  1.00  0.00     0.074 A 
ATOM     40  C   UNL A   1      40.309  25.637  27.977  1.00  0.00     0.031 C 
ATOM     41  C   UNL A   1      41.096  32.055  30.405  1.00  0.00     0.029 A 
ATOM     42  C   UNL A   1      42.310  31.248  30.342  1.00  0.00     0.049 A 
ATOM     43  H   UNL A   1      42.480  29.256  29.753  1.00  0.00     0.167 HD
ATOM     44  C   UNL A   1      42.727  25.160  28.226  1.00  0.00     0.037 A 
ATOM     45  C   UNL A   1      43.543  31.675  30.679  1.00  0.00     0.037 A 
ATOM     46  C   UNL A   1      44.076  25.523  28.572  1.00  0.00     0.049 A 
ATOM     47  C   UNL A   1      44.702  30.726  30.565  1.00  0.00     0.074 A 
ATOM     48  C   UNL A   1      45.229  24.766  28.449  1.00  0.00     0.029 A 
ATOM     49  N   UNL A   1      44.457  26.745  29.106  1.00  0.00    -0.354 N 
ATOM     50  N   UNL A   1      44.716  29.500  30.100  1.00  0.00    -0.248 NA
ATOM     51  C   UNL A   1      46.006  31.208  31.039  1.00  0.00     0.031 C 
ATOM     52  C   UNL A   1      46.298  25.514  28.948  1.00  0.00     0.029 A 
ATOM     53  C   UNL A   1      45.822  26.754  29.342  1.00  0.00     0.049 A 
ATOM     54  H   UNL A   1      43.847  27.496  29.289  1.00  0.00     0.167 HD
ATOM     55  C   UNL A   1      46.030  29.064  30.223  1.00  0.00     0.074 A 
ATOM     56  C   UNL A   1      46.785  30.165  30.784  1.00  0.00     0.031 C 
ATOM     57  C   UNL A   1      46.558  27.857  29.907  1.00  0.00     0.037 A 
BRANCH  44  58
ATOM     58  C   UNL A   1      42.487  23.777  27.685  1.00  0.00     0.058 A 
ATOM     59  C   UNL A   1      42.433  23.524  26.305  1.00  0.00     0.135 A 
ATOM     60  C   UNL A   1      42.374  22.679  28.556  1.00  0.00     0.135 A 
ATOM     61  F   UNL A   1      42.520  24.538  25.429  1.00  0.00    -0.206 F 
ATOM     62  C   UNL A   1      42.257  22.237  25.808  1.00  0.00     0.059 A 
ATOM     63  C   UNL A   1      42.222  21.380  28.079  1.00  0.00     0.059 A 
ATOM     64  F   UNL A   1      42.421  22.864  29.885  1.00  0.00    -0.206 F 
ATOM     65  C   UNL A   1      42.154  21.170  26.703  1.00  0.00     0.060 A 
BRANCH  65  66
ATOM     66  S   UNL A   1      41.939  19.506  26.037  1.00  0.00     0.124 S 
ATOM     67  O   UNL A   1      42.388  18.685  27.158  1.00  0.00    -0.237 OA
ATOM     68  O   UNL A   1      40.508  19.466  25.756  1.00  0.00    -0.237 OA
ATOM     69  O   UNL A   1      42.808  19.492  24.864  1.00  0.00    -0.744 OA
ENDBRANCH  65  66
ENDBRANCH  44  58
BRANCH  45  70
ATOM     70  C   UNL A   1      43.732  33.070  31.155  1.00  0.00     0.058 A 
ATOM     71  C   UNL A   1      43.900  34.125  30.248  1.00  0.00     0.135 A 
ATOM     72  C   UNL A   1      43.701  33.380  32.523  1.00  0.00     0.135 A 
ATOM     73  F   UNL A   1      43.943  33.877  28.931  1.00  0.00    -0.206 F 
ATOM     74  C   UNL A   1      44.029  35.441  30.680  1.00  0.00     0.059 A 
ATOM     75  C   UNL A   1      43.802  34.689  32.979  1.00  0.00     0.059 A 
ATOM     76  F   UNL A   1      43.528  32.405  33.431  1.00  0.00    -0.206 F 
ATOM     77  C   UNL A   1      43.971  35.713  32.048  1.00  0.00     0.060 A 
BRANCH  77  78
ATOM     78  S   UNL A   1      44.070  37.432  32.593  1.00  0.00     0.124 S 
ATOM     79  O   UNL A   1      43.795  38.149  31.353  1.00  0.00    -0.237 OA
ATOM     80  O   UNL A   1      43.025  37.491  33.611  1.00  0.00    -0.237 OA
ATOM     81  O   UNL A   1      45.434  37.546  33.101  1.00  0.00    -0.744 OA
ENDBRANCH  77  78
ENDBRANCH  45  70
BRANCH  57  82
ATOM     82  C   UNL A   1      48.022  27.647  30.165  1.00  0.00     0.058 A 
ATOM     83  C   UNL A   1      48.476  27.132  31.389  1.00  0.00     0.135 A 
ATOM     84  C   UNL A   1      48.968  27.864  29.150  1.00  0.00     0.135 A 
ATOM     85  F   UNL A   1      47.612  26.919  32.394  1.00  0.00    -0.206 F 
ATOM     86  C   UNL A   1      49.818  26.835  31.596  1.00  0.00     0.059 A 
ATOM     87  C   UNL A   1      50.312  27.553  29.328  1.00  0.00     0.059 A 
ATOM     88  F   UNL A   1      48.582  28.349  27.960  1.00  0.00    -0.206 F 
ATOM     89  C   UNL A   1      50.727  27.038  30.556  1.00  0.00     0.060 A 
BRANCH  89  90
ATOM     90  S   UNL A   1      52.451  26.571  30.817  1.00  0.00     0.124 S 
ATOM     91  O   UNL A   1      52.923  26.402  29.447  1.00  0.00    -0.237 OA
ATOM     92  O   UNL A   1      52.981  27.728  31.532  1.00  0.00    -0.237 OA
ATOM     93  O   UNL A   1      52.357  25.345  31.605  1.00  0.00    -0.744 OA
ENDBRANCH  89  90
ENDBRANCH  57  82
ENDBRANCH  31  32
ENDBRANCH  23  26
ENDBRANCH   1  22
TORSDOF 14
ENDMDL
MODEL 3
REMARK VINA RESULT:     -11.4      0.931      1.915
REMARK SMILES Cc1cccc2c(C(=O)NCCCCNC(=O)c3ccc(-c4c5nc(c(-c6c(F)cc(S(=O)(=O)[O-])cc6F)c6ccc([nH]6)c(-c6c(F)cc(S(=O)(=O)[O-])cc6F)c6nc(c(-c7c(F)cc(S(=O)(=O)[O-])cc7F)c7ccc4[nH]7)C=C6)C=C5)cc3)cc(=O)[nH]c12
REMARK SMILES IDX 14 1 13 2 12 3 11 4 10 5 8 6 9 7 7 9 1 10 2 11 3 12 88 13
REMARK SMILES IDX 4 14 6 15 87 16 5 17 85 18 84 20 86 21 15 22 16 23 17 25
REMARK SMILES IDX 18 26 19 27 83 28 20 29 82 30 21 31 22 32 23 33 76 34 24 35
REMARK SMILES IDX 81 36 75 37 77 38 25 39 80 40 74 41 73 42 26 44 60 45 39 46
REMARK SMILES IDX 59 47 40 48 43 49 58 50 78 51 41 52 42 53 57 55 79 56 44 57
REMARK SMILES IDX 27 58 28 59 37 60 29 61 30 62 36 63 38 64 31 65 32 66 33 67
REMARK SMILES IDX 34 68 35 69 61 70 62 71 71 72 63 73 64 74 70 75 72 76 65 77
REMARK SMILES IDX 66 78 67 79 68 80 69 81 45 82 46 83 55 84 47 85 48 86 54 87
REMARK SMILES IDX 56 88 49 89 50 90 51 91 52 92 53 93
REMARK H PARENT 10 8 87 19 15 24 77 43 43 54
REMARK Flexibility Score: inf
ROOT
ATOM      1  C   UNL A   1      33.597  28.614  27.303  1.00  0.00     0.116 C 
ENDROOT
BRANCH   1   2
ATOM      2  C   UNL A   1      33.570  28.531  25.783  1.00  0.00     0.023 C 
BRANCH   2   3
ATOM      3  C   UNL A   1      32.728  29.610  25.091  1.00  0.00     0.023 C 
BRANCH   3   4
ATOM      4  C   UNL A   1      31.727  29.068  24.064  1.00  0.00     0.116 C 
BRANCH   4   5
ATOM      5  N   UNL A   1      30.955  27.982  24.638  1.00  0.00    -0.352 N 
ATOM      6  C   UNL A   1      30.932  26.630  24.483  1.00  0.00     0.252 C 
ATOM      7  O   UNL A   1      30.006  26.068  25.072  1.00  0.00    -0.269 OA
ATOM      8  H   UNL A   1      30.292  28.296  25.294  1.00  0.00     0.163 HD
BRANCH   6   9
ATOM      9  C   UNL A   1      31.970  25.835  23.720  1.00  0.00     0.054 A 
ATOM     10  C   UNL A   1      36.202  23.039  23.422  1.00  0.00     0.046 C 
ATOM     11  C   UNL A   1      35.071  23.635  24.213  1.00  0.00    -0.027 A 
ATOM     12  C   UNL A   1      35.054  23.436  25.598  1.00  0.00     0.005 A 
ATOM     13  C   UNL A   1      34.049  24.415  23.628  1.00  0.00     0.052 A 
ATOM     14  C   UNL A   1      34.046  23.992  26.375  1.00  0.00     0.001 A 
ATOM     15  C   UNL A   1      33.030  25.019  24.402  1.00  0.00     0.011 A 
ATOM     16  N   UNL A   1      34.014  24.560  22.236  1.00  0.00    -0.322 N 
ATOM     17  C   UNL A   1      33.056  24.780  25.784  1.00  0.00     0.011 A 
ATOM     18  C   UNL A   1      32.998  25.161  21.567  1.00  0.00     0.249 A 
ATOM     19  H   UNL A   1      34.768  24.206  21.713  1.00  0.00     0.170 HD
ATOM     20  C   UNL A   1      31.935  25.774  22.378  1.00  0.00     0.086 A 
ATOM     21  O   UNL A   1      32.964  25.219  20.342  1.00  0.00    -0.270 OA
ENDBRANCH   6   9
ENDBRANCH   4   5
ENDBRANCH   3   4
ENDBRANCH   2   3
ENDBRANCH   1   2
BRANCH   1  22
ATOM     22  N   UNL A   1      33.572  29.976  27.821  1.00  0.00    -0.352 N 
ATOM     23  C   UNL A   1      34.606  30.674  28.409  1.00  0.00     0.251 C 
ATOM     24  H   UNL A   1      32.716  30.454  27.742  1.00  0.00     0.163 HD
ATOM     25  O   UNL A   1      34.425  31.790  28.876  1.00  0.00    -0.269 OA
BRANCH  23  26
ATOM     26  C   UNL A   1      35.925  30.015  28.509  1.00  0.00     0.039 A 
ATOM     27  C   UNL A   1      36.337  29.468  29.724  1.00  0.00     0.014 A 
ATOM     28  C   UNL A   1      36.794  30.058  27.417  1.00  0.00     0.014 A 
ATOM     29  C   UNL A   1      37.676  29.149  29.904  1.00  0.00     0.010 A 
ATOM     30  C   UNL A   1      38.120  29.646  27.577  1.00  0.00     0.010 A 
ATOM     31  C   UNL A   1      38.589  29.254  28.841  1.00  0.00    -0.014 A 
BRANCH  31  32
ATOM     32  C   UNL A   1      40.029  28.990  29.102  1.00  0.00     0.031 A 
ATOM     33  C   UNL A   1      40.651  27.669  28.722  1.00  0.00     0.074 A 
ATOM     34  C   UNL A   1      40.799  29.982  29.590  1.00  0.00     0.049 A 
ATOM     35  N   UNL A   1      41.905  27.298  28.803  1.00  0.00    -0.248 NA
ATOM     36  C   UNL A   1      39.758  26.630  28.185  1.00  0.00     0.031 C 
ATOM     37  C   UNL A   1      40.310  31.307  29.983  1.00  0.00     0.029 A 
ATOM     38  N   UNL A   1      42.152  30.053  29.800  1.00  0.00    -0.354 N 
ATOM     39  C   UNL A   1      41.947  25.986  28.346  1.00  0.00     0.074 A 
ATOM     40  C   UNL A   1      40.588  25.609  28.020  1.00  0.00     0.031 C 
ATOM     41  C   UNL A   1      41.354  32.079  30.315  1.00  0.00     0.029 A 
ATOM     42  C   UNL A   1      42.578  31.291  30.223  1.00  0.00     0.049 A 
ATOM     43  H   UNL A   1      42.760  29.291  29.660  1.00  0.00     0.167 HD
ATOM     44  C   UNL A   1      43.021  25.175  28.192  1.00  0.00     0.037 A 
ATOM     45  C   UNL A   1      43.814  31.742  30.509  1.00  0.00     0.037 A 
ATOM     46  C   UNL A   1      44.375  25.565  28.486  1.00  0.00     0.049 A 
ATOM     47  C   UNL A   1      44.984  30.810  30.371  1.00  0.00     0.074 A 
ATOM     48  C   UNL A   1      45.535  24.824  28.334  1.00  0.00     0.029 A 
ATOM     49  N   UNL A   1      44.755  26.802  28.986  1.00  0.00    -0.354 N 
ATOM     50  N   UNL A   1      45.002  29.577  29.925  1.00  0.00    -0.248 NA
ATOM     51  C   UNL A   1      46.296  31.320  30.790  1.00  0.00     0.031 C 
ATOM     52  C   UNL A   1      46.609  25.598  28.783  1.00  0.00     0.029 A 
ATOM     53  C   UNL A   1      46.126  26.836  29.174  1.00  0.00     0.049 A 
ATOM     54  H   UNL A   1      44.139  27.546  29.178  1.00  0.00     0.167 HD
ATOM     55  C   UNL A   1      46.327  29.164  30.009  1.00  0.00     0.074 A 
ATOM     56  C   UNL A   1      47.083  30.286  30.526  1.00  0.00     0.031 C 
ATOM     57  C   UNL A   1      46.864  27.960  29.694  1.00  0.00     0.037 A 
BRANCH  44  58
ATOM     58  C   UNL A   1      42.785  23.779  27.683  1.00  0.00     0.058 A 
ATOM     59  C   UNL A   1      42.592  22.698  28.558  1.00  0.00     0.135 A 
ATOM     60  C   UNL A   1      42.687  23.529  26.304  1.00  0.00     0.135 A 
ATOM     61  F   UNL A   1      42.691  22.877  29.885  1.00  0.00    -0.206 F 
ATOM     62  C   UNL A   1      42.329  21.417  28.084  1.00  0.00     0.059 A 
ATOM     63  C   UNL A   1      42.400  22.260  25.808  1.00  0.00     0.059 A 
ATOM     64  F   UNL A   1      42.862  24.527  25.423  1.00  0.00    -0.206 F 
ATOM     65  C   UNL A   1      42.233  21.208  26.707  1.00  0.00     0.060 A 
BRANCH  65  66
ATOM     66  S   UNL A   1      41.877  19.540  26.113  1.00  0.00     0.124 S 
ATOM     67  O   UNL A   1      42.738  19.462  24.936  1.00  0.00    -0.237 OA
ATOM     68  O   UNL A   1      42.279  18.714  27.247  1.00  0.00    -0.237 OA
ATOM     69  O   UNL A   1      40.444  19.573  25.840  1.00  0.00    -0.744 OA
ENDBRANCH  65  66
ENDBRANCH  44  58
BRANCH  45  70
ATOM     70  C   UNL A   1      43.997  33.147  30.956  1.00  0.00     0.058 A 
ATOM     71  C   UNL A   1      44.255  34.170  30.033  1.00  0.00     0.135 A 
ATOM     72  C   UNL A   1      43.870  33.502  32.308  1.00  0.00     0.135 A 
ATOM     73  F   UNL A   1      44.390  33.880  28.730  1.00  0.00    -0.206 F 
ATOM     74  C   UNL A   1      44.379  35.497  30.433  1.00  0.00     0.059 A 
ATOM     75  C   UNL A   1      43.965  34.823  32.730  1.00  0.00     0.059 A 
ATOM     76  F   UNL A   1      43.610  32.560  33.229  1.00  0.00    -0.206 F 
ATOM     77  C   UNL A   1      44.225  35.813  31.784  1.00  0.00     0.060 A 
BRANCH  77  78
ATOM     78  S   UNL A   1      44.319  37.547  32.283  1.00  0.00     0.124 S 
ATOM     79  O   UNL A   1      45.722  37.666  32.661  1.00  0.00    -0.237 OA
ATOM     80  O   UNL A   1      43.925  38.238  31.059  1.00  0.00    -0.237 OA
ATOM     81  O   UNL A   1      43.358  37.634  33.378  1.00  0.00    -0.744 OA
ENDBRANCH  77  78
ENDBRANCH  45  70
BRANCH  57  82
ATOM     82  C   UNL A   1      48.339  27.778  29.905  1.00  0.00     0.058 A 
ATOM     83  C   UNL A   1      48.840  27.256  31.106  1.00  0.00     0.135 A 
ATOM     84  C   UNL A   1      49.248  28.028  28.864  1.00  0.00     0.135 A 
ATOM     85  F   UNL A   1      48.013  27.010  32.135  1.00  0.00    -0.206 F 
ATOM     86  C   UNL A   1      50.195  26.984  31.269  1.00  0.00     0.059 A 
ATOM     87  C   UNL A   1      50.603  27.744  28.997  1.00  0.00     0.059 A 
ATOM     88  F   UNL A   1      48.815  28.522  27.694  1.00  0.00    -0.206 F 
ATOM     89  C   UNL A   1      51.066  27.221  30.204  1.00  0.00     0.060 A 
BRANCH  89  90
ATOM     90  S   UNL A   1      52.807  26.787  30.406  1.00  0.00     0.124 S 
ATOM     91  O   UNL A   1      53.180  26.419  29.044  1.00  0.00    -0.237 OA
ATOM     92  O   UNL A   1      53.381  28.032  30.906  1.00  0.00    -0.237 OA
ATOM     93  O   UNL A   1      52.776  25.688  31.367  1.00  0.00    -0.744 OA
ENDBRANCH  89  90
ENDBRANCH  57  82
ENDBRANCH  31  32
ENDBRANCH  23  26
ENDBRANCH   1  22
TORSDOF 14
ENDMDL
