MODEL 1
REMARK VINA RESULT:     -11.6      0.000      0.000
REMARK SMILES O=C(NCCCCNC(=O)c1sccc1NS(=O)(=O)N1CCCC1)c1ccc(-c2c3nc(c(-c4c(F)cc(S(=O)(=O)[O-])cc4F)c4ccc([nH]4)c(-c4c(F)cc(S(=O)(=O)[O-])cc4F)c4nc(c(-c5c(F)cc(S(=O)(=O)[O-])cc5F)c5ccc2[nH]5)C=C4)C=C3)cc1
REMARK SMILES IDX 5 1 4 2 3 3 1 4 2 5 25 7 26 8 90 9 27 10 89 11 28 12 29 13
REMARK SMILES IDX 30 14 83 15 31 16 88 17 82 18 84 19 32 20 87 21 81 22 80 23
REMARK SMILES IDX 33 25 67 26 46 27 66 28 47 29 50 30 65 31 85 32 48 33 49 34
REMARK SMILES IDX 64 36 86 37 51 38 34 39 35 40 44 41 36 42 37 43 43 44 45 45
REMARK SMILES IDX 38 46 39 47 40 48 41 49 42 50 68 51 69 52 78 53 70 54 71 55
REMARK SMILES IDX 77 56 79 57 72 58 73 59 74 60 75 61 76 62 52 63 53 64 62 65
REMARK SMILES IDX 54 66 55 67 61 68 63 69 56 70 57 71 58 72 59 73 60 74 6 75
REMARK SMILES IDX 7 76 8 77 9 78 10 80 11 81 12 82 15 83 13 84 14 85 16 86
REMARK SMILES IDX 17 88 18 89 19 90 20 91 21 92 24 93 22 94 23 95
REMARK H PARENT 3 6 84 24 50 35 8 79 16 87
REMARK Flexibility Score: inf
ROOT
ATOM      1  C   UNL A   1      39.314  22.195  26.464  1.00  0.00     0.023 C 
ENDROOT
BRANCH   1   2
ATOM      2  C   UNL A   1      39.694  23.596  26.927  1.00  0.00     0.116 C 
BRANCH   2   3
ATOM      3  N   UNL A   1      40.550  24.297  25.981  1.00  0.00    -0.352 N 
ATOM      4  O   UNL A   1      41.687  26.045  25.118  1.00  0.00    -0.269 OA
ATOM      5  C   UNL A   1      41.120  25.542  26.083  1.00  0.00     0.251 C 
ATOM      6  H   UNL A   1      40.748  23.808  25.149  1.00  0.00     0.163 HD
BRANCH   5   7
ATOM      7  C   UNL A   1      41.012  26.285  27.355  1.00  0.00     0.039 A 
ATOM      8  C   UNL A   1      39.974  26.010  28.249  1.00  0.00     0.014 A 
ATOM      9  C   UNL A   1      41.940  27.288  27.636  1.00  0.00     0.014 A 
ATOM     10  C   UNL A   1      39.766  26.846  29.340  1.00  0.00     0.010 A 
ATOM     11  C   UNL A   1      41.784  28.067  28.784  1.00  0.00     0.010 A 
ATOM     12  C   UNL A   1      40.674  27.876  29.624  1.00  0.00    -0.014 A 
BRANCH  12  13
ATOM     13  C   UNL A   1      40.485  28.724  30.827  1.00  0.00     0.031 A 
ATOM     14  C   UNL A   1      39.440  29.804  30.851  1.00  0.00     0.074 A 
ATOM     15  C   UNL A   1      41.284  28.527  31.893  1.00  0.00     0.049 A 
ATOM     16  N   UNL A   1      39.199  30.698  31.774  1.00  0.00    -0.248 NA
ATOM     17  C   UNL A   1      38.556  29.898  29.678  1.00  0.00     0.031 C 
ATOM     18  C   UNL A   1      42.327  27.503  31.985  1.00  0.00     0.029 A 
ATOM     19  N   UNL A   1      41.353  29.181  33.096  1.00  0.00    -0.354 N 
ATOM     20  C   UNL A   1      38.158  31.480  31.288  1.00  0.00     0.074 A 
ATOM     21  C   UNL A   1      37.828  30.967  29.975  1.00  0.00     0.031 C 
ATOM     22  C   UNL A   1      42.925  27.590  33.181  1.00  0.00     0.029 A 
ATOM     23  C   UNL A   1      42.358  28.719  33.911  1.00  0.00     0.049 A 
ATOM     24  H   UNL A   1      40.743  29.910  33.350  1.00  0.00     0.167 HD
ATOM     25  C   UNL A   1      37.537  32.527  31.885  1.00  0.00     0.037 A 
ATOM     26  C   UNL A   1      42.805  29.174  35.096  1.00  0.00     0.037 A 
ATOM     27  C   UNL A   1      37.880  33.022  33.195  1.00  0.00     0.049 A 
ATOM     28  C   UNL A   1      42.133  30.361  35.721  1.00  0.00     0.074 A 
ATOM     29  C   UNL A   1      37.295  34.057  33.903  1.00  0.00     0.029 A 
ATOM     30  N   UNL A   1      38.907  32.528  33.989  1.00  0.00    -0.354 N 
ATOM     31  N   UNL A   1      41.135  31.077  35.260  1.00  0.00    -0.248 NA
ATOM     32  C   UNL A   1      42.641  30.803  37.024  1.00  0.00     0.031 C 
ATOM     33  C   UNL A   1      38.004  34.225  35.097  1.00  0.00     0.029 A 
ATOM     34  C   UNL A   1      38.987  33.251  35.167  1.00  0.00     0.049 A 
ATOM     35  H   UNL A   1      39.492  31.773  33.748  1.00  0.00     0.167 HD
ATOM     36  C   UNL A   1      40.874  32.035  36.231  1.00  0.00     0.074 A 
ATOM     37  C   UNL A   1      41.821  31.808  37.305  1.00  0.00     0.031 C 
ATOM     38  C   UNL A   1      39.928  33.006  36.235  1.00  0.00     0.037 A 
BRANCH  25  39
ATOM     39  C   UNL A   1      36.453  33.230  31.110  1.00  0.00     0.058 A 
ATOM     40  C   UNL A   1      36.736  34.043  30.000  1.00  0.00     0.135 A 
ATOM     41  C   UNL A   1      35.105  33.079  31.478  1.00  0.00     0.135 A 
ATOM     42  F   UNL A   1      38.006  34.232  29.606  1.00  0.00    -0.206 F 
ATOM     43  C   UNL A   1      35.730  34.720  29.316  1.00  0.00     0.059 A 
ATOM     44  C   UNL A   1      34.079  33.721  30.789  1.00  0.00     0.059 A 
ATOM     45  F   UNL A   1      34.772  32.309  32.526  1.00  0.00    -0.206 F 
ATOM     46  C   UNL A   1      34.405  34.559  29.724  1.00  0.00     0.060 A 
BRANCH  46  47
ATOM     47  S   UNL A   1      33.116  35.474  28.854  1.00  0.00     0.124 S 
ATOM     48  O   UNL A   1      32.357  36.036  29.968  1.00  0.00    -0.237 OA
ATOM     49  O   UNL A   1      33.888  36.432  28.070  1.00  0.00    -0.237 OA
ATOM     50  O   UNL A   1      32.426  34.446  28.082  1.00  0.00    -0.744 OA
ENDBRANCH  46  47
ENDBRANCH  25  39
BRANCH  26  51
ATOM     51  C   UNL A   1      43.954  28.492  35.745  1.00  0.00     0.058 A 
ATOM     52  C   UNL A   1      45.272  28.888  35.481  1.00  0.00     0.135 A 
ATOM     53  C   UNL A   1      43.751  27.483  36.701  1.00  0.00     0.135 A 
ATOM     54  F   UNL A   1      45.515  29.845  34.573  1.00  0.00    -0.206 F 
ATOM     55  C   UNL A   1      46.350  28.311  36.144  1.00  0.00     0.059 A 
ATOM     56  C   UNL A   1      44.810  26.910  37.396  1.00  0.00     0.059 A 
ATOM     57  F   UNL A   1      42.506  27.083  37.003  1.00  0.00    -0.206 F 
ATOM     58  C   UNL A   1      46.108  27.330  37.108  1.00  0.00     0.060 A 
BRANCH  58  59
ATOM     59  S   UNL A   1      47.510  26.652  38.021  1.00  0.00     0.124 S 
ATOM     60  O   UNL A   1      47.528  25.272  37.548  1.00  0.00    -0.237 OA
ATOM     61  O   UNL A   1      48.608  27.498  37.564  1.00  0.00    -0.237 OA
ATOM     62  O   UNL A   1      47.124  26.837  39.417  1.00  0.00    -0.744 OA
ENDBRANCH  58  59
ENDBRANCH  26  51
BRANCH  38  63
ATOM     63  C   UNL A   1      39.822  33.872  37.460  1.00  0.00     0.058 A 
ATOM     64  C   UNL A   1      40.406  35.146  37.525  1.00  0.00     0.135 A 
ATOM     65  C   UNL A   1      39.051  33.446  38.555  1.00  0.00     0.135 A 
ATOM     66  F   UNL A   1      41.162  35.597  36.512  1.00  0.00    -0.206 F 
ATOM     67  C   UNL A   1      40.234  35.966  38.636  1.00  0.00     0.059 A 
ATOM     68  C   UNL A   1      38.843  34.260  39.663  1.00  0.00     0.059 A 
ATOM     69  F   UNL A   1      38.467  32.236  38.541  1.00  0.00    -0.206 F 
ATOM     70  C   UNL A   1      39.442  35.518  39.696  1.00  0.00     0.060 A 
BRANCH  70  71
ATOM     71  S   UNL A   1      39.169  36.620  41.100  1.00  0.00     0.124 S 
ATOM     72  O   UNL A   1      40.457  36.554  41.781  1.00  0.00    -0.237 OA
ATOM     73  O   UNL A   1      38.861  37.887  40.445  1.00  0.00    -0.237 OA
ATOM     74  O   UNL A   1      38.053  35.999  41.808  1.00  0.00    -0.744 OA
ENDBRANCH  70  71
ENDBRANCH  38  63
ENDBRANCH  12  13
ENDBRANCH   5   7
ENDBRANCH   2   3
ENDBRANCH   1   2
BRANCH   1  75
ATOM     75  C   UNL A   1      38.036  22.118  25.642  1.00  0.00     0.023 C 
BRANCH  75  76
ATOM     76  C   UNL A   1      37.080  23.286  25.836  1.00  0.00     0.116 C 
BRANCH  76  77
ATOM     77  N   UNL A   1      35.992  22.995  26.764  1.00  0.00    -0.351 N 
ATOM     78  C   UNL A   1      34.633  23.050  26.527  1.00  0.00     0.263 C 
ATOM     79  H   UNL A   1      36.261  22.726  27.672  1.00  0.00     0.163 HD
ATOM     80  O   UNL A   1      33.864  22.858  27.468  1.00  0.00    -0.268 OA
BRANCH  78  81
ATOM     81  C   UNL A   1      34.209  23.318  25.171  1.00  0.00     0.116 A 
ATOM     82  S   UNL A   1      33.821  24.916  24.719  1.00  0.00    -0.136 S 
ATOM     83  C   UNL A   1      34.069  22.423  24.121  1.00  0.00     0.073 A 
ATOM     84  C   UNL A   1      33.750  24.477  23.070  1.00  0.00     0.068 A 
ATOM     85  C   UNL A   1      33.964  23.128  22.886  1.00  0.00     0.039 A 
BRANCH  83  86
ATOM     86  N   UNL A   1      34.076  21.035  24.307  1.00  0.00    -0.269 N 
ATOM     87  H   UNL A   1      34.977  20.646  24.375  1.00  0.00     0.181 HD
BRANCH  86  88
ATOM     88  S   UNL A   1      32.860  19.929  24.430  1.00  0.00     0.301 S 
ATOM     89  O   UNL A   1      31.906  20.404  25.401  1.00  0.00    -0.189 OA
ATOM     90  O   UNL A   1      32.455  19.679  23.063  1.00  0.00    -0.189 OA
BRANCH  88  91
ATOM     91  N   UNL A   1      33.542  18.509  25.025  1.00  0.00    -0.185 NA
ATOM     92  C   UNL A   1      34.673  17.888  24.302  1.00  0.00     0.104 C 
ATOM     93  C   UNL A   1      32.521  17.433  25.253  1.00  0.00     0.104 C 
ATOM     94  C   UNL A   1      34.100  16.683  23.605  1.00  0.00     0.018 C 
ATOM     95  C   UNL A   1      33.087  16.172  24.604  1.00  0.00     0.018 C 
ENDBRANCH  88  91
ENDBRANCH  86  88
ENDBRANCH  83  86
ENDBRANCH  78  81
ENDBRANCH  76  77
ENDBRANCH  75  76
ENDBRANCH   1  75
TORSDOF 17
ENDMDL
MODEL 2
REMARK VINA RESULT:     -11.6      6.790     11.645
REMARK SMILES O=C(NCCCCNC(=O)c1sccc1NS(=O)(=O)N1CCCC1)c1ccc(-c2c3nc(c(-c4c(F)cc(S(=O)(=O)[O-])cc4F)c4ccc([nH]4)c(-c4c(F)cc(S(=O)(=O)[O-])cc4F)c4nc(c(-c5c(F)cc(S(=O)(=O)[O-])cc5F)c5ccc2[nH]5)C=C4)C=C3)cc1
REMARK SMILES IDX 5 1 4 2 3 3 1 4 2 5 25 7 26 8 90 9 27 10 89 11 28 12 29 13
REMARK SMILES IDX 30 14 83 15 31 16 88 17 82 18 84 19 32 20 87 21 81 22 80 23
REMARK SMILES IDX 33 25 67 26 46 27 66 28 47 29 50 30 65 31 85 32 48 33 49 34
REMARK SMILES IDX 64 36 86 37 51 38 34 39 35 40 44 41 36 42 37 43 43 44 45 45
REMARK SMILES IDX 38 46 39 47 40 48 41 49 42 50 68 51 69 52 78 53 70 54 71 55
REMARK SMILES IDX 77 56 79 57 72 58 73 59 74 60 75 61 76 62 52 63 53 64 62 65
REMARK SMILES IDX 54 66 55 67 61 68 63 69 56 70 57 71 58 72 59 73 60 74 6 75
REMARK SMILES IDX 7 76 8 77 9 78 10 80 11 81 12 82 15 83 13 84 14 85 16 86
REMARK SMILES IDX 17 88 18 89 19 90 20 91 21 92 24 93 22 94 23 95
REMARK H PARENT 3 6 84 24 50 35 8 79 16 87
REMARK Flexibility Score: inf
ROOT
ATOM      1  C   UNL A   1      33.810  29.442  26.988  1.00  0.00     0.023 C 
ENDROOT
BRANCH   1   2
ATOM      2  C   UNL A   1      35.162  29.470  27.690  1.00  0.00     0.116 C 
BRANCH   2   3
ATOM      3  N   UNL A   1      35.178  30.332  28.863  1.00  0.00    -0.352 N 
ATOM      4  O   UNL A   1      35.995  31.219  30.771  1.00  0.00    -0.269 OA
ATOM      5  C   UNL A   1      36.203  30.584  29.742  1.00  0.00     0.251 C 
ATOM      6  H   UNL A   1      34.334  30.802  29.053  1.00  0.00     0.163 HD
BRANCH   5   7
ATOM      7  C   UNL A   1      37.550  30.053  29.453  1.00  0.00     0.039 A 
ATOM      8  C   UNL A   1      38.373  29.605  30.490  1.00  0.00     0.014 A 
ATOM      9  C   UNL A   1      38.004  30.037  28.133  1.00  0.00     0.014 A 
ATOM     10  C   UNL A   1      39.703  29.299  30.230  1.00  0.00     0.010 A 
ATOM     11  C   UNL A   1      39.314  29.637  27.862  1.00  0.00     0.010 A 
ATOM     12  C   UNL A   1      40.184  29.302  28.912  1.00  0.00    -0.014 A 
BRANCH  12  13
ATOM     13  C   UNL A   1      41.588  28.909  28.632  1.00  0.00     0.031 A 
ATOM     14  C   UNL A   1      42.692  29.929  28.660  1.00  0.00     0.074 A 
ATOM     15  C   UNL A   1      41.855  27.626  28.327  1.00  0.00     0.049 A 
ATOM     16  N   UNL A   1      43.955  29.786  28.349  1.00  0.00    -0.248 NA
ATOM     17  C   UNL A   1      42.328  31.291  29.082  1.00  0.00     0.031 C 
ATOM     18  C   UNL A   1      40.864  26.548  28.278  1.00  0.00     0.029 A 
ATOM     19  N   UNL A   1      43.033  27.009  27.992  1.00  0.00    -0.354 N 
ATOM     20  C   UNL A   1      44.533  31.040  28.508  1.00  0.00     0.074 A 
ATOM     21  C   UNL A   1      43.475  31.938  28.923  1.00  0.00     0.031 C 
ATOM     22  C   UNL A   1      41.474  25.404  27.943  1.00  0.00     0.029 A 
ATOM     23  C   UNL A   1      42.884  25.679  27.684  1.00  0.00     0.049 A 
ATOM     24  H   UNL A   1      43.900  27.474  27.972  1.00  0.00     0.167 HD
ATOM     25  C   UNL A   1      45.826  31.404  28.327  1.00  0.00     0.037 A 
ATOM     26  C   UNL A   1      43.769  24.784  27.208  1.00  0.00     0.037 A 
ATOM     27  C   UNL A   1      46.865  30.493  27.915  1.00  0.00     0.049 A 
ATOM     28  C   UNL A   1      45.186  25.216  26.971  1.00  0.00     0.074 A 
ATOM     29  C   UNL A   1      48.212  30.752  27.729  1.00  0.00     0.029 A 
ATOM     30  N   UNL A   1      46.673  29.152  27.611  1.00  0.00    -0.354 N 
ATOM     31  N   UNL A   1      45.724  26.399  27.148  1.00  0.00    -0.248 NA
ATOM     32  C   UNL A   1      46.118  24.198  26.475  1.00  0.00     0.031 C 
ATOM     33  C   UNL A   1      48.821  29.584  27.259  1.00  0.00     0.029 A 
ATOM     34  C   UNL A   1      47.870  28.577  27.217  1.00  0.00     0.049 A 
ATOM     35  H   UNL A   1      45.811  28.678  27.668  1.00  0.00     0.167 HD
ATOM     36  C   UNL A   1      47.065  26.261  26.815  1.00  0.00     0.074 A 
ATOM     37  C   UNL A   1      47.256  24.878  26.424  1.00  0.00     0.031 C 
ATOM     38  C   UNL A   1      48.049  27.194  26.841  1.00  0.00     0.037 A 
BRANCH  25  39
ATOM     39  C   UNL A   1      46.179  32.853  28.533  1.00  0.00     0.058 A 
ATOM     40  C   UNL A   1      46.601  33.350  29.778  1.00  0.00     0.135 A 
ATOM     41  C   UNL A   1      46.103  33.762  27.463  1.00  0.00     0.135 A 
ATOM     42  F   UNL A   1      46.685  32.532  30.839  1.00  0.00    -0.206 F 
ATOM     43  C   UNL A   1      46.885  34.700  29.966  1.00  0.00     0.059 A 
ATOM     44  C   UNL A   1      46.414  35.110  27.621  1.00  0.00     0.059 A 
ATOM     45  F   UNL A   1      45.713  33.345  26.249  1.00  0.00    -0.206 F 
ATOM     46  C   UNL A   1      46.781  35.574  28.883  1.00  0.00     0.060 A 
BRANCH  46  47
ATOM     47  S   UNL A   1      47.113  37.327  29.152  1.00  0.00     0.124 S 
ATOM     48  O   UNL A   1      46.888  37.447  30.589  1.00  0.00    -0.237 OA
ATOM     49  O   UNL A   1      48.501  37.452  28.718  1.00  0.00    -0.237 OA
ATOM     50  O   UNL A   1      46.131  37.996  28.306  1.00  0.00    -0.744 OA
ENDBRANCH  46  47
ENDBRANCH  25  39
BRANCH  26  51
ATOM     51  C   UNL A   1      43.314  23.398  26.923  1.00  0.00     0.058 A 
ATOM     52  C   UNL A   1      43.078  22.971  25.610  1.00  0.00     0.135 A 
ATOM     53  C   UNL A   1      43.183  22.454  27.955  1.00  0.00     0.135 A 
ATOM     54  F   UNL A   1      43.188  23.839  24.592  1.00  0.00    -0.206 F 
ATOM     55  C   UNL A   1      42.731  21.655  25.326  1.00  0.00     0.059 A 
ATOM     56  C   UNL A   1      42.864  21.126  27.694  1.00  0.00     0.059 A 
ATOM     57  F   UNL A   1      43.418  22.810  29.227  1.00  0.00    -0.206 F 
ATOM     58  C   UNL A   1      42.637  20.736  26.374  1.00  0.00     0.060 A 
BRANCH  58  59
ATOM     59  S   UNL A   1      42.270  19.013  25.982  1.00  0.00     0.124 S 
ATOM     60  O   UNL A   1      40.833  19.067  25.737  1.00  0.00    -0.237 OA
ATOM     61  O   UNL A   1      43.109  18.781  24.812  1.00  0.00    -0.237 OA
ATOM     62  O   UNL A   1      42.678  18.299  27.189  1.00  0.00    -0.744 OA
ENDBRANCH  58  59
ENDBRANCH  26  51
BRANCH  38  63
ATOM     63  C   UNL A   1      49.442  26.748  26.492  1.00  0.00     0.058 A 
ATOM     64  C   UNL A   1      50.267  26.088  27.415  1.00  0.00     0.135 A 
ATOM     65  C   UNL A   1      49.924  26.915  25.183  1.00  0.00     0.135 A 
ATOM     66  F   UNL A   1      49.860  25.914  28.683  1.00  0.00    -0.206 F 
ATOM     67  C   UNL A   1      51.524  25.613  27.054  1.00  0.00     0.059 A 
ATOM     68  C   UNL A   1      51.165  26.424  24.792  1.00  0.00     0.059 A 
ATOM     69  F   UNL A   1      49.172  27.536  24.259  1.00  0.00    -0.206 F 
ATOM     70  C   UNL A   1      51.960  25.777  25.737  1.00  0.00     0.060 A 
BRANCH  70  71
ATOM     71  S   UNL A   1      53.563  25.095  25.263  1.00  0.00     0.124 S 
ATOM     72  O   UNL A   1      53.731  25.641  23.921  1.00  0.00    -0.237 OA
ATOM     73  O   UNL A   1      54.449  25.644  26.286  1.00  0.00    -0.237 OA
ATOM     74  O   UNL A   1      53.354  23.653  25.333  1.00  0.00    -0.744 OA
ENDBRANCH  70  71
ENDBRANCH  38  63
ENDBRANCH  12  13
ENDBRANCH   5   7
ENDBRANCH   2   3
ENDBRANCH   1   2
BRANCH   1  75
ATOM     75  C   UNL A   1      33.295  28.051  26.648  1.00  0.00     0.023 C 
BRANCH  75  76
ATOM     76  C   UNL A   1      31.784  27.892  26.730  1.00  0.00     0.116 C 
BRANCH  76  77
ATOM     77  N   UNL A   1      31.351  26.500  26.779  1.00  0.00    -0.351 N 
ATOM     78  C   UNL A   1      30.855  25.724  25.750  1.00  0.00     0.263 C 
ATOM     79  H   UNL A   1      31.421  26.058  27.656  1.00  0.00     0.163 HD
ATOM     80  O   UNL A   1      30.453  24.591  26.009  1.00  0.00    -0.268 OA
BRANCH  78  81
ATOM     81  C   UNL A   1      30.859  26.304  24.426  1.00  0.00     0.116 A 
ATOM     82  S   UNL A   1      29.490  27.166  23.889  1.00  0.00    -0.136 S 
ATOM     83  C   UNL A   1      31.868  26.270  23.475  1.00  0.00     0.073 A 
ATOM     84  C   UNL A   1      30.335  27.740  22.520  1.00  0.00     0.068 A 
ATOM     85  C   UNL A   1      31.616  27.234  22.455  1.00  0.00     0.039 A 
BRANCH  83  86
ATOM     86  N   UNL A   1      32.972  25.413  23.577  1.00  0.00    -0.269 N 
ATOM     87  H   UNL A   1      33.803  25.864  23.849  1.00  0.00     0.181 HD
BRANCH  86  88
ATOM     88  S   UNL A   1      33.144  23.794  23.324  1.00  0.00     0.301 S 
ATOM     89  O   UNL A   1      31.832  23.210  23.188  1.00  0.00    -0.189 OA
ATOM     90  O   UNL A   1      34.108  23.693  22.248  1.00  0.00    -0.189 OA
BRANCH  88  91
ATOM     91  N   UNL A   1      33.857  23.151  24.707  1.00  0.00    -0.185 NA
ATOM     92  C   UNL A   1      34.315  24.062  25.779  1.00  0.00     0.104 C 
ATOM     93  C   UNL A   1      35.003  22.234  24.389  1.00  0.00     0.104 C 
ATOM     94  C   UNL A   1      35.817  24.094  25.674  1.00  0.00     0.018 C 
ATOM     95  C   UNL A   1      36.154  22.671  25.293  1.00  0.00     0.018 C 
ENDBRANCH  88  91
ENDBRANCH  86  88
ENDBRANCH  83  86
ENDBRANCH  78  81
ENDBRANCH  76  77
ENDBRANCH  75  76
ENDBRANCH   1  75
TORSDOF 17
ENDMDL
MODEL 3
REMARK VINA RESULT:     -11.5      6.296      8.836
REMARK SMILES O=C(NCCCCNC(=O)c1sccc1NS(=O)(=O)N1CCCC1)c1ccc(-c2c3nc(c(-c4c(F)cc(S(=O)(=O)[O-])cc4F)c4ccc([nH]4)c(-c4c(F)cc(S(=O)(=O)[O-])cc4F)c4nc(c(-c5c(F)cc(S(=O)(=O)[O-])cc5F)c5ccc2[nH]5)C=C4)C=C3)cc1
REMARK SMILES IDX 5 1 4 2 3 3 1 4 2 5 25 7 26 8 90 9 27 10 89 11 28 12 29 13
REMARK SMILES IDX 30 14 83 15 31 16 88 17 82 18 84 19 32 20 87 21 81 22 80 23
REMARK SMILES IDX 33 25 67 26 46 27 66 28 47 29 50 30 65 31 85 32 48 33 49 34
REMARK SMILES IDX 64 36 86 37 51 38 34 39 35 40 44 41 36 42 37 43 43 44 45 45
REMARK SMILES IDX 38 46 39 47 40 48 41 49 42 50 68 51 69 52 78 53 70 54 71 55
REMARK SMILES IDX 77 56 79 57 72 58 73 59 74 60 75 61 76 62 52 63 53 64 62 65
REMARK SMILES IDX 54 66 55 67 61 68 63 69 56 70 57 71 58 72 59 73 60 74 6 75
REMARK SMILES IDX 7 76 8 77 9 78 10 80 11 81 12 82 15 83 13 84 14 85 16 86
REMARK SMILES IDX 17 88 18 89 19 90 20 91 21 92 24 93 22 94 23 95
REMARK H PARENT 3 6 84 24 50 35 8 79 16 87
REMARK Flexibility Score: inf
ROOT
ATOM      1  C   UNL A   1      38.196  19.744  24.997  1.00  0.00     0.023 C 
ENDROOT
BRANCH   1   2
ATOM      2  C   UNL A   1      39.312  20.312  25.865  1.00  0.00     0.116 C 
BRANCH   2   3
ATOM      3  N   UNL A   1      40.396  19.366  26.090  1.00  0.00    -0.352 N 
ATOM      4  O   UNL A   1      42.531  18.694  26.382  1.00  0.00    -0.269 OA
ATOM      5  C   UNL A   1      41.717  19.612  26.378  1.00  0.00     0.251 C 
ATOM      6  H   UNL A   1      40.147  18.416  26.029  1.00  0.00     0.163 HD
BRANCH   5   7
ATOM      7  C   UNL A   1      42.153  20.996  26.647  1.00  0.00     0.039 A 
ATOM      8  C   UNL A   1      42.354  21.893  25.595  1.00  0.00     0.014 A 
ATOM      9  C   UNL A   1      42.394  21.388  27.965  1.00  0.00     0.014 A 
ATOM     10  C   UNL A   1      42.953  23.122  25.843  1.00  0.00     0.010 A 
ATOM     11  C   UNL A   1      42.908  22.660  28.221  1.00  0.00     0.010 A 
ATOM     12  C   UNL A   1      43.227  23.522  27.159  1.00  0.00    -0.014 A 
BRANCH  12  13
ATOM     13  C   UNL A   1      43.806  24.863  27.424  1.00  0.00     0.031 A 
ATOM     14  C   UNL A   1      42.948  25.983  27.940  1.00  0.00     0.074 A 
ATOM     15  C   UNL A   1      45.113  25.067  27.171  1.00  0.00     0.049 A 
ATOM     16  N   UNL A   1      43.261  27.238  28.138  1.00  0.00    -0.248 NA
ATOM     17  C   UNL A   1      41.552  25.654  28.268  1.00  0.00     0.031 C 
ATOM     18  C   UNL A   1      46.044  24.051  26.676  1.00  0.00     0.029 A 
ATOM     19  N   UNL A   1      45.883  26.195  27.285  1.00  0.00    -0.354 N 
ATOM     20  C   UNL A   1      42.100  27.856  28.584  1.00  0.00     0.074 A 
ATOM     21  C   UNL A   1      41.067  26.841  28.607  1.00  0.00     0.031 C 
ATOM     22  C   UNL A   1      47.259  24.596  26.537  1.00  0.00     0.029 A 
ATOM     23  C   UNL A   1      47.179  26.016  26.865  1.00  0.00     0.049 A 
ATOM     24  H   UNL A   1      45.541  27.051  27.632  1.00  0.00     0.167 HD
ATOM     25  C   UNL A   1      41.915  29.151  28.942  1.00  0.00     0.037 A 
ATOM     26  C   UNL A   1      48.184  26.899  26.718  1.00  0.00     0.037 A 
ATOM     27  C   UNL A   1      42.958  30.147  28.914  1.00  0.00     0.049 A 
ATOM     28  C   UNL A   1      47.948  28.337  27.078  1.00  0.00     0.074 A 
ATOM     29  C   UNL A   1      42.884  31.479  29.283  1.00  0.00     0.029 A 
ATOM     30  N   UNL A   1      44.258  29.926  28.479  1.00  0.00    -0.354 N 
ATOM     31  N   UNL A   1      46.851  28.903  27.520  1.00  0.00    -0.248 NA
ATOM     32  C   UNL A   1      49.082  29.255  26.924  1.00  0.00     0.031 C 
ATOM     33  C   UNL A   1      44.122  32.074  29.018  1.00  0.00     0.029 A 
ATOM     34  C   UNL A   1      44.989  31.100  28.549  1.00  0.00     0.049 A 
ATOM     35  H   UNL A   1      44.609  29.060  28.168  1.00  0.00     0.167 HD
ATOM     36  C   UNL A   1      47.170  30.239  27.729  1.00  0.00     0.074 A 
ATOM     37  C   UNL A   1      48.564  30.396  27.361  1.00  0.00     0.031 C 
ATOM     38  C   UNL A   1      46.381  31.240  28.191  1.00  0.00     0.037 A 
BRANCH  25  39
ATOM     39  C   UNL A   1      40.529  29.570  29.356  1.00  0.00     0.058 A 
ATOM     40  C   UNL A   1      39.488  29.730  28.426  1.00  0.00     0.135 A 
ATOM     41  C   UNL A   1      40.233  29.808  30.709  1.00  0.00     0.135 A 
ATOM     42  F   UNL A   1      39.713  29.526  27.118  1.00  0.00    -0.206 F 
ATOM     43  C   UNL A   1      38.222  30.157  28.815  1.00  0.00     0.059 A 
ATOM     44  C   UNL A   1      38.965  30.205  31.125  1.00  0.00     0.059 A 
ATOM     45  F   UNL A   1      41.185  29.665  31.645  1.00  0.00    -0.206 F 
ATOM     46  C   UNL A   1      37.972  30.400  30.167  1.00  0.00     0.060 A 
BRANCH  46  47
ATOM     47  S   UNL A   1      36.338  30.993  30.651  1.00  0.00     0.124 S 
ATOM     48  O   UNL A   1      35.585  30.809  29.413  1.00  0.00    -0.237 OA
ATOM     49  O   UNL A   1      35.988  30.090  31.742  1.00  0.00    -0.237 OA
ATOM     50  O   UNL A   1      36.577  32.379  31.039  1.00  0.00    -0.744 OA
ENDBRANCH  46  47
ENDBRANCH  25  39
BRANCH  26  51
ATOM     51  C   UNL A   1      49.492  26.426  26.197  1.00  0.00     0.058 A 
ATOM     52  C   UNL A   1      49.873  26.671  24.871  1.00  0.00     0.135 A 
ATOM     53  C   UNL A   1      50.418  25.788  27.039  1.00  0.00     0.135 A 
ATOM     54  F   UNL A   1      49.019  27.274  24.029  1.00  0.00    -0.206 F 
ATOM     55  C   UNL A   1      51.127  26.303  24.396  1.00  0.00     0.059 A 
ATOM     56  C   UNL A   1      51.688  25.436  26.595  1.00  0.00     0.059 A 
ATOM     57  F   UNL A   1      50.107  25.550  28.322  1.00  0.00    -0.206 F 
ATOM     58  C   UNL A   1      52.032  25.696  25.269  1.00  0.00     0.060 A 
BRANCH  58  59
ATOM     59  S   UNL A   1      53.686  25.303  24.662  1.00  0.00     0.124 S 
ATOM     60  O   UNL A   1      54.522  26.101  25.551  1.00  0.00    -0.237 OA
ATOM     61  O   UNL A   1      53.746  23.858  24.856  1.00  0.00    -0.237 OA
ATOM     62  O   UNL A   1      53.647  25.740  23.269  1.00  0.00    -0.744 OA
ENDBRANCH  58  59
ENDBRANCH  26  51
BRANCH  38  63
ATOM     63  C   UNL A   1      47.012  32.592  28.386  1.00  0.00     0.058 A 
ATOM     64  C   UNL A   1      47.698  32.931  29.562  1.00  0.00     0.135 A 
ATOM     65  C   UNL A   1      46.995  33.530  27.341  1.00  0.00     0.135 A 
ATOM     66  F   UNL A   1      47.734  32.076  30.596  1.00  0.00    -0.206 F 
ATOM     67  C   UNL A   1      48.343  34.157  29.696  1.00  0.00     0.059 A 
ATOM     68  C   UNL A   1      47.655  34.749  27.443  1.00  0.00     0.059 A 
ATOM     69  F   UNL A   1      46.356  33.252  26.193  1.00  0.00    -0.206 F 
ATOM     70  C   UNL A   1      48.324  35.056  28.627  1.00  0.00     0.060 A 
BRANCH  70  71
ATOM     71  S   UNL A   1      49.222  36.614  28.788  1.00  0.00     0.124 S 
ATOM     72  O   UNL A   1      48.389  37.337  29.744  1.00  0.00    -0.237 OA
ATOM     73  O   UNL A   1      50.522  36.173  29.286  1.00  0.00    -0.237 OA
ATOM     74  O   UNL A   1      49.226  37.147  27.430  1.00  0.00    -0.744 OA
ENDBRANCH  70  71
ENDBRANCH  38  63
ENDBRANCH  12  13
ENDBRANCH   5   7
ENDBRANCH   2   3
ENDBRANCH   1   2
BRANCH   1  75
ATOM     75  C   UNL A   1      37.091  20.730  24.650  1.00  0.00     0.023 C 
BRANCH  75  76
ATOM     76  C   UNL A   1      37.212  22.089  25.325  1.00  0.00     0.116 C 
BRANCH  76  77
ATOM     77  N   UNL A   1      36.285  22.266  26.438  1.00  0.00    -0.351 N 
ATOM     78  C   UNL A   1      35.030  22.841  26.419  1.00  0.00     0.263 C 
ATOM     79  H   UNL A   1      36.593  21.933  27.312  1.00  0.00     0.163 HD
ATOM     80  O   UNL A   1      34.432  22.984  27.484  1.00  0.00    -0.268 OA
BRANCH  78  81
ATOM     81  C   UNL A   1      34.498  23.222  25.130  1.00  0.00     0.116 A 
ATOM     82  S   UNL A   1      34.466  24.871  24.696  1.00  0.00    -0.136 S 
ATOM     83  C   UNL A   1      33.988  22.404  24.133  1.00  0.00     0.073 A 
ATOM     84  C   UNL A   1      34.051  24.483  23.085  1.00  0.00     0.068 A 
ATOM     85  C   UNL A   1      33.889  23.125  22.907  1.00  0.00     0.039 A 
BRANCH  83  86
ATOM     86  N   UNL A   1      33.671  21.057  24.352  1.00  0.00    -0.269 N 
ATOM     87  H   UNL A   1      34.166  20.432  23.775  1.00  0.00     0.181 HD
BRANCH  86  88
ATOM     88  S   UNL A   1      32.623  20.321  25.390  1.00  0.00     0.301 S 
ATOM     89  O   UNL A   1      33.317  20.047  26.623  1.00  0.00    -0.189 OA
ATOM     90  O   UNL A   1      31.447  21.167  25.380  1.00  0.00    -0.189 OA
BRANCH  88  91
ATOM     91  N   UNL A   1      32.194  18.848  24.697  1.00  0.00    -0.185 NA
ATOM     92  C   UNL A   1      32.627  17.589  25.341  1.00  0.00     0.104 C 
ATOM     93  C   UNL A   1      32.584  18.759  23.250  1.00  0.00     0.104 C 
ATOM     94  C   UNL A   1      33.743  17.053  24.483  1.00  0.00     0.018 C 
ATOM     95  C   UNL A   1      33.290  17.415  23.087  1.00  0.00     0.018 C 
ENDBRANCH  88  91
ENDBRANCH  86  88
ENDBRANCH  83  86
ENDBRANCH  78  81
ENDBRANCH  76  77
ENDBRANCH  75  76
ENDBRANCH   1  75
TORSDOF 17
ENDMDL
