MODEL 1
REMARK VINA RESULT:     -12.8      0.000      0.000
REMARK SMILES O=C(CCN1C(=O)S/C(=C\c2ccc(F)cc2)C1=O)Nc1ccc(O)cc1C(=O)NCCCCNC(=O)c1ccc(-c2c3nc(c(-c4c(F)cc(S(=O)(=O)[O-])cc4F)c4ccc([nH]4)c(-c4c(F)cc(S(=O)(=O)[O-])cc4F)c4nc(c(-c5c(F)cc(S(=O)(=O)[O-])cc5F)c5ccc2[nH]5)C=C4)C=C3)cc1
REMARK SMILES IDX 31 1 30 2 28 3 29 4 27 6 21 7 22 8 23 9 26 10 24 11 20 12
REMARK SMILES IDX 1 13 2 14 3 16 4 17 5 18 6 19 18 20 7 21 8 22 9 23 19 24
REMARK SMILES IDX 10 25 11 26 12 27 17 28 13 29 16 30 14 31 15 32 25 33 32 35
REMARK SMILES IDX 33 36 34 37 35 38 36 39 37 41 38 42 39 43 103 44 40 45
REMARK SMILES IDX 102 46 41 47 42 48 43 49 96 50 44 51 101 52 95 53 97 54
REMARK SMILES IDX 45 55 100 56 94 57 93 58 46 60 80 61 59 62 79 63 60 64 63 65
REMARK SMILES IDX 78 66 98 67 61 68 62 69 77 71 99 72 64 73 47 74 48 75 57 76
REMARK SMILES IDX 49 77 50 78 56 79 58 80 51 81 52 82 53 83 54 84 55 85 81 86
REMARK SMILES IDX 82 87 91 88 83 89 84 90 90 91 92 92 85 93 86 94 87 95 88 96
REMARK SMILES IDX 89 97 65 98 66 99 75 100 67 101 68 102 74 103 76 104 69 105
REMARK SMILES IDX 70 106 71 107 72 108 73 109
REMARK H PARENT 30 5 20 15 25 34 35 40 97 59 63 70
REMARK Flexibility Score: inf
ROOT
ATOM      1  C   UNL A   1      35.001  24.360  24.812  1.00  0.00     0.116 C 
ENDROOT
BRANCH   1   2
ATOM      2  N   UNL A   1      33.656  24.546  25.343  1.00  0.00    -0.352 N 
ATOM      3  C   UNL A   1      32.578  23.684  25.433  1.00  0.00     0.253 C 
ATOM      4  O   UNL A   1      31.583  24.039  26.066  1.00  0.00    -0.269 OA
ATOM      5  H   UNL A   1      33.484  25.446  25.702  1.00  0.00     0.163 HD
BRANCH   3   6
ATOM      6  C   UNL A   1      32.538  22.337  24.797  1.00  0.00     0.067 A 
ATOM      7  C   UNL A   1      32.163  22.085  23.464  1.00  0.00     0.054 A 
ATOM      8  C   UNL A   1      32.138  20.757  23.000  1.00  0.00     0.031 A 
ATOM      9  C   UNL A   1      32.579  19.703  23.805  1.00  0.00     0.048 A 
ATOM     10  C   UNL A   1      33.015  21.271  25.586  1.00  0.00     0.062 A 
ATOM     11  C   UNL A   1      33.046  19.975  25.082  1.00  0.00     0.116 A 
BRANCH   7  12
ATOM     12  N   UNL A   1      31.983  23.154  22.555  1.00  0.00    -0.325 N 
ATOM     13  O   UNL A   1      34.058  23.204  21.551  1.00  0.00    -0.275 OA
ATOM     14  C   UNL A   1      32.949  23.700  21.737  1.00  0.00     0.226 C 
ATOM     15  H   UNL A   1      31.081  23.546  22.502  1.00  0.00     0.169 HD
BRANCH  14  16
ATOM     16  C   UNL A   1      32.584  25.026  21.084  1.00  0.00     0.122 C 
BRANCH  16  17
ATOM     17  C   UNL A   1      31.517  25.862  21.784  1.00  0.00     0.140 C 
BRANCH  17  18
ATOM     18  N   UNL A   1      32.035  26.759  22.818  1.00  0.00    -0.268 N 
ATOM     19  C   UNL A   1      33.265  27.320  22.735  1.00  0.00     0.293 C 
ATOM     20  C   UNL A   1      31.444  26.879  24.056  1.00  0.00     0.268 C 
ATOM     21  O   UNL A   1      34.133  27.073  21.914  1.00  0.00    -0.261 OA
ATOM     22  S   UNL A   1      33.528  28.480  23.975  1.00  0.00    -0.022 SA
ATOM     23  C   UNL A   1      32.237  27.819  24.900  1.00  0.00     0.083 C 
ATOM     24  O   UNL A   1      30.424  26.319  24.423  1.00  0.00    -0.268 OA
ATOM     25  C   UNL A   1      32.006  28.101  26.189  1.00  0.00     0.029 C 
BRANCH  25  26
ATOM     26  C   UNL A   1      32.788  29.144  26.863  1.00  0.00    -0.024 A 
ATOM     27  C   UNL A   1      32.282  30.455  26.863  1.00  0.00     0.011 A 
ATOM     28  C   UNL A   1      34.094  28.903  27.308  1.00  0.00     0.011 A 
ATOM     29  C   UNL A   1      33.079  31.516  27.285  1.00  0.00     0.040 A 
ATOM     30  C   UNL A   1      34.886  29.971  27.742  1.00  0.00     0.040 A 
ATOM     31  C   UNL A   1      34.375  31.265  27.719  1.00  0.00     0.123 A 
ATOM     32  F   UNL A   1      35.146  32.290  28.103  1.00  0.00    -0.207 F 
ENDBRANCH  25  26
ENDBRANCH  17  18
ENDBRANCH  16  17
ENDBRANCH  14  16
ENDBRANCH   7  12
BRANCH  11  33
ATOM     33  O   UNL A   1      33.559  18.987  25.870  1.00  0.00    -0.508 OA
ATOM     34  H   UNL A   1      33.069  18.671  26.604  1.00  0.00     0.293 HD
ENDBRANCH  11  33
ENDBRANCH   3   6
ENDBRANCH   1   2
BRANCH   1  35
ATOM     35  C   UNL A   1      36.075  23.736  25.728  1.00  0.00     0.023 C 
BRANCH  35  36
ATOM     36  C   UNL A   1      37.633  23.683  25.602  1.00  0.00     0.023 C 
BRANCH  36  37
ATOM     37  C   UNL A   1      38.764  23.604  26.655  1.00  0.00     0.116 C 
BRANCH  37  38
ATOM     38  N   UNL A   1      40.139  23.674  26.196  1.00  0.00    -0.352 N 
ATOM     39  C   UNL A   1      41.120  24.589  26.535  1.00  0.00     0.251 C 
ATOM     40  H   UNL A   1      40.410  22.975  25.558  1.00  0.00     0.163 HD
ATOM     41  O   UNL A   1      42.248  24.463  26.063  1.00  0.00    -0.269 OA
BRANCH  39  42
ATOM     42  C   UNL A   1      40.829  25.761  27.406  1.00  0.00     0.039 A 
ATOM     43  C   UNL A   1      39.834  25.628  28.386  1.00  0.00     0.014 A 
ATOM     44  C   UNL A   1      41.496  26.982  27.270  1.00  0.00     0.014 A 
ATOM     45  C   UNL A   1      39.599  26.662  29.302  1.00  0.00     0.010 A 
ATOM     46  C   UNL A   1      41.271  28.011  28.199  1.00  0.00     0.010 A 
ATOM     47  C   UNL A   1      40.361  27.841  29.255  1.00  0.00    -0.014 A 
BRANCH  47  48
ATOM     48  C   UNL A   1      40.359  28.795  30.403  1.00  0.00     0.031 A 
ATOM     49  C   UNL A   1      41.270  28.632  31.587  1.00  0.00     0.074 A 
ATOM     50  C   UNL A   1      39.446  29.788  30.394  1.00  0.00     0.049 A 
ATOM     51  N   UNL A   1      41.338  29.352  32.679  1.00  0.00    -0.248 NA
ATOM     52  C   UNL A   1      42.218  27.510  31.549  1.00  0.00     0.031 C 
ATOM     53  C   UNL A   1      38.476  30.022  29.319  1.00  0.00     0.029 A 
ATOM     54  N   UNL A   1      39.167  30.776  31.305  1.00  0.00    -0.354 N 
ATOM     55  C   UNL A   1      42.333  28.776  33.461  1.00  0.00     0.074 A 
ATOM     56  C   UNL A   1      42.818  27.622  32.730  1.00  0.00     0.031 C 
ATOM     57  C   UNL A   1      37.726  31.091  29.623  1.00  0.00     0.029 A 
ATOM     58  C   UNL A   1      38.133  31.603  30.926  1.00  0.00     0.049 A 
ATOM     59  H   UNL A   1      39.661  30.884  32.150  1.00  0.00     0.167 HD
ATOM     60  C   UNL A   1      42.803  29.182  34.667  1.00  0.00     0.037 A 
ATOM     61  C   UNL A   1      37.569  32.653  31.553  1.00  0.00     0.037 A 
ATOM     62  C   UNL A   1      42.311  30.332  35.385  1.00  0.00     0.049 A 
ATOM     63  C   UNL A   1      38.104  33.079  32.891  1.00  0.00     0.074 A 
ATOM     64  C   UNL A   1      42.747  30.843  36.597  1.00  0.00     0.029 A 
ATOM     65  N   UNL A   1      41.271  31.150  34.964  1.00  0.00    -0.354 N 
ATOM     66  N   UNL A   1      39.079  32.549  33.589  1.00  0.00    -0.248 NA
ATOM     67  C   UNL A   1      37.467  34.241  33.526  1.00  0.00     0.031 C 
ATOM     68  C   UNL A   1      41.949  31.946  36.924  1.00  0.00     0.029 A 
ATOM     69  C   UNL A   1      41.042  32.149  35.896  1.00  0.00     0.049 A 
ATOM     70  H   UNL A   1      40.770  31.035  34.124  1.00  0.00     0.167 HD
ATOM     71  C   UNL A   1      39.186  33.323  34.738  1.00  0.00     0.074 A 
ATOM     72  C   UNL A   1      38.184  34.365  34.636  1.00  0.00     0.031 C 
ATOM     73  C   UNL A   1      40.038  33.180  35.782  1.00  0.00     0.037 A 
BRANCH  60  74
ATOM     74  C   UNL A   1      43.920  28.387  35.293  1.00  0.00     0.058 A 
ATOM     75  C   UNL A   1      45.251  28.566  34.883  1.00  0.00     0.135 A 
ATOM     76  C   UNL A   1      43.663  27.399  36.257  1.00  0.00     0.135 A 
ATOM     77  F   UNL A   1      45.558  29.494  33.962  1.00  0.00    -0.206 F 
ATOM     78  C   UNL A   1      46.286  27.794  35.405  1.00  0.00     0.059 A 
ATOM     79  C   UNL A   1      44.685  26.630  36.808  1.00  0.00     0.059 A 
ATOM     80  F   UNL A   1      42.410  27.194  36.693  1.00  0.00    -0.206 F 
ATOM     81  C   UNL A   1      45.993  26.828  36.369  1.00  0.00     0.060 A 
BRANCH  81  82
ATOM     82  S   UNL A   1      47.351  25.870  37.078  1.00  0.00     0.124 S 
ATOM     83  O   UNL A   1      48.518  26.601  36.599  1.00  0.00    -0.237 OA
ATOM     84  O   UNL A   1      47.081  25.967  38.509  1.00  0.00    -0.237 OA
ATOM     85  O   UNL A   1      47.161  24.540  36.503  1.00  0.00    -0.744 OA
ENDBRANCH  81  82
ENDBRANCH  60  74
BRANCH  61  86
ATOM     86  C   UNL A   1      36.464  33.395  30.890  1.00  0.00     0.058 A 
ATOM     87  C   UNL A   1      36.710  34.288  29.835  1.00  0.00     0.135 A 
ATOM     88  C   UNL A   1      35.144  33.272  31.348  1.00  0.00     0.135 A 
ATOM     89  F   UNL A   1      37.957  34.453  29.369  1.00  0.00    -0.206 F 
ATOM     90  C   UNL A   1      35.691  35.054  29.279  1.00  0.00     0.059 A 
ATOM     91  C   UNL A   1      34.104  34.011  30.793  1.00  0.00     0.059 A 
ATOM     92  F   UNL A   1      34.859  32.424  32.348  1.00  0.00    -0.206 F 
ATOM     93  C   UNL A   1      34.392  34.916  29.771  1.00  0.00     0.060 A 
BRANCH  93  94
ATOM     94  S   UNL A   1      33.089  35.944  29.060  1.00  0.00     0.124 S 
ATOM     95  O   UNL A   1      33.870  36.945  28.339  1.00  0.00    -0.237 OA
ATOM     96  O   UNL A   1      32.361  34.988  28.231  1.00  0.00    -0.237 OA
ATOM     97  O   UNL A   1      32.368  36.432  30.230  1.00  0.00    -0.744 OA
ENDBRANCH  93  94
ENDBRANCH  61  86
BRANCH  73  98
ATOM     98  C   UNL A   1      39.938  34.178  36.900  1.00  0.00     0.058 A 
ATOM     99  C   UNL A   1      39.029  33.980  37.952  1.00  0.00     0.135 A 
ATOM    100  C   UNL A   1      40.685  35.366  36.891  1.00  0.00     0.135 A 
ATOM    101  F   UNL A   1      38.291  32.859  38.007  1.00  0.00    -0.206 F 
ATOM    102  C   UNL A   1      38.847  34.938  38.943  1.00  0.00     0.059 A 
ATOM    103  C   UNL A   1      40.534  36.328  37.885  1.00  0.00     0.059 A 
ATOM    104  F   UNL A   1      41.578  35.593  35.915  1.00  0.00    -0.206 F 
ATOM    105  C   UNL A   1      39.599  36.113  38.896  1.00  0.00     0.060 A 
BRANCH 105 106
ATOM    106  S   UNL A   1      39.346  37.349  40.189  1.00  0.00     0.124 S 
ATOM    107  O   UNL A   1      38.733  36.553  41.246  1.00  0.00    -0.237 OA
ATOM    108  O   UNL A   1      40.708  37.809  40.448  1.00  0.00    -0.237 OA
ATOM    109  O   UNL A   1      38.472  38.330  39.552  1.00  0.00    -0.744 OA
ENDBRANCH 105 106
ENDBRANCH  73  98
ENDBRANCH  47  48
ENDBRANCH  39  42
ENDBRANCH  37  38
ENDBRANCH  36  37
ENDBRANCH  35  36
ENDBRANCH   1  35
TORSDOF 20
ENDMDL
MODEL 2
REMARK VINA RESULT:     -12.7      1.878      2.541
REMARK SMILES O=C(CCN1C(=O)S/C(=C\c2ccc(F)cc2)C1=O)Nc1ccc(O)cc1C(=O)NCCCCNC(=O)c1ccc(-c2c3nc(c(-c4c(F)cc(S(=O)(=O)[O-])cc4F)c4ccc([nH]4)c(-c4c(F)cc(S(=O)(=O)[O-])cc4F)c4nc(c(-c5c(F)cc(S(=O)(=O)[O-])cc5F)c5ccc2[nH]5)C=C4)C=C3)cc1
REMARK SMILES IDX 31 1 30 2 28 3 29 4 27 6 21 7 22 8 23 9 26 10 24 11 20 12
REMARK SMILES IDX 1 13 2 14 3 16 4 17 5 18 6 19 18 20 7 21 8 22 9 23 19 24
REMARK SMILES IDX 10 25 11 26 12 27 17 28 13 29 16 30 14 31 15 32 25 33 32 35
REMARK SMILES IDX 33 36 34 37 35 38 36 39 37 41 38 42 39 43 103 44 40 45
REMARK SMILES IDX 102 46 41 47 42 48 43 49 96 50 44 51 101 52 95 53 97 54
REMARK SMILES IDX 45 55 100 56 94 57 93 58 46 60 80 61 59 62 79 63 60 64 63 65
REMARK SMILES IDX 78 66 98 67 61 68 62 69 77 71 99 72 64 73 47 74 48 75 57 76
REMARK SMILES IDX 49 77 50 78 56 79 58 80 51 81 52 82 53 83 54 84 55 85 81 86
REMARK SMILES IDX 82 87 91 88 83 89 84 90 90 91 92 92 85 93 86 94 87 95 88 96
REMARK SMILES IDX 89 97 65 98 66 99 75 100 67 101 68 102 74 103 76 104 69 105
REMARK SMILES IDX 70 106 71 107 72 108 73 109
REMARK H PARENT 30 5 20 15 25 34 35 40 97 59 63 70
REMARK Flexibility Score: inf
ROOT
ATOM      1  C   UNL A   1      36.055  20.775  25.277  1.00  0.00     0.116 C 
ENDROOT
BRANCH   1   2
ATOM      2  N   UNL A   1      34.903  21.252  26.032  1.00  0.00    -0.352 N 
ATOM      3  C   UNL A   1      33.547  21.212  25.759  1.00  0.00     0.253 C 
ATOM      4  O   UNL A   1      32.754  21.554  26.637  1.00  0.00    -0.269 OA
ATOM      5  H   UNL A   1      35.130  21.678  26.890  1.00  0.00     0.163 HD
BRANCH   3   6
ATOM      6  C   UNL A   1      32.977  20.785  24.451  1.00  0.00     0.067 A 
ATOM      7  C   UNL A   1      32.536  21.659  23.439  1.00  0.00     0.054 A 
ATOM      8  C   UNL A   1      31.986  21.119  22.262  1.00  0.00     0.031 A 
ATOM      9  C   UNL A   1      31.970  19.740  22.039  1.00  0.00     0.048 A 
ATOM     10  C   UNL A   1      32.989  19.398  24.200  1.00  0.00     0.062 A 
ATOM     11  C   UNL A   1      32.503  18.892  22.998  1.00  0.00     0.116 A 
BRANCH   7  12
ATOM     12  N   UNL A   1      32.798  23.046  23.525  1.00  0.00    -0.325 N 
ATOM     13  O   UNL A   1      34.959  23.114  22.723  1.00  0.00    -0.275 OA
ATOM     14  C   UNL A   1      33.999  23.667  23.257  1.00  0.00     0.226 C 
ATOM     15  H   UNL A   1      32.051  23.624  23.803  1.00  0.00     0.169 HD
BRANCH  14  16
ATOM     16  C   UNL A   1      34.107  25.115  23.715  1.00  0.00     0.122 C 
BRANCH  16  17
ATOM     17  C   UNL A   1      33.118  25.569  24.785  1.00  0.00     0.140 C 
BRANCH  17  18
ATOM     18  N   UNL A   1      32.266  26.687  24.382  1.00  0.00    -0.268 N 
ATOM     19  C   UNL A   1      32.411  27.929  24.904  1.00  0.00     0.293 C 
ATOM     20  C   UNL A   1      31.100  26.510  23.671  1.00  0.00     0.268 C 
ATOM     21  O   UNL A   1      33.132  28.259  25.831  1.00  0.00    -0.261 OA
ATOM     22  S   UNL A   1      31.418  29.083  24.106  1.00  0.00    -0.022 SA
ATOM     23  C   UNL A   1      30.430  27.826  23.469  1.00  0.00     0.083 C 
ATOM     24  O   UNL A   1      30.668  25.447  23.254  1.00  0.00    -0.268 OA
ATOM     25  C   UNL A   1      29.233  28.019  22.899  1.00  0.00     0.029 C 
BRANCH  25  26
ATOM     26  C   UNL A   1      28.751  29.382  22.649  1.00  0.00    -0.024 A 
ATOM     27  C   UNL A   1      29.303  30.091  21.567  1.00  0.00     0.011 A 
ATOM     28  C   UNL A   1      27.931  30.048  23.569  1.00  0.00     0.011 A 
ATOM     29  C   UNL A   1      29.053  31.453  21.418  1.00  0.00     0.040 A 
ATOM     30  C   UNL A   1      27.673  31.412  23.407  1.00  0.00     0.040 A 
ATOM     31  C   UNL A   1      28.241  32.102  22.340  1.00  0.00     0.123 A 
ATOM     32  F   UNL A   1      28.021  33.416  22.207  1.00  0.00    -0.207 F 
ENDBRANCH  25  26
ENDBRANCH  17  18
ENDBRANCH  16  17
ENDBRANCH  14  16
ENDBRANCH   7  12
BRANCH  11  33
ATOM     33  O   UNL A   1      32.579  17.547  22.786  1.00  0.00    -0.508 OA
ATOM     34  H   UNL A   1      32.009  17.138  22.165  1.00  0.00     0.293 HD
ENDBRANCH  11  33
ENDBRANCH   3   6
ENDBRANCH   1   2
BRANCH   1  35
ATOM     35  C   UNL A   1      37.247  21.733  25.066  1.00  0.00     0.023 C 
BRANCH  35  36
ATOM     36  C   UNL A   1      37.428  23.246  25.417  1.00  0.00     0.023 C 
BRANCH  36  37
ATOM     37  C   UNL A   1      38.389  23.988  26.375  1.00  0.00     0.116 C 
BRANCH  37  38
ATOM     38  N   UNL A   1      39.817  23.778  26.219  1.00  0.00    -0.352 N 
ATOM     39  C   UNL A   1      40.864  24.472  26.801  1.00  0.00     0.251 C 
ATOM     40  H   UNL A   1      40.075  23.043  25.617  1.00  0.00     0.163 HD
ATOM     41  O   UNL A   1      42.019  24.120  26.570  1.00  0.00    -0.269 OA
BRANCH  39  42
ATOM     42  C   UNL A   1      40.630  25.672  27.650  1.00  0.00     0.039 A 
ATOM     43  C   UNL A   1      39.582  25.632  28.581  1.00  0.00     0.014 A 
ATOM     44  C   UNL A   1      41.401  26.832  27.537  1.00  0.00     0.014 A 
ATOM     45  C   UNL A   1      39.390  26.692  29.479  1.00  0.00     0.010 A 
ATOM     46  C   UNL A   1      41.219  27.887  28.448  1.00  0.00     0.010 A 
ATOM     47  C   UNL A   1      40.250  27.803  29.460  1.00  0.00    -0.014 A 
BRANCH  47  48
ATOM     48  C   UNL A   1      40.272  28.766  30.601  1.00  0.00     0.031 A 
ATOM     49  C   UNL A   1      41.186  28.594  31.781  1.00  0.00     0.074 A 
ATOM     50  C   UNL A   1      39.378  29.777  30.588  1.00  0.00     0.049 A 
ATOM     51  N   UNL A   1      41.273  29.322  32.867  1.00  0.00    -0.248 NA
ATOM     52  C   UNL A   1      42.111  27.454  31.748  1.00  0.00     0.031 C 
ATOM     53  C   UNL A   1      38.409  30.022  29.516  1.00  0.00     0.029 A 
ATOM     54  N   UNL A   1      39.125  30.778  31.492  1.00  0.00    -0.354 N 
ATOM     55  C   UNL A   1      42.261  28.733  33.649  1.00  0.00     0.074 A 
ATOM     56  C   UNL A   1      42.719  27.563  32.924  1.00  0.00     0.031 C 
ATOM     57  C   UNL A   1      37.681  31.108  29.815  1.00  0.00     0.029 A 
ATOM     58  C   UNL A   1      38.105  31.622  31.112  1.00  0.00     0.049 A 
ATOM     59  H   UNL A   1      39.624  30.883  32.335  1.00  0.00     0.167 HD
ATOM     60  C   UNL A   1      42.746  29.138  34.849  1.00  0.00     0.037 A 
ATOM     61  C   UNL A   1      37.566  32.688  31.733  1.00  0.00     0.037 A 
ATOM     62  C   UNL A   1      42.281  30.304  35.560  1.00  0.00     0.049 A 
ATOM     63  C   UNL A   1      38.115  33.114  33.065  1.00  0.00     0.074 A 
ATOM     64  C   UNL A   1      42.733  30.816  36.766  1.00  0.00     0.029 A 
ATOM     65  N   UNL A   1      41.254  31.139  35.137  1.00  0.00    -0.354 N 
ATOM     66  N   UNL A   1      39.084  32.571  33.763  1.00  0.00    -0.248 NA
ATOM     67  C   UNL A   1      37.505  34.294  33.694  1.00  0.00     0.031 C 
ATOM     68  C   UNL A   1      41.959  31.937  37.088  1.00  0.00     0.029 A 
ATOM     69  C   UNL A   1      41.050  32.150  36.063  1.00  0.00     0.049 A 
ATOM     70  H   UNL A   1      40.747  31.027  34.301  1.00  0.00     0.167 HD
ATOM     71  C   UNL A   1      39.212  33.351  34.904  1.00  0.00     0.074 A 
ATOM     72  C   UNL A   1      38.231  34.412  34.799  1.00  0.00     0.031 C 
ATOM     73  C   UNL A   1      40.067  33.200  35.945  1.00  0.00     0.037 A 
BRANCH  60  74
ATOM     74  C   UNL A   1      43.850  28.326  35.475  1.00  0.00     0.058 A 
ATOM     75  C   UNL A   1      45.197  28.580  35.168  1.00  0.00     0.135 A 
ATOM     76  C   UNL A   1      43.569  27.252  36.334  1.00  0.00     0.135 A 
ATOM     77  F   UNL A   1      45.525  29.593  34.350  1.00  0.00    -0.206 F 
ATOM     78  C   UNL A   1      46.224  27.797  35.688  1.00  0.00     0.059 A 
ATOM     79  C   UNL A   1      44.582  26.469  36.883  1.00  0.00     0.059 A 
ATOM     80  F   UNL A   1      42.300  26.972  36.671  1.00  0.00    -0.206 F 
ATOM     81  C   UNL A   1      45.907  26.744  36.546  1.00  0.00     0.060 A 
BRANCH  81  82
ATOM     82  S   UNL A   1      47.252  25.769  37.257  1.00  0.00     0.124 S 
ATOM     83  O   UNL A   1      47.863  26.723  38.176  1.00  0.00    -0.237 OA
ATOM     84  O   UNL A   1      46.534  24.659  37.875  1.00  0.00    -0.237 OA
ATOM     85  O   UNL A   1      48.059  25.410  36.094  1.00  0.00    -0.744 OA
ENDBRANCH  81  82
ENDBRANCH  60  74
BRANCH  61  86
ATOM     86  C   UNL A   1      36.472  33.447  31.070  1.00  0.00     0.058 A 
ATOM     87  C   UNL A   1      35.148  33.378  31.532  1.00  0.00     0.135 A 
ATOM     88  C   UNL A   1      36.723  34.205  29.918  1.00  0.00     0.135 A 
ATOM     89  F   UNL A   1      34.851  32.655  32.622  1.00  0.00    -0.206 F 
ATOM     90  C   UNL A   1      34.108  34.009  30.857  1.00  0.00     0.059 A 
ATOM     91  C   UNL A   1      35.704  34.864  29.237  1.00  0.00     0.059 A 
ATOM     92  F   UNL A   1      37.975  34.308  29.445  1.00  0.00    -0.206 F 
ATOM     93  C   UNL A   1      34.395  34.743  29.704  1.00  0.00     0.060 A 
BRANCH  93  94
ATOM     94  S   UNL A   1      33.028  35.526  28.821  1.00  0.00     0.124 S 
ATOM     95  O   UNL A   1      33.739  36.486  27.981  1.00  0.00    -0.237 OA
ATOM     96  O   UNL A   1      32.425  34.395  28.123  1.00  0.00    -0.237 OA
ATOM     97  O   UNL A   1      32.222  36.103  29.890  1.00  0.00    -0.744 OA
ENDBRANCH  93  94
ENDBRANCH  61  86
BRANCH  73  98
ATOM     98  C   UNL A   1      39.992  34.208  37.056  1.00  0.00     0.058 A 
ATOM     99  C   UNL A   1      39.154  33.990  38.161  1.00  0.00     0.135 A 
ATOM    100  C   UNL A   1      40.689  35.424  36.989  1.00  0.00     0.135 A 
ATOM    101  F   UNL A   1      38.465  32.842  38.272  1.00  0.00    -0.206 F 
ATOM    102  C   UNL A   1      38.992  34.953  39.150  1.00  0.00     0.059 A 
ATOM    103  C   UNL A   1      40.559  36.393  37.980  1.00  0.00     0.059 A 
ATOM    104  F   UNL A   1      41.515  35.672  35.960  1.00  0.00    -0.206 F 
ATOM    105  C   UNL A   1      39.693  36.156  39.046  1.00  0.00     0.060 A 
BRANCH 105 106
ATOM    106  S   UNL A   1      39.467  37.399  40.337  1.00  0.00     0.124 S 
ATOM    107  O   UNL A   1      40.845  37.785  40.622  1.00  0.00    -0.237 OA
ATOM    108  O   UNL A   1      38.652  38.404  39.660  1.00  0.00    -0.237 OA
ATOM    109  O   UNL A   1      38.787  36.663  41.399  1.00  0.00    -0.744 OA
ENDBRANCH 105 106
ENDBRANCH  73  98
ENDBRANCH  47  48
ENDBRANCH  39  42
ENDBRANCH  37  38
ENDBRANCH  36  37
ENDBRANCH  35  36
ENDBRANCH   1  35
TORSDOF 20
ENDMDL
MODEL 3
REMARK VINA RESULT:     -12.5      1.217      2.059
REMARK SMILES O=C(CCN1C(=O)S/C(=C\c2ccc(F)cc2)C1=O)Nc1ccc(O)cc1C(=O)NCCCCNC(=O)c1ccc(-c2c3nc(c(-c4c(F)cc(S(=O)(=O)[O-])cc4F)c4ccc([nH]4)c(-c4c(F)cc(S(=O)(=O)[O-])cc4F)c4nc(c(-c5c(F)cc(S(=O)(=O)[O-])cc5F)c5ccc2[nH]5)C=C4)C=C3)cc1
REMARK SMILES IDX 31 1 30 2 28 3 29 4 27 6 21 7 22 8 23 9 26 10 24 11 20 12
REMARK SMILES IDX 1 13 2 14 3 16 4 17 5 18 6 19 18 20 7 21 8 22 9 23 19 24
REMARK SMILES IDX 10 25 11 26 12 27 17 28 13 29 16 30 14 31 15 32 25 33 32 35
REMARK SMILES IDX 33 36 34 37 35 38 36 39 37 41 38 42 39 43 103 44 40 45
REMARK SMILES IDX 102 46 41 47 42 48 43 49 96 50 44 51 101 52 95 53 97 54
REMARK SMILES IDX 45 55 100 56 94 57 93 58 46 60 80 61 59 62 79 63 60 64 63 65
REMARK SMILES IDX 78 66 98 67 61 68 62 69 77 71 99 72 64 73 47 74 48 75 57 76
REMARK SMILES IDX 49 77 50 78 56 79 58 80 51 81 52 82 53 83 54 84 55 85 81 86
REMARK SMILES IDX 82 87 91 88 83 89 84 90 90 91 92 92 85 93 86 94 87 95 88 96
REMARK SMILES IDX 89 97 65 98 66 99 75 100 67 101 68 102 74 103 76 104 69 105
REMARK SMILES IDX 70 106 71 107 72 108 73 109
REMARK H PARENT 30 5 20 15 25 34 35 40 97 59 63 70
REMARK Flexibility Score: inf
ROOT
ATOM      1  C   UNL A   1      36.477  20.709  25.013  1.00  0.00     0.116 C 
ENDROOT
BRANCH   1   2
ATOM      2  N   UNL A   1      35.309  20.915  25.860  1.00  0.00    -0.352 N 
ATOM      3  C   UNL A   1      34.058  20.324  25.857  1.00  0.00     0.253 C 
ATOM      4  O   UNL A   1      33.283  20.568  26.782  1.00  0.00    -0.269 OA
ATOM      5  H   UNL A   1      35.432  21.596  26.560  1.00  0.00     0.163 HD
BRANCH   3   6
ATOM      6  C   UNL A   1      33.578  19.404  24.788  1.00  0.00     0.067 A 
ATOM      7  C   UNL A   1      32.504  19.670  23.917  1.00  0.00     0.054 A 
ATOM      8  C   UNL A   1      32.134  18.696  22.972  1.00  0.00     0.031 A 
ATOM      9  C   UNL A   1      32.879  17.525  22.813  1.00  0.00     0.048 A 
ATOM     10  C   UNL A   1      34.343  18.236  24.594  1.00  0.00     0.062 A 
ATOM     11  C   UNL A   1      33.998  17.320  23.605  1.00  0.00     0.116 A 
BRANCH   7  12
ATOM     12  N   UNL A   1      31.918  20.957  23.874  1.00  0.00    -0.325 N 
ATOM     13  O   UNL A   1      32.477  21.597  21.730  1.00  0.00    -0.275 OA
ATOM     14  C   UNL A   1      32.018  21.862  22.839  1.00  0.00     0.226 C 
ATOM     15  H   UNL A   1      31.388  21.231  24.657  1.00  0.00     0.169 HD
BRANCH  14  16
ATOM     16  C   UNL A   1      31.558  23.278  23.159  1.00  0.00     0.122 C 
BRANCH  16  17
ATOM     17  C   UNL A   1      31.195  23.567  24.613  1.00  0.00     0.140 C 
BRANCH  17  18
ATOM     18  N   UNL A   1      31.817  24.771  25.162  1.00  0.00    -0.268 N 
ATOM     19  C   UNL A   1      33.144  24.841  25.425  1.00  0.00     0.293 C 
ATOM     20  C   UNL A   1      31.082  25.802  25.703  1.00  0.00     0.268 C 
ATOM     21  O   UNL A   1      33.953  23.929  25.381  1.00  0.00    -0.261 OA
ATOM     22  S   UNL A   1      33.630  26.429  25.867  1.00  0.00    -0.022 SA
ATOM     23  C   UNL A   1      32.002  26.851  26.230  1.00  0.00     0.083 C 
ATOM     24  O   UNL A   1      29.864  25.870  25.748  1.00  0.00    -0.268 OA
ATOM     25  C   UNL A   1      31.636  27.950  26.902  1.00  0.00     0.029 C 
BRANCH  25  26
ATOM     26  C   UNL A   1      32.637  28.965  27.251  1.00  0.00    -0.024 A 
ATOM     27  C   UNL A   1      32.275  30.318  27.139  1.00  0.00     0.011 A 
ATOM     28  C   UNL A   1      33.975  28.621  27.481  1.00  0.00     0.011 A 
ATOM     29  C   UNL A   1      33.242  31.315  27.237  1.00  0.00     0.040 A 
ATOM     30  C   UNL A   1      34.940  29.626  27.591  1.00  0.00     0.040 A 
ATOM     31  C   UNL A   1      34.566  30.961  27.461  1.00  0.00     0.123 A 
ATOM     32  F   UNL A   1      35.497  31.920  27.532  1.00  0.00    -0.207 F 
ENDBRANCH  25  26
ENDBRANCH  17  18
ENDBRANCH  16  17
ENDBRANCH  14  16
ENDBRANCH   7  12
BRANCH  11  33
ATOM     33  O   UNL A   1      34.796  16.228  23.428  1.00  0.00    -0.508 OA
ATOM     34  H   UNL A   1      35.053  15.712  24.167  1.00  0.00     0.293 HD
ENDBRANCH  11  33
ENDBRANCH   3   6
ENDBRANCH   1   2
BRANCH   1  35
ATOM     35  C   UNL A   1      37.519  21.843  24.906  1.00  0.00     0.023 C 
BRANCH  35  36
ATOM     36  C   UNL A   1      37.518  23.301  25.469  1.00  0.00     0.023 C 
BRANCH  36  37
ATOM     37  C   UNL A   1      38.627  24.181  26.092  1.00  0.00     0.116 C 
BRANCH  37  38
ATOM     38  N   UNL A   1      39.887  23.552  26.448  1.00  0.00    -0.352 N 
ATOM     39  C   UNL A   1      40.828  23.963  27.377  1.00  0.00     0.251 C 
ATOM     40  H   UNL A   1      40.099  22.722  25.964  1.00  0.00     0.163 HD
ATOM     41  O   UNL A   1      41.827  23.272  27.564  1.00  0.00    -0.269 OA
BRANCH  39  42
ATOM     42  C   UNL A   1      40.693  25.251  28.110  1.00  0.00     0.039 A 
ATOM     43  C   UNL A   1      39.457  25.552  28.701  1.00  0.00     0.014 A 
ATOM     44  C   UNL A   1      41.741  26.170  28.211  1.00  0.00     0.014 A 
ATOM     45  C   UNL A   1      39.311  26.699  29.494  1.00  0.00     0.010 A 
ATOM     46  C   UNL A   1      41.599  27.310  29.020  1.00  0.00     0.010 A 
ATOM     47  C   UNL A   1      40.402  27.557  29.711  1.00  0.00    -0.014 A 
BRANCH  47  48
ATOM     48  C   UNL A   1      40.362  28.577  30.799  1.00  0.00     0.031 A 
ATOM     49  C   UNL A   1      41.241  28.493  32.015  1.00  0.00     0.074 A 
ATOM     50  C   UNL A   1      39.442  29.561  30.705  1.00  0.00     0.049 A 
ATOM     51  N   UNL A   1      41.273  29.278  33.064  1.00  0.00    -0.248 NA
ATOM     52  C   UNL A   1      42.197  27.378  32.071  1.00  0.00     0.031 C 
ATOM     53  C   UNL A   1      38.502  29.723  29.593  1.00  0.00     0.029 A 
ATOM     54  N   UNL A   1      39.133  30.600  31.548  1.00  0.00    -0.354 N 
ATOM     55  C   UNL A   1      42.250  28.758  33.906  1.00  0.00     0.074 A 
ATOM     56  C   UNL A   1      42.763  27.566  33.258  1.00  0.00     0.031 C 
ATOM     57  C   UNL A   1      37.737  30.802  29.811  1.00  0.00     0.029 A 
ATOM     58  C   UNL A   1      38.105  31.394  31.092  1.00  0.00     0.049 A 
ATOM     59  H   UNL A   1      39.602  30.762  32.399  1.00  0.00     0.167 HD
ATOM     60  C   UNL A   1      42.684  29.239  35.097  1.00  0.00     0.037 A 
ATOM     61  C   UNL A   1      37.517  32.476  31.639  1.00  0.00     0.037 A 
ATOM     62  C   UNL A   1      42.166  30.426  35.732  1.00  0.00     0.049 A 
ATOM     63  C   UNL A   1      38.011  32.985  32.963  1.00  0.00     0.074 A 
ATOM     64  C   UNL A   1      42.565  31.012  36.922  1.00  0.00     0.029 A 
ATOM     65  N   UNL A   1      41.132  31.209  35.234  1.00  0.00    -0.354 N 
ATOM     66  N   UNL A   1      38.970  32.506  33.718  1.00  0.00    -0.248 NA
ATOM     67  C   UNL A   1      37.350  34.178  33.510  1.00  0.00     0.031 C 
ATOM     68  C   UNL A   1      41.751  32.125  37.160  1.00  0.00     0.029 A 
ATOM     69  C   UNL A   1      40.871  32.260  36.098  1.00  0.00     0.049 A 
ATOM     70  H   UNL A   1      40.655  31.040  34.389  1.00  0.00     0.167 HD
ATOM     71  C   UNL A   1      39.041  33.347  34.821  1.00  0.00     0.074 A 
ATOM     72  C   UNL A   1      38.035  34.374  34.629  1.00  0.00     0.031 C 
ATOM     73  C   UNL A   1      39.865  33.274  35.894  1.00  0.00     0.037 A 
BRANCH  60  74
ATOM     74  C   UNL A   1      43.789  28.491  35.800  1.00  0.00     0.058 A 
ATOM     75  C   UNL A   1      43.499  27.460  36.708  1.00  0.00     0.135 A 
ATOM     76  C   UNL A   1      45.137  28.841  35.619  1.00  0.00     0.135 A 
ATOM     77  F   UNL A   1      42.228  27.084  36.922  1.00  0.00    -0.206 F 
ATOM     78  C   UNL A   1      44.505  26.804  37.413  1.00  0.00     0.059 A 
ATOM     79  C   UNL A   1      46.161  28.184  36.298  1.00  0.00     0.059 A 
ATOM     80  F   UNL A   1      45.471  29.812  34.755  1.00  0.00    -0.206 F 
ATOM     81  C   UNL A   1      45.834  27.173  37.200  1.00  0.00     0.060 A 
BRANCH  81  82
ATOM     82  S   UNL A   1      47.134  26.278  38.081  1.00  0.00     0.124 S 
ATOM     83  O   UNL A   1      46.439  25.063  38.490  1.00  0.00    -0.237 OA
ATOM     84  O   UNL A   1      48.149  26.113  37.045  1.00  0.00    -0.237 OA
ATOM     85  O   UNL A   1      47.498  27.190  39.162  1.00  0.00    -0.744 OA
ENDBRANCH  81  82
ENDBRANCH  60  74
BRANCH  61  86
ATOM     86  C   UNL A   1      36.425  33.168  30.904  1.00  0.00     0.058 A 
ATOM     87  C   UNL A   1      36.694  33.990  29.798  1.00  0.00     0.135 A 
ATOM     88  C   UNL A   1      35.095  33.069  31.337  1.00  0.00     0.135 A 
ATOM     89  F   UNL A   1      37.951  34.130  29.352  1.00  0.00    -0.206 F 
ATOM     90  C   UNL A   1      35.686  34.714  29.169  1.00  0.00     0.059 A 
ATOM     91  C   UNL A   1      34.067  33.766  30.710  1.00  0.00     0.059 A 
ATOM     92  F   UNL A   1      34.789  32.287  32.384  1.00  0.00    -0.206 F 
ATOM     93  C   UNL A   1      34.376  34.602  29.638  1.00  0.00     0.060 A 
BRANCH  93  94
ATOM     94  S   UNL A   1      33.087  35.576  28.831  1.00  0.00     0.124 S 
ATOM     95  O   UNL A   1      33.883  36.527  28.059  1.00  0.00    -0.237 OA
ATOM     96  O   UNL A   1      32.379  34.564  28.054  1.00  0.00    -0.237 OA
ATOM     97  O   UNL A   1      32.341  36.142  29.949  1.00  0.00    -0.744 OA
ENDBRANCH  93  94
ENDBRANCH  61  86
BRANCH  73  98
ATOM     98  C   UNL A   1      39.727  34.336  36.948  1.00  0.00     0.058 A 
ATOM     99  C   UNL A   1      40.388  35.567  36.810  1.00  0.00     0.135 A 
ATOM    100  C   UNL A   1      39.003  34.106  38.129  1.00  0.00     0.135 A 
ATOM    101  F   UNL A   1      41.094  35.835  35.699  1.00  0.00    -0.206 F 
ATOM    102  C   UNL A   1      40.357  36.524  37.818  1.00  0.00     0.059 A 
ATOM    103  C   UNL A   1      38.940  35.060  39.140  1.00  0.00     0.059 A 
ATOM    104  F   UNL A   1      38.340  32.951  38.299  1.00  0.00    -0.206 F 
ATOM    105  C   UNL A   1      39.637  36.258  38.983  1.00  0.00     0.060 A 
BRANCH 105 106
ATOM    106  S   UNL A   1      39.610  37.510  40.285  1.00  0.00     0.124 S 
ATOM    107  O   UNL A   1      38.836  38.574  39.658  1.00  0.00    -0.237 OA
ATOM    108  O   UNL A   1      38.951  36.804  41.380  1.00  0.00    -0.237 OA
ATOM    109  O   UNL A   1      41.024  37.803  40.500  1.00  0.00    -0.744 OA
ENDBRANCH 105 106
ENDBRANCH  73  98
ENDBRANCH  47  48
ENDBRANCH  39  42
ENDBRANCH  37  38
ENDBRANCH  36  37
ENDBRANCH  35  36
ENDBRANCH   1  35
TORSDOF 20
ENDMDL
