MODEL 1
REMARK VINA RESULT:     -12.0      0.000      0.000
REMARK SMILES O=C(NCCCCNC(=O)c1cc(=O)[nH]c2ccc(C(F)(F)F)cc12)c1ccc(-c2c3nc(c(-c4c(F)cc(S(=O)(=O)[O-])cc4F)c4ccc([nH]4)c(-c4c(F)cc(S(=O)(=O)[O-])cc4F)c4nc(c(-c5c(F)cc(S(=O)(=O)[O-])cc5F)c5ccc2[nH]5)C=C4)C=C3)cc1
REMARK SMILES IDX 4 1 3 2 1 3 2 4 26 6 27 7 91 8 28 9 90 10 29 11 30 12 31 13
REMARK SMILES IDX 84 14 32 15 89 16 83 17 85 18 33 19 88 20 82 21 81 22 34 24
REMARK SMILES IDX 68 25 47 26 67 27 48 28 51 29 66 30 86 31 49 32 50 33 65 35
REMARK SMILES IDX 87 36 52 37 35 38 36 39 45 40 37 41 38 42 44 43 46 44 39 45
REMARK SMILES IDX 40 46 41 47 42 48 43 49 69 50 70 51 79 52 71 53 72 54 78 55
REMARK SMILES IDX 80 56 73 57 74 58 75 59 76 60 77 61 53 62 54 63 63 64 55 65
REMARK SMILES IDX 56 66 62 67 64 68 57 69 58 70 59 71 60 72 61 73 5 74 6 75
REMARK SMILES IDX 7 76 8 77 9 78 10 80 11 81 12 82 25 83 13 84 16 85 24 86
REMARK SMILES IDX 14 87 15 88 17 89 19 90 18 92 20 93 21 94 22 95 23 96
REMARK H PARENT 3 5 85 23 51 34 8 79 15 91
REMARK Flexibility Score: inf
ROOT
ATOM      1  C   UNL A   1      37.396  33.450  31.055  1.00  0.00     0.116 C 
ENDROOT
BRANCH   1   2
ATOM      2  N   UNL A   1      36.646  32.273  31.461  1.00  0.00    -0.352 N 
ATOM      3  O   UNL A   1      36.145  30.081  31.592  1.00  0.00    -0.269 OA
ATOM      4  C   UNL A   1      36.967  30.946  31.301  1.00  0.00     0.251 C 
ATOM      5  H   UNL A   1      35.790  32.452  31.912  1.00  0.00     0.163 HD
BRANCH   4   6
ATOM      6  C   UNL A   1      38.289  30.564  30.755  1.00  0.00     0.039 A 
ATOM      7  C   UNL A   1      38.507  30.518  29.376  1.00  0.00     0.014 A 
ATOM      8  C   UNL A   1      39.329  30.256  31.638  1.00  0.00     0.014 A 
ATOM      9  C   UNL A   1      39.716  30.041  28.881  1.00  0.00     0.010 A 
ATOM     10  C   UNL A   1      40.571  29.853  31.139  1.00  0.00     0.010 A 
ATOM     11  C   UNL A   1      40.768  29.721  29.756  1.00  0.00    -0.014 A 
BRANCH  11  12
ATOM     12  C   UNL A   1      42.089  29.343  29.192  1.00  0.00     0.031 A 
ATOM     13  C   UNL A   1      43.216  30.335  29.097  1.00  0.00     0.074 A 
ATOM     14  C   UNL A   1      42.265  28.072  28.777  1.00  0.00     0.049 A 
ATOM     15  N   UNL A   1      44.429  30.155  28.642  1.00  0.00    -0.248 NA
ATOM     16  C   UNL A   1      42.950  31.705  29.564  1.00  0.00     0.031 C 
ATOM     17  C   UNL A   1      41.232  27.031  28.797  1.00  0.00     0.029 A 
ATOM     18  N   UNL A   1      43.367  27.433  28.271  1.00  0.00    -0.354 N 
ATOM     19  C   UNL A   1      45.066  31.386  28.747  1.00  0.00     0.074 A 
ATOM     20  C   UNL A   1      44.100  32.312  29.299  1.00  0.00     0.031 C 
ATOM     21  C   UNL A   1      41.758  25.880  28.357  1.00  0.00     0.029 A 
ATOM     22  C   UNL A   1      43.145  26.110  27.972  1.00  0.00     0.049 A 
ATOM     23  H   UNL A   1      44.234  27.880  28.134  1.00  0.00     0.167 HD
ATOM     24  C   UNL A   1      46.341  31.707  28.419  1.00  0.00     0.037 A 
ATOM     25  C   UNL A   1      43.959  25.187  27.428  1.00  0.00     0.037 A 
ATOM     26  C   UNL A   1      47.303  30.769  27.896  1.00  0.00     0.049 A 
ATOM     27  C   UNL A   1      45.365  25.574  27.073  1.00  0.00     0.074 A 
ATOM     28  C   UNL A   1      48.637  30.985  27.594  1.00  0.00     0.029 A 
ATOM     29  N   UNL A   1      47.038  29.442  27.593  1.00  0.00    -0.354 N 
ATOM     30  N   UNL A   1      45.963  26.731  27.230  1.00  0.00    -0.248 NA
ATOM     31  C   UNL A   1      46.205  24.537  26.462  1.00  0.00     0.031 C 
ATOM     32  C   UNL A   1      49.167  29.801  27.069  1.00  0.00     0.029 A 
ATOM     33  C   UNL A   1      48.175  28.836  27.082  1.00  0.00     0.049 A 
ATOM     34  H   UNL A   1      46.170  28.996  27.722  1.00  0.00     0.167 HD
ATOM     35  C   UNL A   1      47.251  26.559  26.741  1.00  0.00     0.074 A 
ATOM     36  C   UNL A   1      47.355  25.180  26.309  1.00  0.00     0.031 C 
ATOM     37  C   UNL A   1      48.256  27.463  26.651  1.00  0.00     0.037 A 
BRANCH  24  38
ATOM     38  C   UNL A   1      46.788  33.130  28.602  1.00  0.00     0.058 A 
ATOM     39  C   UNL A   1      47.433  33.555  29.775  1.00  0.00     0.135 A 
ATOM     40  C   UNL A   1      46.663  34.055  27.553  1.00  0.00     0.135 A 
ATOM     41  F   UNL A   1      47.568  32.715  30.813  1.00  0.00    -0.206 F 
ATOM     42  C   UNL A   1      47.935  34.846  29.901  1.00  0.00     0.059 A 
ATOM     43  C   UNL A   1      47.174  35.346  27.649  1.00  0.00     0.059 A 
ATOM     44  F   UNL A   1      46.054  33.699  26.410  1.00  0.00    -0.206 F 
ATOM     45  C   UNL A   1      47.806  35.733  28.830  1.00  0.00     0.060 A 
BRANCH  45  46
ATOM     46  S   UNL A   1      48.504  37.391  28.991  1.00  0.00     0.124 S 
ATOM     47  O   UNL A   1      47.376  38.129  29.551  1.00  0.00    -0.237 OA
ATOM     48  O   UNL A   1      49.628  37.171  29.896  1.00  0.00    -0.237 OA
ATOM     49  O   UNL A   1      48.866  37.745  27.621  1.00  0.00    -0.744 OA
ENDBRANCH  45  46
ENDBRANCH  24  38
BRANCH  25  50
ATOM     50  C   UNL A   1      43.452  23.816  27.162  1.00  0.00     0.058 A 
ATOM     51  C   UNL A   1      43.139  23.397  25.861  1.00  0.00     0.135 A 
ATOM     52  C   UNL A   1      43.277  22.897  28.208  1.00  0.00     0.135 A 
ATOM     53  F   UNL A   1      43.289  24.242  24.830  1.00  0.00    -0.206 F 
ATOM     54  C   UNL A   1      42.650  22.119  25.608  1.00  0.00     0.059 A 
ATOM     55  C   UNL A   1      42.814  21.607  27.977  1.00  0.00     0.059 A 
ATOM     56  F   UNL A   1      43.581  23.247  29.468  1.00  0.00    -0.206 F 
ATOM     57  C   UNL A   1      42.489  21.233  26.675  1.00  0.00     0.060 A 
BRANCH  57  58
ATOM     58  S   UNL A   1      41.882  19.566  26.339  1.00  0.00     0.124 S 
ATOM     59  O   UNL A   1      42.385  18.834  27.495  1.00  0.00    -0.237 OA
ATOM     60  O   UNL A   1      40.437  19.766  26.288  1.00  0.00    -0.237 OA
ATOM     61  O   UNL A   1      42.505  19.237  25.060  1.00  0.00    -0.744 OA
ENDBRANCH  57  58
ENDBRANCH  25  50
BRANCH  37  62
ATOM     62  C   UNL A   1      49.555  26.982  26.070  1.00  0.00     0.058 A 
ATOM     63  C   UNL A   1      49.853  27.152  24.709  1.00  0.00     0.135 A 
ATOM     64  C   UNL A   1      50.519  26.370  26.885  1.00  0.00     0.135 A 
ATOM     65  F   UNL A   1      48.956  27.723  23.888  1.00  0.00    -0.206 F 
ATOM     66  C   UNL A   1      51.055  26.710  24.170  1.00  0.00     0.059 A 
ATOM     67  C   UNL A   1      51.739  25.941  26.371  1.00  0.00     0.059 A 
ATOM     68  F   UNL A   1      50.284  26.192  28.194  1.00  0.00    -0.206 F 
ATOM     69  C   UNL A   1      51.991  26.103  25.009  1.00  0.00     0.060 A 
BRANCH  69  70
ATOM     70  S   UNL A   1      53.558  25.550  24.304  1.00  0.00     0.124 S 
ATOM     71  O   UNL A   1      54.514  26.385  25.023  1.00  0.00    -0.237 OA
ATOM     72  O   UNL A   1      53.574  24.131  24.644  1.00  0.00    -0.237 OA
ATOM     73  O   UNL A   1      53.412  25.845  22.881  1.00  0.00    -0.744 OA
ENDBRANCH  69  70
ENDBRANCH  37  62
ENDBRANCH  11  12
ENDBRANCH   4   6
ENDBRANCH   1   2
BRANCH   1  74
ATOM     74  C   UNL A   1      37.403  34.549  32.109  1.00  0.00     0.023 C 
BRANCH  74  75
ATOM     75  C   UNL A   1      37.138  34.093  33.543  1.00  0.00     0.023 C 
BRANCH  75  76
ATOM     76  C   UNL A   1      35.874  34.654  34.190  1.00  0.00     0.116 C 
BRANCH  76  77
ATOM     77  N   UNL A   1      34.717  33.789  34.012  1.00  0.00    -0.352 N 
ATOM     78  C   UNL A   1      33.654  33.900  33.164  1.00  0.00     0.252 C 
ATOM     79  H   UNL A   1      34.699  32.997  34.597  1.00  0.00     0.163 HD
ATOM     80  O   UNL A   1      32.740  33.081  33.220  1.00  0.00    -0.269 OA
BRANCH  78  81
ATOM     81  C   UNL A   1      33.601  35.032  32.206  1.00  0.00     0.054 A 
ATOM     82  C   UNL A   1      33.421  36.256  32.729  1.00  0.00     0.086 A 
ATOM     83  C   UNL A   1      33.848  34.874  30.762  1.00  0.00     0.012 A 
ATOM     84  C   UNL A   1      33.320  37.449  31.867  1.00  0.00     0.249 A 
ATOM     85  C   UNL A   1      33.768  36.014  29.948  1.00  0.00     0.049 A 
ATOM     86  C   UNL A   1      34.160  33.644  30.162  1.00  0.00     0.024 A 
ATOM     87  O   UNL A   1      33.080  38.550  32.346  1.00  0.00    -0.270 OA
ATOM     88  N   UNL A   1      33.489  37.257  30.526  1.00  0.00    -0.322 N 
ATOM     89  C   UNL A   1      33.979  35.935  28.572  1.00  0.00     0.027 A 
ATOM     90  C   UNL A   1      34.398  33.551  28.778  1.00  0.00     0.056 A 
ATOM     91  H   UNL A   1      33.409  38.039  29.932  1.00  0.00     0.170 HD
ATOM     92  C   UNL A   1      34.296  34.708  27.990  1.00  0.00     0.015 A 
BRANCH  90  93
ATOM     93  C   UNL A   1      34.766  32.220  28.165  1.00  0.00     0.416 C 
ATOM     94  F   UNL A   1      34.731  31.201  29.066  1.00  0.00    -0.166 F 
ATOM     95  F   UNL A   1      33.932  31.864  27.152  1.00  0.00    -0.166 F 
ATOM     96  F   UNL A   1      36.023  32.202  27.636  1.00  0.00    -0.166 F 
ENDBRANCH  90  93
ENDBRANCH  78  81
ENDBRANCH  76  77
ENDBRANCH  75  76
ENDBRANCH  74  75
ENDBRANCH   1  74
TORSDOF 15
ENDMDL
MODEL 2
REMARK VINA RESULT:     -11.9      3.965      5.469
REMARK SMILES O=C(NCCCCNC(=O)c1cc(=O)[nH]c2ccc(C(F)(F)F)cc12)c1ccc(-c2c3nc(c(-c4c(F)cc(S(=O)(=O)[O-])cc4F)c4ccc([nH]4)c(-c4c(F)cc(S(=O)(=O)[O-])cc4F)c4nc(c(-c5c(F)cc(S(=O)(=O)[O-])cc5F)c5ccc2[nH]5)C=C4)C=C3)cc1
REMARK SMILES IDX 4 1 3 2 1 3 2 4 26 6 27 7 91 8 28 9 90 10 29 11 30 12 31 13
REMARK SMILES IDX 84 14 32 15 89 16 83 17 85 18 33 19 88 20 82 21 81 22 34 24
REMARK SMILES IDX 68 25 47 26 67 27 48 28 51 29 66 30 86 31 49 32 50 33 65 35
REMARK SMILES IDX 87 36 52 37 35 38 36 39 45 40 37 41 38 42 44 43 46 44 39 45
REMARK SMILES IDX 40 46 41 47 42 48 43 49 69 50 70 51 79 52 71 53 72 54 78 55
REMARK SMILES IDX 80 56 73 57 74 58 75 59 76 60 77 61 53 62 54 63 63 64 55 65
REMARK SMILES IDX 56 66 62 67 64 68 57 69 58 70 59 71 60 72 61 73 5 74 6 75
REMARK SMILES IDX 7 76 8 77 9 78 10 80 11 81 12 82 25 83 13 84 16 85 24 86
REMARK SMILES IDX 14 87 15 88 17 89 19 90 18 92 20 93 21 94 22 95 23 96
REMARK H PARENT 3 5 85 23 51 34 8 79 15 91
REMARK Flexibility Score: inf
ROOT
ATOM      1  C   UNL A   1      35.421  29.279  27.691  1.00  0.00     0.116 C 
ENDROOT
BRANCH   1   2
ATOM      2  N   UNL A   1      35.397  29.915  28.997  1.00  0.00    -0.352 N 
ATOM      3  O   UNL A   1      36.195  30.550  31.006  1.00  0.00    -0.269 OA
ATOM      4  C   UNL A   1      36.430  30.106  29.886  1.00  0.00     0.251 C 
ATOM      5  H   UNL A   1      34.520  30.256  29.286  1.00  0.00     0.163 HD
BRANCH   4   6
ATOM      6  C   UNL A   1      37.814  29.752  29.499  1.00  0.00     0.039 A 
ATOM      7  C   UNL A   1      38.754  29.382  30.464  1.00  0.00     0.014 A 
ATOM      8  C   UNL A   1      38.174  29.781  28.148  1.00  0.00     0.014 A 
ATOM      9  C   UNL A   1      40.078  29.171  30.096  1.00  0.00     0.010 A 
ATOM     10  C   UNL A   1      39.487  29.490  27.770  1.00  0.00     0.010 A 
ATOM     11  C   UNL A   1      40.457  29.204  28.743  1.00  0.00    -0.014 A 
BRANCH  11  12
ATOM     12  C   UNL A   1      41.848  28.842  28.371  1.00  0.00     0.031 A 
ATOM     13  C   UNL A   1      42.949  29.866  28.354  1.00  0.00     0.074 A 
ATOM     14  C   UNL A   1      42.111  27.556  28.061  1.00  0.00     0.049 A 
ATOM     15  N   UNL A   1      44.215  29.703  28.063  1.00  0.00    -0.248 NA
ATOM     16  C   UNL A   1      42.589  31.251  28.698  1.00  0.00     0.031 C 
ATOM     17  C   UNL A   1      41.113  26.481  28.019  1.00  0.00     0.029 A 
ATOM     18  N   UNL A   1      43.284  26.928  27.735  1.00  0.00    -0.354 N 
ATOM     19  C   UNL A   1      44.799  30.960  28.169  1.00  0.00     0.074 A 
ATOM     20  C   UNL A   1      43.745  31.882  28.538  1.00  0.00     0.031 C 
ATOM     21  C   UNL A   1      41.722  25.326  27.720  1.00  0.00     0.029 A 
ATOM     22  C   UNL A   1      43.139  25.582  27.495  1.00  0.00     0.049 A 
ATOM     23  H   UNL A   1      44.149  27.396  27.678  1.00  0.00     0.167 HD
ATOM     24  C   UNL A   1      46.095  31.306  27.980  1.00  0.00     0.037 A 
ATOM     25  C   UNL A   1      44.040  24.659  27.113  1.00  0.00     0.037 A 
ATOM     26  C   UNL A   1      47.141  30.374  27.639  1.00  0.00     0.049 A 
ATOM     27  C   UNL A   1      45.468  25.075  26.911  1.00  0.00     0.074 A 
ATOM     28  C   UNL A   1      48.496  30.621  27.491  1.00  0.00     0.029 A 
ATOM     29  N   UNL A   1      46.953  29.024  27.389  1.00  0.00    -0.354 N 
ATOM     30  N   UNL A   1      46.008  26.259  27.067  1.00  0.00    -0.248 NA
ATOM     31  C   UNL A   1      46.407  24.034  26.474  1.00  0.00     0.031 C 
ATOM     32  C   UNL A   1      49.120  29.427  27.109  1.00  0.00     0.029 A 
ATOM     33  C   UNL A   1      48.162  28.429  27.061  1.00  0.00     0.049 A 
ATOM     34  H   UNL A   1      46.089  28.555  27.438  1.00  0.00     0.167 HD
ATOM     35  C   UNL A   1      47.352  26.105  26.752  1.00  0.00     0.074 A 
ATOM     36  C   UNL A   1      47.548  24.708  26.423  1.00  0.00     0.031 C 
ATOM     37  C   UNL A   1      48.335  27.038  26.730  1.00  0.00     0.037 A 
BRANCH  24  38
ATOM     38  C   UNL A   1      46.476  32.753  28.128  1.00  0.00     0.058 A 
ATOM     39  C   UNL A   1      47.024  33.253  29.319  1.00  0.00     0.135 A 
ATOM     40  C   UNL A   1      46.385  33.626  27.032  1.00  0.00     0.135 A 
ATOM     41  F   UNL A   1      47.121  32.464  30.401  1.00  0.00    -0.206 F 
ATOM     42  C   UNL A   1      47.469  34.567  29.419  1.00  0.00     0.059 A 
ATOM     43  C   UNL A   1      46.841  34.940  27.102  1.00  0.00     0.059 A 
ATOM     44  F   UNL A   1      45.868  33.198  25.869  1.00  0.00    -0.206 F 
ATOM     45  C   UNL A   1      47.378  35.403  28.303  1.00  0.00     0.060 A 
BRANCH  45  46
ATOM     46  S   UNL A   1      48.001  37.093  28.434  1.00  0.00     0.124 S 
ATOM     47  O   UNL A   1      46.849  37.864  27.977  1.00  0.00    -0.237 OA
ATOM     48  O   UNL A   1      48.311  37.202  29.857  1.00  0.00    -0.237 OA
ATOM     49  O   UNL A   1      49.156  37.102  27.541  1.00  0.00    -0.744 OA
ENDBRANCH  45  46
ENDBRANCH  24  38
BRANCH  25  50
ATOM     50  C   UNL A   1      43.609  23.258  26.873  1.00  0.00     0.058 A 
ATOM     51  C   UNL A   1      43.288  22.404  27.938  1.00  0.00     0.135 A 
ATOM     52  C   UNL A   1      43.504  22.750  25.569  1.00  0.00     0.135 A 
ATOM     53  F   UNL A   1      43.375  22.845  29.202  1.00  0.00    -0.206 F 
ATOM     54  C   UNL A   1      42.897  21.087  27.720  1.00  0.00     0.059 A 
ATOM     55  C   UNL A   1      43.090  21.445  25.325  1.00  0.00     0.059 A 
ATOM     56  F   UNL A   1      43.781  23.535  24.517  1.00  0.00    -0.206 F 
ATOM     57  C   UNL A   1      42.804  20.617  26.408  1.00  0.00     0.060 A 
BRANCH  57  58
ATOM     58  S   UNL A   1      42.268  18.916  26.127  1.00  0.00     0.124 S 
ATOM     59  O   UNL A   1      40.891  19.111  25.694  1.00  0.00    -0.237 OA
ATOM     60  O   UNL A   1      43.203  18.460  25.102  1.00  0.00    -0.237 OA
ATOM     61  O   UNL A   1      42.439  18.293  27.438  1.00  0.00    -0.744 OA
ENDBRANCH  57  58
ENDBRANCH  25  50
BRANCH  37  62
ATOM     62  C   UNL A   1      49.709  26.571  26.344  1.00  0.00     0.058 A 
ATOM     63  C   UNL A   1      50.196  26.736  25.038  1.00  0.00     0.135 A 
ATOM     64  C   UNL A   1      50.554  25.976  27.293  1.00  0.00     0.135 A 
ATOM     65  F   UNL A   1      49.420  27.290  24.093  1.00  0.00    -0.206 F 
ATOM     66  C   UNL A   1      51.468  26.306  24.680  1.00  0.00     0.059 A 
ATOM     67  C   UNL A   1      51.840  25.560  26.962  1.00  0.00     0.059 A 
ATOM     68  F   UNL A   1      50.137  25.803  28.557  1.00  0.00    -0.206 F 
ATOM     69  C   UNL A   1      52.282  25.717  25.648  1.00  0.00     0.060 A 
BRANCH  69  70
ATOM     70  S   UNL A   1      53.940  25.180  25.179  1.00  0.00     0.124 S 
ATOM     71  O   UNL A   1      54.710  25.534  26.366  1.00  0.00    -0.237 OA
ATOM     72  O   UNL A   1      53.755  23.752  24.945  1.00  0.00    -0.237 OA
ATOM     73  O   UNL A   1      54.227  25.972  23.986  1.00  0.00    -0.744 OA
ENDBRANCH  69  70
ENDBRANCH  37  62
ENDBRANCH  11  12
ENDBRANCH   4   6
ENDBRANCH   1   2
BRANCH   1  74
ATOM     74  C   UNL A   1      34.046  28.825  27.221  1.00  0.00     0.023 C 
BRANCH  74  75
ATOM     75  C   UNL A   1      32.963  29.904  27.201  1.00  0.00     0.023 C 
BRANCH  75  76
ATOM     76  C   UNL A   1      32.084  29.932  25.953  1.00  0.00     0.116 C 
BRANCH  76  77
ATOM     77  N   UNL A   1      32.840  29.730  24.725  1.00  0.00    -0.352 N 
ATOM     78  C   UNL A   1      32.654  28.838  23.710  1.00  0.00     0.252 C 
ATOM     79  H   UNL A   1      33.607  30.336  24.608  1.00  0.00     0.163 HD
ATOM     80  O   UNL A   1      33.456  28.794  22.781  1.00  0.00    -0.269 OA
BRANCH  78  81
ATOM     81  C   UNL A   1      31.499  27.907  23.762  1.00  0.00     0.054 A 
ATOM     82  C   UNL A   1      31.759  26.645  24.142  1.00  0.00     0.086 A 
ATOM     83  C   UNL A   1      30.109  28.337  23.529  1.00  0.00     0.012 A 
ATOM     84  C   UNL A   1      30.693  25.627  24.196  1.00  0.00     0.249 A 
ATOM     85  C   UNL A   1      29.096  27.369  23.599  1.00  0.00     0.049 A 
ATOM     86  C   UNL A   1      29.749  29.663  23.246  1.00  0.00     0.024 A 
ATOM     87  O   UNL A   1      30.952  24.462  24.470  1.00  0.00    -0.270 OA
ATOM     88  N   UNL A   1      29.426  26.046  23.912  1.00  0.00    -0.322 N 
ATOM     89  C   UNL A   1      27.761  27.705  23.380  1.00  0.00     0.027 A 
ATOM     90  C   UNL A   1      28.403  30.023  23.043  1.00  0.00     0.056 A 
ATOM     91  H   UNL A   1      28.702  25.377  23.926  1.00  0.00     0.170 HD
ATOM     92  C   UNL A   1      27.416  29.028  23.105  1.00  0.00     0.015 A 
BRANCH  90  93
ATOM     93  C   UNL A   1      28.042  31.465  22.773  1.00  0.00     0.416 C 
ATOM     94  F   UNL A   1      27.040  31.913  23.577  1.00  0.00    -0.166 F 
ATOM     95  F   UNL A   1      29.090  32.310  22.963  1.00  0.00    -0.166 F 
ATOM     96  F   UNL A   1      27.615  31.682  21.496  1.00  0.00    -0.166 F 
ENDBRANCH  90  93
ENDBRANCH  78  81
ENDBRANCH  76  77
ENDBRANCH  75  76
ENDBRANCH  74  75
ENDBRANCH   1  74
TORSDOF 15
ENDMDL
MODEL 3
REMARK VINA RESULT:     -11.8      6.579     10.043
REMARK SMILES O=C(NCCCCNC(=O)c1cc(=O)[nH]c2ccc(C(F)(F)F)cc12)c1ccc(-c2c3nc(c(-c4c(F)cc(S(=O)(=O)[O-])cc4F)c4ccc([nH]4)c(-c4c(F)cc(S(=O)(=O)[O-])cc4F)c4nc(c(-c5c(F)cc(S(=O)(=O)[O-])cc5F)c5ccc2[nH]5)C=C4)C=C3)cc1
REMARK SMILES IDX 4 1 3 2 1 3 2 4 26 6 27 7 91 8 28 9 90 10 29 11 30 12 31 13
REMARK SMILES IDX 84 14 32 15 89 16 83 17 85 18 33 19 88 20 82 21 81 22 34 24
REMARK SMILES IDX 68 25 47 26 67 27 48 28 51 29 66 30 86 31 49 32 50 33 65 35
REMARK SMILES IDX 87 36 52 37 35 38 36 39 45 40 37 41 38 42 44 43 46 44 39 45
REMARK SMILES IDX 40 46 41 47 42 48 43 49 69 50 70 51 79 52 71 53 72 54 78 55
REMARK SMILES IDX 80 56 73 57 74 58 75 59 76 60 77 61 53 62 54 63 63 64 55 65
REMARK SMILES IDX 56 66 62 67 64 68 57 69 58 70 59 71 60 72 61 73 5 74 6 75
REMARK SMILES IDX 7 76 8 77 9 78 10 80 11 81 12 82 25 83 13 84 16 85 24 86
REMARK SMILES IDX 14 87 15 88 17 89 19 90 18 92 20 93 21 94 22 95 23 96
REMARK H PARENT 3 5 85 23 51 34 8 79 15 91
REMARK Flexibility Score: inf
ROOT
ATOM      1  C   UNL A   1      32.810  32.479  27.223  1.00  0.00     0.116 C 
ENDROOT
BRANCH   1   2
ATOM      2  N   UNL A   1      32.594  33.868  27.590  1.00  0.00    -0.352 N 
ATOM      3  O   UNL A   1      32.813  35.743  28.820  1.00  0.00    -0.269 OA
ATOM      4  C   UNL A   1      33.220  34.614  28.562  1.00  0.00     0.251 C 
ATOM      5  H   UNL A   1      31.903  34.341  27.072  1.00  0.00     0.163 HD
BRANCH   4   6
ATOM      6  C   UNL A   1      34.363  34.044  29.311  1.00  0.00     0.039 A 
ATOM      7  C   UNL A   1      34.152  33.221  30.420  1.00  0.00     0.014 A 
ATOM      8  C   UNL A   1      35.665  34.330  28.889  1.00  0.00     0.014 A 
ATOM      9  C   UNL A   1      35.236  32.795  31.182  1.00  0.00     0.010 A 
ATOM     10  C   UNL A   1      36.756  33.834  29.609  1.00  0.00     0.010 A 
ATOM     11  C   UNL A   1      36.550  33.080  30.775  1.00  0.00    -0.014 A 
BRANCH  11  12
ATOM     12  C   UNL A   1      37.686  32.498  31.534  1.00  0.00     0.031 A 
ATOM     13  C   UNL A   1      38.085  33.030  32.883  1.00  0.00     0.074 A 
ATOM     14  C   UNL A   1      38.349  31.458  30.989  1.00  0.00     0.049 A 
ATOM     15  N   UNL A   1      39.045  32.621  33.673  1.00  0.00    -0.248 NA
ATOM     16  C   UNL A   1      37.319  34.169  33.413  1.00  0.00     0.031 C 
ATOM     17  C   UNL A   1      38.065  30.877  29.673  1.00  0.00     0.029 A 
ATOM     18  N   UNL A   1      39.385  30.699  31.467  1.00  0.00    -0.354 N 
ATOM     19  C   UNL A   1      39.014  33.458  34.782  1.00  0.00     0.074 A 
ATOM     20  C   UNL A   1      37.947  34.411  34.558  1.00  0.00     0.031 C 
ATOM     21  C   UNL A   1      38.882  29.835  29.465  1.00  0.00     0.029 A 
ATOM     22  C   UNL A   1      39.783  29.706  30.604  1.00  0.00     0.049 A 
ATOM     23  H   UNL A   1      39.804  30.850  32.346  1.00  0.00     0.167 HD
ATOM     24  C   UNL A   1      39.801  33.428  35.884  1.00  0.00     0.037 A 
ATOM     25  C   UNL A   1      40.777  28.805  30.704  1.00  0.00     0.037 A 
ATOM     26  C   UNL A   1      40.842  32.457  36.110  1.00  0.00     0.049 A 
ATOM     27  C   UNL A   1      41.632  28.798  31.938  1.00  0.00     0.074 A 
ATOM     28  C   UNL A   1      41.649  32.306  37.225  1.00  0.00     0.029 A 
ATOM     29  N   UNL A   1      41.225  31.477  35.206  1.00  0.00    -0.354 N 
ATOM     30  N   UNL A   1      41.551  29.566  32.997  1.00  0.00    -0.248 NA
ATOM     31  C   UNL A   1      42.716  27.809  31.988  1.00  0.00     0.031 C 
ATOM     32  C   UNL A   1      42.548  31.262  36.979  1.00  0.00     0.029 A 
ATOM     33  C   UNL A   1      42.275  30.736  35.727  1.00  0.00     0.049 A 
ATOM     34  H   UNL A   1      40.813  31.329  34.325  1.00  0.00     0.167 HD
ATOM     35  C   UNL A   1      42.572  29.150  33.843  1.00  0.00     0.074 A 
ATOM     36  C   UNL A   1      43.238  28.046  33.185  1.00  0.00     0.031 C 
ATOM     37  C   UNL A   1      42.929  29.644  35.054  1.00  0.00     0.037 A 
BRANCH  24  38
ATOM     38  C   UNL A   1      39.585  34.472  36.944  1.00  0.00     0.058 A 
ATOM     39  C   UNL A   1      38.765  34.234  38.058  1.00  0.00     0.135 A 
ATOM     40  C   UNL A   1      40.287  35.688  36.896  1.00  0.00     0.135 A 
ATOM     41  F   UNL A   1      38.061  33.095  38.147  1.00  0.00    -0.206 F 
ATOM     42  C   UNL A   1      38.648  35.164  39.086  1.00  0.00     0.059 A 
ATOM     43  C   UNL A   1      40.201  36.625  37.922  1.00  0.00     0.059 A 
ATOM     44  F   UNL A   1      41.085  35.965  35.852  1.00  0.00    -0.206 F 
ATOM     45  C   UNL A   1      39.374  36.355  39.012  1.00  0.00     0.060 A 
BRANCH  45  46
ATOM     46  S   UNL A   1      39.248  37.532  40.376  1.00  0.00     0.124 S 
ATOM     47  O   UNL A   1      38.940  36.648  41.496  1.00  0.00    -0.237 OA
ATOM     48  O   UNL A   1      40.578  38.135  40.393  1.00  0.00    -0.237 OA
ATOM     49  O   UNL A   1      38.166  38.420  39.962  1.00  0.00    -0.744 OA
ENDBRANCH  45  46
ENDBRANCH  24  38
BRANCH  25  50
ATOM     50  C   UNL A   1      41.030  27.854  29.591  1.00  0.00     0.058 A 
ATOM     51  C   UNL A   1      40.186  26.758  29.366  1.00  0.00     0.135 A 
ATOM     52  C   UNL A   1      42.122  28.031  28.727  1.00  0.00     0.135 A 
ATOM     53  F   UNL A   1      39.131  26.547  30.167  1.00  0.00    -0.206 F 
ATOM     54  C   UNL A   1      40.426  25.856  28.334  1.00  0.00     0.059 A 
ATOM     55  C   UNL A   1      42.368  27.159  27.672  1.00  0.00     0.059 A 
ATOM     56  F   UNL A   1      42.946  29.077  28.891  1.00  0.00    -0.206 F 
ATOM     57  C   UNL A   1      41.522  26.066  27.494  1.00  0.00     0.060 A 
BRANCH  57  58
ATOM     58  S   UNL A   1      41.815  24.911  26.137  1.00  0.00     0.124 S 
ATOM     59  O   UNL A   1      41.684  25.783  24.978  1.00  0.00    -0.237 OA
ATOM     60  O   UNL A   1      43.162  24.427  26.426  1.00  0.00    -0.237 OA
ATOM     61  O   UNL A   1      40.754  23.921  26.309  1.00  0.00    -0.744 OA
ENDBRANCH  57  58
ENDBRANCH  25  50
BRANCH  37  62
ATOM     62  C   UNL A   1      44.089  28.983  35.742  1.00  0.00     0.058 A 
ATOM     63  C   UNL A   1      45.401  29.452  35.573  1.00  0.00     0.135 A 
ATOM     64  C   UNL A   1      43.884  27.890  36.597  1.00  0.00     0.135 A 
ATOM     65  F   UNL A   1      45.648  30.488  34.757  1.00  0.00    -0.206 F 
ATOM     66  C   UNL A   1      46.475  28.843  36.211  1.00  0.00     0.059 A 
ATOM     67  C   UNL A   1      44.941  27.280  37.265  1.00  0.00     0.059 A 
ATOM     68  F   UNL A   1      42.646  27.411  36.797  1.00  0.00    -0.206 F 
ATOM     69  C   UNL A   1      46.235  27.756  37.054  1.00  0.00     0.060 A 
BRANCH  69  70
ATOM     70  S   UNL A   1      47.634  26.985  37.895  1.00  0.00     0.124 S 
ATOM     71  O   UNL A   1      48.609  26.888  36.814  1.00  0.00    -0.237 OA
ATOM     72  O   UNL A   1      47.943  27.952  38.943  1.00  0.00    -0.237 OA
ATOM     73  O   UNL A   1      47.088  25.715  38.365  1.00  0.00    -0.744 OA
ENDBRANCH  69  70
ENDBRANCH  37  62
ENDBRANCH  11  12
ENDBRANCH   4   6
ENDBRANCH   1   2
BRANCH   1  74
ATOM     74  C   UNL A   1      31.515  31.703  27.027  1.00  0.00     0.023 C 
BRANCH  74  75
ATOM     75  C   UNL A   1      31.448  30.830  25.774  1.00  0.00     0.023 C 
BRANCH  75  76
ATOM     76  C   UNL A   1      32.464  29.692  25.709  1.00  0.00     0.116 C 
BRANCH  76  77
ATOM     77  N   UNL A   1      33.041  29.525  24.383  1.00  0.00    -0.352 N 
ATOM     78  C   UNL A   1      32.694  28.683  23.369  1.00  0.00     0.252 C 
ATOM     79  H   UNL A   1      33.804  30.117  24.187  1.00  0.00     0.163 HD
ATOM     80  O   UNL A   1      33.362  28.658  22.338  1.00  0.00    -0.269 OA
BRANCH  78  81
ATOM     81  C   UNL A   1      31.529  27.779  23.540  1.00  0.00     0.054 A 
ATOM     82  C   UNL A   1      31.793  26.525  23.941  1.00  0.00     0.086 A 
ATOM     83  C   UNL A   1      30.134  28.231  23.400  1.00  0.00     0.012 A 
ATOM     84  C   UNL A   1      30.715  25.532  24.111  1.00  0.00     0.249 A 
ATOM     85  C   UNL A   1      29.111  27.288  23.580  1.00  0.00     0.049 A 
ATOM     86  C   UNL A   1      29.778  29.555  23.100  1.00  0.00     0.024 A 
ATOM     87  O   UNL A   1      30.972  24.371  24.404  1.00  0.00    -0.270 OA
ATOM     88  N   UNL A   1      29.438  25.968  23.910  1.00  0.00    -0.322 N 
ATOM     89  C   UNL A   1      27.769  27.645  23.451  1.00  0.00     0.027 A 
ATOM     90  C   UNL A   1      28.428  29.937  22.988  1.00  0.00     0.056 A 
ATOM     91  H   UNL A   1      28.705  25.317  24.003  1.00  0.00     0.170 HD
ATOM     92  C   UNL A   1      27.429  28.966  23.159  1.00  0.00     0.015 A 
BRANCH  90  93
ATOM     93  C   UNL A   1      28.074  31.377  22.698  1.00  0.00     0.416 C 
ATOM     94  F   UNL A   1      27.065  31.837  23.485  1.00  0.00    -0.166 F 
ATOM     95  F   UNL A   1      29.124  32.220  22.891  1.00  0.00    -0.166 F 
ATOM     96  F   UNL A   1      27.664  31.581  21.414  1.00  0.00    -0.166 F 
ENDBRANCH  90  93
ENDBRANCH  78  81
ENDBRANCH  76  77
ENDBRANCH  75  76
ENDBRANCH  74  75
ENDBRANCH   1  74
TORSDOF 15
ENDMDL
