MODEL 1
REMARK VINA RESULT:     -10.7      0.000      0.000
REMARK SMILES C[C@@H](CC(=O)NCCCCNC(=O)c1ccc(-c2c3nc(c(-c4c(F)cc(S(=O)(=O)[O-])cc4F)c4ccc([nH]4)c(-c4c(F)cc(S(=O)(=O)[O-])cc4F)c4nc(c(-c5c(F)cc(S(=O)(=O)[O-])cc5F)c5ccc2[nH]5)C=C4)C=C3)cc1)CC(=O)NC[C@@]1(C)CCCO1
REMARK SMILES IDX 7 1 6 2 4 3 5 4 3 6 2 7 1 8 80 9 81 10 82 11 83 12 84 14
REMARK SMILES IDX 85 15 86 16 87 17 90 18 88 19 89 20 8 21 9 22 10 23 11 24
REMARK SMILES IDX 12 25 13 27 14 28 15 29 79 30 16 31 78 32 17 33 18 34 19 35
REMARK SMILES IDX 72 36 20 37 77 38 71 39 73 40 21 41 76 42 70 43 69 44 22 46
REMARK SMILES IDX 56 47 35 48 55 49 36 50 39 51 54 52 74 53 37 54 38 55 53 57
REMARK SMILES IDX 75 58 40 59 23 60 24 61 33 62 25 63 26 64 32 65 34 66 27 67
REMARK SMILES IDX 28 68 29 69 30 70 31 71 57 72 58 73 67 74 59 75 60 76 66 77
REMARK SMILES IDX 68 78 61 79 62 80 63 81 64 82 65 83 41 84 42 85 51 86 43 87
REMARK SMILES IDX 44 88 50 89 52 90 45 91 46 92 47 93 48 94 49 95
REMARK H PARENT 6 5 83 13 11 26 73 45 39 56
REMARK Flexibility Score: inf
ROOT
ATOM      1  C   UNL A   1      30.936  26.075  25.923  1.00  0.00     0.116 C 
ENDROOT
BRANCH   1   2
ATOM      2  N   UNL A   1      30.331  24.936  26.584  1.00  0.00    -0.356 N 
ATOM      3  C   UNL A   1      30.616  23.609  26.473  1.00  0.00     0.220 C 
ATOM      4  O   UNL A   1      29.840  22.801  26.984  1.00  0.00    -0.275 OA
ATOM      5  H   UNL A   1      29.602  25.156  27.208  1.00  0.00     0.163 HD
BRANCH   3   6
ATOM      6  C   UNL A   1      31.890  23.136  25.799  1.00  0.00     0.103 C 
BRANCH   6   7
ATOM      7  C   UNL A   1      33.190  23.005  26.623  1.00  0.00     0.004 C 
ATOM      8  C   UNL A   1      34.277  23.915  26.056  1.00  0.00     0.009 C 
BRANCH   7   9
ATOM      9  C   UNL A   1      33.684  21.568  26.886  1.00  0.00     0.103 C 
BRANCH   9  10
ATOM     10  C   UNL A   1      34.746  21.121  25.882  1.00  0.00     0.220 C 
ATOM     11  O   UNL A   1      35.936  21.380  26.074  1.00  0.00    -0.275 OA
ATOM     12  N   UNL A   1      34.401  20.478  24.727  1.00  0.00    -0.353 N 
ATOM     13  H   UNL A   1      35.148  20.319  24.105  1.00  0.00     0.163 HD
BRANCH  12  14
ATOM     14  C   UNL A   1      33.109  19.990  24.263  1.00  0.00     0.151 C 
BRANCH  14  15
ATOM     15  C   UNL A   1      33.007  18.456  24.075  1.00  0.00     0.083 C 
ATOM     16  C   UNL A   1      32.377  18.163  22.700  1.00  0.00     0.044 C 
ATOM     17  C   UNL A   1      34.323  17.703  24.246  1.00  0.00     0.039 C 
ATOM     18  O   UNL A   1      32.147  17.886  25.083  1.00  0.00    -0.373 OA
ATOM     19  C   UNL A   1      33.864  16.303  24.562  1.00  0.00     0.031 C 
ATOM     20  C   UNL A   1      32.598  16.547  25.362  1.00  0.00     0.161 C 
ENDBRANCH  14  15
ENDBRANCH  12  14
ENDBRANCH   9  10
ENDBRANCH   7   9
ENDBRANCH   6   7
ENDBRANCH   3   6
ENDBRANCH   1   2
BRANCH   1  21
ATOM     21  C   UNL A   1      32.032  26.663  26.805  1.00  0.00     0.023 C 
BRANCH  21  22
ATOM     22  C   UNL A   1      32.153  28.181  26.799  1.00  0.00     0.023 C 
BRANCH  22  23
ATOM     23  C   UNL A   1      33.545  28.697  27.124  1.00  0.00     0.116 C 
BRANCH  23  24
ATOM     24  N   UNL A   1      33.545  30.020  27.739  1.00  0.00    -0.352 N 
ATOM     25  C   UNL A   1      34.577  30.679  28.380  1.00  0.00     0.251 C 
ATOM     26  H   UNL A   1      32.693  30.511  27.691  1.00  0.00     0.163 HD
ATOM     27  O   UNL A   1      34.378  31.753  28.922  1.00  0.00    -0.269 OA
BRANCH  25  28
ATOM     28  C   UNL A   1      35.907  30.032  28.438  1.00  0.00     0.039 A 
ATOM     29  C   UNL A   1      36.724  30.055  27.304  1.00  0.00     0.014 A 
ATOM     30  C   UNL A   1      36.384  29.507  29.640  1.00  0.00     0.014 A 
ATOM     31  C   UNL A   1      38.063  29.668  27.415  1.00  0.00     0.010 A 
ATOM     32  C   UNL A   1      37.736  29.219  29.771  1.00  0.00     0.010 A 
ATOM     33  C   UNL A   1      38.597  29.319  28.666  1.00  0.00    -0.014 A 
BRANCH  33  34
ATOM     34  C   UNL A   1      40.054  29.101  28.871  1.00  0.00     0.031 A 
ATOM     35  C   UNL A   1      40.671  27.773  28.525  1.00  0.00     0.074 A 
ATOM     36  C   UNL A   1      40.792  30.048  29.486  1.00  0.00     0.049 A 
ATOM     37  N   UNL A   1      41.873  27.328  28.786  1.00  0.00    -0.248 NA
ATOM     38  C   UNL A   1      39.810  26.803  27.830  1.00  0.00     0.031 C 
ATOM     39  C   UNL A   1      40.300  31.354  29.935  1.00  0.00     0.029 A 
ATOM     40  N   UNL A   1      42.112  30.051  29.864  1.00  0.00    -0.354 N 
ATOM     41  C   UNL A   1      41.900  26.019  28.320  1.00  0.00     0.074 A 
ATOM     42  C   UNL A   1      40.582  25.727  27.803  1.00  0.00     0.031 C 
ATOM     43  C   UNL A   1      41.305  32.034  30.508  1.00  0.00     0.029 A 
ATOM     44  C   UNL A   1      42.502  31.201  30.511  1.00  0.00     0.049 A 
ATOM     45  H   UNL A   1      42.724  29.298  29.688  1.00  0.00     0.167 HD
ATOM     46  C   UNL A   1      42.936  25.148  28.305  1.00  0.00     0.037 A 
ATOM     47  C   UNL A   1      43.684  31.542  31.061  1.00  0.00     0.037 A 
ATOM     48  C   UNL A   1      44.261  25.461  28.772  1.00  0.00     0.049 A 
ATOM     49  C   UNL A   1      44.828  30.566  31.009  1.00  0.00     0.074 A 
ATOM     50  C   UNL A   1      45.400  24.678  28.711  1.00  0.00     0.029 A 
ATOM     51  N   UNL A   1      44.625  26.653  29.380  1.00  0.00    -0.354 N 
ATOM     52  N   UNL A   1      44.854  29.357  30.501  1.00  0.00    -0.248 NA
ATOM     53  C   UNL A   1      46.100  30.997  31.605  1.00  0.00     0.031 C 
ATOM     54  C   UNL A   1      46.447  25.385  29.313  1.00  0.00     0.029 A 
ATOM     55  C   UNL A   1      45.967  26.621  29.717  1.00  0.00     0.049 A 
ATOM     56  H   UNL A   1      44.018  27.411  29.546  1.00  0.00     0.167 HD
ATOM     57  C   UNL A   1      46.147  28.889  30.704  1.00  0.00     0.074 A 
ATOM     58  C   UNL A   1      46.878  29.949  31.367  1.00  0.00     0.031 C 
ATOM     59  C   UNL A   1      46.680  27.688  30.372  1.00  0.00     0.037 A 
BRANCH  46  60
ATOM     60  C   UNL A   1      42.682  23.775  27.752  1.00  0.00     0.058 A 
ATOM     61  C   UNL A   1      42.449  22.675  28.595  1.00  0.00     0.135 A 
ATOM     62  C   UNL A   1      42.641  23.558  26.366  1.00  0.00     0.135 A 
ATOM     63  F   UNL A   1      42.493  22.825  29.928  1.00  0.00    -0.206 F 
ATOM     64  C   UNL A   1      42.216  21.404  28.083  1.00  0.00     0.059 A 
ATOM     65  C   UNL A   1      42.383  22.300  25.831  1.00  0.00     0.059 A 
ATOM     66  F   UNL A   1      42.858  24.574  25.516  1.00  0.00    -0.206 F 
ATOM     67  C   UNL A   1      42.188  21.225  26.698  1.00  0.00     0.060 A 
BRANCH  67  68
ATOM     68  S   UNL A   1      41.884  19.569  26.050  1.00  0.00     0.124 S 
ATOM     69  O   UNL A   1      42.244  18.739  27.197  1.00  0.00    -0.237 OA
ATOM     70  O   UNL A   1      40.463  19.615  25.724  1.00  0.00    -0.237 OA
ATOM     71  O   UNL A   1      42.785  19.482  24.905  1.00  0.00    -0.744 OA
ENDBRANCH  67  68
ENDBRANCH  46  60
BRANCH  47  72
ATOM     72  C   UNL A   1      43.851  32.874  31.701  1.00  0.00     0.058 A 
ATOM     73  C   UNL A   1      43.670  33.033  33.082  1.00  0.00     0.135 A 
ATOM     74  C   UNL A   1      44.206  34.006  30.952  1.00  0.00     0.135 A 
ATOM     75  F   UNL A   1      43.323  31.980  33.838  1.00  0.00    -0.206 F 
ATOM     76  C   UNL A   1      43.820  34.270  33.699  1.00  0.00     0.059 A 
ATOM     77  C   UNL A   1      44.385  35.250  31.550  1.00  0.00     0.059 A 
ATOM     78  F   UNL A   1      44.407  33.902  29.629  1.00  0.00    -0.206 F 
ATOM     79  C   UNL A   1      44.180  35.374  32.923  1.00  0.00     0.060 A 
BRANCH  79  80
ATOM     80  S   UNL A   1      44.424  36.965  33.742  1.00  0.00     0.124 S 
ATOM     81  O   UNL A   1      45.748  36.793  34.327  1.00  0.00    -0.237 OA
ATOM     82  O   UNL A   1      44.335  37.902  32.627  1.00  0.00    -0.237 OA
ATOM     83  O   UNL A   1      43.315  37.026  34.690  1.00  0.00    -0.744 OA
ENDBRANCH  79  80
ENDBRANCH  47  72
BRANCH  59  84
ATOM     84  C   UNL A   1      48.126  27.454  30.704  1.00  0.00     0.058 A 
ATOM     85  C   UNL A   1      48.508  26.777  31.871  1.00  0.00     0.135 A 
ATOM     86  C   UNL A   1      49.134  27.843  29.807  1.00  0.00     0.135 A 
ATOM     87  F   UNL A   1      47.581  26.393  32.764  1.00  0.00    -0.206 F 
ATOM     88  C   UNL A   1      49.842  26.496  32.143  1.00  0.00     0.059 A 
ATOM     89  C   UNL A   1      50.473  27.554  30.048  1.00  0.00     0.059 A 
ATOM     90  F   UNL A   1      48.818  28.488  28.672  1.00  0.00    -0.206 F 
ATOM     91  C   UNL A   1      50.818  26.884  31.221  1.00  0.00     0.060 A 
BRANCH  91  92
ATOM     92  S   UNL A   1      52.541  26.460  31.554  1.00  0.00     0.124 S 
ATOM     93  O   UNL A   1      53.017  27.667  32.221  1.00  0.00    -0.237 OA
ATOM     94  O   UNL A   1      52.415  25.276  32.399  1.00  0.00    -0.237 OA
ATOM     95  O   UNL A   1      53.093  26.216  30.225  1.00  0.00    -0.744 OA
ENDBRANCH  91  92
ENDBRANCH  59  84
ENDBRANCH  33  34
ENDBRANCH  25  28
ENDBRANCH  23  24
ENDBRANCH  22  23
ENDBRANCH  21  22
ENDBRANCH   1  21
TORSDOF 19
ENDMDL
MODEL 2
REMARK VINA RESULT:     -10.4      2.492      8.348
REMARK SMILES C[C@@H](CC(=O)NCCCCNC(=O)c1ccc(-c2c3nc(c(-c4c(F)cc(S(=O)(=O)[O-])cc4F)c4ccc([nH]4)c(-c4c(F)cc(S(=O)(=O)[O-])cc4F)c4nc(c(-c5c(F)cc(S(=O)(=O)[O-])cc5F)c5ccc2[nH]5)C=C4)C=C3)cc1)CC(=O)NC[C@@]1(C)CCCO1
REMARK SMILES IDX 7 1 6 2 4 3 5 4 3 6 2 7 1 8 80 9 81 10 82 11 83 12 84 14
REMARK SMILES IDX 85 15 86 16 87 17 90 18 88 19 89 20 8 21 9 22 10 23 11 24
REMARK SMILES IDX 12 25 13 27 14 28 15 29 79 30 16 31 78 32 17 33 18 34 19 35
REMARK SMILES IDX 72 36 20 37 77 38 71 39 73 40 21 41 76 42 70 43 69 44 22 46
REMARK SMILES IDX 56 47 35 48 55 49 36 50 39 51 54 52 74 53 37 54 38 55 53 57
REMARK SMILES IDX 75 58 40 59 23 60 24 61 33 62 25 63 26 64 32 65 34 66 27 67
REMARK SMILES IDX 28 68 29 69 30 70 31 71 57 72 58 73 67 74 59 75 60 76 66 77
REMARK SMILES IDX 68 78 61 79 62 80 63 81 64 82 65 83 41 84 42 85 51 86 43 87
REMARK SMILES IDX 44 88 50 89 52 90 45 91 46 92 47 93 48 94 49 95
REMARK H PARENT 6 5 83 13 11 26 73 45 39 56
REMARK Flexibility Score: inf
ROOT
ATOM      1  C   UNL A   1      31.046  26.467  25.946  1.00  0.00     0.116 C 
ENDROOT
BRANCH   1   2
ATOM      2  N   UNL A   1      30.552  25.207  26.464  1.00  0.00    -0.356 N 
ATOM      3  C   UNL A   1      30.936  23.934  26.175  1.00  0.00     0.220 C 
ATOM      4  O   UNL A   1      30.242  23.006  26.591  1.00  0.00    -0.275 OA
ATOM      5  H   UNL A   1      29.828  25.285  27.127  1.00  0.00     0.163 HD
BRANCH   3   6
ATOM      6  C   UNL A   1      32.221  23.656  25.418  1.00  0.00     0.103 C 
BRANCH   6   7
ATOM      7  C   UNL A   1      33.558  23.560  26.187  1.00  0.00     0.004 C 
ATOM      8  C   UNL A   1      34.690  24.178  25.371  1.00  0.00     0.009 C 
BRANCH   7   9
ATOM      9  C   UNL A   1      33.914  22.172  26.757  1.00  0.00     0.103 C 
BRANCH   9  10
ATOM     10  C   UNL A   1      34.932  21.428  25.894  1.00  0.00     0.220 C 
ATOM     11  O   UNL A   1      36.141  21.590  26.074  1.00  0.00    -0.275 OA
ATOM     12  N   UNL A   1      34.533  20.616  24.871  1.00  0.00    -0.353 N 
ATOM     13  H   UNL A   1      35.265  20.260  24.318  1.00  0.00     0.163 HD
BRANCH  12  14
ATOM     14  C   UNL A   1      33.200  20.189  24.464  1.00  0.00     0.151 C 
BRANCH  14  15
ATOM     15  C   UNL A   1      33.033  18.667  24.229  1.00  0.00     0.083 C 
ATOM     16  C   UNL A   1      32.282  18.447  22.902  1.00  0.00     0.044 C 
ATOM     17  C   UNL A   1      34.334  17.869  24.261  1.00  0.00     0.039 C 
ATOM     18  O   UNL A   1      32.242  18.083  25.284  1.00  0.00    -0.373 OA
ATOM     19  C   UNL A   1      33.857  16.472  24.563  1.00  0.00     0.031 C 
ATOM     20  C   UNL A   1      32.671  16.722  25.475  1.00  0.00     0.161 C 
ENDBRANCH  14  15
ENDBRANCH  12  14
ENDBRANCH   9  10
ENDBRANCH   7   9
ENDBRANCH   6   7
ENDBRANCH   3   6
ENDBRANCH   1   2
BRANCH   1  21
ATOM     21  C   UNL A   1      32.141  27.008  26.858  1.00  0.00     0.023 C 
BRANCH  21  22
ATOM     22  C   UNL A   1      32.216  28.524  26.987  1.00  0.00     0.023 C 
BRANCH  22  23
ATOM     23  C   UNL A   1      33.523  29.127  26.498  1.00  0.00     0.116 C 
BRANCH  23  24
ATOM     24  N   UNL A   1      33.662  30.545  26.814  1.00  0.00    -0.352 N 
ATOM     25  C   UNL A   1      34.653  31.179  27.539  1.00  0.00     0.251 C 
ATOM     26  H   UNL A   1      32.952  31.130  26.463  1.00  0.00     0.163 HD
ATOM     27  O   UNL A   1      34.567  32.370  27.787  1.00  0.00    -0.269 OA
BRANCH  25  28
ATOM     28  C   UNL A   1      35.788  30.376  28.048  1.00  0.00     0.039 A 
ATOM     29  C   UNL A   1      36.990  30.370  27.334  1.00  0.00     0.014 A 
ATOM     30  C   UNL A   1      35.695  29.727  29.279  1.00  0.00     0.014 A 
ATOM     31  C   UNL A   1      38.133  29.820  27.921  1.00  0.00     0.010 A 
ATOM     32  C   UNL A   1      36.852  29.272  29.900  1.00  0.00     0.010 A 
ATOM     33  C   UNL A   1      38.089  29.335  29.238  1.00  0.00    -0.014 A 
BRANCH  33  34
ATOM     34  C   UNL A   1      39.317  28.933  29.975  1.00  0.00     0.031 A 
ATOM     35  C   UNL A   1      39.732  29.687  31.209  1.00  0.00     0.074 A 
ATOM     36  C   UNL A   1      40.122  27.980  29.464  1.00  0.00     0.049 A 
ATOM     37  N   UNL A   1      40.847  29.608  31.889  1.00  0.00    -0.248 NA
ATOM     38  C   UNL A   1      38.787  30.692  31.722  1.00  0.00     0.031 C 
ATOM     39  C   UNL A   1      39.870  27.219  28.237  1.00  0.00     0.029 A 
ATOM     40  N   UNL A   1      41.333  27.502  29.899  1.00  0.00    -0.354 N 
ATOM     41  C   UNL A   1      40.752  30.573  32.885  1.00  0.00     0.074 A 
ATOM     42  C   UNL A   1      39.491  31.256  32.692  1.00  0.00     0.031 C 
ATOM     43  C   UNL A   1      40.881  26.362  28.030  1.00  0.00     0.029 A 
ATOM     44  C   UNL A   1      41.878  26.539  29.081  1.00  0.00     0.049 A 
ATOM     45  H   UNL A   1      41.773  27.819  30.722  1.00  0.00     0.167 HD
ATOM     46  C   UNL A   1      41.625  30.849  33.881  1.00  0.00     0.037 A 
ATOM     47  C   UNL A   1      43.054  25.885  29.154  1.00  0.00     0.037 A 
ATOM     48  C   UNL A   1      42.852  30.131  34.101  1.00  0.00     0.049 A 
ATOM     49  C   UNL A   1      43.995  26.192  30.285  1.00  0.00     0.074 A 
ATOM     50  C   UNL A   1      43.757  30.274  35.139  1.00  0.00     0.029 A 
ATOM     51  N   UNL A   1      43.345  29.133  33.273  1.00  0.00    -0.354 N 
ATOM     52  N   UNL A   1      43.856  27.060  31.259  1.00  0.00    -0.248 NA
ATOM     53  C   UNL A   1      45.254  25.435  30.329  1.00  0.00     0.031 C 
ATOM     54  C   UNL A   1      44.813  29.383  34.920  1.00  0.00     0.029 A 
ATOM     55  C   UNL A   1      44.550  28.664  33.766  1.00  0.00     0.049 A 
ATOM     56  H   UNL A   1      42.902  28.807  32.456  1.00  0.00     0.167 HD
ATOM     57  C   UNL A   1      45.001  26.943  32.037  1.00  0.00     0.074 A 
ATOM     58  C   UNL A   1      45.817  25.911  31.433  1.00  0.00     0.031 C 
ATOM     59  C   UNL A   1      45.346  27.631  33.153  1.00  0.00     0.037 A 
BRANCH  46  60
ATOM     60  C   UNL A   1      41.276  31.968  34.821  1.00  0.00     0.058 A 
ATOM     61  C   UNL A   1      41.726  33.280  34.600  1.00  0.00     0.135 A 
ATOM     62  C   UNL A   1      40.458  31.735  35.938  1.00  0.00     0.135 A 
ATOM     63  F   UNL A   1      42.524  33.553  33.555  1.00  0.00    -0.206 F 
ATOM     64  C   UNL A   1      41.406  34.315  35.471  1.00  0.00     0.059 A 
ATOM     65  C   UNL A   1      40.102  32.761  36.809  1.00  0.00     0.059 A 
ATOM     66  F   UNL A   1      40.002  30.500  36.196  1.00  0.00    -0.206 F 
ATOM     67  C   UNL A   1      40.595  34.045  36.575  1.00  0.00     0.060 A 
BRANCH  67  68
ATOM     68  S   UNL A   1      40.188  35.399  37.696  1.00  0.00     0.124 S 
ATOM     69  O   UNL A   1      39.046  34.843  38.417  1.00  0.00    -0.237 OA
ATOM     70  O   UNL A   1      41.415  35.545  38.472  1.00  0.00    -0.237 OA
ATOM     71  O   UNL A   1      39.883  36.506  36.795  1.00  0.00    -0.744 OA
ENDBRANCH  67  68
ENDBRANCH  46  60
BRANCH  47  72
ATOM     72  C   UNL A   1      43.403  24.865  28.130  1.00  0.00     0.058 A 
ATOM     73  C   UNL A   1      42.890  23.562  28.213  1.00  0.00     0.135 A 
ATOM     74  C   UNL A   1      44.241  25.171  27.047  1.00  0.00     0.135 A 
ATOM     75  F   UNL A   1      42.090  23.221  29.234  1.00  0.00    -0.206 F 
ATOM     76  C   UNL A   1      43.205  22.593  27.266  1.00  0.00     0.059 A 
ATOM     77  C   UNL A   1      44.553  24.225  26.074  1.00  0.00     0.059 A 
ATOM     78  F   UNL A   1      44.744  26.408  26.915  1.00  0.00    -0.206 F 
ATOM     79  C   UNL A   1      44.037  22.936  26.199  1.00  0.00     0.060 A 
BRANCH  79  80
ATOM     80  S   UNL A   1      44.398  21.685  24.946  1.00  0.00     0.124 S 
ATOM     81  O   UNL A   1      45.831  21.490  25.132  1.00  0.00    -0.237 OA
ATOM     82  O   UNL A   1      43.543  20.578  25.361  1.00  0.00    -0.237 OA
ATOM     83  O   UNL A   1      44.004  22.337  23.701  1.00  0.00    -0.744 OA
ENDBRANCH  79  80
ENDBRANCH  47  72
BRANCH  59  84
ATOM     84  C   UNL A   1      46.654  27.284  33.806  1.00  0.00     0.058 A 
ATOM     85  C   UNL A   1      46.742  26.269  34.770  1.00  0.00     0.135 A 
ATOM     86  C   UNL A   1      47.841  27.920  33.407  1.00  0.00     0.135 A 
ATOM     87  F   UNL A   1      45.633  25.638  35.190  1.00  0.00    -0.206 F 
ATOM     88  C   UNL A   1      47.963  25.897  35.321  1.00  0.00     0.059 A 
ATOM     89  C   UNL A   1      49.075  27.549  33.929  1.00  0.00     0.059 A 
ATOM     90  F   UNL A   1      47.809  28.892  32.482  1.00  0.00    -0.206 F 
ATOM     91  C   UNL A   1      49.126  26.540  34.889  1.00  0.00     0.060 A 
BRANCH  91  92
ATOM     92  S   UNL A   1      50.712  26.007  35.567  1.00  0.00     0.124 S 
ATOM     93  O   UNL A   1      51.453  25.675  34.355  1.00  0.00    -0.237 OA
ATOM     94  O   UNL A   1      51.164  27.197  36.281  1.00  0.00    -0.237 OA
ATOM     95  O   UNL A   1      50.355  24.873  36.415  1.00  0.00    -0.744 OA
ENDBRANCH  91  92
ENDBRANCH  59  84
ENDBRANCH  33  34
ENDBRANCH  25  28
ENDBRANCH  23  24
ENDBRANCH  22  23
ENDBRANCH  21  22
ENDBRANCH   1  21
TORSDOF 19
ENDMDL
MODEL 3
REMARK VINA RESULT:     -10.4      5.277     10.569
REMARK SMILES C[C@@H](CC(=O)NCCCCNC(=O)c1ccc(-c2c3nc(c(-c4c(F)cc(S(=O)(=O)[O-])cc4F)c4ccc([nH]4)c(-c4c(F)cc(S(=O)(=O)[O-])cc4F)c4nc(c(-c5c(F)cc(S(=O)(=O)[O-])cc5F)c5ccc2[nH]5)C=C4)C=C3)cc1)CC(=O)NC[C@@]1(C)CCCO1
REMARK SMILES IDX 7 1 6 2 4 3 5 4 3 6 2 7 1 8 80 9 81 10 82 11 83 12 84 14
REMARK SMILES IDX 85 15 86 16 87 17 90 18 88 19 89 20 8 21 9 22 10 23 11 24
REMARK SMILES IDX 12 25 13 27 14 28 15 29 79 30 16 31 78 32 17 33 18 34 19 35
REMARK SMILES IDX 72 36 20 37 77 38 71 39 73 40 21 41 76 42 70 43 69 44 22 46
REMARK SMILES IDX 56 47 35 48 55 49 36 50 39 51 54 52 74 53 37 54 38 55 53 57
REMARK SMILES IDX 75 58 40 59 23 60 24 61 33 62 25 63 26 64 32 65 34 66 27 67
REMARK SMILES IDX 28 68 29 69 30 70 31 71 57 72 58 73 67 74 59 75 60 76 66 77
REMARK SMILES IDX 68 78 61 79 62 80 63 81 64 82 65 83 41 84 42 85 51 86 43 87
REMARK SMILES IDX 44 88 50 89 52 90 45 91 46 92 47 93 48 94 49 95
REMARK H PARENT 6 5 83 13 11 26 73 45 39 56
REMARK Flexibility Score: inf
ROOT
ATOM      1  C   UNL A   1      34.735  29.480  27.497  1.00  0.00     0.116 C 
ENDROOT
BRANCH   1   2
ATOM      2  N   UNL A   1      33.393  29.102  27.889  1.00  0.00    -0.356 N 
ATOM      3  C   UNL A   1      32.584  28.121  27.401  1.00  0.00     0.220 C 
ATOM      4  O   UNL A   1      31.405  28.107  27.754  1.00  0.00    -0.275 OA
ATOM      5  H   UNL A   1      33.006  29.637  28.619  1.00  0.00     0.163 HD
BRANCH   3   6
ATOM      6  C   UNL A   1      33.133  27.030  26.500  1.00  0.00     0.103 C 
BRANCH   6   7
ATOM      7  C   UNL A   1      32.818  27.055  24.988  1.00  0.00     0.004 C 
ATOM      8  C   UNL A   1      33.714  28.062  24.272  1.00  0.00     0.009 C 
BRANCH   7   9
ATOM      9  C   UNL A   1      31.330  27.195  24.608  1.00  0.00     0.103 C 
BRANCH   9  10
ATOM     10  C   UNL A   1      31.059  26.819  23.152  1.00  0.00     0.220 C 
ATOM     11  O   UNL A   1      31.074  25.639  22.798  1.00  0.00    -0.275 OA
ATOM     12  N   UNL A   1      30.852  27.778  22.201  1.00  0.00    -0.353 N 
ATOM     13  H   UNL A   1      30.782  27.437  21.280  1.00  0.00     0.163 HD
BRANCH  12  14
ATOM     14  C   UNL A   1      30.719  29.224  22.326  1.00  0.00     0.151 C 
BRANCH  14  15
ATOM     15  C   UNL A   1      29.269  29.746  22.473  1.00  0.00     0.083 C 
ATOM     16  C   UNL A   1      28.357  28.576  22.889  1.00  0.00     0.044 C 
ATOM     17  C   UNL A   1      29.109  30.929  23.424  1.00  0.00     0.039 C 
ATOM     18  O   UNL A   1      28.789  30.251  21.209  1.00  0.00    -0.373 OA
ATOM     19  C   UNL A   1      27.814  31.549  22.967  1.00  0.00     0.031 C 
ATOM     20  C   UNL A   1      27.849  31.311  21.469  1.00  0.00     0.161 C 
ENDBRANCH  14  15
ENDBRANCH  12  14
ENDBRANCH   9  10
ENDBRANCH   7   9
ENDBRANCH   6   7
ENDBRANCH   3   6
ENDBRANCH   1   2
BRANCH   1  21
ATOM     21  C   UNL A   1      35.017  30.914  27.931  1.00  0.00     0.023 C 
BRANCH  21  22
ATOM     22  C   UNL A   1      33.811  31.841  28.000  1.00  0.00     0.023 C 
BRANCH  22  23
ATOM     23  C   UNL A   1      34.061  33.233  27.441  1.00  0.00     0.116 C 
BRANCH  23  24
ATOM     24  N   UNL A   1      33.185  34.252  28.008  1.00  0.00    -0.352 N 
ATOM     25  C   UNL A   1      33.236  34.844  29.255  1.00  0.00     0.251 C 
ATOM     26  H   UNL A   1      32.457  34.560  27.421  1.00  0.00     0.163 HD
ATOM     27  O   UNL A   1      32.363  35.621  29.604  1.00  0.00    -0.269 OA
BRANCH  25  28
ATOM     28  C   UNL A   1      34.339  34.479  30.172  1.00  0.00     0.039 A 
ATOM     29  C   UNL A   1      34.037  33.842  31.379  1.00  0.00     0.014 A 
ATOM     30  C   UNL A   1      35.667  34.664  29.786  1.00  0.00     0.014 A 
ATOM     31  C   UNL A   1      35.069  33.279  32.135  1.00  0.00     0.010 A 
ATOM     32  C   UNL A   1      36.678  34.019  30.485  1.00  0.00     0.010 A 
ATOM     33  C   UNL A   1      36.390  33.298  31.655  1.00  0.00    -0.014 A 
BRANCH  33  34
ATOM     34  C   UNL A   1      37.483  32.537  32.316  1.00  0.00     0.031 A 
ATOM     35  C   UNL A   1      38.024  32.999  33.642  1.00  0.00     0.074 A 
ATOM     36  C   UNL A   1      38.072  31.512  31.667  1.00  0.00     0.049 A 
ATOM     37  N   UNL A   1      39.078  32.582  34.294  1.00  0.00    -0.248 NA
ATOM     38  C   UNL A   1      37.309  34.103  34.301  1.00  0.00     0.031 C 
ATOM     39  C   UNL A   1      37.688  31.007  30.346  1.00  0.00     0.029 A 
ATOM     40  N   UNL A   1      39.140  30.723  32.019  1.00  0.00    -0.354 N 
ATOM     41  C   UNL A   1      39.173  33.393  35.418  1.00  0.00     0.074 A 
ATOM     42  C   UNL A   1      38.097  34.356  35.336  1.00  0.00     0.031 C 
ATOM     43  C   UNL A   1      38.493  29.986  30.010  1.00  0.00     0.029 A 
ATOM     44  C   UNL A   1      39.480  29.791  31.066  1.00  0.00     0.049 A 
ATOM     45  H   UNL A   1      39.619  30.817  32.875  1.00  0.00     0.167 HD
ATOM     46  C   UNL A   1      40.062  33.327  36.437  1.00  0.00     0.037 A 
ATOM     47  C   UNL A   1      40.482  28.891  31.035  1.00  0.00     0.037 A 
ATOM     48  C   UNL A   1      41.098  32.334  36.541  1.00  0.00     0.049 A 
ATOM     49  C   UNL A   1      41.442  28.820  32.191  1.00  0.00     0.074 A 
ATOM     50  C   UNL A   1      41.987  32.126  37.580  1.00  0.00     0.029 A 
ATOM     51  N   UNL A   1      41.379  31.380  35.574  1.00  0.00    -0.354 N 
ATOM     52  N   UNL A   1      41.473  29.551  33.279  1.00  0.00    -0.248 NA
ATOM     53  C   UNL A   1      42.504  27.807  32.115  1.00  0.00     0.031 C 
ATOM     54  C   UNL A   1      42.829  31.066  37.228  1.00  0.00     0.029 A 
ATOM     55  C   UNL A   1      42.442  30.592  35.985  1.00  0.00     0.049 A 
ATOM     56  H   UNL A   1      40.895  31.277  34.723  1.00  0.00     0.167 HD
ATOM     57  C   UNL A   1      42.547  29.077  34.024  1.00  0.00     0.074 A 
ATOM     58  C   UNL A   1      43.131  27.987  33.271  1.00  0.00     0.031 C 
ATOM     59  C   UNL A   1      43.008  29.508  35.223  1.00  0.00     0.037 A 
BRANCH  46  60
ATOM     60  C   UNL A   1      39.944  34.351  37.530  1.00  0.00     0.058 A 
ATOM     61  C   UNL A   1      39.108  34.146  38.640  1.00  0.00     0.135 A 
ATOM     62  C   UNL A   1      40.695  35.536  37.484  1.00  0.00     0.135 A 
ATOM     63  F   UNL A   1      38.356  33.037  38.724  1.00  0.00    -0.206 F 
ATOM     64  C   UNL A   1      38.996  35.094  39.651  1.00  0.00     0.059 A 
ATOM     65  C   UNL A   1      40.620  36.487  38.497  1.00  0.00     0.059 A 
ATOM     66  F   UNL A   1      41.508  35.782  36.445  1.00  0.00    -0.206 F 
ATOM     67  C   UNL A   1      39.755  36.264  39.569  1.00  0.00     0.060 A 
BRANCH  67  68
ATOM     68  S   UNL A   1      39.599  37.485  40.888  1.00  0.00     0.124 S 
ATOM     69  O   UNL A   1      38.511  38.318  40.384  1.00  0.00    -0.237 OA
ATOM     70  O   UNL A   1      39.276  36.657  42.046  1.00  0.00    -0.237 OA
ATOM     71  O   UNL A   1      40.913  38.119  40.921  1.00  0.00    -0.744 OA
ENDBRANCH  67  68
ENDBRANCH  46  60
BRANCH  47  72
ATOM     72  C   UNL A   1      40.624  27.974  29.873  1.00  0.00     0.058 A 
ATOM     73  C   UNL A   1      39.750  26.891  29.704  1.00  0.00     0.135 A 
ATOM     74  C   UNL A   1      41.622  28.167  28.906  1.00  0.00     0.135 A 
ATOM     75  F   UNL A   1      38.784  26.663  30.606  1.00  0.00    -0.206 F 
ATOM     76  C   UNL A   1      39.866  26.022  28.624  1.00  0.00     0.059 A 
ATOM     77  C   UNL A   1      41.745  27.325  27.804  1.00  0.00     0.059 A 
ATOM     78  F   UNL A   1      42.474  29.199  29.014  1.00  0.00    -0.206 F 
ATOM     79  C   UNL A   1      40.867  26.249  27.678  1.00  0.00     0.060 A 
BRANCH  79  80
ATOM     80  S   UNL A   1      40.977  25.145  26.252  1.00  0.00     0.124 S 
ATOM     81  O   UNL A   1      41.985  24.191  26.698  1.00  0.00    -0.237 OA
ATOM     82  O   UNL A   1      39.614  24.634  26.152  1.00  0.00    -0.237 OA
ATOM     83  O   UNL A   1      41.383  26.038  25.171  1.00  0.00    -0.744 OA
ENDBRANCH  79  80
ENDBRANCH  47  72
BRANCH  59  84
ATOM     84  C   UNL A   1      44.192  28.793  35.809  1.00  0.00     0.058 A 
ATOM     85  C   UNL A   1      45.503  29.227  35.559  1.00  0.00     0.135 A 
ATOM     86  C   UNL A   1      44.010  27.715  36.690  1.00  0.00     0.135 A 
ATOM     87  F   UNL A   1      45.728  30.247  34.716  1.00  0.00    -0.206 F 
ATOM     88  C   UNL A   1      46.596  28.611  36.158  1.00  0.00     0.059 A 
ATOM     89  C   UNL A   1      45.087  27.099  37.317  1.00  0.00     0.059 A 
ATOM     90  F   UNL A   1      42.774  27.269  36.967  1.00  0.00    -0.206 F 
ATOM     91  C   UNL A   1      46.377  27.551  37.042  1.00  0.00     0.060 A 
BRANCH  91  92
ATOM     92  S   UNL A   1      47.800  26.800  37.862  1.00  0.00     0.124 S 
ATOM     93  O   UNL A   1      48.893  27.636  37.379  1.00  0.00    -0.237 OA
ATOM     94  O   UNL A   1      47.463  26.951  39.274  1.00  0.00    -0.237 OA
ATOM     95  O   UNL A   1      47.791  25.427  37.366  1.00  0.00    -0.744 OA
ENDBRANCH  91  92
ENDBRANCH  59  84
ENDBRANCH  33  34
ENDBRANCH  25  28
ENDBRANCH  23  24
ENDBRANCH  22  23
ENDBRANCH  21  22
ENDBRANCH   1  21
TORSDOF 19
ENDMDL
