MODEL 1
REMARK VINA RESULT:     -11.3      0.000      0.000
REMARK SMILES O=C(NCCCCNC(=O)c1ccc(CNc2nc3ccccc3o2)o1)c1ccc(-c2c3nc(c(-c4c(F)cc(S(=O)(=O)[O-])cc4F)c4ccc([nH]4)c(-c4c(F)cc(S(=O)(=O)[O-])cc4F)c4nc(c(-c5c(F)cc(S(=O)(=O)[O-])cc5F)c5ccc2[nH]5)C=C4)C=C3)cc1
REMARK SMILES IDX 5 1 4 2 3 3 1 4 2 5 27 7 28 8 92 9 29 10 91 11 30 12 31 13
REMARK SMILES IDX 32 14 85 15 33 16 90 17 84 18 86 19 34 20 89 21 83 22 82 23
REMARK SMILES IDX 35 25 69 26 48 27 68 28 49 29 52 30 67 31 87 32 50 33 51 34
REMARK SMILES IDX 66 36 88 37 53 38 36 39 37 40 46 41 38 42 39 43 45 44 47 45
REMARK SMILES IDX 40 46 41 47 42 48 43 49 44 50 70 51 71 52 80 53 72 54 73 55
REMARK SMILES IDX 79 56 81 57 74 58 75 59 76 60 77 61 78 62 54 63 55 64 64 65
REMARK SMILES IDX 56 66 57 67 63 68 65 69 58 70 59 71 60 72 61 73 62 74 6 75
REMARK SMILES IDX 7 76 8 77 9 78 10 80 11 81 12 82 26 83 13 84 14 85 15 86
REMARK SMILES IDX 16 87 17 89 18 90 25 91 19 92 24 93 20 94 23 95 21 96 22 97
REMARK H PARENT 3 6 86 24 52 35 8 79 16 88
REMARK Flexibility Score: inf
ROOT
ATOM      1  C   UNL A   1      33.621  27.773  25.270  1.00  0.00     0.023 C 
ENDROOT
BRANCH   1   2
ATOM      2  C   UNL A   1      33.791  27.981  26.769  1.00  0.00     0.116 C 
BRANCH   2   3
ATOM      3  N   UNL A   1      33.534  29.353  27.183  1.00  0.00    -0.352 N 
ATOM      4  O   UNL A   1      33.925  31.306  28.239  1.00  0.00    -0.269 OA
ATOM      5  C   UNL A   1      34.363  30.231  27.843  1.00  0.00     0.251 C 
ATOM      6  H   UNL A   1      32.641  29.702  26.961  1.00  0.00     0.163 HD
BRANCH   5   7
ATOM      7  C   UNL A   1      35.772  29.857  28.094  1.00  0.00     0.039 A 
ATOM      8  C   UNL A   1      36.165  29.378  29.344  1.00  0.00     0.014 A 
ATOM      9  C   UNL A   1      36.711  30.002  27.069  1.00  0.00     0.014 A 
ATOM     10  C   UNL A   1      37.516  29.193  29.617  1.00  0.00     0.010 A 
ATOM     11  C   UNL A   1      38.058  29.725  27.319  1.00  0.00     0.010 A 
ATOM     12  C   UNL A   1      38.476  29.348  28.604  1.00  0.00    -0.014 A 
BRANCH  12  13
ATOM     13  C   UNL A   1      39.900  29.044  28.902  1.00  0.00     0.031 A 
ATOM     14  C   UNL A   1      40.505  27.712  28.555  1.00  0.00     0.074 A 
ATOM     15  C   UNL A   1      40.654  30.006  29.471  1.00  0.00     0.049 A 
ATOM     16  N   UNL A   1      41.732  27.295  28.739  1.00  0.00    -0.248 NA
ATOM     17  C   UNL A   1      39.624  26.717  27.926  1.00  0.00     0.031 C 
ATOM     18  C   UNL A   1      40.169  31.333  29.864  1.00  0.00     0.029 A 
ATOM     19  N   UNL A   1      41.982  30.027  29.806  1.00  0.00    -0.354 N 
ATOM     20  C   UNL A   1      41.768  25.988  28.269  1.00  0.00     0.074 A 
ATOM     21  C   UNL A   1      40.431  25.671  27.811  1.00  0.00     0.031 C 
ATOM     22  C   UNL A   1      41.193  32.051  30.344  1.00  0.00     0.029 A 
ATOM     23  C   UNL A   1      42.390  31.219  30.358  1.00  0.00     0.049 A 
ATOM     24  H   UNL A   1      42.587  29.264  29.666  1.00  0.00     0.167 HD
ATOM     25  C   UNL A   1      42.821  25.137  28.218  1.00  0.00     0.037 A 
ATOM     26  C   UNL A   1      43.587  31.599  30.840  1.00  0.00     0.037 A 
ATOM     27  C   UNL A   1      44.152  25.469  28.665  1.00  0.00     0.049 A 
ATOM     28  C   UNL A   1      44.732  30.628  30.791  1.00  0.00     0.074 A 
ATOM     29  C   UNL A   1      45.295  24.687  28.624  1.00  0.00     0.029 A 
ATOM     30  N   UNL A   1      44.520  26.679  29.238  1.00  0.00    -0.354 N 
ATOM     31  N   UNL A   1      44.752  29.406  30.315  1.00  0.00    -0.248 NA
ATOM     32  C   UNL A   1      46.012  31.084  31.346  1.00  0.00     0.031 C 
ATOM     33  C   UNL A   1      46.340  25.406  29.213  1.00  0.00     0.029 A 
ATOM     34  C   UNL A   1      45.864  26.656  29.575  1.00  0.00     0.049 A 
ATOM     35  H   UNL A   1      43.914  27.441  29.383  1.00  0.00     0.167 HD
ATOM     36  C   UNL A   1      46.053  28.952  30.497  1.00  0.00     0.074 A 
ATOM     37  C   UNL A   1      46.791  30.038  31.110  1.00  0.00     0.031 C 
ATOM     38  C   UNL A   1      46.586  27.745  30.184  1.00  0.00     0.037 A 
BRANCH  25  39
ATOM     39  C   UNL A   1      42.584  23.752  27.675  1.00  0.00     0.058 A 
ATOM     40  C   UNL A   1      42.588  23.486  26.297  1.00  0.00     0.135 A 
ATOM     41  C   UNL A   1      42.401  22.666  28.549  1.00  0.00     0.135 A 
ATOM     42  F   UNL A   1      42.745  24.486  25.415  1.00  0.00    -0.206 F 
ATOM     43  C   UNL A   1      42.399  22.198  25.803  1.00  0.00     0.059 A 
ATOM     44  C   UNL A   1      42.235  21.366  28.078  1.00  0.00     0.059 A 
ATOM     45  F   UNL A   1      42.390  22.862  29.876  1.00  0.00    -0.206 F 
ATOM     46  C   UNL A   1      42.222  21.145  26.702  1.00  0.00     0.060 A 
BRANCH  46  47
ATOM     47  S   UNL A   1      41.982  19.480  26.046  1.00  0.00     0.124 S 
ATOM     48  O   UNL A   1      42.825  19.513  24.855  1.00  0.00    -0.237 OA
ATOM     49  O   UNL A   1      42.463  18.640  27.138  1.00  0.00    -0.237 OA
ATOM     50  O   UNL A   1      40.546  19.415  25.795  1.00  0.00    -0.744 OA
ENDBRANCH  46  47
ENDBRANCH  25  39
BRANCH  26  51
ATOM     51  C   UNL A   1      43.751  32.957  31.418  1.00  0.00     0.058 A 
ATOM     52  C   UNL A   1      44.146  34.041  30.623  1.00  0.00     0.135 A 
ATOM     53  C   UNL A   1      43.478  33.205  32.774  1.00  0.00     0.135 A 
ATOM     54  F   UNL A   1      44.419  33.854  29.322  1.00  0.00    -0.206 F 
ATOM     55  C   UNL A   1      44.278  35.321  31.150  1.00  0.00     0.059 A 
ATOM     56  C   UNL A   1      43.575  34.480  33.318  1.00  0.00     0.059 A 
ATOM     57  F   UNL A   1      43.076  32.203  33.573  1.00  0.00    -0.206 F 
ATOM     58  C   UNL A   1      43.987  35.530  32.499  1.00  0.00     0.060 A 
BRANCH  58  59
ATOM     59  S   UNL A   1      44.110  37.205  33.164  1.00  0.00     0.124 S 
ATOM     60  O   UNL A   1      45.403  37.160  33.833  1.00  0.00    -0.237 OA
ATOM     61  O   UNL A   1      44.043  38.020  31.956  1.00  0.00    -0.237 OA
ATOM     62  O   UNL A   1      42.947  37.303  34.041  1.00  0.00    -0.744 OA
ENDBRANCH  58  59
ENDBRANCH  26  51
BRANCH  38  63
ATOM     63  C   UNL A   1      48.047  27.545  30.475  1.00  0.00     0.058 A 
ATOM     64  C   UNL A   1      49.038  27.891  29.542  1.00  0.00     0.135 A 
ATOM     65  C   UNL A   1      48.461  27.037  31.716  1.00  0.00     0.135 A 
ATOM     66  F   UNL A   1      48.693  28.372  28.336  1.00  0.00    -0.206 F 
ATOM     67  C   UNL A   1      50.389  27.717  29.822  1.00  0.00     0.059 A 
ATOM     68  C   UNL A   1      49.808  26.880  32.027  1.00  0.00     0.059 A 
ATOM     69  F   UNL A   1      47.554  26.698  32.645  1.00  0.00    -0.206 F 
ATOM     70  C   UNL A   1      50.764  27.213  31.068  1.00  0.00     0.060 A 
BRANCH  70  71
ATOM     71  S   UNL A   1      52.522  27.021  31.430  1.00  0.00     0.124 S 
ATOM     72  O   UNL A   1      52.639  27.723  32.704  1.00  0.00    -0.237 OA
ATOM     73  O   UNL A   1      52.673  25.570  31.490  1.00  0.00    -0.237 OA
ATOM     74  O   UNL A   1      53.175  27.665  30.294  1.00  0.00    -0.744 OA
ENDBRANCH  70  71
ENDBRANCH  38  63
ENDBRANCH  12  13
ENDBRANCH   5   7
ENDBRANCH   2   3
ENDBRANCH   1   2
BRANCH   1  75
ATOM     75  C   UNL A   1      33.286  29.033  24.476  1.00  0.00     0.023 C 
BRANCH  75  76
ATOM     76  C   UNL A   1      33.211  28.839  22.964  1.00  0.00     0.116 C 
BRANCH  76  77
ATOM     77  N   UNL A   1      32.020  29.442  22.394  1.00  0.00    -0.349 N 
ATOM     78  C   UNL A   1      30.748  28.925  22.328  1.00  0.00     0.286 C 
ATOM     79  H   UNL A   1      32.139  30.338  22.003  1.00  0.00     0.163 HD
ATOM     80  O   UNL A   1      29.924  29.509  21.621  1.00  0.00    -0.266 OA
BRANCH  78  81
ATOM     81  C   UNL A   1      30.449  27.732  23.084  1.00  0.00     0.191 A 
ATOM     82  C   UNL A   1      29.794  27.524  24.286  1.00  0.00     0.056 A 
ATOM     83  O   UNL A   1      30.851  26.530  22.578  1.00  0.00    -0.454 OA
ATOM     84  C   UNL A   1      29.840  26.132  24.543  1.00  0.00     0.048 A 
ATOM     85  C   UNL A   1      30.492  25.565  23.471  1.00  0.00     0.124 A 
BRANCH  85  86
ATOM     86  C   UNL A   1      30.811  24.166  23.069  1.00  0.00     0.193 C 
BRANCH  86  87
ATOM     87  N   UNL A   1      32.042  24.096  22.315  1.00  0.00    -0.332 N 
ATOM     88  H   UNL A   1      32.020  24.230  21.340  1.00  0.00     0.165 HD
BRANCH  87  89
ATOM     89  C   UNL A   1      33.213  23.853  22.913  1.00  0.00     0.296 A 
ATOM     90  N   UNL A   1      34.198  23.133  22.429  1.00  0.00    -0.194 NA
ATOM     91  O   UNL A   1      33.440  24.395  24.148  1.00  0.00    -0.424 OA
ATOM     92  C   UNL A   1      35.179  23.250  23.374  1.00  0.00     0.111 A 
ATOM     93  C   UNL A   1      34.714  23.998  24.443  1.00  0.00     0.156 A 
ATOM     94  C   UNL A   1      36.487  22.756  23.406  1.00  0.00     0.032 A 
ATOM     95  C   UNL A   1      35.447  24.281  25.587  1.00  0.00     0.049 A 
ATOM     96  C   UNL A   1      37.267  23.030  24.539  1.00  0.00     0.003 A 
ATOM     97  C   UNL A   1      36.753  23.771  25.611  1.00  0.00     0.004 A 
ENDBRANCH  87  89
ENDBRANCH  86  87
ENDBRANCH  85  86
ENDBRANCH  78  81
ENDBRANCH  76  77
ENDBRANCH  75  76
ENDBRANCH   1  75
TORSDOF 17
ENDMDL
MODEL 2
REMARK VINA RESULT:     -11.2      2.762      8.659
REMARK SMILES O=C(NCCCCNC(=O)c1ccc(CNc2nc3ccccc3o2)o1)c1ccc(-c2c3nc(c(-c4c(F)cc(S(=O)(=O)[O-])cc4F)c4ccc([nH]4)c(-c4c(F)cc(S(=O)(=O)[O-])cc4F)c4nc(c(-c5c(F)cc(S(=O)(=O)[O-])cc5F)c5ccc2[nH]5)C=C4)C=C3)cc1
REMARK SMILES IDX 5 1 4 2 3 3 1 4 2 5 27 7 28 8 92 9 29 10 91 11 30 12 31 13
REMARK SMILES IDX 32 14 85 15 33 16 90 17 84 18 86 19 34 20 89 21 83 22 82 23
REMARK SMILES IDX 35 25 69 26 48 27 68 28 49 29 52 30 67 31 87 32 50 33 51 34
REMARK SMILES IDX 66 36 88 37 53 38 36 39 37 40 46 41 38 42 39 43 45 44 47 45
REMARK SMILES IDX 40 46 41 47 42 48 43 49 44 50 70 51 71 52 80 53 72 54 73 55
REMARK SMILES IDX 79 56 81 57 74 58 75 59 76 60 77 61 78 62 54 63 55 64 64 65
REMARK SMILES IDX 56 66 57 67 63 68 65 69 58 70 59 71 60 72 61 73 62 74 6 75
REMARK SMILES IDX 7 76 8 77 9 78 10 80 11 81 12 82 26 83 13 84 14 85 15 86
REMARK SMILES IDX 16 87 17 89 18 90 25 91 19 92 24 93 20 94 23 95 21 96 22 97
REMARK H PARENT 3 6 86 24 52 35 8 79 16 88
REMARK Flexibility Score: inf
ROOT
ATOM      1  C   UNL A   1      33.825  28.935  27.154  1.00  0.00     0.023 C 
ENDROOT
BRANCH   1   2
ATOM      2  C   UNL A   1      35.224  29.353  27.588  1.00  0.00     0.116 C 
BRANCH   2   3
ATOM      3  N   UNL A   1      35.241  30.017  28.884  1.00  0.00    -0.352 N 
ATOM      4  O   UNL A   1      36.076  30.635  30.884  1.00  0.00    -0.269 OA
ATOM      5  C   UNL A   1      36.283  30.167  29.770  1.00  0.00     0.251 C 
ATOM      6  H   UNL A   1      34.386  30.415  29.166  1.00  0.00     0.163 HD
BRANCH   5   7
ATOM      7  C   UNL A   1      37.642  29.733  29.379  1.00  0.00     0.039 A 
ATOM      8  C   UNL A   1      38.550  29.292  30.343  1.00  0.00     0.014 A 
ATOM      9  C   UNL A   1      38.015  29.784  28.033  1.00  0.00     0.014 A 
ATOM     10  C   UNL A   1      39.871  29.051  29.986  1.00  0.00     0.010 A 
ATOM     11  C   UNL A   1      39.322  29.451  27.663  1.00  0.00     0.010 A 
ATOM     12  C   UNL A   1      40.270  29.112  28.641  1.00  0.00    -0.014 A 
BRANCH  12  13
ATOM     13  C   UNL A   1      41.665  28.750  28.281  1.00  0.00     0.031 A 
ATOM     14  C   UNL A   1      42.767  29.774  28.290  1.00  0.00     0.074 A 
ATOM     15  C   UNL A   1      41.933  27.466  27.967  1.00  0.00     0.049 A 
ATOM     16  N   UNL A   1      44.036  29.616  28.012  1.00  0.00    -0.248 NA
ATOM     17  C   UNL A   1      42.400  31.151  28.652  1.00  0.00     0.031 C 
ATOM     18  C   UNL A   1      40.939  26.389  27.913  1.00  0.00     0.029 A 
ATOM     19  N   UNL A   1      43.111  26.844  27.651  1.00  0.00    -0.354 N 
ATOM     20  C   UNL A   1      44.617  30.871  28.146  1.00  0.00     0.074 A 
ATOM     21  C   UNL A   1      43.556  31.788  28.508  1.00  0.00     0.031 C 
ATOM     22  C   UNL A   1      41.556  25.235  27.626  1.00  0.00     0.029 A 
ATOM     23  C   UNL A   1      42.974  25.497  27.411  1.00  0.00     0.049 A 
ATOM     24  H   UNL A   1      43.974  27.315  27.600  1.00  0.00     0.167 HD
ATOM     25  C   UNL A   1      45.916  31.222  27.988  1.00  0.00     0.037 A 
ATOM     26  C   UNL A   1      43.881  24.575  27.040  1.00  0.00     0.037 A 
ATOM     27  C   UNL A   1      46.968  30.298  27.639  1.00  0.00     0.049 A 
ATOM     28  C   UNL A   1      45.310  24.996  26.851  1.00  0.00     0.074 A 
ATOM     29  C   UNL A   1      48.321  30.549  27.489  1.00  0.00     0.029 A 
ATOM     30  N   UNL A   1      46.784  28.945  27.383  1.00  0.00    -0.354 N 
ATOM     31  N   UNL A   1      45.845  26.183  27.011  1.00  0.00    -0.248 NA
ATOM     32  C   UNL A   1      46.257  23.957  26.429  1.00  0.00     0.031 C 
ATOM     33  C   UNL A   1      48.947  29.361  27.098  1.00  0.00     0.029 A 
ATOM     34  C   UNL A   1      47.995  28.356  27.054  1.00  0.00     0.049 A 
ATOM     35  H   UNL A   1      45.921  28.474  27.429  1.00  0.00     0.167 HD
ATOM     36  C   UNL A   1      47.196  26.029  26.727  1.00  0.00     0.074 A 
ATOM     37  C   UNL A   1      47.398  24.631  26.401  1.00  0.00     0.031 C 
ATOM     38  C   UNL A   1      48.180  26.963  26.733  1.00  0.00     0.037 A 
BRANCH  25  39
ATOM     39  C   UNL A   1      46.283  32.672  28.172  1.00  0.00     0.058 A 
ATOM     40  C   UNL A   1      46.155  33.606  27.131  1.00  0.00     0.135 A 
ATOM     41  C   UNL A   1      46.720  33.143  29.421  1.00  0.00     0.135 A 
ATOM     42  F   UNL A   1      45.754  33.209  25.912  1.00  0.00    -0.206 F 
ATOM     43  C   UNL A   1      46.465  34.949  27.316  1.00  0.00     0.059 A 
ATOM     44  C   UNL A   1      47.013  34.488  29.636  1.00  0.00     0.059 A 
ATOM     45  F   UNL A   1      46.860  32.295  30.452  1.00  0.00    -0.206 F 
ATOM     46  C   UNL A   1      46.895  35.381  28.572  1.00  0.00     0.060 A 
BRANCH  46  47
ATOM     47  S   UNL A   1      47.291  37.128  28.797  1.00  0.00     0.124 S 
ATOM     48  O   UNL A   1      46.652  37.407  30.080  1.00  0.00    -0.237 OA
ATOM     49  O   UNL A   1      48.751  37.120  28.807  1.00  0.00    -0.237 OA
ATOM     50  O   UNL A   1      46.679  37.770  27.639  1.00  0.00    -0.744 OA
ENDBRANCH  46  47
ENDBRANCH  25  39
BRANCH  26  51
ATOM     51  C   UNL A   1      43.453  23.171  26.814  1.00  0.00     0.058 A 
ATOM     52  C   UNL A   1      43.387  22.632  25.522  1.00  0.00     0.135 A 
ATOM     53  C   UNL A   1      43.136  22.328  27.893  1.00  0.00     0.135 A 
ATOM     54  F   UNL A   1      43.679  23.398  24.460  1.00  0.00    -0.206 F 
ATOM     55  C   UNL A   1      43.010  21.311  25.303  1.00  0.00     0.059 A 
ATOM     56  C   UNL A   1      42.784  20.997  27.702  1.00  0.00     0.059 A 
ATOM     57  F   UNL A   1      43.204  22.792  29.151  1.00  0.00    -0.206 F 
ATOM     58  C   UNL A   1      42.714  20.501  26.401  1.00  0.00     0.060 A 
BRANCH  58  59
ATOM     59  S   UNL A   1      42.277  18.773  26.112  1.00  0.00     0.124 S 
ATOM     60  O   UNL A   1      40.874  18.885  25.733  1.00  0.00    -0.237 OA
ATOM     61  O   UNL A   1      43.199  18.398  25.045  1.00  0.00    -0.237 OA
ATOM     62  O   UNL A   1      42.535  18.142  27.402  1.00  0.00    -0.744 OA
ENDBRANCH  58  59
ENDBRANCH  26  51
BRANCH  38  63
ATOM     63  C   UNL A   1      49.570  26.495  26.406  1.00  0.00     0.058 A 
ATOM     64  C   UNL A   1      50.119  26.655  25.124  1.00  0.00     0.135 A 
ATOM     65  C   UNL A   1      50.376  25.916  27.398  1.00  0.00     0.135 A 
ATOM     66  F   UNL A   1      49.385  27.194  24.136  1.00  0.00    -0.206 F 
ATOM     67  C   UNL A   1      51.412  26.233  24.830  1.00  0.00     0.059 A 
ATOM     68  C   UNL A   1      51.681  25.511  27.134  1.00  0.00     0.059 A 
ATOM     69  F   UNL A   1      49.902  25.747  28.642  1.00  0.00    -0.206 F 
ATOM     70  C   UNL A   1      52.185  25.664  25.843  1.00  0.00     0.060 A 
BRANCH  70  71
ATOM     71  S   UNL A   1      53.872  25.149  25.458  1.00  0.00     0.124 S 
ATOM     72  O   UNL A   1      54.060  25.725  24.131  1.00  0.00    -0.237 OA
ATOM     73  O   UNL A   1      54.642  25.767  26.533  1.00  0.00    -0.237 OA
ATOM     74  O   UNL A   1      53.800  23.691  25.506  1.00  0.00    -0.744 OA
ENDBRANCH  70  71
ENDBRANCH  38  63
ENDBRANCH  12  13
ENDBRANCH   5   7
ENDBRANCH   2   3
ENDBRANCH   1   2
BRANCH   1  75
ATOM     75  C   UNL A   1      33.162  29.857  26.136  1.00  0.00     0.023 C 
BRANCH  75  76
ATOM     76  C   UNL A   1      32.991  29.258  24.742  1.00  0.00     0.116 C 
BRANCH  76  77
ATOM     77  N   UNL A   1      31.695  29.570  24.169  1.00  0.00    -0.349 N 
ATOM     78  C   UNL A   1      30.648  28.716  23.908  1.00  0.00     0.286 C 
ATOM     79  H   UNL A   1      31.545  30.514  23.935  1.00  0.00     0.163 HD
ATOM     80  O   UNL A   1      29.711  29.142  23.230  1.00  0.00    -0.266 OA
BRANCH  78  81
ATOM     81  C   UNL A   1      30.705  27.375  24.439  1.00  0.00     0.191 A 
ATOM     82  C   UNL A   1      30.747  26.879  25.731  1.00  0.00     0.056 A 
ATOM     83  O   UNL A   1      30.715  26.333  23.558  1.00  0.00    -0.454 OA
ATOM     84  C   UNL A   1      30.830  25.469  25.628  1.00  0.00     0.048 A 
ATOM     85  C   UNL A   1      30.803  25.181  24.282  1.00  0.00     0.124 A 
BRANCH  85  86
ATOM     86  C   UNL A   1      30.783  23.920  23.488  1.00  0.00     0.193 C 
BRANCH  86  87
ATOM     87  N   UNL A   1      31.907  23.841  22.583  1.00  0.00    -0.332 N 
ATOM     88  H   UNL A   1      31.808  24.169  21.660  1.00  0.00     0.165 HD
BRANCH  87  89
ATOM     89  C   UNL A   1      33.081  23.332  22.972  1.00  0.00     0.296 A 
ATOM     90  N   UNL A   1      34.266  23.692  22.538  1.00  0.00    -0.194 NA
ATOM     91  O   UNL A   1      33.082  22.343  23.916  1.00  0.00    -0.424 OA
ATOM     92  C   UNL A   1      35.127  22.938  23.286  1.00  0.00     0.111 A 
ATOM     93  C   UNL A   1      34.410  22.089  24.113  1.00  0.00     0.156 A 
ATOM     94  C   UNL A   1      36.525  22.909  23.327  1.00  0.00     0.032 A 
ATOM     95  C   UNL A   1      34.978  21.166  24.980  1.00  0.00     0.049 A 
ATOM     96  C   UNL A   1      37.140  22.000  24.200  1.00  0.00     0.003 A 
ATOM     97  C   UNL A   1      36.380  21.140  25.004  1.00  0.00     0.004 A 
ENDBRANCH  87  89
ENDBRANCH  86  87
ENDBRANCH  85  86
ENDBRANCH  78  81
ENDBRANCH  76  77
ENDBRANCH  75  76
ENDBRANCH   1  75
TORSDOF 17
ENDMDL
MODEL 3
REMARK VINA RESULT:     -11.2      0.625      8.288
REMARK SMILES O=C(NCCCCNC(=O)c1ccc(CNc2nc3ccccc3o2)o1)c1ccc(-c2c3nc(c(-c4c(F)cc(S(=O)(=O)[O-])cc4F)c4ccc([nH]4)c(-c4c(F)cc(S(=O)(=O)[O-])cc4F)c4nc(c(-c5c(F)cc(S(=O)(=O)[O-])cc5F)c5ccc2[nH]5)C=C4)C=C3)cc1
REMARK SMILES IDX 5 1 4 2 3 3 1 4 2 5 27 7 28 8 92 9 29 10 91 11 30 12 31 13
REMARK SMILES IDX 32 14 85 15 33 16 90 17 84 18 86 19 34 20 89 21 83 22 82 23
REMARK SMILES IDX 35 25 69 26 48 27 68 28 49 29 52 30 67 31 87 32 50 33 51 34
REMARK SMILES IDX 66 36 88 37 53 38 36 39 37 40 46 41 38 42 39 43 45 44 47 45
REMARK SMILES IDX 40 46 41 47 42 48 43 49 44 50 70 51 71 52 80 53 72 54 73 55
REMARK SMILES IDX 79 56 81 57 74 58 75 59 76 60 77 61 78 62 54 63 55 64 64 65
REMARK SMILES IDX 56 66 57 67 63 68 65 69 58 70 59 71 60 72 61 73 62 74 6 75
REMARK SMILES IDX 7 76 8 77 9 78 10 80 11 81 12 82 26 83 13 84 14 85 15 86
REMARK SMILES IDX 16 87 17 89 18 90 25 91 19 92 24 93 20 94 23 95 21 96 22 97
REMARK H PARENT 3 6 86 24 52 35 8 79 16 88
REMARK Flexibility Score: inf
ROOT
ATOM      1  C   UNL A   1      33.389  27.779  25.441  1.00  0.00     0.023 C 
ENDROOT
BRANCH   1   2
ATOM      2  C   UNL A   1      33.827  28.064  26.872  1.00  0.00     0.116 C 
BRANCH   2   3
ATOM      3  N   UNL A   1      33.564  29.436  27.282  1.00  0.00    -0.352 N 
ATOM      4  O   UNL A   1      33.944  31.393  28.334  1.00  0.00    -0.269 OA
ATOM      5  C   UNL A   1      34.387  30.319  27.942  1.00  0.00     0.251 C 
ATOM      6  H   UNL A   1      32.670  29.781  27.056  1.00  0.00     0.163 HD
BRANCH   5   7
ATOM      7  C   UNL A   1      35.797  29.951  28.197  1.00  0.00     0.039 A 
ATOM      8  C   UNL A   1      36.193  29.494  29.455  1.00  0.00     0.014 A 
ATOM      9  C   UNL A   1      36.735  30.079  27.169  1.00  0.00     0.014 A 
ATOM     10  C   UNL A   1      37.544  29.315  29.730  1.00  0.00     0.010 A 
ATOM     11  C   UNL A   1      38.083  29.808  27.422  1.00  0.00     0.010 A 
ATOM     12  C   UNL A   1      38.503  29.454  28.713  1.00  0.00    -0.014 A 
BRANCH  12  13
ATOM     13  C   UNL A   1      39.927  29.157  29.015  1.00  0.00     0.031 A 
ATOM     14  C   UNL A   1      40.817  30.174  29.675  1.00  0.00     0.074 A 
ATOM     15  C   UNL A   1      40.406  27.935  28.706  1.00  0.00     0.049 A 
ATOM     16  N   UNL A   1      42.076  30.067  30.014  1.00  0.00    -0.248 NA
ATOM     17  C   UNL A   1      40.222  31.482  29.991  1.00  0.00     0.031 C 
ATOM     18  C   UNL A   1      39.637  26.872  28.051  1.00  0.00     0.029 A 
ATOM     19  N   UNL A   1      41.638  27.373  28.910  1.00  0.00    -0.354 N 
ATOM     20  C   UNL A   1      42.432  31.292  30.565  1.00  0.00     0.074 A 
ATOM     21  C   UNL A   1      41.259  32.139  30.494  1.00  0.00     0.031 C 
ATOM     22  C   UNL A   1      40.400  25.776  27.947  1.00  0.00     0.029 A 
ATOM     23  C   UNL A   1      41.730  26.075  28.465  1.00  0.00     0.049 A 
ATOM     24  H   UNL A   1      42.386  27.851  29.334  1.00  0.00     0.167 HD
ATOM     25  C   UNL A   1      43.623  31.670  31.088  1.00  0.00     0.037 A 
ATOM     26  C   UNL A   1      42.771  25.223  28.454  1.00  0.00     0.037 A 
ATOM     27  C   UNL A   1      44.781  30.812  31.165  1.00  0.00     0.049 A 
ATOM     28  C   UNL A   1      44.086  25.675  29.020  1.00  0.00     0.074 A 
ATOM     29  C   UNL A   1      46.025  31.091  31.707  1.00  0.00     0.029 A 
ATOM     30  N   UNL A   1      44.841  29.512  30.683  1.00  0.00    -0.354 N 
ATOM     31  N   UNL A   1      44.394  26.828  29.564  1.00  0.00    -0.248 NA
ATOM     32  C   UNL A   1      45.195  24.714  28.969  1.00  0.00     0.031 C 
ATOM     33  C   UNL A   1      46.848  29.977  31.512  1.00  0.00     0.029 A 
ATOM     34  C   UNL A   1      46.105  28.984  30.895  1.00  0.00     0.049 A 
ATOM     35  H   UNL A   1      44.094  29.034  30.254  1.00  0.00     0.167 HD
ATOM     36  C   UNL A   1      45.728  26.726  29.936  1.00  0.00     0.074 A 
ATOM     37  C   UNL A   1      46.162  25.393  29.571  1.00  0.00     0.031 C 
ATOM     38  C   UNL A   1      46.522  27.654  30.527  1.00  0.00     0.037 A 
BRANCH  25  39
ATOM     39  C   UNL A   1      43.752  33.079  31.606  1.00  0.00     0.058 A 
ATOM     40  C   UNL A   1      44.158  34.137  30.778  1.00  0.00     0.135 A 
ATOM     41  C   UNL A   1      43.415  33.382  32.935  1.00  0.00     0.135 A 
ATOM     42  F   UNL A   1      44.505  33.904  29.502  1.00  0.00    -0.206 F 
ATOM     43  C   UNL A   1      44.245  35.442  31.254  1.00  0.00     0.059 A 
ATOM     44  C   UNL A   1      43.470  34.684  33.426  1.00  0.00     0.059 A 
ATOM     45  F   UNL A   1      43.018  32.410  33.771  1.00  0.00    -0.206 F 
ATOM     46  C   UNL A   1      43.900  35.706  32.581  1.00  0.00     0.060 A 
BRANCH  46  47
ATOM     47  S   UNL A   1      44.015  37.404  33.183  1.00  0.00     0.124 S 
ATOM     48  O   UNL A   1      43.892  38.161  31.941  1.00  0.00    -0.237 OA
ATOM     49  O   UNL A   1      42.877  37.492  34.092  1.00  0.00    -0.237 OA
ATOM     50  O   UNL A   1      45.327  37.454  33.819  1.00  0.00    -0.744 OA
ENDBRANCH  46  47
ENDBRANCH  25  39
BRANCH  26  51
ATOM     51  C   UNL A   1      42.604  23.865  27.877  1.00  0.00     0.058 A 
ATOM     52  C   UNL A   1      42.467  22.739  28.700  1.00  0.00     0.135 A 
ATOM     53  C   UNL A   1      42.542  23.672  26.486  1.00  0.00     0.135 A 
ATOM     54  F   UNL A   1      42.522  22.873  30.034  1.00  0.00    -0.206 F 
ATOM     55  C   UNL A   1      42.287  21.466  28.169  1.00  0.00     0.059 A 
ATOM     56  C   UNL A   1      42.334  22.414  25.932  1.00  0.00     0.059 A 
ATOM     57  F   UNL A   1      42.647  24.721  25.656  1.00  0.00    -0.206 F 
ATOM     58  C   UNL A   1      42.218  21.316  26.782  1.00  0.00     0.060 A 
BRANCH  58  59
ATOM     59  S   UNL A   1      41.930  19.668  26.102  1.00  0.00     0.124 S 
ATOM     60  O   UNL A   1      42.360  18.817  27.204  1.00  0.00    -0.237 OA
ATOM     61  O   UNL A   1      40.496  19.692  25.834  1.00  0.00    -0.237 OA
ATOM     62  O   UNL A   1      42.780  19.643  24.915  1.00  0.00    -0.744 OA
ENDBRANCH  58  59
ENDBRANCH  26  51
BRANCH  38  63
ATOM     63  C   UNL A   1      47.934  27.248  30.841  1.00  0.00     0.058 A 
ATOM     64  C   UNL A   1      48.247  26.494  31.983  1.00  0.00     0.135 A 
ATOM     65  C   UNL A   1      48.981  27.584  29.968  1.00  0.00     0.135 A 
ATOM     66  F   UNL A   1      47.283  26.156  32.855  1.00  0.00    -0.206 F 
ATOM     67  C   UNL A   1      49.555  26.109  32.262  1.00  0.00     0.059 A 
ATOM     68  C   UNL A   1      50.292  27.186  30.213  1.00  0.00     0.059 A 
ATOM     69  F   UNL A   1      48.733  28.297  28.859  1.00  0.00    -0.206 F 
ATOM     70  C   UNL A   1      50.569  26.458  31.370  1.00  0.00     0.060 A 
BRANCH  70  71
ATOM     71  S   UNL A   1      52.257  25.925  31.726  1.00  0.00     0.124 S 
ATOM     72  O   UNL A   1      52.675  26.914  32.714  1.00  0.00    -0.237 OA
ATOM     73  O   UNL A   1      52.057  24.570  32.231  1.00  0.00    -0.237 OA
ATOM     74  O   UNL A   1      52.921  26.012  30.429  1.00  0.00    -0.744 OA
ENDBRANCH  70  71
ENDBRANCH  38  63
ENDBRANCH  12  13
ENDBRANCH   5   7
ENDBRANCH   2   3
ENDBRANCH   1   2
BRANCH   1  75
ATOM     75  C   UNL A   1      33.353  28.996  24.521  1.00  0.00     0.023 C 
BRANCH  75  76
ATOM     76  C   UNL A   1      33.246  28.674  23.033  1.00  0.00     0.116 C 
BRANCH  76  77
ATOM     77  N   UNL A   1      32.043  29.226  22.439  1.00  0.00    -0.349 N 
ATOM     78  C   UNL A   1      30.784  28.675  22.387  1.00  0.00     0.286 C 
ATOM     79  H   UNL A   1      32.140  30.110  22.017  1.00  0.00     0.163 HD
ATOM     80  O   UNL A   1      29.949  29.212  21.658  1.00  0.00    -0.266 OA
BRANCH  78  81
ATOM     81  C   UNL A   1      30.513  27.502  23.184  1.00  0.00     0.191 A 
ATOM     82  C   UNL A   1      29.907  27.326  24.417  1.00  0.00     0.056 A 
ATOM     83  O   UNL A   1      30.892  26.287  22.693  1.00  0.00    -0.454 OA
ATOM     84  C   UNL A   1      29.959  25.941  24.707  1.00  0.00     0.048 A 
ATOM     85  C   UNL A   1      30.566  25.345  23.624  1.00  0.00     0.124 A 
BRANCH  85  86
ATOM     86  C   UNL A   1      30.865  23.936  23.244  1.00  0.00     0.193 C 
BRANCH  86  87
ATOM     87  N   UNL A   1      32.040  23.847  22.406  1.00  0.00    -0.332 N 
ATOM     88  H   UNL A   1      31.997  24.177  21.480  1.00  0.00     0.165 HD
BRANCH  87  89
ATOM     89  C   UNL A   1      33.183  23.326  22.861  1.00  0.00     0.296 A 
ATOM     90  N   UNL A   1      34.396  23.687  22.511  1.00  0.00    -0.194 NA
ATOM     91  O   UNL A   1      33.119  22.321  23.787  1.00  0.00    -0.424 OA
ATOM     92  C   UNL A   1      35.203  22.915  23.300  1.00  0.00     0.111 A 
ATOM     93  C   UNL A   1      34.431  22.057  24.064  1.00  0.00     0.156 A 
ATOM     94  C   UNL A   1      36.595  22.879  23.431  1.00  0.00     0.032 A 
ATOM     95  C   UNL A   1      34.938  21.117  24.951  1.00  0.00     0.049 A 
ATOM     96  C   UNL A   1      37.149  21.953  24.326  1.00  0.00     0.003 A 
ATOM     97  C   UNL A   1      36.335  21.083  25.065  1.00  0.00     0.004 A 
ENDBRANCH  87  89
ENDBRANCH  86  87
ENDBRANCH  85  86
ENDBRANCH  78  81
ENDBRANCH  76  77
ENDBRANCH  75  76
ENDBRANCH   1  75
TORSDOF 17
ENDMDL
