MODEL 1
REMARK VINA RESULT:     -10.1      0.000      0.000
REMARK SMILES C=C(C)C(=O)OCC[C@@H](C(C)=O)C(=O)NCCCCNC(=O)c1ccc(-c2c3nc(c(-c4c(F)cc(S(=O)(=O)[O-])cc4F)c4ccc([nH]4)c(-c4c(F)cc(S(=O)(=O)[O-])cc4F)c4nc(c(-c5c(F)cc(S(=O)(=O)[O-])cc5F)c5ccc2[nH]5)C=C4)C=C3)cc1
REMARK SMILES IDX 16 1 15 2 13 3 14 4 9 6 8 7 7 8 6 9 4 10 5 11 2 12 1 13 3 14
REMARK SMILES IDX 10 15 11 16 12 17 17 18 18 19 19 20 20 21 21 22 22 24 23 25
REMARK SMILES IDX 24 26 88 27 25 28 87 29 26 30 27 31 28 32 81 33 29 34 86 35
REMARK SMILES IDX 80 36 82 37 30 38 85 39 79 40 78 41 31 43 65 44 44 45 64 46
REMARK SMILES IDX 45 47 48 48 63 49 83 50 46 51 47 52 62 54 84 55 49 56 32 57
REMARK SMILES IDX 33 58 42 59 34 60 35 61 41 62 43 63 36 64 37 65 38 66 39 67
REMARK SMILES IDX 40 68 66 69 67 70 76 71 68 72 69 73 75 74 77 75 70 76 71 77
REMARK SMILES IDX 72 78 73 79 74 80 50 81 51 82 60 83 52 84 53 85 59 86 61 87
REMARK SMILES IDX 54 88 55 89 56 90 57 91 58 92
REMARK H PARENT 15 5 20 23 82 42 48 53
REMARK Flexibility Score: inf
ROOT
ATOM      1  C   UNL A   1      36.369  23.539  25.753  1.00  0.00     0.116 C 
ENDROOT
BRANCH   1   2
ATOM      2  N   UNL A   1      35.647  22.835  26.798  1.00  0.00    -0.355 N 
ATOM      3  C   UNL A   1      34.389  22.314  26.784  1.00  0.00     0.230 C 
ATOM      4  O   UNL A   1      33.985  21.729  27.790  1.00  0.00    -0.274 OA
ATOM      5  H   UNL A   1      36.140  22.718  27.643  1.00  0.00     0.163 HD
BRANCH   3   6
ATOM      6  C   UNL A   1      33.500  22.464  25.564  1.00  0.00     0.148 C 
BRANCH   6   7
ATOM      7  C   UNL A   1      32.669  21.175  25.397  1.00  0.00     0.063 C 
BRANCH   7   8
ATOM      8  C   UNL A   1      33.161  20.206  24.324  1.00  0.00     0.234 C 
BRANCH   8   9
ATOM      9  O   UNL A   1      33.861  19.103  24.910  1.00  0.00    -0.462 OA
BRANCH   9  10
ATOM     10  C   UNL A   1      33.187  17.931  24.979  1.00  0.00     0.333 C 
ATOM     11  O   UNL A   1      32.053  17.767  25.403  1.00  0.00    -0.247 OA
BRANCH  10  12
ATOM     12  C   UNL A   1      34.019  16.859  24.383  1.00  0.00     0.027 C 
ATOM     13  C   UNL A   1      34.646  16.024  25.225  1.00  0.00     0.020 C 
ATOM     14  C   UNL A   1      34.127  16.789  22.894  1.00  0.00     0.051 C 
ENDBRANCH  10  12
ENDBRANCH   9  10
ENDBRANCH   8   9
ENDBRANCH   7   8
ENDBRANCH   6   7
BRANCH   6  15
ATOM     15  C   UNL A   1      32.683  23.751  25.609  1.00  0.00     0.142 C 
ATOM     16  C   UNL A   1      31.302  23.738  24.996  1.00  0.00     0.088 C 
ATOM     17  O   UNL A   1      33.111  24.783  26.132  1.00  0.00    -0.299 OA
ENDBRANCH   6  15
ENDBRANCH   3   6
ENDBRANCH   1   2
BRANCH   1  18
ATOM     18  C   UNL A   1      37.758  22.956  25.535  1.00  0.00     0.023 C 
BRANCH  18  19
ATOM     19  C   UNL A   1      38.770  23.348  26.608  1.00  0.00     0.023 C 
BRANCH  19  20
ATOM     20  C   UNL A   1      39.292  24.776  26.498  1.00  0.00     0.116 C 
BRANCH  20  21
ATOM     21  N   UNL A   1      40.497  24.877  25.685  1.00  0.00    -0.352 N 
ATOM     22  C   UNL A   1      41.601  25.671  25.888  1.00  0.00     0.251 C 
ATOM     23  H   UNL A   1      40.523  24.302  24.886  1.00  0.00     0.163 HD
ATOM     24  O   UNL A   1      42.475  25.757  25.033  1.00  0.00    -0.269 OA
BRANCH  22  25
ATOM     25  C   UNL A   1      41.690  26.445  27.139  1.00  0.00     0.039 A 
ATOM     26  C   UNL A   1      42.295  27.702  27.116  1.00  0.00     0.014 A 
ATOM     27  C   UNL A   1      41.089  25.961  28.305  1.00  0.00     0.014 A 
ATOM     28  C   UNL A   1      42.220  28.516  28.247  1.00  0.00     0.010 A 
ATOM     29  C   UNL A   1      40.951  26.802  29.402  1.00  0.00     0.010 A 
ATOM     30  C   UNL A   1      41.502  28.093  29.378  1.00  0.00    -0.014 A 
BRANCH  30  31
ATOM     31  C   UNL A   1      41.275  28.998  30.533  1.00  0.00     0.031 A 
ATOM     32  C   UNL A   1      42.104  28.854  31.777  1.00  0.00     0.074 A 
ATOM     33  C   UNL A   1      40.263  29.887  30.489  1.00  0.00     0.049 A 
ATOM     34  N   UNL A   1      41.992  29.481  32.920  1.00  0.00    -0.248 NA
ATOM     35  C   UNL A   1      43.184  27.855  31.743  1.00  0.00     0.031 C 
ATOM     36  C   UNL A   1      39.358  30.083  29.353  1.00  0.00     0.029 A 
ATOM     37  N   UNL A   1      39.810  30.781  31.428  1.00  0.00    -0.354 N 
ATOM     38  C   UNL A   1      42.975  28.946  33.742  1.00  0.00     0.074 A 
ATOM     39  C   UNL A   1      43.641  27.908  32.986  1.00  0.00     0.031 C 
ATOM     40  C   UNL A   1      38.472  31.045  29.655  1.00  0.00     0.029 A 
ATOM     41  C   UNL A   1      38.713  31.502  31.021  1.00  0.00     0.049 A 
ATOM     42  H   UNL A   1      40.232  30.894  32.310  1.00  0.00     0.167 HD
ATOM     43  C   UNL A   1      43.304  29.304  35.006  1.00  0.00     0.037 A 
ATOM     44  C   UNL A   1      37.971  32.416  31.678  1.00  0.00     0.037 A 
ATOM     45  C   UNL A   1      42.646  30.351  35.743  1.00  0.00     0.049 A 
ATOM     46  C   UNL A   1      38.342  32.780  33.089  1.00  0.00     0.074 A 
ATOM     47  C   UNL A   1      42.950  30.836  37.002  1.00  0.00     0.029 A 
ATOM     48  N   UNL A   1      41.545  31.066  35.294  1.00  0.00    -0.354 N 
ATOM     49  N   UNL A   1      39.326  32.320  33.826  1.00  0.00    -0.248 NA
ATOM     50  C   UNL A   1      37.505  33.783  33.762  1.00  0.00     0.031 C 
ATOM     51  C   UNL A   1      42.000  31.806  37.337  1.00  0.00     0.029 A 
ATOM     52  C   UNL A   1      41.136  31.965  36.265  1.00  0.00     0.049 A 
ATOM     53  H   UNL A   1      41.118  30.952  34.414  1.00  0.00     0.167 HD
ATOM     54  C   UNL A   1      39.237  32.990  35.041  1.00  0.00     0.074 A 
ATOM     55  C   UNL A   1      38.114  33.899  34.934  1.00  0.00     0.031 C 
ATOM     56  C   UNL A   1      40.014  32.864  36.144  1.00  0.00     0.037 A 
BRANCH  43  57
ATOM     57  C   UNL A   1      44.425  28.556  35.675  1.00  0.00     0.058 A 
ATOM     58  C   UNL A   1      45.762  28.971  35.558  1.00  0.00     0.135 A 
ATOM     59  C   UNL A   1      44.158  27.434  36.475  1.00  0.00     0.135 A 
ATOM     60  F   UNL A   1      46.077  30.028  34.793  1.00  0.00    -0.206 F 
ATOM     61  C   UNL A   1      46.795  28.283  36.185  1.00  0.00     0.059 A 
ATOM     62  C   UNL A   1      45.172  26.748  37.136  1.00  0.00     0.059 A 
ATOM     63  F   UNL A   1      42.898  26.993  36.621  1.00  0.00    -0.206 F 
ATOM     64  C   UNL A   1      46.490  27.173  36.973  1.00  0.00     0.060 A 
BRANCH  64  65
ATOM     65  S   UNL A   1      47.843  26.296  37.785  1.00  0.00     0.124 S 
ATOM     66  O   UNL A   1      48.436  27.358  38.591  1.00  0.00    -0.237 OA
ATOM     67  O   UNL A   1      47.138  25.256  38.527  1.00  0.00    -0.237 OA
ATOM     68  O   UNL A   1      48.660  25.824  36.671  1.00  0.00    -0.744 OA
ENDBRANCH  64  65
ENDBRANCH  43  57
BRANCH  44  69
ATOM     69  C   UNL A   1      36.806  33.050  31.004  1.00  0.00     0.058 A 
ATOM     70  C   UNL A   1      35.493  32.692  31.342  1.00  0.00     0.135 A 
ATOM     71  C   UNL A   1      36.981  34.040  30.024  1.00  0.00     0.135 A 
ATOM     72  F   UNL A   1      35.273  31.744  32.266  1.00  0.00    -0.206 F 
ATOM     73  C   UNL A   1      34.394  33.283  30.727  1.00  0.00     0.059 A 
ATOM     74  C   UNL A   1      35.897  34.665  29.413  1.00  0.00     0.059 A 
ATOM     75  F   UNL A   1      38.216  34.431  29.675  1.00  0.00    -0.206 F 
ATOM     76  C   UNL A   1      34.607  34.273  29.766  1.00  0.00     0.060 A 
BRANCH  76  77
ATOM     77  S   UNL A   1      33.173  35.074  29.015  1.00  0.00     0.124 S 
ATOM     78  O   UNL A   1      32.305  35.267  30.171  1.00  0.00    -0.237 OA
ATOM     79  O   UNL A   1      33.761  36.282  28.447  1.00  0.00    -0.237 OA
ATOM     80  O   UNL A   1      32.713  34.091  28.038  1.00  0.00    -0.744 OA
ENDBRANCH  76  77
ENDBRANCH  44  69
BRANCH  56  81
ATOM     81  C   UNL A   1      39.692  33.736  37.327  1.00  0.00     0.058 A 
ATOM     82  C   UNL A   1      38.814  33.311  38.335  1.00  0.00     0.135 A 
ATOM     83  C   UNL A   1      40.331  34.975  37.492  1.00  0.00     0.135 A 
ATOM     84  F   UNL A   1      38.171  32.138  38.220  1.00  0.00    -0.206 F 
ATOM     85  C   UNL A   1      38.572  34.090  39.461  1.00  0.00     0.059 A 
ATOM     86  C   UNL A   1      40.126  35.758  38.624  1.00  0.00     0.059 A 
ATOM     87  F   UNL A   1      41.187  35.425  36.560  1.00  0.00    -0.206 F 
ATOM     88  C   UNL A   1      39.239  35.309  39.601  1.00  0.00     0.060 A 
BRANCH  88  89
ATOM     89  S   UNL A   1      38.960  36.278  41.099  1.00  0.00     0.124 S 
ATOM     90  O   UNL A   1      37.801  35.603  41.675  1.00  0.00    -0.237 OA
ATOM     91  O   UNL A   1      40.217  36.107  41.819  1.00  0.00    -0.237 OA
ATOM     92  O   UNL A   1      38.712  37.624  40.590  1.00  0.00    -0.744 OA
ENDBRANCH  88  89
ENDBRANCH  56  81
ENDBRANCH  30  31
ENDBRANCH  22  25
ENDBRANCH  20  21
ENDBRANCH  19  20
ENDBRANCH  18  19
ENDBRANCH   1  18
TORSDOF 20
ENDMDL
MODEL 2
REMARK VINA RESULT:      -9.9      0.978      8.527
REMARK SMILES C=C(C)C(=O)OCC[C@@H](C(C)=O)C(=O)NCCCCNC(=O)c1ccc(-c2c3nc(c(-c4c(F)cc(S(=O)(=O)[O-])cc4F)c4ccc([nH]4)c(-c4c(F)cc(S(=O)(=O)[O-])cc4F)c4nc(c(-c5c(F)cc(S(=O)(=O)[O-])cc5F)c5ccc2[nH]5)C=C4)C=C3)cc1
REMARK SMILES IDX 16 1 15 2 13 3 14 4 9 6 8 7 7 8 6 9 4 10 5 11 2 12 1 13 3 14
REMARK SMILES IDX 10 15 11 16 12 17 17 18 18 19 19 20 20 21 21 22 22 24 23 25
REMARK SMILES IDX 24 26 88 27 25 28 87 29 26 30 27 31 28 32 81 33 29 34 86 35
REMARK SMILES IDX 80 36 82 37 30 38 85 39 79 40 78 41 31 43 65 44 44 45 64 46
REMARK SMILES IDX 45 47 48 48 63 49 83 50 46 51 47 52 62 54 84 55 49 56 32 57
REMARK SMILES IDX 33 58 42 59 34 60 35 61 41 62 43 63 36 64 37 65 38 66 39 67
REMARK SMILES IDX 40 68 66 69 67 70 76 71 68 72 69 73 75 74 77 75 70 76 71 77
REMARK SMILES IDX 72 78 73 79 74 80 50 81 51 82 60 83 52 84 53 85 59 86 61 87
REMARK SMILES IDX 54 88 55 89 56 90 57 91 58 92
REMARK H PARENT 15 5 20 23 82 42 48 53
REMARK Flexibility Score: inf
ROOT
ATOM      1  C   UNL A   1      38.522  22.381  25.641  1.00  0.00     0.116 C 
ENDROOT
BRANCH   1   2
ATOM      2  N   UNL A   1      37.299  22.679  26.367  1.00  0.00    -0.355 N 
ATOM      3  C   UNL A   1      36.002  22.491  25.997  1.00  0.00     0.230 C 
ATOM      4  O   UNL A   1      35.114  22.799  26.793  1.00  0.00    -0.274 OA
ATOM      5  H   UNL A   1      37.427  23.077  27.259  1.00  0.00     0.163 HD
BRANCH   3   6
ATOM      6  C   UNL A   1      35.659  21.930  24.630  1.00  0.00     0.148 C 
BRANCH   6   7
ATOM      7  C   UNL A   1      35.009  20.543  24.815  1.00  0.00     0.063 C 
BRANCH   7   8
ATOM      8  C   UNL A   1      33.514  20.468  24.509  1.00  0.00     0.234 C 
BRANCH   8   9
ATOM      9  O   UNL A   1      33.164  19.187  23.972  1.00  0.00    -0.462 OA
BRANCH   9  10
ATOM     10  C   UNL A   1      32.929  18.202  24.870  1.00  0.00     0.333 C 
ATOM     11  O   UNL A   1      32.390  18.324  25.960  1.00  0.00    -0.247 OA
BRANCH  10  12
ATOM     12  C   UNL A   1      33.367  16.909  24.294  1.00  0.00     0.027 C 
ATOM     13  C   UNL A   1      34.034  16.945  23.131  1.00  0.00     0.020 C 
ATOM     14  C   UNL A   1      33.021  15.652  25.024  1.00  0.00     0.051 C 
ENDBRANCH  10  12
ENDBRANCH   9  10
ENDBRANCH   8   9
ENDBRANCH   7   8
ENDBRANCH   6   7
BRANCH   6  15
ATOM     15  C   UNL A   1      34.842  22.914  23.799  1.00  0.00     0.142 C 
ATOM     16  C   UNL A   1      33.888  23.836  24.524  1.00  0.00     0.088 C 
ATOM     17  O   UNL A   1      34.945  22.981  22.572  1.00  0.00    -0.299 OA
ENDBRANCH   6  15
ENDBRANCH   3   6
ENDBRANCH   1   2
BRANCH   1  18
ATOM     18  C   UNL A   1      39.482  21.543  26.474  1.00  0.00     0.023 C 
BRANCH  18  19
ATOM     19  C   UNL A   1      40.942  21.970  26.352  1.00  0.00     0.023 C 
BRANCH  19  20
ATOM     20  C   UNL A   1      41.252  23.348  26.926  1.00  0.00     0.116 C 
BRANCH  20  21
ATOM     21  N   UNL A   1      41.478  24.353  25.895  1.00  0.00    -0.352 N 
ATOM     22  C   UNL A   1      41.516  25.720  26.028  1.00  0.00     0.251 C 
ATOM     23  H   UNL A   1      41.621  24.007  24.984  1.00  0.00     0.163 HD
ATOM     24  O   UNL A   1      41.568  26.445  25.041  1.00  0.00    -0.269 OA
BRANCH  22  25
ATOM     25  C   UNL A   1      41.455  26.297  27.384  1.00  0.00     0.039 A 
ATOM     26  C   UNL A   1      42.519  27.077  27.837  1.00  0.00     0.014 A 
ATOM     27  C   UNL A   1      40.303  26.138  28.160  1.00  0.00     0.014 A 
ATOM     28  C   UNL A   1      42.390  27.775  29.038  1.00  0.00     0.010 A 
ATOM     29  C   UNL A   1      40.148  26.892  29.315  1.00  0.00     0.010 A 
ATOM     30  C   UNL A   1      41.184  27.730  29.758  1.00  0.00    -0.014 A 
BRANCH  30  31
ATOM     31  C   UNL A   1      40.965  28.582  30.954  1.00  0.00     0.031 A 
ATOM     32  C   UNL A   1      39.895  29.635  30.943  1.00  0.00     0.074 A 
ATOM     33  C   UNL A   1      41.792  28.462  32.012  1.00  0.00     0.049 A 
ATOM     34  N   UNL A   1      39.617  30.537  31.848  1.00  0.00    -0.248 NA
ATOM     35  C   UNL A   1      39.041  29.701  29.746  1.00  0.00     0.031 C 
ATOM     36  C   UNL A   1      42.900  27.509  32.118  1.00  0.00     0.029 A 
ATOM     37  N   UNL A   1      41.843  29.157  33.195  1.00  0.00    -0.354 N 
ATOM     38  C   UNL A   1      38.568  31.284  31.327  1.00  0.00     0.074 A 
ATOM     39  C   UNL A   1      38.293  30.764  30.006  1.00  0.00     0.031 C 
ATOM     40  C   UNL A   1      43.508  27.669  33.304  1.00  0.00     0.029 A 
ATOM     41  C   UNL A   1      42.868  28.765  34.024  1.00  0.00     0.049 A 
ATOM     42  H   UNL A   1      41.206  29.870  33.428  1.00  0.00     0.167 HD
ATOM     43  C   UNL A   1      37.885  32.299  31.908  1.00  0.00     0.037 A 
ATOM     44  C   UNL A   1      43.260  29.244  35.221  1.00  0.00     0.037 A 
ATOM     45  C   UNL A   1      38.156  32.797  33.231  1.00  0.00     0.049 A 
ATOM     46  C   UNL A   1      42.500  30.387  35.836  1.00  0.00     0.074 A 
ATOM     47  C   UNL A   1      37.476  33.773  33.937  1.00  0.00     0.029 A 
ATOM     48  N   UNL A   1      39.195  32.367  34.044  1.00  0.00    -0.354 N 
ATOM     49  N   UNL A   1      41.459  31.031  35.363  1.00  0.00    -0.248 NA
ATOM     50  C   UNL A   1      42.965  30.872  37.142  1.00  0.00     0.031 C 
ATOM     51  C   UNL A   1      38.136  33.973  35.153  1.00  0.00     0.029 A 
ATOM     52  C   UNL A   1      39.196  33.083  35.230  1.00  0.00     0.049 A 
ATOM     53  H   UNL A   1      39.837  31.658  33.812  1.00  0.00     0.167 HD
ATOM     54  C   UNL A   1      41.133  31.984  36.322  1.00  0.00     0.074 A 
ATOM     55  C   UNL A   1      42.078  31.821  37.408  1.00  0.00     0.031 C 
ATOM     56  C   UNL A   1      40.144  32.909  36.303  1.00  0.00     0.037 A 
BRANCH  43  57
ATOM     57  C   UNL A   1      36.778  32.940  31.116  1.00  0.00     0.058 A 
ATOM     58  C   UNL A   1      35.426  32.720  31.426  1.00  0.00     0.135 A 
ATOM     59  C   UNL A   1      37.071  33.815  30.059  1.00  0.00     0.135 A 
ATOM     60  F   UNL A   1      35.087  31.880  32.417  1.00  0.00    -0.206 F 
ATOM     61  C   UNL A   1      34.406  33.322  30.698  1.00  0.00     0.059 A 
ATOM     62  C   UNL A   1      36.067  34.452  29.335  1.00  0.00     0.059 A 
ATOM     63  F   UNL A   1      38.347  34.061  29.719  1.00  0.00    -0.206 F 
ATOM     64  C   UNL A   1      34.736  34.187  29.655  1.00  0.00     0.060 A 
BRANCH  64  65
ATOM     65  S   UNL A   1      33.399  34.964  28.724  1.00  0.00     0.124 S 
ATOM     66  O   UNL A   1      33.134  33.958  27.700  1.00  0.00    -0.237 OA
ATOM     67  O   UNL A   1      32.363  35.120  29.741  1.00  0.00    -0.237 OA
ATOM     68  O   UNL A   1      33.995  36.206  28.243  1.00  0.00    -0.744 OA
ENDBRANCH  64  65
ENDBRANCH  43  57
BRANCH  44  69
ATOM     69  C   UNL A   1      44.429  28.640  35.915  1.00  0.00     0.058 A 
ATOM     70  C   UNL A   1      44.267  27.566  36.803  1.00  0.00     0.135 A 
ATOM     71  C   UNL A   1      45.733  29.109  35.690  1.00  0.00     0.135 A 
ATOM     72  F   UNL A   1      43.040  27.087  37.058  1.00  0.00    -0.206 F 
ATOM     73  C   UNL A   1      45.352  26.985  37.451  1.00  0.00     0.059 A 
ATOM     74  C   UNL A   1      46.838  28.527  36.307  1.00  0.00     0.059 A 
ATOM     75  F   UNL A   1      45.946  30.124  34.838  1.00  0.00    -0.206 F 
ATOM     76  C   UNL A   1      46.635  27.470  37.192  1.00  0.00     0.060 A 
BRANCH  76  77
ATOM     77  S   UNL A   1      48.042  26.671  37.996  1.00  0.00     0.124 S 
ATOM     78  O   UNL A   1      49.067  26.775  36.965  1.00  0.00    -0.237 OA
ATOM     79  O   UNL A   1      48.234  27.507  39.176  1.00  0.00    -0.237 OA
ATOM     80  O   UNL A   1      47.552  25.323  38.267  1.00  0.00    -0.744 OA
ENDBRANCH  76  77
ENDBRANCH  44  69
BRANCH  56  81
ATOM     81  C   UNL A   1      40.014  33.815  37.497  1.00  0.00     0.058 A 
ATOM     82  C   UNL A   1      40.701  35.037  37.570  1.00  0.00     0.135 A 
ATOM     83  C   UNL A   1      39.133  33.494  38.543  1.00  0.00     0.135 A 
ATOM     84  F   UNL A   1      41.562  35.387  36.602  1.00  0.00    -0.206 F 
ATOM     85  C   UNL A   1      40.525  35.904  38.643  1.00  0.00     0.059 A 
ATOM     86  C   UNL A   1      38.921  34.359  39.611  1.00  0.00     0.059 A 
ATOM     87  F   UNL A   1      38.446  32.340  38.517  1.00  0.00    -0.206 F 
ATOM     88  C   UNL A   1      39.627  35.560  39.656  1.00  0.00     0.060 A 
BRANCH  88  89
ATOM     89  S   UNL A   1      39.366  36.725  41.010  1.00  0.00     0.124 S 
ATOM     90  O   UNL A   1      38.641  37.800  40.338  1.00  0.00    -0.237 OA
ATOM     91  O   UNL A   1      38.589  35.932  41.957  1.00  0.00    -0.237 OA
ATOM     92  O   UNL A   1      40.721  37.056  41.440  1.00  0.00    -0.744 OA
ENDBRANCH  88  89
ENDBRANCH  56  81
ENDBRANCH  30  31
ENDBRANCH  22  25
ENDBRANCH  20  21
ENDBRANCH  19  20
ENDBRANCH  18  19
ENDBRANCH   1  18
TORSDOF 20
ENDMDL
MODEL 3
REMARK VINA RESULT:      -9.6      6.306     11.173
REMARK SMILES C=C(C)C(=O)OCC[C@@H](C(C)=O)C(=O)NCCCCNC(=O)c1ccc(-c2c3nc(c(-c4c(F)cc(S(=O)(=O)[O-])cc4F)c4ccc([nH]4)c(-c4c(F)cc(S(=O)(=O)[O-])cc4F)c4nc(c(-c5c(F)cc(S(=O)(=O)[O-])cc5F)c5ccc2[nH]5)C=C4)C=C3)cc1
REMARK SMILES IDX 16 1 15 2 13 3 14 4 9 6 8 7 7 8 6 9 4 10 5 11 2 12 1 13 3 14
REMARK SMILES IDX 10 15 11 16 12 17 17 18 18 19 19 20 20 21 21 22 22 24 23 25
REMARK SMILES IDX 24 26 88 27 25 28 87 29 26 30 27 31 28 32 81 33 29 34 86 35
REMARK SMILES IDX 80 36 82 37 30 38 85 39 79 40 78 41 31 43 65 44 44 45 64 46
REMARK SMILES IDX 45 47 48 48 63 49 83 50 46 51 47 52 62 54 84 55 49 56 32 57
REMARK SMILES IDX 33 58 42 59 34 60 35 61 41 62 43 63 36 64 37 65 38 66 39 67
REMARK SMILES IDX 40 68 66 69 67 70 76 71 68 72 69 73 75 74 77 75 70 76 71 77
REMARK SMILES IDX 72 78 73 79 74 80 50 81 51 82 60 83 52 84 53 85 59 86 61 87
REMARK SMILES IDX 54 88 55 89 56 90 57 91 58 92
REMARK H PARENT 15 5 20 23 82 42 48 53
REMARK Flexibility Score: inf
ROOT
ATOM      1  C   UNL A   1      36.147  22.412  25.573  1.00  0.00     0.116 C 
ENDROOT
BRANCH   1   2
ATOM      2  N   UNL A   1      35.726  22.977  24.303  1.00  0.00    -0.355 N 
ATOM      3  C   UNL A   1      34.475  23.100  23.779  1.00  0.00     0.230 C 
ATOM      4  O   UNL A   1      34.350  23.642  22.680  1.00  0.00    -0.274 OA
ATOM      5  H   UNL A   1      36.454  23.322  23.736  1.00  0.00     0.163 HD
BRANCH   3   6
ATOM      6  C   UNL A   1      33.266  22.568  24.526  1.00  0.00     0.148 C 
BRANCH   6   7
ATOM      7  C   UNL A   1      33.486  21.069  24.818  1.00  0.00     0.063 C 
BRANCH   7   8
ATOM      8  C   UNL A   1      32.568  20.108  24.066  1.00  0.00     0.234 C 
BRANCH   8   9
ATOM      9  O   UNL A   1      33.179  18.820  23.924  1.00  0.00    -0.462 OA
BRANCH   9  10
ATOM     10  C   UNL A   1      32.824  17.883  24.834  1.00  0.00     0.333 C 
ATOM     11  O   UNL A   1      32.158  18.062  25.842  1.00  0.00    -0.247 OA
BRANCH  10  12
ATOM     12  C   UNL A   1      33.313  16.560  24.379  1.00  0.00     0.027 C 
ATOM     13  C   UNL A   1      32.884  15.479  25.049  1.00  0.00     0.020 C 
ATOM     14  C   UNL A   1      34.265  16.510  23.228  1.00  0.00     0.051 C 
ENDBRANCH  10  12
ENDBRANCH   9  10
ENDBRANCH   8   9
ENDBRANCH   7   8
ENDBRANCH   6   7
BRANCH   6  15
ATOM     15  C   UNL A   1      32.933  23.416  25.748  1.00  0.00     0.142 C 
ATOM     16  C   UNL A   1      32.294  24.768  25.524  1.00  0.00     0.088 C 
ATOM     17  O   UNL A   1      33.160  23.030  26.898  1.00  0.00    -0.299 OA
ENDBRANCH   6  15
ENDBRANCH   3   6
ENDBRANCH   1   2
BRANCH   1  18
ATOM     18  C   UNL A   1      37.011  21.174  25.382  1.00  0.00     0.023 C 
BRANCH  18  19
ATOM     19  C   UNL A   1      38.494  21.476  25.186  1.00  0.00     0.023 C 
BRANCH  19  20
ATOM     20  C   UNL A   1      39.375  21.138  26.382  1.00  0.00     0.116 C 
BRANCH  20  21
ATOM     21  N   UNL A   1      40.160  19.927  26.183  1.00  0.00    -0.352 N 
ATOM     22  C   UNL A   1      41.526  19.797  26.107  1.00  0.00     0.251 C 
ATOM     23  H   UNL A   1      39.644  19.093  26.091  1.00  0.00     0.163 HD
ATOM     24  O   UNL A   1      42.037  18.730  25.787  1.00  0.00    -0.269 OA
BRANCH  22  25
ATOM     25  C   UNL A   1      42.362  20.980  26.383  1.00  0.00     0.039 A 
ATOM     26  C   UNL A   1      42.775  21.781  25.318  1.00  0.00     0.014 A 
ATOM     27  C   UNL A   1      42.651  21.340  27.703  1.00  0.00     0.014 A 
ATOM     28  C   UNL A   1      43.406  22.997  25.583  1.00  0.00     0.010 A 
ATOM     29  C   UNL A   1      43.210  22.584  27.965  1.00  0.00     0.010 A 
ATOM     30  C   UNL A   1      43.580  23.430  26.908  1.00  0.00    -0.014 A 
BRANCH  30  31
ATOM     31  C   UNL A   1      44.106  24.784  27.215  1.00  0.00     0.031 A 
ATOM     32  C   UNL A   1      43.171  25.872  27.660  1.00  0.00     0.074 A 
ATOM     33  C   UNL A   1      45.411  25.051  27.006  1.00  0.00     0.049 A 
ATOM     34  N   UNL A   1      43.423  27.137  27.880  1.00  0.00    -0.248 NA
ATOM     35  C   UNL A   1      41.762  25.497  27.858  1.00  0.00     0.031 C 
ATOM     36  C   UNL A   1      46.405  24.087  26.527  1.00  0.00     0.029 A 
ATOM     37  N   UNL A   1      46.124  26.215  27.150  1.00  0.00    -0.354 N 
ATOM     38  C   UNL A   1      42.207  27.710  28.229  1.00  0.00     0.074 A 
ATOM     39  C   UNL A   1      41.208  26.667  28.143  1.00  0.00     0.031 C 
ATOM     40  C   UNL A   1      47.599  24.695  26.433  1.00  0.00     0.029 A 
ATOM     41  C   UNL A   1      47.448  26.100  26.799  1.00  0.00     0.049 A 
ATOM     42  H   UNL A   1      45.725  27.054  27.475  1.00  0.00     0.167 HD
ATOM     43  C   UNL A   1      41.953  28.985  28.607  1.00  0.00     0.037 A 
ATOM     44  C   UNL A   1      48.428  27.025  26.756  1.00  0.00     0.037 A 
ATOM     45  C   UNL A   1      42.958  30.010  28.707  1.00  0.00     0.049 A 
ATOM     46  C   UNL A   1      48.116  28.440  27.158  1.00  0.00     0.074 A 
ATOM     47  C   UNL A   1      42.815  31.313  29.148  1.00  0.00     0.029 A 
ATOM     48  N   UNL A   1      44.290  29.852  28.352  1.00  0.00    -0.354 N 
ATOM     49  N   UNL A   1      46.975  28.947  27.562  1.00  0.00    -0.248 NA
ATOM     50  C   UNL A   1      49.218  29.410  27.098  1.00  0.00     0.031 C 
ATOM     51  C   UNL A   1      44.046  31.960  29.007  1.00  0.00     0.029 A 
ATOM     52  C   UNL A   1      44.972  31.045  28.531  1.00  0.00     0.049 A 
ATOM     53  H   UNL A   1      44.692  29.017  28.023  1.00  0.00     0.167 HD
ATOM     54  C   UNL A   1      47.227  30.290  27.822  1.00  0.00     0.074 A 
ATOM     55  C   UNL A   1      48.631  30.512  27.545  1.00  0.00     0.031 C 
ATOM     56  C   UNL A   1      46.372  31.250  28.250  1.00  0.00     0.037 A 
BRANCH  43  57
ATOM     57  C   UNL A   1      40.531  29.345  28.940  1.00  0.00     0.058 A 
ATOM     58  C   UNL A   1      40.092  29.471  30.269  1.00  0.00     0.135 A 
ATOM     59  C   UNL A   1      39.603  29.605  27.920  1.00  0.00     0.135 A 
ATOM     60  F   UNL A   1      40.933  29.218  31.285  1.00  0.00    -0.206 F 
ATOM     61  C   UNL A   1      38.779  29.813  30.572  1.00  0.00     0.059 A 
ATOM     62  C   UNL A   1      38.291  29.978  28.200  1.00  0.00     0.059 A 
ATOM     63  F   UNL A   1      39.967  29.499  26.632  1.00  0.00    -0.206 F 
ATOM     64  C   UNL A   1      37.886  30.066  29.531  1.00  0.00     0.060 A 
BRANCH  64  65
ATOM     65  S   UNL A   1      36.187  30.514  29.944  1.00  0.00     0.124 S 
ATOM     66  O   UNL A   1      36.316  31.946  30.193  1.00  0.00    -0.237 OA
ATOM     67  O   UNL A   1      35.464  30.144  28.731  1.00  0.00    -0.237 OA
ATOM     68  O   UNL A   1      35.895  29.698  31.119  1.00  0.00    -0.744 OA
ENDBRANCH  64  65
ENDBRANCH  43  57
BRANCH  44  69
ATOM     69  C   UNL A   1      49.796  26.636  26.318  1.00  0.00     0.058 A 
ATOM     70  C   UNL A   1      50.746  26.173  27.240  1.00  0.00     0.135 A 
ATOM     71  C   UNL A   1      50.175  26.701  24.968  1.00  0.00     0.135 A 
ATOM     72  F   UNL A   1      50.435  26.100  28.544  1.00  0.00    -0.206 F 
ATOM     73  C   UNL A   1      52.025  25.797  26.844  1.00  0.00     0.059 A 
ATOM     74  C   UNL A   1      51.441  26.306  24.543  1.00  0.00     0.059 A 
ATOM     75  F   UNL A   1      49.300  27.122  24.042  1.00  0.00    -0.206 F 
ATOM     76  C   UNL A   1      52.361  25.863  25.491  1.00  0.00     0.060 A 
BRANCH  76  77
ATOM     77  S   UNL A   1      54.007  25.319  24.980  1.00  0.00     0.124 S 
ATOM     78  O   UNL A   1      53.855  23.869  24.997  1.00  0.00    -0.237 OA
ATOM     79  O   UNL A   1      54.136  25.934  23.663  1.00  0.00    -0.237 OA
ATOM     80  O   UNL A   1      54.879  25.874  26.011  1.00  0.00    -0.744 OA
ENDBRANCH  76  77
ENDBRANCH  44  69
BRANCH  56  81
ATOM     81  C   UNL A   1      46.927  32.633  28.461  1.00  0.00     0.058 A 
ATOM     82  C   UNL A   1      46.896  33.600  27.445  1.00  0.00     0.135 A 
ATOM     83  C   UNL A   1      47.422  33.017  29.718  1.00  0.00     0.135 A 
ATOM     84  F   UNL A   1      46.441  33.281  26.223  1.00  0.00    -0.206 F 
ATOM     85  C   UNL A   1      47.346  34.897  27.665  1.00  0.00     0.059 A 
ATOM     86  C   UNL A   1      47.851  34.316  29.968  1.00  0.00     0.059 A 
ATOM     87  F   UNL A   1      47.466  32.132  30.727  1.00  0.00    -0.206 F 
ATOM     88  C   UNL A   1      47.815  35.249  28.932  1.00  0.00     0.060 A 
BRANCH  88  89
ATOM     89  S   UNL A   1      48.338  36.953  29.217  1.00  0.00     0.124 S 
ATOM     90  O   UNL A   1      47.934  37.157  30.605  1.00  0.00    -0.237 OA
ATOM     91  O   UNL A   1      49.776  36.882  28.979  1.00  0.00    -0.237 OA
ATOM     92  O   UNL A   1      47.580  37.711  28.226  1.00  0.00    -0.744 OA
ENDBRANCH  88  89
ENDBRANCH  56  81
ENDBRANCH  30  31
ENDBRANCH  22  25
ENDBRANCH  20  21
ENDBRANCH  19  20
ENDBRANCH  18  19
ENDBRANCH   1  18
TORSDOF 20
ENDMDL
