MODEL 1
REMARK VINA RESULT:     -11.6      0.000      0.000
REMARK SMILES O=C(NCCCCNC(=O)[C@@H]1CCC[C@@H](C(=O)N2CCN3C(=O)NC[C@@H]3C2)C1)c1ccc(-c2c3nc(c(-c4c(F)cc(S(=O)(=O)[O-])cc4F)c4ccc([nH]4)c(-c4c(F)cc(S(=O)(=O)[O-])cc4F)c4nc(c(-c5c(F)cc(S(=O)(=O)[O-])cc5F)c5ccc2[nH]5)C=C4)C=C3)cc1
REMARK SMILES IDX 5 1 4 2 3 3 1 4 2 5 29 7 30 8 94 9 31 10 93 11 32 12 33 13
REMARK SMILES IDX 34 14 87 15 35 16 92 17 86 18 88 19 36 20 91 21 85 22 84 23
REMARK SMILES IDX 37 25 71 26 50 27 70 28 51 29 54 30 69 31 89 32 52 33 53 34
REMARK SMILES IDX 68 36 90 37 55 38 38 39 39 40 48 41 40 42 41 43 47 44 49 45
REMARK SMILES IDX 42 46 43 47 44 48 45 49 46 50 72 51 73 52 82 53 74 54 75 55
REMARK SMILES IDX 81 56 83 57 76 58 77 59 78 60 79 61 80 62 56 63 57 64 66 65
REMARK SMILES IDX 58 66 59 67 65 68 67 69 60 70 61 71 62 72 63 73 64 74 6 75
REMARK SMILES IDX 7 76 8 77 9 78 10 80 11 81 12 82 28 83 13 84 15 85 14 86
REMARK SMILES IDX 16 87 17 88 18 89 19 90 27 91 20 92 26 93 21 94 25 95 22 96
REMARK SMILES IDX 24 97 23 98
REMARK H PARENT 3 6 88 24 54 35 8 79 24 99
REMARK Flexibility Score: inf
ROOT
ATOM      1  C   UNL A   1      33.744  28.111  25.671  1.00  0.00     0.023 C 
ENDROOT
BRANCH   1   2
ATOM      2  C   UNL A   1      33.705  28.262  27.176  1.00  0.00     0.116 C 
BRANCH   2   3
ATOM      3  N   UNL A   1      33.516  29.638  27.615  1.00  0.00    -0.352 N 
ATOM      4  O   UNL A   1      34.127  31.570  28.627  1.00  0.00    -0.269 OA
ATOM      5  C   UNL A   1      34.447  30.468  28.199  1.00  0.00     0.251 C 
ATOM      6  H   UNL A   1      32.618  30.019  27.480  1.00  0.00     0.163 HD
BRANCH   5   7
ATOM      7  C   UNL A   1      35.829  29.967  28.327  1.00  0.00     0.039 A 
ATOM      8  C   UNL A   1      36.274  29.493  29.563  1.00  0.00     0.014 A 
ATOM      9  C   UNL A   1      36.706  30.093  27.250  1.00  0.00     0.014 A 
ATOM     10  C   UNL A   1      37.632  29.325  29.776  1.00  0.00     0.010 A 
ATOM     11  C   UNL A   1      38.059  29.800  27.437  1.00  0.00     0.010 A 
ATOM     12  C   UNL A   1      38.537  29.454  28.710  1.00  0.00    -0.014 A 
BRANCH  12  13
ATOM     13  C   UNL A   1      39.972  29.154  28.946  1.00  0.00     0.031 A 
ATOM     14  C   UNL A   1      40.897  30.173  29.550  1.00  0.00     0.074 A 
ATOM     15  C   UNL A   1      40.424  27.928  28.621  1.00  0.00     0.049 A 
ATOM     16  N   UNL A   1      42.175  30.067  29.814  1.00  0.00    -0.248 NA
ATOM     17  C   UNL A   1      40.323  31.484  29.890  1.00  0.00     0.031 C 
ATOM     18  C   UNL A   1      39.611  26.860  28.029  1.00  0.00     0.029 A 
ATOM     19  N   UNL A   1      41.663  27.362  28.754  1.00  0.00    -0.354 N 
ATOM     20  C   UNL A   1      42.565  31.300  30.325  1.00  0.00     0.074 A 
ATOM     21  C   UNL A   1      41.392  32.149  30.307  1.00  0.00     0.031 C 
ATOM     22  C   UNL A   1      40.357  25.755  27.905  1.00  0.00     0.029 A 
ATOM     23  C   UNL A   1      41.718  26.058  28.325  1.00  0.00     0.049 A 
ATOM     24  H   UNL A   1      42.440  27.843  29.122  1.00  0.00     0.167 HD
ATOM     25  C   UNL A   1      43.787  31.683  30.768  1.00  0.00     0.037 A 
ATOM     26  C   UNL A   1      42.753  25.202  28.253  1.00  0.00     0.037 A 
ATOM     27  C   UNL A   1      44.943  30.820  30.780  1.00  0.00     0.049 A 
ATOM     28  C   UNL A   1      44.104  25.664  28.710  1.00  0.00     0.074 A 
ATOM     29  C   UNL A   1      46.220  31.096  31.238  1.00  0.00     0.029 A 
ATOM     30  N   UNL A   1      44.969  29.516  30.299  1.00  0.00    -0.354 N 
ATOM     31  N   UNL A   1      44.450  26.824  29.215  1.00  0.00    -0.248 NA
ATOM     32  C   UNL A   1      45.204  24.702  28.589  1.00  0.00     0.031 C 
ATOM     33  C   UNL A   1      47.030  29.985  30.976  1.00  0.00     0.029 A 
ATOM     34  C   UNL A   1      46.245  28.987  30.421  1.00  0.00     0.049 A 
ATOM     35  H   UNL A   1      44.194  29.037  29.926  1.00  0.00     0.167 HD
ATOM     36  C   UNL A   1      45.805  26.722  29.501  1.00  0.00     0.074 A 
ATOM     37  C   UNL A   1      46.211  25.383  29.119  1.00  0.00     0.031 C 
ATOM     38  C   UNL A   1      46.636  27.651  30.038  1.00  0.00     0.037 A 
BRANCH  25  39
ATOM     39  C   UNL A   1      43.949  33.108  31.234  1.00  0.00     0.058 A 
ATOM     40  C   UNL A   1      43.878  33.464  32.591  1.00  0.00     0.135 A 
ATOM     41  C   UNL A   1      44.190  34.135  30.306  1.00  0.00     0.135 A 
ATOM     42  F   UNL A   1      43.641  32.529  33.525  1.00  0.00    -0.206 F 
ATOM     43  C   UNL A   1      43.991  34.790  33.004  1.00  0.00     0.059 A 
ATOM     44  C   UNL A   1      44.340  35.462  30.700  1.00  0.00     0.059 A 
ATOM     45  F   UNL A   1      44.275  33.856  28.995  1.00  0.00    -0.206 F 
ATOM     46  C   UNL A   1      44.215  35.782  32.050  1.00  0.00     0.060 A 
BRANCH  46  47
ATOM     47  S   UNL A   1      44.320  37.500  32.597  1.00  0.00     0.124 S 
ATOM     48  O   UNL A   1      43.181  37.584  33.507  1.00  0.00    -0.237 OA
ATOM     49  O   UNL A   1      45.636  37.547  33.226  1.00  0.00    -0.237 OA
ATOM     50  O   UNL A   1      44.191  38.261  31.359  1.00  0.00    -0.744 OA
ENDBRANCH  46  47
ENDBRANCH  25  39
BRANCH  26  51
ATOM     51  C   UNL A   1      42.530  23.828  27.735  1.00  0.00     0.058 A 
ATOM     52  C   UNL A   1      42.528  23.572  26.357  1.00  0.00     0.135 A 
ATOM     53  C   UNL A   1      42.375  22.736  28.605  1.00  0.00     0.135 A 
ATOM     54  F   UNL A   1      42.673  24.583  25.487  1.00  0.00    -0.206 F 
ATOM     55  C   UNL A   1      42.376  22.283  25.858  1.00  0.00     0.059 A 
ATOM     56  C   UNL A   1      42.251  21.436  28.131  1.00  0.00     0.059 A 
ATOM     57  F   UNL A   1      42.392  22.927  29.934  1.00  0.00    -0.206 F 
ATOM     58  C   UNL A   1      42.246  21.220  26.754  1.00  0.00     0.060 A 
BRANCH  58  59
ATOM     59  S   UNL A   1      42.119  19.546  26.093  1.00  0.00     0.124 S 
ATOM     60  O   UNL A   1      43.039  19.606  24.963  1.00  0.00    -0.237 OA
ATOM     61  O   UNL A   1      42.553  18.737  27.228  1.00  0.00    -0.237 OA
ATOM     62  O   UNL A   1      40.705  19.426  25.750  1.00  0.00    -0.744 OA
ENDBRANCH  58  59
ENDBRANCH  26  51
BRANCH  38  63
ATOM     63  C   UNL A   1      48.059  27.234  30.292  1.00  0.00     0.058 A 
ATOM     64  C   UNL A   1      49.106  27.579  29.421  1.00  0.00     0.135 A 
ATOM     65  C   UNL A   1      48.383  26.504  31.448  1.00  0.00     0.135 A 
ATOM     66  F   UNL A   1      48.851  28.266  28.296  1.00  0.00    -0.206 F 
ATOM     67  C   UNL A   1      50.417  27.188  29.672  1.00  0.00     0.059 A 
ATOM     68  C   UNL A   1      49.692  26.133  31.736  1.00  0.00     0.059 A 
ATOM     69  F   UNL A   1      47.423  26.155  32.318  1.00  0.00    -0.206 F 
ATOM     70  C   UNL A   1      50.701  26.468  30.833  1.00  0.00     0.060 A 
BRANCH  70  71
ATOM     71  S   UNL A   1      52.411  25.992  31.161  1.00  0.00     0.124 S 
ATOM     72  O   UNL A   1      52.237  24.696  31.808  1.00  0.00    -0.237 OA
ATOM     73  O   UNL A   1      52.987  25.959  29.820  1.00  0.00    -0.237 OA
ATOM     74  O   UNL A   1      52.902  27.063  32.022  1.00  0.00    -0.744 OA
ENDBRANCH  70  71
ENDBRANCH  38  63
ENDBRANCH  12  13
ENDBRANCH   5   7
ENDBRANCH   2   3
ENDBRANCH   1   2
BRANCH   1  75
ATOM     75  C   UNL A   1      33.077  29.246  24.915  1.00  0.00     0.023 C 
BRANCH  75  76
ATOM     76  C   UNL A   1      32.507  28.866  23.545  1.00  0.00     0.116 C 
BRANCH  76  77
ATOM     77  N   UNL A   1      31.082  28.629  23.616  1.00  0.00    -0.356 N 
ATOM     78  C   UNL A   1      30.414  27.446  23.741  1.00  0.00     0.223 C 
ATOM     79  H   UNL A   1      30.515  29.433  23.568  1.00  0.00     0.163 HD
ATOM     80  O   UNL A   1      29.183  27.484  23.742  1.00  0.00    -0.275 OA
BRANCH  78  81
ATOM     81  C   UNL A   1      31.200  26.135  23.908  1.00  0.00     0.079 C 
ATOM     82  C   UNL A   1      31.555  25.506  22.558  1.00  0.00     0.013 C 
ATOM     83  C   UNL A   1      30.368  25.144  24.726  1.00  0.00     0.027 C 
ATOM     84  C   UNL A   1      32.207  24.140  22.623  1.00  0.00     0.002 C 
ATOM     85  C   UNL A   1      31.044  23.784  24.901  1.00  0.00     0.079 C 
ATOM     86  C   UNL A   1      31.550  23.175  23.594  1.00  0.00     0.013 C 
BRANCH  85  87
ATOM     87  C   UNL A   1      31.884  23.690  26.186  1.00  0.00     0.225 C 
ATOM     88  O   UNL A   1      31.405  24.138  27.236  1.00  0.00    -0.275 OA
BRANCH  87  89
ATOM     89  N   UNL A   1      33.075  23.002  26.226  1.00  0.00    -0.339 N 
ATOM     90  C   UNL A   1      33.249  21.566  26.490  1.00  0.00     0.141 C 
ATOM     91  C   UNL A   1      34.304  23.772  26.000  1.00  0.00     0.146 C 
ATOM     92  C   UNL A   1      34.339  20.858  25.651  1.00  0.00     0.143 C 
ATOM     93  C   UNL A   1      35.191  23.111  24.960  1.00  0.00     0.125 C 
ATOM     94  N   UNL A   1      35.441  21.728  25.313  1.00  0.00    -0.317 N 
ATOM     95  C   UNL A   1      36.597  23.689  24.856  1.00  0.00     0.144 C 
ATOM     96  C   UNL A   1      36.734  21.357  24.989  1.00  0.00     0.317 C 
ATOM     97  N   UNL A   1      37.414  22.520  24.645  1.00  0.00    -0.336 N 
ATOM     98  O   UNL A   1      37.211  20.242  24.998  1.00  0.00    -0.249 OA
ATOM     99  H   UNL A   1      38.336  22.542  24.300  1.00  0.00     0.165 HD
ENDBRANCH  87  89
ENDBRANCH  85  87
ENDBRANCH  78  81
ENDBRANCH  76  77
ENDBRANCH  75  76
ENDBRANCH   1  75
TORSDOF 16
ENDMDL
MODEL 2
REMARK VINA RESULT:     -11.6      4.799     10.464
REMARK SMILES O=C(NCCCCNC(=O)[C@@H]1CCC[C@@H](C(=O)N2CCN3C(=O)NC[C@@H]3C2)C1)c1ccc(-c2c3nc(c(-c4c(F)cc(S(=O)(=O)[O-])cc4F)c4ccc([nH]4)c(-c4c(F)cc(S(=O)(=O)[O-])cc4F)c4nc(c(-c5c(F)cc(S(=O)(=O)[O-])cc5F)c5ccc2[nH]5)C=C4)C=C3)cc1
REMARK SMILES IDX 5 1 4 2 3 3 1 4 2 5 29 7 30 8 94 9 31 10 93 11 32 12 33 13
REMARK SMILES IDX 34 14 87 15 35 16 92 17 86 18 88 19 36 20 91 21 85 22 84 23
REMARK SMILES IDX 37 25 71 26 50 27 70 28 51 29 54 30 69 31 89 32 52 33 53 34
REMARK SMILES IDX 68 36 90 37 55 38 38 39 39 40 48 41 40 42 41 43 47 44 49 45
REMARK SMILES IDX 42 46 43 47 44 48 45 49 46 50 72 51 73 52 82 53 74 54 75 55
REMARK SMILES IDX 81 56 83 57 76 58 77 59 78 60 79 61 80 62 56 63 57 64 66 65
REMARK SMILES IDX 58 66 59 67 65 68 67 69 60 70 61 71 62 72 63 73 64 74 6 75
REMARK SMILES IDX 7 76 8 77 9 78 10 80 11 81 12 82 28 83 13 84 15 85 14 86
REMARK SMILES IDX 16 87 17 88 18 89 19 90 27 91 20 92 26 93 21 94 25 95 22 96
REMARK SMILES IDX 24 97 23 98
REMARK H PARENT 3 6 88 24 54 35 8 79 24 99
REMARK Flexibility Score: inf
ROOT
ATOM      1  C   UNL A   1      37.627  23.116  25.835  1.00  0.00     0.023 C 
ENDROOT
BRANCH   1   2
ATOM      2  C   UNL A   1      38.521  24.141  26.498  1.00  0.00     0.116 C 
BRANCH   2   3
ATOM      3  N   UNL A   1      39.921  24.024  26.112  1.00  0.00    -0.352 N 
ATOM      4  O   UNL A   1      42.085  24.687  26.018  1.00  0.00    -0.269 OA
ATOM      5  C   UNL A   1      40.970  24.823  26.508  1.00  0.00     0.251 C 
ATOM      6  H   UNL A   1      40.144  23.288  25.497  1.00  0.00     0.163 HD
BRANCH   5   7
ATOM      7  C   UNL A   1      40.695  25.875  27.505  1.00  0.00     0.039 A 
ATOM      8  C   UNL A   1      41.483  27.027  27.522  1.00  0.00     0.014 A 
ATOM      9  C   UNL A   1      39.739  25.645  28.495  1.00  0.00     0.014 A 
ATOM     10  C   UNL A   1      41.446  27.857  28.630  1.00  0.00     0.010 A 
ATOM     11  C   UNL A   1      39.620  26.555  29.548  1.00  0.00     0.010 A 
ATOM     12  C   UNL A   1      40.499  27.645  29.644  1.00  0.00    -0.014 A 
BRANCH  12  13
ATOM     13  C   UNL A   1      40.410  28.619  30.760  1.00  0.00     0.031 A 
ATOM     14  C   UNL A   1      41.344  28.552  31.936  1.00  0.00     0.074 A 
ATOM     15  C   UNL A   1      39.476  29.585  30.684  1.00  0.00     0.049 A 
ATOM     16  N   UNL A   1      41.392  29.326  32.991  1.00  0.00    -0.248 NA
ATOM     17  C   UNL A   1      42.346  27.475  31.938  1.00  0.00     0.031 C 
ATOM     18  C   UNL A   1      38.517  29.744  29.586  1.00  0.00     0.029 A 
ATOM     19  N   UNL A   1      39.186  30.625  31.526  1.00  0.00    -0.354 N 
ATOM     20  C   UNL A   1      42.405  28.815  33.795  1.00  0.00     0.074 A 
ATOM     21  C   UNL A   1      42.929  27.648  33.116  1.00  0.00     0.031 C 
ATOM     22  C   UNL A   1      37.786  30.847  29.793  1.00  0.00     0.029 A 
ATOM     23  C   UNL A   1      38.162  31.424  31.076  1.00  0.00     0.049 A 
ATOM     24  H   UNL A   1      39.664  30.784  32.372  1.00  0.00     0.167 HD
ATOM     25  C   UNL A   1      42.855  29.282  34.986  1.00  0.00     0.037 A 
ATOM     26  C   UNL A   1      37.572  32.492  31.642  1.00  0.00     0.037 A 
ATOM     27  C   UNL A   1      42.321  30.450  35.644  1.00  0.00     0.049 A 
ATOM     28  C   UNL A   1      38.061  32.963  32.978  1.00  0.00     0.074 A 
ATOM     29  C   UNL A   1      42.726  31.028  36.835  1.00  0.00     0.029 A 
ATOM     30  N   UNL A   1      41.257  31.211  35.176  1.00  0.00    -0.354 N 
ATOM     31  N   UNL A   1      39.037  32.486  33.713  1.00  0.00    -0.248 NA
ATOM     32  C   UNL A   1      37.368  34.116  33.564  1.00  0.00     0.031 C 
ATOM     33  C   UNL A   1      41.867  32.097  37.118  1.00  0.00     0.029 A 
ATOM     34  C   UNL A   1      40.972  32.233  36.069  1.00  0.00     0.049 A 
ATOM     35  H   UNL A   1      40.775  31.048  34.333  1.00  0.00     0.167 HD
ATOM     36  C   UNL A   1      39.098  33.301  34.836  1.00  0.00     0.074 A 
ATOM     37  C   UNL A   1      38.063  34.304  34.677  1.00  0.00     0.031 C 
ATOM     38  C   UNL A   1      39.939  33.228  35.899  1.00  0.00     0.037 A 
BRANCH  25  39
ATOM     39  C   UNL A   1      43.949  28.505  35.675  1.00  0.00     0.058 A 
ATOM     40  C   UNL A   1      43.674  27.473  36.586  1.00  0.00     0.135 A 
ATOM     41  C   UNL A   1      45.298  28.794  35.408  1.00  0.00     0.135 A 
ATOM     42  F   UNL A   1      42.405  27.156  36.888  1.00  0.00    -0.206 F 
ATOM     43  C   UNL A   1      44.695  26.789  37.244  1.00  0.00     0.059 A 
ATOM     44  C   UNL A   1      46.335  28.100  36.029  1.00  0.00     0.059 A 
ATOM     45  F   UNL A   1      45.624  29.765  34.542  1.00  0.00    -0.206 F 
ATOM     46  C   UNL A   1      46.021  27.115  36.963  1.00  0.00     0.060 A 
BRANCH  46  47
ATOM     47  S   UNL A   1      47.332  26.247  37.853  1.00  0.00     0.124 S 
ATOM     48  O   UNL A   1      47.017  26.588  39.237  1.00  0.00    -0.237 OA
ATOM     49  O   UNL A   1      47.097  24.858  37.474  1.00  0.00    -0.237 OA
ATOM     50  O   UNL A   1      48.555  26.842  37.324  1.00  0.00    -0.744 OA
ENDBRANCH  46  47
ENDBRANCH  25  39
BRANCH  26  51
ATOM     51  C   UNL A   1      36.466  33.178  30.927  1.00  0.00     0.058 A 
ATOM     52  C   UNL A   1      35.163  33.171  31.445  1.00  0.00     0.135 A 
ATOM     53  C   UNL A   1      36.699  33.905  29.747  1.00  0.00     0.135 A 
ATOM     54  F   UNL A   1      34.892  32.491  32.569  1.00  0.00    -0.206 F 
ATOM     55  C   UNL A   1      34.128  33.854  30.817  1.00  0.00     0.059 A 
ATOM     56  C   UNL A   1      35.687  34.621  29.119  1.00  0.00     0.059 A 
ATOM     57  F   UNL A   1      37.934  33.961  29.224  1.00  0.00    -0.206 F 
ATOM     58  C   UNL A   1      34.402  34.584  29.658  1.00  0.00     0.060 A 
BRANCH  58  59
ATOM     59  S   UNL A   1      33.064  35.523  28.894  1.00  0.00     0.124 S 
ATOM     60  O   UNL A   1      32.455  34.517  28.032  1.00  0.00    -0.237 OA
ATOM     61  O   UNL A   1      32.278  35.931  30.054  1.00  0.00    -0.237 OA
ATOM     62  O   UNL A   1      33.762  36.605  28.206  1.00  0.00    -0.744 OA
ENDBRANCH  58  59
ENDBRANCH  26  51
BRANCH  38  63
ATOM     63  C   UNL A   1      39.808  34.294  36.951  1.00  0.00     0.058 A 
ATOM     64  C   UNL A   1      40.468  35.529  36.850  1.00  0.00     0.135 A 
ATOM     65  C   UNL A   1      38.979  34.086  38.066  1.00  0.00     0.135 A 
ATOM     66  F   UNL A   1      41.283  35.778  35.811  1.00  0.00    -0.206 F 
ATOM     67  C   UNL A   1      40.335  36.508  37.830  1.00  0.00     0.059 A 
ATOM     68  C   UNL A   1      38.803  35.063  39.040  1.00  0.00     0.059 A 
ATOM     69  F   UNL A   1      38.317  32.927  38.209  1.00  0.00    -0.206 F 
ATOM     70  C   UNL A   1      39.498  36.265  38.921  1.00  0.00     0.060 A 
BRANCH  70  71
ATOM     71  S   UNL A   1      39.311  37.553  40.171  1.00  0.00     0.124 S 
ATOM     72  O   UNL A   1      38.252  38.373  39.593  1.00  0.00    -0.237 OA
ATOM     73  O   UNL A   1      38.945  36.786  41.357  1.00  0.00    -0.237 OA
ATOM     74  O   UNL A   1      40.631  38.176  40.217  1.00  0.00    -0.744 OA
ENDBRANCH  70  71
ENDBRANCH  38  63
ENDBRANCH  12  13
ENDBRANCH   5   7
ENDBRANCH   2   3
ENDBRANCH   1   2
BRANCH   1  75
ATOM     75  C   UNL A   1      36.379  23.699  25.197  1.00  0.00     0.023 C 
BRANCH  75  76
ATOM     76  C   UNL A   1      35.946  23.032  23.888  1.00  0.00     0.116 C 
BRANCH  76  77
ATOM     77  N   UNL A   1      34.978  21.984  24.127  1.00  0.00    -0.356 N 
ATOM     78  C   UNL A   1      33.636  22.088  24.350  1.00  0.00     0.223 C 
ATOM     79  H   UNL A   1      35.338  21.067  24.129  1.00  0.00     0.163 HD
ATOM     80  O   UNL A   1      33.012  21.050  24.570  1.00  0.00    -0.275 OA
BRANCH  78  81
ATOM     81  C   UNL A   1      32.953  23.465  24.286  1.00  0.00     0.079 C 
ATOM     82  C   UNL A   1      31.653  23.494  25.094  1.00  0.00     0.013 C 
ATOM     83  C   UNL A   1      32.652  23.817  22.828  1.00  0.00     0.027 C 
ATOM     84  C   UNL A   1      30.837  24.766  24.976  1.00  0.00     0.002 C 
ATOM     85  C   UNL A   1      31.920  25.148  22.663  1.00  0.00     0.079 C 
ATOM     86  C   UNL A   1      30.689  25.290  23.558  1.00  0.00     0.013 C 
BRANCH  85  87
ATOM     87  C   UNL A   1      32.873  26.337  22.448  1.00  0.00     0.225 C 
ATOM     88  O   UNL A   1      33.628  26.315  21.467  1.00  0.00    -0.275 OA
BRANCH  87  89
ATOM     89  N   UNL A   1      32.806  27.471  23.224  1.00  0.00    -0.339 N 
ATOM     90  C   UNL A   1      31.984  28.662  22.966  1.00  0.00     0.141 C 
ATOM     91  C   UNL A   1      33.648  27.513  24.426  1.00  0.00     0.146 C 
ATOM     92  C   UNL A   1      31.341  29.317  24.212  1.00  0.00     0.143 C 
ATOM     93  C   UNL A   1      32.849  27.924  25.650  1.00  0.00     0.125 C 
ATOM     94  N   UNL A   1      32.145  29.166  25.402  1.00  0.00    -0.317 N 
ATOM     95  C   UNL A   1      33.686  28.254  26.880  1.00  0.00     0.144 C 
ATOM     96  C   UNL A   1      32.124  29.961  26.535  1.00  0.00     0.317 C 
ATOM     97  N   UNL A   1      32.992  29.380  27.452  1.00  0.00    -0.336 N 
ATOM     98  O   UNL A   1      31.485  30.976  26.718  1.00  0.00    -0.249 OA
ATOM     99  H   UNL A   1      33.116  29.699  28.376  1.00  0.00     0.165 HD
ENDBRANCH  87  89
ENDBRANCH  85  87
ENDBRANCH  78  81
ENDBRANCH  76  77
ENDBRANCH  75  76
ENDBRANCH   1  75
TORSDOF 16
ENDMDL
MODEL 3
REMARK VINA RESULT:     -11.5      0.893      8.229
REMARK SMILES O=C(NCCCCNC(=O)[C@@H]1CCC[C@@H](C(=O)N2CCN3C(=O)NC[C@@H]3C2)C1)c1ccc(-c2c3nc(c(-c4c(F)cc(S(=O)(=O)[O-])cc4F)c4ccc([nH]4)c(-c4c(F)cc(S(=O)(=O)[O-])cc4F)c4nc(c(-c5c(F)cc(S(=O)(=O)[O-])cc5F)c5ccc2[nH]5)C=C4)C=C3)cc1
REMARK SMILES IDX 5 1 4 2 3 3 1 4 2 5 29 7 30 8 94 9 31 10 93 11 32 12 33 13
REMARK SMILES IDX 34 14 87 15 35 16 92 17 86 18 88 19 36 20 91 21 85 22 84 23
REMARK SMILES IDX 37 25 71 26 50 27 70 28 51 29 54 30 69 31 89 32 52 33 53 34
REMARK SMILES IDX 68 36 90 37 55 38 38 39 39 40 48 41 40 42 41 43 47 44 49 45
REMARK SMILES IDX 42 46 43 47 44 48 45 49 46 50 72 51 73 52 82 53 74 54 75 55
REMARK SMILES IDX 81 56 83 57 76 58 77 59 78 60 79 61 80 62 56 63 57 64 66 65
REMARK SMILES IDX 58 66 59 67 65 68 67 69 60 70 61 71 62 72 63 73 64 74 6 75
REMARK SMILES IDX 7 76 8 77 9 78 10 80 11 81 12 82 28 83 13 84 15 85 14 86
REMARK SMILES IDX 16 87 17 88 18 89 19 90 27 91 20 92 26 93 21 94 25 95 22 96
REMARK SMILES IDX 24 97 23 98
REMARK H PARENT 3 6 88 24 54 35 8 79 24 99
REMARK Flexibility Score: inf
ROOT
ATOM      1  C   UNL A   1      33.618  28.260  25.578  1.00  0.00     0.023 C 
ENDROOT
BRANCH   1   2
ATOM      2  C   UNL A   1      34.202  28.355  26.970  1.00  0.00     0.116 C 
BRANCH   2   3
ATOM      3  N   UNL A   1      34.010  29.660  27.590  1.00  0.00    -0.352 N 
ATOM      4  O   UNL A   1      34.607  31.429  28.874  1.00  0.00    -0.269 OA
ATOM      5  C   UNL A   1      34.931  30.393  28.305  1.00  0.00     0.251 C 
ATOM      6  H   UNL A   1      33.118  30.065  27.487  1.00  0.00     0.163 HD
BRANCH   5   7
ATOM      7  C   UNL A   1      36.306  29.866  28.397  1.00  0.00     0.039 A 
ATOM      8  C   UNL A   1      36.756  29.334  29.607  1.00  0.00     0.014 A 
ATOM      9  C   UNL A   1      37.174  30.025  27.317  1.00  0.00     0.014 A 
ATOM     10  C   UNL A   1      38.113  29.136  29.798  1.00  0.00     0.010 A 
ATOM     11  C   UNL A   1      38.524  29.704  27.477  1.00  0.00     0.010 A 
ATOM     12  C   UNL A   1      39.010  29.296  28.729  1.00  0.00    -0.014 A 
BRANCH  12  13
ATOM     13  C   UNL A   1      40.442  28.965  28.936  1.00  0.00     0.031 A 
ATOM     14  C   UNL A   1      41.002  27.626  28.545  1.00  0.00     0.074 A 
ATOM     15  C   UNL A   1      41.239  29.910  29.471  1.00  0.00     0.049 A 
ATOM     16  N   UNL A   1      42.228  27.183  28.665  1.00  0.00    -0.248 NA
ATOM     17  C   UNL A   1      40.070  26.654  27.955  1.00  0.00     0.031 C 
ATOM     18  C   UNL A   1      40.798  31.246  29.887  1.00  0.00     0.029 A 
ATOM     19  N   UNL A   1      42.581  29.907  29.741  1.00  0.00    -0.354 N 
ATOM     20  C   UNL A   1      42.211  25.875  28.194  1.00  0.00     0.074 A 
ATOM     21  C   UNL A   1      40.845  25.588  27.810  1.00  0.00     0.031 C 
ATOM     22  C   UNL A   1      41.858  31.950  30.303  1.00  0.00     0.029 A 
ATOM     23  C   UNL A   1      43.035  31.093  30.267  1.00  0.00     0.049 A 
ATOM     24  H   UNL A   1      43.164  29.131  29.574  1.00  0.00     0.167 HD
ATOM     25  C   UNL A   1      43.241  25.000  28.090  1.00  0.00     0.037 A 
ATOM     26  C   UNL A   1      44.259  31.448  30.698  1.00  0.00     0.037 A 
ATOM     27  C   UNL A   1      44.597  25.309  28.476  1.00  0.00     0.049 A 
ATOM     28  C   UNL A   1      45.372  30.448  30.610  1.00  0.00     0.074 A 
ATOM     29  C   UNL A   1      45.723  24.508  28.381  1.00  0.00     0.029 A 
ATOM     30  N   UNL A   1      45.011  26.507  29.043  1.00  0.00    -0.354 N 
ATOM     31  N   UNL A   1      45.345  29.225  30.138  1.00  0.00    -0.248 NA
ATOM     32  C   UNL A   1      46.681  30.875  31.115  1.00  0.00     0.031 C 
ATOM     33  C   UNL A   1      46.801  25.197  28.948  1.00  0.00     0.029 A 
ATOM     34  C   UNL A   1      46.367  26.456  29.331  1.00  0.00     0.049 A 
ATOM     35  H   UNL A   1      44.428  27.281  29.215  1.00  0.00     0.167 HD
ATOM     36  C   UNL A   1      46.643  28.744  30.259  1.00  0.00     0.074 A 
ATOM     37  C   UNL A   1      47.429  29.814  30.843  1.00  0.00     0.031 C 
ATOM     38  C   UNL A   1      47.139  27.530  29.912  1.00  0.00     0.037 A 
BRANCH  25  39
ATOM     39  C   UNL A   1      42.936  23.615  27.581  1.00  0.00     0.058 A 
ATOM     40  C   UNL A   1      42.457  22.596  28.421  1.00  0.00     0.135 A 
ATOM     41  C   UNL A   1      43.115  23.304  26.222  1.00  0.00     0.135 A 
ATOM     42  F   UNL A   1      42.274  22.829  29.730  1.00  0.00    -0.206 F 
ATOM     43  C   UNL A   1      42.215  21.310  27.944  1.00  0.00     0.059 A 
ATOM     44  C   UNL A   1      42.848  22.034  25.716  1.00  0.00     0.059 A 
ATOM     45  F   UNL A   1      43.564  24.237  25.367  1.00  0.00    -0.206 F 
ATOM     46  C   UNL A   1      42.420  21.037  26.591  1.00  0.00     0.060 A 
BRANCH  46  47
ATOM     47  S   UNL A   1      42.140  19.356  25.996  1.00  0.00     0.124 S 
ATOM     48  O   UNL A   1      40.697  19.365  25.771  1.00  0.00    -0.237 OA
ATOM     49  O   UNL A   1      42.966  19.308  24.794  1.00  0.00    -0.237 OA
ATOM     50  O   UNL A   1      42.596  18.521  27.102  1.00  0.00    -0.744 OA
ENDBRANCH  46  47
ENDBRANCH  25  39
BRANCH  26  51
ATOM     51  C   UNL A   1      44.475  32.815  31.235  1.00  0.00     0.058 A 
ATOM     52  C   UNL A   1      44.396  33.066  32.611  1.00  0.00     0.135 A 
ATOM     53  C   UNL A   1      44.825  33.884  30.392  1.00  0.00     0.135 A 
ATOM     54  F   UNL A   1      44.067  32.077  33.456  1.00  0.00    -0.206 F 
ATOM     55  C   UNL A   1      44.651  34.329  33.135  1.00  0.00     0.059 A 
ATOM     56  C   UNL A   1      45.113  35.146  30.894  1.00  0.00     0.059 A 
ATOM     57  F   UNL A   1      44.935  33.688  29.068  1.00  0.00    -0.206 F 
ATOM     58  C   UNL A   1      45.017  35.361  32.268  1.00  0.00     0.060 A 
BRANCH  58  59
ATOM     59  S   UNL A   1      45.412  36.977  32.970  1.00  0.00     0.124 S 
ATOM     60  O   UNL A   1      45.452  36.675  34.396  1.00  0.00    -0.237 OA
ATOM     61  O   UNL A   1      46.695  37.275  32.342  1.00  0.00    -0.237 OA
ATOM     62  O   UNL A   1      44.298  37.814  32.533  1.00  0.00    -0.744 OA
ENDBRANCH  58  59
ENDBRANCH  26  51
BRANCH  38  63
ATOM     63  C   UNL A   1      48.614  27.310  30.108  1.00  0.00     0.058 A 
ATOM     64  C   UNL A   1      49.150  26.882  31.333  1.00  0.00     0.135 A 
ATOM     65  C   UNL A   1      49.503  27.499  29.036  1.00  0.00     0.135 A 
ATOM     66  F   UNL A   1      48.347  26.696  32.394  1.00  0.00    -0.206 F 
ATOM     67  C   UNL A   1      50.517  26.680  31.498  1.00  0.00     0.059 A 
ATOM     68  C   UNL A   1      50.868  27.270  29.168  1.00  0.00     0.059 A 
ATOM     69  F   UNL A   1      49.044  27.900  27.840  1.00  0.00    -0.206 F 
ATOM     70  C   UNL A   1      51.367  26.874  30.408  1.00  0.00     0.060 A 
BRANCH  70  71
ATOM     71  S   UNL A   1      53.134  26.580  30.627  1.00  0.00     0.124 S 
ATOM     72  O   UNL A   1      53.134  25.335  31.387  1.00  0.00    -0.237 OA
ATOM     73  O   UNL A   1      53.607  26.484  29.250  1.00  0.00    -0.237 OA
ATOM     74  O   UNL A   1      53.587  27.760  31.358  1.00  0.00    -0.744 OA
ENDBRANCH  70  71
ENDBRANCH  38  63
ENDBRANCH  12  13
ENDBRANCH   5   7
ENDBRANCH   2   3
ENDBRANCH   1   2
BRANCH   1  75
ATOM     75  C   UNL A   1      33.017  29.557  25.065  1.00  0.00     0.023 C 
BRANCH  75  76
ATOM     76  C   UNL A   1      31.501  29.686  25.244  1.00  0.00     0.116 C 
BRANCH  76  77
ATOM     77  N   UNL A   1      30.826  29.763  23.967  1.00  0.00    -0.356 N 
ATOM     78  C   UNL A   1      30.617  28.779  23.045  1.00  0.00     0.223 C 
ATOM     79  H   UNL A   1      30.467  30.649  23.730  1.00  0.00     0.163 HD
ATOM     80  O   UNL A   1      30.044  29.089  22.000  1.00  0.00    -0.275 OA
BRANCH  78  81
ATOM     81  C   UNL A   1      31.061  27.338  23.347  1.00  0.00     0.079 C 
ATOM     82  C   UNL A   1      31.464  26.587  22.075  1.00  0.00     0.013 C 
ATOM     83  C   UNL A   1      29.921  26.588  24.039  1.00  0.00     0.027 C 
ATOM     84  C   UNL A   1      31.782  25.116  22.256  1.00  0.00     0.002 C 
ATOM     85  C   UNL A   1      30.247  25.124  24.332  1.00  0.00     0.079 C 
ATOM     86  C   UNL A   1      30.794  24.361  23.126  1.00  0.00     0.013 C 
BRANCH  85  87
ATOM     87  C   UNL A   1      30.848  24.909  25.732  1.00  0.00     0.225 C 
ATOM     88  O   UNL A   1      30.306  25.467  26.696  1.00  0.00    -0.275 OA
BRANCH  87  89
ATOM     89  N   UNL A   1      31.867  24.012  25.955  1.00  0.00    -0.339 N 
ATOM     90  C   UNL A   1      31.730  22.561  26.147  1.00  0.00     0.141 C 
ATOM     91  C   UNL A   1      33.231  24.549  26.027  1.00  0.00     0.146 C 
ATOM     92  C   UNL A   1      32.827  21.691  25.490  1.00  0.00     0.143 C 
ATOM     93  C   UNL A   1      34.182  23.769  25.136  1.00  0.00     0.125 C 
ATOM     94  N   UNL A   1      34.110  22.353  25.434  1.00  0.00    -0.317 N 
ATOM     95  C   UNL A   1      35.659  24.080  25.348  1.00  0.00     0.144 C 
ATOM     96  C   UNL A   1      35.356  21.760  25.342  1.00  0.00     0.317 C 
ATOM     97  N   UNL A   1      36.284  22.788  25.219  1.00  0.00    -0.336 N 
ATOM     98  O   UNL A   1      35.620  20.576  25.366  1.00  0.00    -0.249 OA
ATOM     99  H   UNL A   1      37.247  22.650  25.063  1.00  0.00     0.165 HD
ENDBRANCH  87  89
ENDBRANCH  85  87
ENDBRANCH  78  81
ENDBRANCH  76  77
ENDBRANCH  75  76
ENDBRANCH   1  75
TORSDOF 16
ENDMDL
