MODEL 1
REMARK VINA RESULT:     -12.1      0.000      0.000
REMARK SMILES O=C(NCCCCNC(=O)[C@@H]1C[C@@H]1C(=O)Nc1cc(F)ccc1F)c1ccc(-c2c3nc(c(-c4c(F)cc(S(=O)(=O)[O-])cc4F)c4ccc([nH]4)c(-c4c(F)cc(S(=O)(=O)[O-])cc4F)c4nc(c(-c5c(F)cc(S(=O)(=O)[O-])cc5F)c5ccc2[nH]5)C=C4)C=C3)cc1
REMARK SMILES IDX 5 1 4 2 3 3 1 4 2 5 25 7 26 8 90 9 27 10 89 11 28 12 29 13
REMARK SMILES IDX 30 14 83 15 31 16 88 17 82 18 84 19 32 20 87 21 81 22 80 23
REMARK SMILES IDX 33 25 67 26 46 27 66 28 47 29 50 30 65 31 85 32 48 33 49 34
REMARK SMILES IDX 64 36 86 37 51 38 34 39 35 40 44 41 36 42 37 43 43 44 45 45
REMARK SMILES IDX 38 46 39 47 40 48 41 49 42 50 68 51 69 52 78 53 70 54 71 55
REMARK SMILES IDX 77 56 79 57 72 58 73 59 74 60 75 61 76 62 52 63 53 64 62 65
REMARK SMILES IDX 54 66 55 67 61 68 63 69 56 70 57 71 58 72 59 73 60 74 6 75
REMARK SMILES IDX 7 76 8 77 9 78 10 80 11 81 12 82 13 83 14 84 15 85 16 86
REMARK SMILES IDX 17 88 18 89 23 90 19 91 22 92 24 93 20 94 21 95
REMARK H PARENT 3 6 84 24 50 35 8 79 16 87
REMARK Flexibility Score: inf
ROOT
ATOM      1  C   UNL A   1      40.754  22.275  27.804  1.00  0.00     0.023 C 
ENDROOT
BRANCH   1   2
ATOM      2  C   UNL A   1      41.846  23.330  27.673  1.00  0.00     0.116 C 
BRANCH   2   3
ATOM      3  N   UNL A   1      41.803  24.042  26.405  1.00  0.00    -0.352 N 
ATOM      4  O   UNL A   1      41.367  25.757  25.006  1.00  0.00    -0.269 OA
ATOM      5  C   UNL A   1      41.482  25.358  26.161  1.00  0.00     0.251 C 
ATOM      6  H   UNL A   1      42.034  23.508  25.610  1.00  0.00     0.163 HD
BRANCH   5   7
ATOM      7  C   UNL A   1      41.248  26.278  27.297  1.00  0.00     0.039 A 
ATOM      8  C   UNL A   1      42.100  27.362  27.518  1.00  0.00     0.014 A 
ATOM      9  C   UNL A   1      40.173  26.042  28.159  1.00  0.00     0.014 A 
ATOM     10  C   UNL A   1      41.970  28.114  28.679  1.00  0.00     0.010 A 
ATOM     11  C   UNL A   1      39.991  26.858  29.279  1.00  0.00     0.010 A 
ATOM     12  C   UNL A   1      40.906  27.883  29.566  1.00  0.00    -0.014 A 
BRANCH  12  13
ATOM     13  C   UNL A   1      40.739  28.770  30.746  1.00  0.00     0.031 A 
ATOM     14  C   UNL A   1      41.610  28.631  31.964  1.00  0.00     0.074 A 
ATOM     15  C   UNL A   1      39.795  29.732  30.694  1.00  0.00     0.049 A 
ATOM     16  N   UNL A   1      41.598  29.335  33.067  1.00  0.00    -0.248 NA
ATOM     17  C   UNL A   1      42.620  27.562  31.949  1.00  0.00     0.031 C 
ATOM     18  C   UNL A   1      38.877  29.949  29.572  1.00  0.00     0.029 A 
ATOM     19  N   UNL A   1      39.455  30.711  31.592  1.00  0.00    -0.354 N 
ATOM     20  C   UNL A   1      42.580  28.786  33.885  1.00  0.00     0.074 A 
ATOM     21  C   UNL A   1      43.154  27.673  33.159  1.00  0.00     0.031 C 
ATOM     22  C   UNL A   1      38.110  31.017  29.829  1.00  0.00     0.029 A 
ATOM     23  C   UNL A   1      38.434  31.521  31.159  1.00  0.00     0.049 A 
ATOM     24  H   UNL A   1      39.901  30.823  32.463  1.00  0.00     0.167 HD
ATOM     25  C   UNL A   1      42.966  29.180  35.123  1.00  0.00     0.037 A 
ATOM     26  C   UNL A   1      37.806  32.544  31.768  1.00  0.00     0.037 A 
ATOM     27  C   UNL A   1      42.396  30.301  35.829  1.00  0.00     0.049 A 
ATOM     28  C   UNL A   1      38.248  32.954  33.142  1.00  0.00     0.074 A 
ATOM     29  C   UNL A   1      42.750  30.806  37.069  1.00  0.00     0.029 A 
ATOM     30  N   UNL A   1      41.351  31.088  35.364  1.00  0.00    -0.354 N 
ATOM     31  N   UNL A   1      39.202  32.445  33.884  1.00  0.00    -0.248 NA
ATOM     32  C   UNL A   1      37.531  34.075  33.763  1.00  0.00     0.031 C 
ATOM     33  C   UNL A   1      41.889  31.865  37.375  1.00  0.00     0.029 A 
ATOM     34  C   UNL A   1      41.032  32.058  36.302  1.00  0.00     0.049 A 
ATOM     35  H   UNL A   1      40.903  30.974  34.495  1.00  0.00     0.167 HD
ATOM     36  C   UNL A   1      39.210  33.191  35.055  1.00  0.00     0.074 A 
ATOM     37  C   UNL A   1      38.179  34.199  34.914  1.00  0.00     0.031 C 
ATOM     38  C   UNL A   1      39.999  33.052  36.149  1.00  0.00     0.037 A 
BRANCH  25  39
ATOM     39  C   UNL A   1      44.044  28.387  35.813  1.00  0.00     0.058 A 
ATOM     40  C   UNL A   1      45.405  28.697  35.661  1.00  0.00     0.135 A 
ATOM     41  C   UNL A   1      43.707  27.340  36.687  1.00  0.00     0.135 A 
ATOM     42  F   UNL A   1      45.786  29.680  34.828  1.00  0.00    -0.206 F 
ATOM     43  C   UNL A   1      46.394  27.985  36.335  1.00  0.00     0.059 A 
ATOM     44  C   UNL A   1      44.678  26.631  37.390  1.00  0.00     0.059 A 
ATOM     45  F   UNL A   1      42.423  27.001  36.872  1.00  0.00    -0.206 F 
ATOM     46  C   UNL A   1      46.020  26.954  37.199  1.00  0.00     0.060 A 
BRANCH  46  47
ATOM     47  S   UNL A   1      47.315  26.048  38.074  1.00  0.00     0.124 S 
ATOM     48  O   UNL A   1      46.924  24.665  37.819  1.00  0.00    -0.237 OA
ATOM     49  O   UNL A   1      48.525  26.500  37.395  1.00  0.00    -0.237 OA
ATOM     50  O   UNL A   1      47.169  26.496  39.455  1.00  0.00    -0.744 OA
ENDBRANCH  46  47
ENDBRANCH  25  39
BRANCH  26  51
ATOM     51  C   UNL A   1      36.688  33.235  31.075  1.00  0.00     0.058 A 
ATOM     52  C   UNL A   1      36.921  34.078  29.980  1.00  0.00     0.135 A 
ATOM     53  C   UNL A   1      35.356  33.027  31.470  1.00  0.00     0.135 A 
ATOM     54  F   UNL A   1      38.176  34.310  29.567  1.00  0.00    -0.206 F 
ATOM     55  C   UNL A   1      35.876  34.698  29.305  1.00  0.00     0.059 A 
ATOM     56  C   UNL A   1      34.292  33.613  30.794  1.00  0.00     0.059 A 
ATOM     57  F   UNL A   1      35.079  32.213  32.501  1.00  0.00    -0.206 F 
ATOM     58  C   UNL A   1      34.563  34.455  29.716  1.00  0.00     0.060 A 
BRANCH  58  59
ATOM     59  S   UNL A   1      33.210  35.214  28.795  1.00  0.00     0.124 S 
ATOM     60  O   UNL A   1      33.913  36.238  28.030  1.00  0.00    -0.237 OA
ATOM     61  O   UNL A   1      32.689  34.087  28.027  1.00  0.00    -0.237 OA
ATOM     62  O   UNL A   1      32.324  35.707  29.846  1.00  0.00    -0.744 OA
ENDBRANCH  58  59
ENDBRANCH  26  51
BRANCH  38  63
ATOM     63  C   UNL A   1      39.792  34.030  37.272  1.00  0.00     0.058 A 
ATOM     64  C   UNL A   1      38.993  33.719  38.384  1.00  0.00     0.135 A 
ATOM     65  C   UNL A   1      40.430  35.281  37.253  1.00  0.00     0.135 A 
ATOM     66  F   UNL A   1      38.353  32.540  38.447  1.00  0.00    -0.206 F 
ATOM     67  C   UNL A   1      38.813  34.624  39.424  1.00  0.00     0.059 A 
ATOM     68  C   UNL A   1      40.287  36.190  38.295  1.00  0.00     0.059 A 
ATOM     69  F   UNL A   1      41.212  35.625  36.217  1.00  0.00    -0.206 F 
ATOM     70  C   UNL A   1      39.464  35.857  39.372  1.00  0.00     0.060 A 
BRANCH  70  71
ATOM     71  S   UNL A   1      39.244  37.012  40.741  1.00  0.00     0.124 S 
ATOM     72  O   UNL A   1      38.550  36.179  41.719  1.00  0.00    -0.237 OA
ATOM     73  O   UNL A   1      40.619  37.369  41.075  1.00  0.00    -0.237 OA
ATOM     74  O   UNL A   1      38.449  38.087  40.156  1.00  0.00    -0.744 OA
ENDBRANCH  70  71
ENDBRANCH  38  63
ENDBRANCH  12  13
ENDBRANCH   5   7
ENDBRANCH   2   3
ENDBRANCH   1   2
BRANCH   1  75
ATOM     75  C   UNL A   1      40.509  21.426  26.557  1.00  0.00     0.023 C 
BRANCH  75  76
ATOM     76  C   UNL A   1      39.071  21.423  26.045  1.00  0.00     0.116 C 
BRANCH  76  77
ATOM     77  N   UNL A   1      38.409  22.701  26.229  1.00  0.00    -0.356 N 
ATOM     78  C   UNL A   1      37.364  23.269  25.554  1.00  0.00     0.223 C 
ATOM     79  H   UNL A   1      38.772  23.250  26.961  1.00  0.00     0.163 HD
ATOM     80  O   UNL A   1      36.931  24.351  25.933  1.00  0.00    -0.275 OA
BRANCH  78  81
ATOM     81  C   UNL A   1      36.788  22.572  24.377  1.00  0.00     0.091 C 
ATOM     82  C   UNL A   1      35.389  22.915  23.934  1.00  0.00     0.028 C 
ATOM     83  C   UNL A   1      35.689  21.536  24.478  1.00  0.00     0.092 C 
BRANCH  83  84
ATOM     84  C   UNL A   1      35.079  21.089  25.760  1.00  0.00     0.228 C 
ATOM     85  O   UNL A   1      35.260  21.724  26.794  1.00  0.00    -0.274 OA
ATOM     86  N   UNL A   1      34.133  20.090  25.735  1.00  0.00    -0.323 N 
ATOM     87  H   UNL A   1      33.678  19.938  26.594  1.00  0.00     0.170 HD
BRANCH  86  88
ATOM     88  C   UNL A   1      33.705  19.251  24.692  1.00  0.00     0.080 A 
ATOM     89  C   UNL A   1      34.304  18.035  24.372  1.00  0.00     0.068 A 
ATOM     90  C   UNL A   1      32.599  19.673  23.939  1.00  0.00     0.146 A 
ATOM     91  C   UNL A   1      33.839  17.303  23.281  1.00  0.00     0.125 A 
ATOM     92  C   UNL A   1      32.147  18.950  22.836  1.00  0.00     0.044 A 
ATOM     93  F   UNL A   1      31.993  20.833  24.239  1.00  0.00    -0.205 F 
ATOM     94  F   UNL A   1      34.426  16.138  22.975  1.00  0.00    -0.207 F 
ATOM     95  C   UNL A   1      32.780  17.756  22.499  1.00  0.00     0.042 A 
ENDBRANCH  86  88
ENDBRANCH  83  84
ENDBRANCH  78  81
ENDBRANCH  76  77
ENDBRANCH  75  76
ENDBRANCH   1  75
TORSDOF 16
ENDMDL
MODEL 2
REMARK VINA RESULT:     -11.8      7.448     12.894
REMARK SMILES O=C(NCCCCNC(=O)[C@@H]1C[C@@H]1C(=O)Nc1cc(F)ccc1F)c1ccc(-c2c3nc(c(-c4c(F)cc(S(=O)(=O)[O-])cc4F)c4ccc([nH]4)c(-c4c(F)cc(S(=O)(=O)[O-])cc4F)c4nc(c(-c5c(F)cc(S(=O)(=O)[O-])cc5F)c5ccc2[nH]5)C=C4)C=C3)cc1
REMARK SMILES IDX 5 1 4 2 3 3 1 4 2 5 25 7 26 8 90 9 27 10 89 11 28 12 29 13
REMARK SMILES IDX 30 14 83 15 31 16 88 17 82 18 84 19 32 20 87 21 81 22 80 23
REMARK SMILES IDX 33 25 67 26 46 27 66 28 47 29 50 30 65 31 85 32 48 33 49 34
REMARK SMILES IDX 64 36 86 37 51 38 34 39 35 40 44 41 36 42 37 43 43 44 45 45
REMARK SMILES IDX 38 46 39 47 40 48 41 49 42 50 68 51 69 52 78 53 70 54 71 55
REMARK SMILES IDX 77 56 79 57 72 58 73 59 74 60 75 61 76 62 52 63 53 64 62 65
REMARK SMILES IDX 54 66 55 67 61 68 63 69 56 70 57 71 58 72 59 73 60 74 6 75
REMARK SMILES IDX 7 76 8 77 9 78 10 80 11 81 12 82 13 83 14 84 15 85 16 86
REMARK SMILES IDX 17 88 18 89 23 90 19 91 22 92 24 93 20 94 21 95
REMARK H PARENT 3 6 84 24 50 35 8 79 16 87
REMARK Flexibility Score: inf
ROOT
ATOM      1  C   UNL A   1      35.846  33.052  28.096  1.00  0.00     0.023 C 
ENDROOT
BRANCH   1   2
ATOM      2  C   UNL A   1      36.494  33.044  29.475  1.00  0.00     0.116 C 
BRANCH   2   3
ATOM      3  N   UNL A   1      36.003  31.975  30.331  1.00  0.00    -0.352 N 
ATOM      4  O   UNL A   1      35.964  29.923  31.266  1.00  0.00    -0.269 OA
ATOM      5  C   UNL A   1      36.587  30.764  30.627  1.00  0.00     0.251 C 
ATOM      6  H   UNL A   1      35.130  32.139  30.758  1.00  0.00     0.163 HD
BRANCH   5   7
ATOM      7  C   UNL A   1      37.957  30.475  30.144  1.00  0.00     0.039 A 
ATOM      8  C   UNL A   1      38.189  30.194  28.797  1.00  0.00     0.014 A 
ATOM      9  C   UNL A   1      39.017  30.471  31.056  1.00  0.00     0.014 A 
ATOM     10  C   UNL A   1      39.444  29.760  28.390  1.00  0.00     0.010 A 
ATOM     11  C   UNL A   1      40.300  30.122  30.625  1.00  0.00     0.010 A 
ATOM     12  C   UNL A   1      40.520  29.733  29.294  1.00  0.00    -0.014 A 
BRANCH  12  13
ATOM     13  C   UNL A   1      41.871  29.360  28.803  1.00  0.00     0.031 A 
ATOM     14  C   UNL A   1      42.988  30.366  28.734  1.00  0.00     0.074 A 
ATOM     15  C   UNL A   1      42.089  28.080  28.440  1.00  0.00     0.049 A 
ATOM     16  N   UNL A   1      44.224  30.195  28.341  1.00  0.00    -0.248 NA
ATOM     17  C   UNL A   1      42.678  31.743  29.149  1.00  0.00     0.031 C 
ATOM     18  C   UNL A   1      41.076  27.021  28.447  1.00  0.00     0.029 A 
ATOM     19  N   UNL A   1      43.226  27.446  28.007  1.00  0.00    -0.354 N 
ATOM     20  C   UNL A   1      44.836  31.439  28.441  1.00  0.00     0.074 A 
ATOM     21  C   UNL A   1      43.826  32.364  28.911  1.00  0.00     0.031 C 
ATOM     22  C   UNL A   1      41.644  25.864  28.080  1.00  0.00     0.029 A 
ATOM     23  C   UNL A   1      43.042  26.110  27.747  1.00  0.00     0.049 A 
ATOM     24  H   UNL A   1      44.089  27.906  27.893  1.00  0.00     0.167 HD
ATOM     25  C   UNL A   1      46.121  31.773  28.171  1.00  0.00     0.037 A 
ATOM     26  C   UNL A   1      43.895  25.183  27.273  1.00  0.00     0.037 A 
ATOM     27  C   UNL A   1      47.122  30.838  27.719  1.00  0.00     0.049 A 
ATOM     28  C   UNL A   1      45.311  25.582  26.975  1.00  0.00     0.074 A 
ATOM     29  C   UNL A   1      48.462  31.071  27.460  1.00  0.00     0.029 A 
ATOM     30  N   UNL A   1      46.894  29.495  27.452  1.00  0.00    -0.354 N 
ATOM     31  N   UNL A   1      45.879  26.756  27.110  1.00  0.00    -0.248 NA
ATOM     32  C   UNL A   1      46.201  24.534  26.459  1.00  0.00     0.031 C 
ATOM     33  C   UNL A   1      49.033  29.883  26.992  1.00  0.00     0.029 A 
ATOM     34  C   UNL A   1      48.062  28.893  27.009  1.00  0.00     0.049 A 
ATOM     35  H   UNL A   1      46.030  29.036  27.562  1.00  0.00     0.167 HD
ATOM     36  C   UNL A   1      47.198  26.586  26.709  1.00  0.00     0.074 A 
ATOM     37  C   UNL A   1      47.347  25.192  26.345  1.00  0.00     0.031 C 
ATOM     38  C   UNL A   1      48.194  27.504  26.646  1.00  0.00     0.037 A 
BRANCH  25  39
ATOM     39  C   UNL A   1      46.527  33.214  28.336  1.00  0.00     0.058 A 
ATOM     40  C   UNL A   1      47.009  33.715  29.555  1.00  0.00     0.135 A 
ATOM     41  C   UNL A   1      46.490  34.092  27.239  1.00  0.00     0.135 A 
ATOM     42  F   UNL A   1      47.054  32.924  30.640  1.00  0.00    -0.206 F 
ATOM     43  C   UNL A   1      47.421  35.038  29.688  1.00  0.00     0.059 A 
ATOM     44  C   UNL A   1      46.920  35.412  27.342  1.00  0.00     0.059 A 
ATOM     45  F   UNL A   1      46.040  33.667  26.049  1.00  0.00    -0.206 F 
ATOM     46  C   UNL A   1      47.374  35.880  28.575  1.00  0.00     0.060 A 
BRANCH  46  47
ATOM     47  S   UNL A   1      47.922  37.590  28.761  1.00  0.00     0.124 S 
ATOM     48  O   UNL A   1      46.896  38.308  28.009  1.00  0.00    -0.237 OA
ATOM     49  O   UNL A   1      47.891  37.772  30.208  1.00  0.00    -0.237 OA
ATOM     50  O   UNL A   1      49.252  37.589  28.160  1.00  0.00    -0.744 OA
ENDBRANCH  46  47
ENDBRANCH  25  39
BRANCH  26  51
ATOM     51  C   UNL A   1      43.416  23.794  27.046  1.00  0.00     0.058 A 
ATOM     52  C   UNL A   1      43.312  22.879  28.103  1.00  0.00     0.135 A 
ATOM     53  C   UNL A   1      43.011  23.370  25.770  1.00  0.00     0.135 A 
ATOM     54  F   UNL A   1      43.690  23.237  29.340  1.00  0.00    -0.206 F 
ATOM     55  C   UNL A   1      42.831  21.590  27.903  1.00  0.00     0.059 A 
ATOM     56  C   UNL A   1      42.500  22.096  25.550  1.00  0.00     0.059 A 
ATOM     57  F   UNL A   1      43.074  24.216  24.729  1.00  0.00    -0.206 F 
ATOM     58  C   UNL A   1      42.422  21.210  26.623  1.00  0.00     0.060 A 
BRANCH  58  59
ATOM     59  S   UNL A   1      41.740  19.556  26.386  1.00  0.00     0.124 S 
ATOM     60  O   UNL A   1      40.314  19.840  26.272  1.00  0.00    -0.237 OA
ATOM     61  O   UNL A   1      42.405  19.122  25.161  1.00  0.00    -0.237 OA
ATOM     62  O   UNL A   1      42.149  18.848  27.595  1.00  0.00    -0.744 OA
ENDBRANCH  58  59
ENDBRANCH  26  51
BRANCH  38  63
ATOM     63  C   UNL A   1      49.542  27.021  26.187  1.00  0.00     0.058 A 
ATOM     64  C   UNL A   1      50.471  26.466  27.081  1.00  0.00     0.135 A 
ATOM     65  C   UNL A   1      49.894  27.082  24.829  1.00  0.00     0.135 A 
ATOM     66  F   UNL A   1      50.187  26.394  28.391  1.00  0.00    -0.206 F 
ATOM     67  C   UNL A   1      51.713  26.013  26.649  1.00  0.00     0.059 A 
ATOM     68  C   UNL A   1      51.119  26.608  24.370  1.00  0.00     0.059 A 
ATOM     69  F   UNL A   1      49.039  27.595  23.931  1.00  0.00    -0.206 F 
ATOM     70  C   UNL A   1      52.028  26.087  25.291  1.00  0.00     0.060 A 
BRANCH  70  71
ATOM     71  S   UNL A   1      53.632  25.470  24.739  1.00  0.00     0.124 S 
ATOM     72  O   UNL A   1      54.548  26.338  25.472  1.00  0.00    -0.237 OA
ATOM     73  O   UNL A   1      53.597  24.077  25.170  1.00  0.00    -0.237 OA
ATOM     74  O   UNL A   1      53.595  25.674  23.294  1.00  0.00    -0.744 OA
ENDBRANCH  70  71
ENDBRANCH  38  63
ENDBRANCH  12  13
ENDBRANCH   5   7
ENDBRANCH   2   3
ENDBRANCH   1   2
BRANCH   1  75
ATOM     75  C   UNL A   1      34.336  33.290  28.081  1.00  0.00     0.023 C 
BRANCH  75  76
ATOM     76  C   UNL A   1      33.491  32.082  27.687  1.00  0.00     0.116 C 
BRANCH  76  77
ATOM     77  N   UNL A   1      34.284  30.881  27.500  1.00  0.00    -0.356 N 
ATOM     78  C   UNL A   1      33.905  29.596  27.228  1.00  0.00     0.223 C 
ATOM     79  H   UNL A   1      35.256  31.014  27.583  1.00  0.00     0.163 HD
ATOM     80  O   UNL A   1      34.770  28.746  27.053  1.00  0.00    -0.275 OA
BRANCH  78  81
ATOM     81  C   UNL A   1      32.461  29.257  27.163  1.00  0.00     0.091 C 
ATOM     82  C   UNL A   1      32.048  27.899  26.658  1.00  0.00     0.028 C 
ATOM     83  C   UNL A   1      31.692  29.136  25.865  1.00  0.00     0.092 C 
BRANCH  83  84
ATOM     84  C   UNL A   1      32.285  29.359  24.519  1.00  0.00     0.228 C 
ATOM     85  O   UNL A   1      33.496  29.260  24.345  1.00  0.00    -0.274 OA
ATOM     86  N   UNL A   1      31.451  29.456  23.430  1.00  0.00    -0.323 N 
ATOM     87  H   UNL A   1      31.913  29.469  22.561  1.00  0.00     0.170 HD
BRANCH  86  88
ATOM     88  C   UNL A   1      30.050  29.539  23.346  1.00  0.00     0.080 A 
ATOM     89  C   UNL A   1      29.325  30.714  23.530  1.00  0.00     0.068 A 
ATOM     90  C   UNL A   1      29.352  28.358  23.050  1.00  0.00     0.146 A 
ATOM     91  C   UNL A   1      27.932  30.679  23.482  1.00  0.00     0.125 A 
ATOM     92  C   UNL A   1      27.959  28.321  23.022  1.00  0.00     0.044 A 
ATOM     93  F   UNL A   1      30.030  27.217  22.851  1.00  0.00    -0.205 F 
ATOM     94  F   UNL A   1      27.242  31.812  23.668  1.00  0.00    -0.207 F 
ATOM     95  C   UNL A   1      27.241  29.493  23.249  1.00  0.00     0.042 A 
ENDBRANCH  86  88
ENDBRANCH  83  84
ENDBRANCH  78  81
ENDBRANCH  76  77
ENDBRANCH  75  76
ENDBRANCH   1  75
TORSDOF 16
ENDMDL
MODEL 3
REMARK VINA RESULT:     -11.7      4.006      9.517
REMARK SMILES O=C(NCCCCNC(=O)[C@@H]1C[C@@H]1C(=O)Nc1cc(F)ccc1F)c1ccc(-c2c3nc(c(-c4c(F)cc(S(=O)(=O)[O-])cc4F)c4ccc([nH]4)c(-c4c(F)cc(S(=O)(=O)[O-])cc4F)c4nc(c(-c5c(F)cc(S(=O)(=O)[O-])cc5F)c5ccc2[nH]5)C=C4)C=C3)cc1
REMARK SMILES IDX 5 1 4 2 3 3 1 4 2 5 25 7 26 8 90 9 27 10 89 11 28 12 29 13
REMARK SMILES IDX 30 14 83 15 31 16 88 17 82 18 84 19 32 20 87 21 81 22 80 23
REMARK SMILES IDX 33 25 67 26 46 27 66 28 47 29 50 30 65 31 85 32 48 33 49 34
REMARK SMILES IDX 64 36 86 37 51 38 34 39 35 40 44 41 36 42 37 43 43 44 45 45
REMARK SMILES IDX 38 46 39 47 40 48 41 49 42 50 68 51 69 52 78 53 70 54 71 55
REMARK SMILES IDX 77 56 79 57 72 58 73 59 74 60 75 61 76 62 52 63 53 64 62 65
REMARK SMILES IDX 54 66 55 67 61 68 63 69 56 70 57 71 58 72 59 73 60 74 6 75
REMARK SMILES IDX 7 76 8 77 9 78 10 80 11 81 12 82 13 83 14 84 15 85 16 86
REMARK SMILES IDX 17 88 18 89 23 90 19 91 22 92 24 93 20 94 21 95
REMARK H PARENT 3 6 84 24 50 35 8 79 16 87
REMARK Flexibility Score: inf
ROOT
ATOM      1  C   UNL A   1      31.594  32.411  26.861  1.00  0.00     0.023 C 
ENDROOT
BRANCH   1   2
ATOM      2  C   UNL A   1      32.791  33.017  27.583  1.00  0.00     0.116 C 
BRANCH   2   3
ATOM      3  N   UNL A   1      32.613  34.426  27.900  1.00  0.00    -0.352 N 
ATOM      4  O   UNL A   1      32.880  36.336  29.070  1.00  0.00    -0.269 OA
ATOM      5  C   UNL A   1      33.255  35.188  28.849  1.00  0.00     0.251 C 
ATOM      6  H   UNL A   1      31.938  34.901  27.362  1.00  0.00     0.163 HD
BRANCH   5   7
ATOM      7  C   UNL A   1      34.377  34.606  29.620  1.00  0.00     0.039 A 
ATOM      8  C   UNL A   1      35.672  34.612  29.099  1.00  0.00     0.014 A 
ATOM      9  C   UNL A   1      34.125  34.035  30.871  1.00  0.00     0.014 A 
ATOM     10  C   UNL A   1      36.681  33.915  29.754  1.00  0.00     0.010 A 
ATOM     11  C   UNL A   1      35.163  33.413  31.571  1.00  0.00     0.010 A 
ATOM     12  C   UNL A   1      36.444  33.321  31.005  1.00  0.00    -0.014 A 
BRANCH  12  13
ATOM     13  C   UNL A   1      37.569  32.670  31.723  1.00  0.00     0.031 A 
ATOM     14  C   UNL A   1      38.057  33.185  33.050  1.00  0.00     0.074 A 
ATOM     15  C   UNL A   1      38.137  31.580  31.169  1.00  0.00     0.049 A 
ATOM     16  N   UNL A   1      39.018  32.722  33.808  1.00  0.00    -0.248 NA
ATOM     17  C   UNL A   1      37.389  34.377  33.595  1.00  0.00     0.031 C 
ATOM     18  C   UNL A   1      37.759  31.001  29.877  1.00  0.00     0.029 A 
ATOM     19  N   UNL A   1      39.138  30.757  31.620  1.00  0.00    -0.354 N 
ATOM     20  C   UNL A   1      39.086  33.571  34.907  1.00  0.00     0.074 A 
ATOM     21  C   UNL A   1      38.082  34.594  34.706  1.00  0.00     0.031 C 
ATOM     22  C   UNL A   1      38.487  29.898  29.658  1.00  0.00     0.029 A 
ATOM     23  C   UNL A   1      39.427  29.726  30.759  1.00  0.00     0.049 A 
ATOM     24  H   UNL A   1      39.603  30.893  32.476  1.00  0.00     0.167 HD
ATOM     25  C   UNL A   1      39.907  33.498  35.982  1.00  0.00     0.037 A 
ATOM     26  C   UNL A   1      40.359  28.757  30.832  1.00  0.00     0.037 A 
ATOM     27  C   UNL A   1      40.893  32.463  36.178  1.00  0.00     0.049 A 
ATOM     28  C   UNL A   1      41.260  28.704  32.031  1.00  0.00     0.074 A 
ATOM     29  C   UNL A   1      41.742  32.277  37.256  1.00  0.00     0.029 A 
ATOM     30  N   UNL A   1      41.168  31.443  35.276  1.00  0.00    -0.354 N 
ATOM     31  N   UNL A   1      41.285  29.496  33.076  1.00  0.00    -0.248 NA
ATOM     32  C   UNL A   1      42.261  27.630  32.062  1.00  0.00     0.031 C 
ATOM     33  C   UNL A   1      42.562  31.177  36.985  1.00  0.00     0.029 A 
ATOM     34  C   UNL A   1      42.188  30.641  35.762  1.00  0.00     0.049 A 
ATOM     35  H   UNL A   1      40.704  31.310  34.418  1.00  0.00     0.167 HD
ATOM     36  C   UNL A   1      42.293  29.008  33.897  1.00  0.00     0.074 A 
ATOM     37  C   UNL A   1      42.841  27.841  33.235  1.00  0.00     0.031 C 
ATOM     38  C   UNL A   1      42.727  29.485  35.089  1.00  0.00     0.037 A 
BRANCH  25  39
ATOM     39  C   UNL A   1      39.796  34.572  37.031  1.00  0.00     0.058 A 
ATOM     40  C   UNL A   1      40.520  35.772  36.944  1.00  0.00     0.135 A 
ATOM     41  C   UNL A   1      38.906  34.424  38.108  1.00  0.00     0.135 A 
ATOM     42  F   UNL A   1      41.395  35.963  35.943  1.00  0.00    -0.206 F 
ATOM     43  C   UNL A   1      40.380  36.778  37.896  1.00  0.00     0.059 A 
ATOM     44  C   UNL A   1      38.732  35.427  39.058  1.00  0.00     0.059 A 
ATOM     45  F   UNL A   1      38.187  33.299  38.241  1.00  0.00    -0.206 F 
ATOM     46  C   UNL A   1      39.482  36.597  38.950  1.00  0.00     0.060 A 
BRANCH  46  47
ATOM     47  S   UNL A   1      39.305  37.916  40.171  1.00  0.00     0.124 S 
ATOM     48  O   UNL A   1      40.601  38.580  40.072  1.00  0.00    -0.237 OA
ATOM     49  O   UNL A   1      38.166  38.668  39.654  1.00  0.00    -0.237 OA
ATOM     50  O   UNL A   1      39.064  37.196  41.417  1.00  0.00    -0.744 OA
ENDBRANCH  46  47
ENDBRANCH  25  39
BRANCH  26  51
ATOM     51  C   UNL A   1      40.482  27.774  29.725  1.00  0.00     0.058 A 
ATOM     52  C   UNL A   1      39.589  26.701  29.603  1.00  0.00     0.135 A 
ATOM     53  C   UNL A   1      41.474  27.917  28.740  1.00  0.00     0.135 A 
ATOM     54  F   UNL A   1      38.627  26.521  30.521  1.00  0.00    -0.206 F 
ATOM     55  C   UNL A   1      39.677  25.798  28.549  1.00  0.00     0.059 A 
ATOM     56  C   UNL A   1      41.564  27.045  27.661  1.00  0.00     0.059 A 
ATOM     57  F   UNL A   1      42.341  28.940  28.802  1.00  0.00    -0.206 F 
ATOM     58  C   UNL A   1      40.665  25.982  27.579  1.00  0.00     0.060 A 
BRANCH  58  59
ATOM     59  S   UNL A   1      40.732  24.843  26.181  1.00  0.00     0.124 S 
ATOM     60  O   UNL A   1      39.333  24.454  26.052  1.00  0.00    -0.237 OA
ATOM     61  O   UNL A   1      41.261  25.692  25.117  1.00  0.00    -0.237 OA
ATOM     62  O   UNL A   1      41.639  23.797  26.645  1.00  0.00    -0.744 OA
ENDBRANCH  58  59
ENDBRANCH  26  51
BRANCH  38  63
ATOM     63  C   UNL A   1      43.836  28.729  35.767  1.00  0.00     0.058 A 
ATOM     64  C   UNL A   1      45.185  29.063  35.569  1.00  0.00     0.135 A 
ATOM     65  C   UNL A   1      43.543  27.682  36.655  1.00  0.00     0.135 A 
ATOM     66  F   UNL A   1      45.519  30.051  34.723  1.00  0.00    -0.206 F 
ATOM     67  C   UNL A   1      46.206  28.366  36.206  1.00  0.00     0.059 A 
ATOM     68  C   UNL A   1      44.547  26.990  37.326  1.00  0.00     0.059 A 
ATOM     69  F   UNL A   1      42.269  27.328  36.888  1.00  0.00    -0.206 F 
ATOM     70  C   UNL A   1      45.878  27.332  37.083  1.00  0.00     0.060 A 
BRANCH  70  71
ATOM     71  S   UNL A   1      47.211  26.454  37.926  1.00  0.00     0.124 S 
ATOM     72  O   UNL A   1      46.912  26.740  39.325  1.00  0.00    -0.237 OA
ATOM     73  O   UNL A   1      46.996  25.075  37.500  1.00  0.00    -0.237 OA
ATOM     74  O   UNL A   1      48.418  27.084  37.401  1.00  0.00    -0.744 OA
ENDBRANCH  70  71
ENDBRANCH  38  63
ENDBRANCH  12  13
ENDBRANCH   5   7
ENDBRANCH   2   3
ENDBRANCH   1   2
BRANCH   1  75
ATOM     75  C   UNL A   1      31.795  30.988  26.337  1.00  0.00     0.023 C 
BRANCH  75  76
ATOM     76  C   UNL A   1      33.085  30.307  26.785  1.00  0.00     0.116 C 
BRANCH  76  77
ATOM     77  N   UNL A   1      33.705  29.530  25.729  1.00  0.00    -0.356 N 
ATOM     78  C   UNL A   1      33.397  28.292  25.235  1.00  0.00     0.223 C 
ATOM     79  H   UNL A   1      34.474  29.965  25.296  1.00  0.00     0.163 HD
ATOM     80  O   UNL A   1      34.036  27.856  24.285  1.00  0.00    -0.275 OA
BRANCH  78  81
ATOM     81  C   UNL A   1      32.308  27.503  25.865  1.00  0.00     0.091 C 
ATOM     82  C   UNL A   1      32.516  26.030  26.107  1.00  0.00     0.028 C 
ATOM     83  C   UNL A   1      31.473  26.488  25.113  1.00  0.00     0.092 C 
BRANCH  83  84
ATOM     84  C   UNL A   1      31.633  26.183  23.666  1.00  0.00     0.228 C 
ATOM     85  O   UNL A   1      32.364  25.269  23.297  1.00  0.00    -0.274 OA
ATOM     86  N   UNL A   1      30.788  26.782  22.761  1.00  0.00    -0.323 N 
ATOM     87  H   UNL A   1      30.861  26.436  21.843  1.00  0.00     0.170 HD
BRANCH  86  88
ATOM     88  C   UNL A   1      29.836  27.804  22.924  1.00  0.00     0.080 A 
ATOM     89  C   UNL A   1      28.488  27.578  23.190  1.00  0.00     0.068 A 
ATOM     90  C   UNL A   1      30.287  29.127  22.817  1.00  0.00     0.146 A 
ATOM     91  C   UNL A   1      27.612  28.659  23.278  1.00  0.00     0.125 A 
ATOM     92  C   UNL A   1      29.407  30.206  22.886  1.00  0.00     0.044 A 
ATOM     93  F   UNL A   1      31.586  29.371  22.580  1.00  0.00    -0.205 F 
ATOM     94  F   UNL A   1      26.315  28.434  23.526  1.00  0.00    -0.207 F 
ATOM     95  C   UNL A   1      28.053  29.969  23.110  1.00  0.00     0.042 A 
ENDBRANCH  86  88
ENDBRANCH  83  84
ENDBRANCH  78  81
ENDBRANCH  76  77
ENDBRANCH  75  76
ENDBRANCH   1  75
TORSDOF 16
ENDMDL
