MODEL 1
REMARK VINA RESULT:     -12.1      0.000      0.000
REMARK SMILES C[C@@H]1C[C@@H](C)CN(C(=O)CCn2cc(C(=O)NCCCCNC(=O)c3ccc(-c4c5nc(c(-c6c(F)cc(S(=O)(=O)[O-])cc6F)c6ccc([nH]6)c(-c6c(F)cc(S(=O)(=O)[O-])cc6F)c6nc(c(-c7c(F)cc(S(=O)(=O)[O-])cc7F)c7ccc4[nH]7)C=C6)C=C5)cc3)cn2)C1
REMARK SMILES IDX 19 1 18 2 17 3 15 4 16 5 14 7 12 8 13 9 92 10 91 11 11 12
REMARK SMILES IDX 10 13 8 14 1 15 2 16 3 17 93 18 4 19 7 20 6 21 5 22 9 23
REMARK SMILES IDX 20 24 21 25 22 26 23 27 24 29 25 30 26 31 90 32 27 33 89 34
REMARK SMILES IDX 28 35 29 36 30 37 83 38 31 39 88 40 82 41 84 42 32 43 87 44
REMARK SMILES IDX 81 45 80 46 33 48 67 49 46 50 66 51 47 52 50 53 65 54 85 55
REMARK SMILES IDX 48 56 49 57 64 59 86 60 51 61 34 62 35 63 44 64 36 65 37 66
REMARK SMILES IDX 43 67 45 68 38 69 39 70 40 71 41 72 42 73 68 74 69 75 78 76
REMARK SMILES IDX 70 77 71 78 77 79 79 80 72 81 73 82 74 83 75 84 76 85 52 86
REMARK SMILES IDX 53 87 62 88 54 89 55 90 61 91 63 92 56 93 57 94 58 95 59 96
REMARK SMILES IDX 60 97
REMARK H PARENT 17 6 22 28 84 47 50 58
REMARK Flexibility Score: inf
ROOT
ATOM      1  C   UNL A   1      36.334  22.312  24.504  1.00  0.00     0.023 C 
ENDROOT
BRANCH   1   2
ATOM      2  C   UNL A   1      34.857  21.999  24.956  1.00  0.00     0.116 C 
BRANCH   2   3
ATOM      3  N   UNL A   1      33.808  22.107  23.844  1.00  0.00    -0.352 N 
ATOM      4  C   UNL A   1      33.630  23.129  22.867  1.00  0.00     0.254 C 
ATOM      5  O   UNL A   1      34.425  23.196  21.937  1.00  0.00    -0.269 OA
ATOM      6  H   UNL A   1      33.164  21.362  23.799  1.00  0.00     0.163 HD
BRANCH   4   7
ATOM      7  C   UNL A   1      32.374  23.953  22.877  1.00  0.00     0.077 A 
ATOM      8  N   UNL A   1      31.046  25.748  22.854  1.00  0.00    -0.271 N 
ATOM      9  C   UNL A   1      32.067  25.113  22.152  1.00  0.00     0.122 A 
ATOM     10  N   UNL A   1      30.351  24.845  23.583  1.00  0.00    -0.181 NA
ATOM     11  C   UNL A   1      31.137  23.751  23.553  1.00  0.00     0.149 A 
BRANCH   8  12
ATOM     12  C   UNL A   1      30.747  27.192  22.959  1.00  0.00     0.154 C 
BRANCH  12  13
ATOM     13  C   UNL A   1      31.815  28.167  23.593  1.00  0.00     0.124 C 
BRANCH  13  14
ATOM     14  C   UNL A   1      31.400  28.805  24.944  1.00  0.00     0.224 C 
ATOM     15  C   UNL A   1      33.535  30.666  27.043  1.00  0.00     0.009 C 
ATOM     16  C   UNL A   1      33.314  29.167  27.392  1.00  0.00     0.006 C 
ATOM     17  C   UNL A   1      34.093  28.265  26.400  1.00  0.00     0.010 C 
ATOM     18  C   UNL A   1      31.814  28.837  27.366  1.00  0.00     0.122 C 
ATOM     19  C   UNL A   1      33.524  26.886  25.856  1.00  0.00     0.006 C 
ATOM     20  N   UNL A   1      31.523  28.082  26.144  1.00  0.00    -0.342 N 
ATOM     21  C   UNL A   1      32.069  26.744  26.207  1.00  0.00     0.122 C 
ATOM     22  C   UNL A   1      34.157  25.498  25.699  1.00  0.00     0.009 C 
ATOM     23  O   UNL A   1      31.010  29.975  24.952  1.00  0.00    -0.275 OA
ENDBRANCH  13  14
ENDBRANCH  12  13
ENDBRANCH   8  12
ENDBRANCH   4   7
ENDBRANCH   2   3
ENDBRANCH   1   2
BRANCH   1  24
ATOM     24  C   UNL A   1      37.134  23.510  25.091  1.00  0.00     0.023 C 
BRANCH  24  25
ATOM     25  C   UNL A   1      37.893  23.266  26.387  1.00  0.00     0.116 C 
BRANCH  25  26
ATOM     26  N   UNL A   1      38.943  22.231  26.386  1.00  0.00    -0.352 N 
ATOM     27  C   UNL A   1      40.318  22.482  26.306  1.00  0.00     0.251 C 
ATOM     28  H   UNL A   1      38.654  21.292  26.448  1.00  0.00     0.163 HD
ATOM     29  O   UNL A   1      41.123  21.612  25.972  1.00  0.00    -0.269 OA
BRANCH  27  30
ATOM     30  C   UNL A   1      40.778  23.837  26.670  1.00  0.00     0.039 A 
ATOM     31  C   UNL A   1      40.415  25.012  26.001  1.00  0.00     0.014 A 
ATOM     32  C   UNL A   1      41.479  23.887  27.864  1.00  0.00     0.014 A 
ATOM     33  C   UNL A   1      40.665  26.240  26.624  1.00  0.00     0.010 A 
ATOM     34  C   UNL A   1      41.459  25.046  28.577  1.00  0.00     0.010 A 
ATOM     35  C   UNL A   1      41.161  26.241  27.933  1.00  0.00    -0.014 A 
BRANCH  35  36
ATOM     36  C   UNL A   1      41.362  27.442  28.738  1.00  0.00     0.031 A 
ATOM     37  C   UNL A   1      42.553  28.271  28.392  1.00  0.00     0.074 A 
ATOM     38  C   UNL A   1      40.332  27.906  29.488  1.00  0.00     0.049 A 
ATOM     39  N   UNL A   1      43.553  28.574  29.152  1.00  0.00    -0.248 NA
ATOM     40  C   UNL A   1      42.730  28.719  26.999  1.00  0.00     0.031 C 
ATOM     41  C   UNL A   1      38.988  27.325  29.653  1.00  0.00     0.029 A 
ATOM     42  N   UNL A   1      40.211  29.095  30.132  1.00  0.00    -0.354 N 
ATOM     43  C   UNL A   1      44.376  29.424  28.412  1.00  0.00     0.074 A 
ATOM     44  C   UNL A   1      43.923  29.318  27.051  1.00  0.00     0.031 C 
ATOM     45  C   UNL A   1      38.135  28.265  30.113  1.00  0.00     0.029 A 
ATOM     46  C   UNL A   1      38.898  29.447  30.449  1.00  0.00     0.049 A 
ATOM     47  H   UNL A   1      40.984  29.660  30.357  1.00  0.00     0.167 HD
ATOM     48  C   UNL A   1      45.230  30.300  29.020  1.00  0.00     0.037 A 
ATOM     49  C   UNL A   1      38.480  30.652  30.917  1.00  0.00     0.037 A 
ATOM     50  C   UNL A   1      45.318  30.017  30.433  1.00  0.00     0.049 A 
ATOM     51  C   UNL A   1      39.688  31.312  31.492  1.00  0.00     0.074 A 
ATOM     52  C   UNL A   1      45.753  28.936  31.174  1.00  0.00     0.029 A 
ATOM     53  N   UNL A   1      44.538  30.771  31.278  1.00  0.00    -0.354 N 
ATOM     54  N   UNL A   1      40.330  30.842  32.533  1.00  0.00    -0.248 NA
ATOM     55  C   UNL A   1      40.477  32.160  30.610  1.00  0.00     0.031 C 
ATOM     56  C   UNL A   1      44.817  28.834  32.244  1.00  0.00     0.029 A 
ATOM     57  C   UNL A   1      43.928  29.908  32.152  1.00  0.00     0.049 A 
ATOM     58  H   UNL A   1      44.437  31.750  31.260  1.00  0.00     0.167 HD
ATOM     59  C   UNL A   1      41.677  30.979  32.219  1.00  0.00     0.074 A 
ATOM     60  C   UNL A   1      41.704  31.860  31.050  1.00  0.00     0.031 C 
ATOM     61  C   UNL A   1      42.619  30.128  32.730  1.00  0.00     0.037 A 
BRANCH  48  62
ATOM     62  C   UNL A   1      45.733  31.612  28.460  1.00  0.00     0.058 A 
ATOM     63  C   UNL A   1      44.807  32.651  28.213  1.00  0.00     0.135 A 
ATOM     64  C   UNL A   1      47.013  31.799  27.897  1.00  0.00     0.135 A 
ATOM     65  F   UNL A   1      43.565  32.599  28.722  1.00  0.00    -0.206 F 
ATOM     66  C   UNL A   1      45.094  33.733  27.380  1.00  0.00     0.059 A 
ATOM     67  C   UNL A   1      47.337  32.897  27.104  1.00  0.00     0.059 A 
ATOM     68  F   UNL A   1      47.983  30.885  28.006  1.00  0.00    -0.206 F 
ATOM     69  C   UNL A   1      46.357  33.832  26.808  1.00  0.00     0.060 A 
BRANCH  69  70
ATOM     70  S   UNL A   1      46.687  35.147  25.623  1.00  0.00     0.124 S 
ATOM     71  O   UNL A   1      45.933  34.688  24.462  1.00  0.00    -0.237 OA
ATOM     72  O   UNL A   1      46.154  36.317  26.311  1.00  0.00    -0.237 OA
ATOM     73  O   UNL A   1      48.140  35.117  25.484  1.00  0.00    -0.744 OA
ENDBRANCH  69  70
ENDBRANCH  48  62
BRANCH  49  74
ATOM     74  C   UNL A   1      37.218  31.365  30.572  1.00  0.00     0.058 A 
ATOM     75  C   UNL A   1      36.367  31.891  31.560  1.00  0.00     0.135 A 
ATOM     76  C   UNL A   1      36.941  31.770  29.246  1.00  0.00     0.135 A 
ATOM     77  F   UNL A   1      36.565  31.581  32.851  1.00  0.00    -0.206 F 
ATOM     78  C   UNL A   1      35.336  32.793  31.259  1.00  0.00     0.059 A 
ATOM     79  C   UNL A   1      35.915  32.658  28.921  1.00  0.00     0.059 A 
ATOM     80  F   UNL A   1      37.722  31.378  28.228  1.00  0.00    -0.206 F 
ATOM     81  C   UNL A   1      35.130  33.188  29.937  1.00  0.00     0.060 A 
BRANCH  81  82
ATOM     82  S   UNL A   1      33.925  34.488  29.568  1.00  0.00     0.124 S 
ATOM     83  O   UNL A   1      33.349  34.751  30.882  1.00  0.00    -0.237 OA
ATOM     84  O   UNL A   1      34.769  35.545  29.020  1.00  0.00    -0.237 OA
ATOM     85  O   UNL A   1      33.024  33.858  28.607  1.00  0.00    -0.744 OA
ENDBRANCH  81  82
ENDBRANCH  49  74
BRANCH  61  86
ATOM     86  C   UNL A   1      42.217  29.167  33.825  1.00  0.00     0.058 A 
ATOM     87  C   UNL A   1      41.675  27.889  33.599  1.00  0.00     0.135 A 
ATOM     88  C   UNL A   1      42.602  29.467  35.139  1.00  0.00     0.135 A 
ATOM     89  F   UNL A   1      41.381  27.475  32.361  1.00  0.00    -0.206 F 
ATOM     90  C   UNL A   1      41.497  26.964  34.629  1.00  0.00     0.059 A 
ATOM     91  C   UNL A   1      42.464  28.550  36.179  1.00  0.00     0.059 A 
ATOM     92  F   UNL A   1      43.191  30.642  35.414  1.00  0.00    -0.206 F 
ATOM     93  C   UNL A   1      41.901  27.302  35.918  1.00  0.00     0.060 A 
BRANCH  93  94
ATOM     94  S   UNL A   1      41.757  26.075  37.234  1.00  0.00     0.124 S 
ATOM     95  O   UNL A   1      42.812  26.492  38.154  1.00  0.00    -0.237 OA
ATOM     96  O   UNL A   1      40.391  26.272  37.707  1.00  0.00    -0.237 OA
ATOM     97  O   UNL A   1      41.992  24.808  36.546  1.00  0.00    -0.744 OA
ENDBRANCH  93  94
ENDBRANCH  61  86
ENDBRANCH  35  36
ENDBRANCH  27  30
ENDBRANCH  25  26
ENDBRANCH  24  25
ENDBRANCH   1  24
TORSDOF 17
ENDMDL
MODEL 2
REMARK VINA RESULT:     -12.0      1.535      2.594
REMARK SMILES C[C@@H]1C[C@@H](C)CN(C(=O)CCn2cc(C(=O)NCCCCNC(=O)c3ccc(-c4c5nc(c(-c6c(F)cc(S(=O)(=O)[O-])cc6F)c6ccc([nH]6)c(-c6c(F)cc(S(=O)(=O)[O-])cc6F)c6nc(c(-c7c(F)cc(S(=O)(=O)[O-])cc7F)c7ccc4[nH]7)C=C6)C=C5)cc3)cn2)C1
REMARK SMILES IDX 19 1 18 2 17 3 15 4 16 5 14 7 12 8 13 9 92 10 91 11 11 12
REMARK SMILES IDX 10 13 8 14 1 15 2 16 3 17 93 18 4 19 7 20 6 21 5 22 9 23
REMARK SMILES IDX 20 24 21 25 22 26 23 27 24 29 25 30 26 31 90 32 27 33 89 34
REMARK SMILES IDX 28 35 29 36 30 37 83 38 31 39 88 40 82 41 84 42 32 43 87 44
REMARK SMILES IDX 81 45 80 46 33 48 67 49 46 50 66 51 47 52 50 53 65 54 85 55
REMARK SMILES IDX 48 56 49 57 64 59 86 60 51 61 34 62 35 63 44 64 36 65 37 66
REMARK SMILES IDX 43 67 45 68 38 69 39 70 40 71 41 72 42 73 68 74 69 75 78 76
REMARK SMILES IDX 70 77 71 78 77 79 79 80 72 81 73 82 74 83 75 84 76 85 52 86
REMARK SMILES IDX 53 87 62 88 54 89 55 90 61 91 63 92 56 93 57 94 58 95 59 96
REMARK SMILES IDX 60 97
REMARK H PARENT 17 6 22 28 84 47 50 58
REMARK Flexibility Score: inf
ROOT
ATOM      1  C   UNL A   1      38.525  22.117  25.871  1.00  0.00     0.023 C 
ENDROOT
BRANCH   1   2
ATOM      2  C   UNL A   1      37.060  22.325  25.329  1.00  0.00     0.116 C 
BRANCH   2   3
ATOM      3  N   UNL A   1      35.980  21.536  26.076  1.00  0.00    -0.352 N 
ATOM      4  C   UNL A   1      34.685  21.139  25.634  1.00  0.00     0.254 C 
ATOM      5  O   UNL A   1      34.597  20.226  24.820  1.00  0.00    -0.269 OA
ATOM      6  H   UNL A   1      36.214  21.266  26.994  1.00  0.00     0.163 HD
BRANCH   4   7
ATOM      7  C   UNL A   1      33.466  21.688  26.319  1.00  0.00     0.077 A 
ATOM      8  N   UNL A   1      31.491  22.693  26.594  1.00  0.00    -0.271 N 
ATOM      9  C   UNL A   1      32.127  21.663  25.905  1.00  0.00     0.122 A 
ATOM     10  N   UNL A   1      32.146  22.956  27.747  1.00  0.00    -0.181 NA
ATOM     11  C   UNL A   1      33.318  22.308  27.593  1.00  0.00     0.149 A 
BRANCH   8  12
ATOM     12  C   UNL A   1      30.343  23.524  26.172  1.00  0.00     0.154 C 
BRANCH  12  13
ATOM     13  C   UNL A   1      30.601  24.917  25.476  1.00  0.00     0.124 C 
BRANCH  13  14
ATOM     14  C   UNL A   1      31.035  24.836  23.989  1.00  0.00     0.224 C 
ATOM     15  C   UNL A   1      33.894  23.147  22.805  1.00  0.00     0.009 C 
ATOM     16  C   UNL A   1      34.006  24.683  23.018  1.00  0.00     0.006 C 
ATOM     17  C   UNL A   1      34.091  25.011  24.531  1.00  0.00     0.010 C 
ATOM     18  C   UNL A   1      32.803  25.391  22.375  1.00  0.00     0.122 C 
ATOM     19  C   UNL A   1      33.386  26.275  25.183  1.00  0.00     0.006 C 
ATOM     20  N   UNL A   1      31.885  25.811  23.437  1.00  0.00    -0.342 N 
ATOM     21  C   UNL A   1      32.432  26.906  24.206  1.00  0.00     0.122 C 
ATOM     22  C   UNL A   1      33.876  27.330  26.183  1.00  0.00     0.009 C 
ATOM     23  O   UNL A   1      30.664  23.871  23.315  1.00  0.00    -0.275 OA
ENDBRANCH  13  14
ENDBRANCH  12  13
ENDBRANCH   8  12
ENDBRANCH   4   7
ENDBRANCH   2   3
ENDBRANCH   1   2
BRANCH   1  24
ATOM     24  C   UNL A   1      39.195  23.135  26.838  1.00  0.00     0.023 C 
BRANCH  24  25
ATOM     25  C   UNL A   1      40.552  22.756  27.410  1.00  0.00     0.116 C 
BRANCH  25  26
ATOM     26  N   UNL A   1      41.617  22.376  26.464  1.00  0.00    -0.352 N 
ATOM     27  C   UNL A   1      42.380  23.276  25.711  1.00  0.00     0.251 C 
ATOM     28  H   UNL A   1      41.805  21.416  26.354  1.00  0.00     0.163 HD
ATOM     29  O   UNL A   1      43.005  22.925  24.710  1.00  0.00    -0.269 OA
BRANCH  27  30
ATOM     30  C   UNL A   1      42.437  24.673  26.185  1.00  0.00     0.039 A 
ATOM     31  C   UNL A   1      41.612  25.708  25.726  1.00  0.00     0.014 A 
ATOM     32  C   UNL A   1      43.271  24.861  27.275  1.00  0.00     0.014 A 
ATOM     33  C   UNL A   1      41.555  26.895  26.465  1.00  0.00     0.010 A 
ATOM     34  C   UNL A   1      42.999  25.886  28.128  1.00  0.00     0.010 A 
ATOM     35  C   UNL A   1      42.233  26.958  27.688  1.00  0.00    -0.014 A 
BRANCH  35  36
ATOM     36  C   UNL A   1      42.169  28.089  28.608  1.00  0.00     0.031 A 
ATOM     37  C   UNL A   1      43.268  29.092  28.491  1.00  0.00     0.074 A 
ATOM     38  C   UNL A   1      41.003  28.344  29.250  1.00  0.00     0.049 A 
ATOM     39  N   UNL A   1      44.119  29.441  29.400  1.00  0.00    -0.248 NA
ATOM     40  C   UNL A   1      43.548  29.694  27.176  1.00  0.00     0.031 C 
ATOM     41  C   UNL A   1      39.741  27.585  29.189  1.00  0.00     0.029 A 
ATOM     42  N   UNL A   1      40.644  29.438  29.969  1.00  0.00    -0.354 N 
ATOM     43  C   UNL A   1      44.901  30.457  28.847  1.00  0.00     0.074 A 
ATOM     44  C   UNL A   1      44.632  30.430  27.434  1.00  0.00     0.031 C 
ATOM     45  C   UNL A   1      38.719  28.360  29.608  1.00  0.00     0.029 A 
ATOM     46  C   UNL A   1      39.266  29.590  30.138  1.00  0.00     0.049 A 
ATOM     47  H   UNL A   1      41.299  30.072  30.340  1.00  0.00     0.167 HD
ATOM     48  C   UNL A   1      45.546  31.368  29.633  1.00  0.00     0.037 A 
ATOM     49  C   UNL A   1      38.634  30.681  30.643  1.00  0.00     0.037 A 
ATOM     50  C   UNL A   1      45.502  30.961  31.016  1.00  0.00     0.049 A 
ATOM     51  C   UNL A   1      39.662  31.427  31.425  1.00  0.00     0.074 A 
ATOM     52  C   UNL A   1      45.989  29.875  31.718  1.00  0.00     0.029 A 
ATOM     53  N   UNL A   1      44.530  31.524  31.811  1.00  0.00    -0.354 N 
ATOM     54  N   UNL A   1      40.232  30.941  32.499  1.00  0.00    -0.248 NA
ATOM     55  C   UNL A   1      40.427  32.450  30.728  1.00  0.00     0.031 C 
ATOM     56  C   UNL A   1      44.955  29.551  32.642  1.00  0.00     0.029 A 
ATOM     57  C   UNL A   1      43.944  30.508  32.522  1.00  0.00     0.049 A 
ATOM     58  H   UNL A   1      44.298  32.479  31.860  1.00  0.00     0.167 HD
ATOM     59  C   UNL A   1      41.576  31.276  32.378  1.00  0.00     0.074 A 
ATOM     60  C   UNL A   1      41.622  32.265  31.300  1.00  0.00     0.031 C 
ATOM     61  C   UNL A   1      42.557  30.504  32.938  1.00  0.00     0.037 A 
BRANCH  48  62
ATOM     62  C   UNL A   1      45.929  32.782  29.254  1.00  0.00     0.058 A 
ATOM     63  C   UNL A   1      44.920  33.669  28.810  1.00  0.00     0.135 A 
ATOM     64  C   UNL A   1      47.252  33.219  29.037  1.00  0.00     0.135 A 
ATOM     65  F   UNL A   1      43.621  33.376  28.988  1.00  0.00    -0.206 F 
ATOM     66  C   UNL A   1      45.204  34.839  28.106  1.00  0.00     0.059 A 
ATOM     67  C   UNL A   1      47.558  34.409  28.381  1.00  0.00     0.059 A 
ATOM     68  F   UNL A   1      48.314  32.472  29.360  1.00  0.00    -0.206 F 
ATOM     69  C   UNL A   1      46.529  35.187  27.873  1.00  0.00     0.060 A 
BRANCH  69  70
ATOM     70  S   UNL A   1      46.898  36.619  26.846  1.00  0.00     0.124 S 
ATOM     71  O   UNL A   1      47.899  37.307  27.654  1.00  0.00    -0.237 OA
ATOM     72  O   UNL A   1      47.384  35.996  25.619  1.00  0.00    -0.237 OA
ATOM     73  O   UNL A   1      45.608  37.292  26.731  1.00  0.00    -0.744 OA
ENDBRANCH  69  70
ENDBRANCH  48  62
BRANCH  49  74
ATOM     74  C   UNL A   1      37.336  31.260  30.194  1.00  0.00     0.058 A 
ATOM     75  C   UNL A   1      36.442  31.867  31.094  1.00  0.00     0.135 A 
ATOM     76  C   UNL A   1      37.055  31.457  28.823  1.00  0.00     0.135 A 
ATOM     77  F   UNL A   1      36.639  31.753  32.416  1.00  0.00    -0.206 F 
ATOM     78  C   UNL A   1      35.364  32.653  30.663  1.00  0.00     0.059 A 
ATOM     79  C   UNL A   1      35.982  32.227  28.370  1.00  0.00     0.059 A 
ATOM     80  F   UNL A   1      37.871  30.975  27.874  1.00  0.00    -0.206 F 
ATOM     81  C   UNL A   1      35.153  32.846  29.297  1.00  0.00     0.060 A 
BRANCH  81  82
ATOM     82  S   UNL A   1      33.877  34.004  28.741  1.00  0.00     0.124 S 
ATOM     83  O   UNL A   1      33.072  33.169  27.858  1.00  0.00    -0.237 OA
ATOM     84  O   UNL A   1      33.246  34.393  29.998  1.00  0.00    -0.237 OA
ATOM     85  O   UNL A   1      34.637  35.061  28.080  1.00  0.00    -0.744 OA
ENDBRANCH  81  82
ENDBRANCH  49  74
BRANCH  61  86
ATOM     86  C   UNL A   1      42.162  29.397  33.888  1.00  0.00     0.058 A 
ATOM     87  C   UNL A   1      42.033  28.045  33.520  1.00  0.00     0.135 A 
ATOM     88  C   UNL A   1      42.132  29.684  35.259  1.00  0.00     0.135 A 
ATOM     89  F   UNL A   1      42.158  27.664  32.244  1.00  0.00    -0.206 F 
ATOM     90  C   UNL A   1      41.854  27.032  34.463  1.00  0.00     0.059 A 
ATOM     91  C   UNL A   1      41.987  28.687  36.222  1.00  0.00     0.059 A 
ATOM     92  F   UNL A   1      42.321  30.944  35.685  1.00  0.00    -0.206 F 
ATOM     93  C   UNL A   1      41.838  27.363  35.815  1.00  0.00     0.060 A 
BRANCH  93  94
ATOM     94  S   UNL A   1      41.700  26.045  37.041  1.00  0.00     0.124 S 
ATOM     95  O   UNL A   1      41.905  24.850  36.228  1.00  0.00    -0.237 OA
ATOM     96  O   UNL A   1      42.773  26.365  37.977  1.00  0.00    -0.237 OA
ATOM     97  O   UNL A   1      40.350  26.214  37.573  1.00  0.00    -0.744 OA
ENDBRANCH  93  94
ENDBRANCH  61  86
ENDBRANCH  35  36
ENDBRANCH  27  30
ENDBRANCH  25  26
ENDBRANCH  24  25
ENDBRANCH   1  24
TORSDOF 17
ENDMDL
MODEL 3
REMARK VINA RESULT:     -11.9      1.456      2.156
REMARK SMILES C[C@@H]1C[C@@H](C)CN(C(=O)CCn2cc(C(=O)NCCCCNC(=O)c3ccc(-c4c5nc(c(-c6c(F)cc(S(=O)(=O)[O-])cc6F)c6ccc([nH]6)c(-c6c(F)cc(S(=O)(=O)[O-])cc6F)c6nc(c(-c7c(F)cc(S(=O)(=O)[O-])cc7F)c7ccc4[nH]7)C=C6)C=C5)cc3)cn2)C1
REMARK SMILES IDX 19 1 18 2 17 3 15 4 16 5 14 7 12 8 13 9 92 10 91 11 11 12
REMARK SMILES IDX 10 13 8 14 1 15 2 16 3 17 93 18 4 19 7 20 6 21 5 22 9 23
REMARK SMILES IDX 20 24 21 25 22 26 23 27 24 29 25 30 26 31 90 32 27 33 89 34
REMARK SMILES IDX 28 35 29 36 30 37 83 38 31 39 88 40 82 41 84 42 32 43 87 44
REMARK SMILES IDX 81 45 80 46 33 48 67 49 46 50 66 51 47 52 50 53 65 54 85 55
REMARK SMILES IDX 48 56 49 57 64 59 86 60 51 61 34 62 35 63 44 64 36 65 37 66
REMARK SMILES IDX 43 67 45 68 38 69 39 70 40 71 41 72 42 73 68 74 69 75 78 76
REMARK SMILES IDX 70 77 71 78 77 79 79 80 72 81 73 82 74 83 75 84 76 85 52 86
REMARK SMILES IDX 53 87 62 88 54 89 55 90 61 91 63 92 56 93 57 94 58 95 59 96
REMARK SMILES IDX 60 97
REMARK H PARENT 17 6 22 28 84 47 50 58
REMARK Flexibility Score: inf
ROOT
ATOM      1  C   UNL A   1      37.674  21.967  25.276  1.00  0.00     0.023 C 
ENDROOT
BRANCH   1   2
ATOM      2  C   UNL A   1      36.261  21.389  25.666  1.00  0.00     0.116 C 
BRANCH   2   3
ATOM      3  N   UNL A   1      35.076  22.048  24.953  1.00  0.00    -0.352 N 
ATOM      4  C   UNL A   1      34.574  23.376  25.075  1.00  0.00     0.254 C 
ATOM      5  O   UNL A   1      35.213  24.293  24.573  1.00  0.00    -0.269 OA
ATOM      6  H   UNL A   1      34.592  21.470  24.318  1.00  0.00     0.163 HD
BRANCH   4   7
ATOM      7  C   UNL A   1      33.192  23.599  25.621  1.00  0.00     0.077 A 
ATOM      8  N   UNL A   1      31.240  24.599  26.035  1.00  0.00    -0.271 N 
ATOM      9  C   UNL A   1      32.077  24.183  25.004  1.00  0.00     0.122 A 
ATOM     10  N   UNL A   1      31.458  23.853  27.142  1.00  0.00    -0.181 NA
ATOM     11  C   UNL A   1      32.613  23.217  26.865  1.00  0.00     0.149 A 
BRANCH   8  12
ATOM     12  C   UNL A   1      30.304  25.744  26.069  1.00  0.00     0.154 C 
BRANCH  12  13
ATOM     13  C   UNL A   1      30.866  27.216  25.970  1.00  0.00     0.124 C 
BRANCH  13  14
ATOM     14  C   UNL A   1      30.995  27.772  24.528  1.00  0.00     0.224 C 
ATOM     15  C   UNL A   1      33.347  26.680  22.140  1.00  0.00     0.009 C 
ATOM     16  C   UNL A   1      33.684  27.970  22.940  1.00  0.00     0.006 C 
ATOM     17  C   UNL A   1      34.096  27.609  24.390  1.00  0.00     0.010 C 
ATOM     18  C   UNL A   1      32.476  28.919  22.938  1.00  0.00     0.122 C 
ATOM     19  C   UNL A   1      33.688  28.487  25.649  1.00  0.00     0.006 C 
ATOM     20  N   UNL A   1      31.836  28.865  24.255  1.00  0.00    -0.342 N 
ATOM     21  C   UNL A   1      32.650  29.505  25.264  1.00  0.00     0.122 C 
ATOM     22  C   UNL A   1      34.485  28.992  26.858  1.00  0.00     0.009 C 
ATOM     23  O   UNL A   1      30.386  27.204  23.617  1.00  0.00    -0.275 OA
ENDBRANCH  13  14
ENDBRANCH  12  13
ENDBRANCH   8  12
ENDBRANCH   4   7
ENDBRANCH   2   3
ENDBRANCH   1   2
BRANCH   1  24
ATOM     24  C   UNL A   1      38.278  23.209  25.992  1.00  0.00     0.023 C 
BRANCH  24  25
ATOM     25  C   UNL A   1      39.463  22.968  26.914  1.00  0.00     0.116 C 
BRANCH  25  26
ATOM     26  N   UNL A   1      40.657  22.316  26.345  1.00  0.00    -0.352 N 
ATOM     27  C   UNL A   1      41.771  22.990  25.830  1.00  0.00     0.251 C 
ATOM     28  H   UNL A   1      40.672  21.332  26.326  1.00  0.00     0.163 HD
ATOM     29  O   UNL A   1      42.574  22.444  25.074  1.00  0.00    -0.269 OA
BRANCH  27  30
ATOM     30  C   UNL A   1      41.968  24.390  26.256  1.00  0.00     0.039 A 
ATOM     31  C   UNL A   1      41.354  25.501  25.665  1.00  0.00     0.014 A 
ATOM     32  C   UNL A   1      42.691  24.521  27.430  1.00  0.00     0.014 A 
ATOM     33  C   UNL A   1      41.379  26.722  26.348  1.00  0.00     0.010 A 
ATOM     34  C   UNL A   1      42.470  25.616  28.208  1.00  0.00     0.010 A 
ATOM     35  C   UNL A   1      41.917  26.758  27.640  1.00  0.00    -0.014 A 
BRANCH  35  36
ATOM     36  C   UNL A   1      41.908  27.933  28.505  1.00  0.00     0.031 A 
ATOM     37  C   UNL A   1      43.024  28.903  28.303  1.00  0.00     0.074 A 
ATOM     38  C   UNL A   1      40.770  28.246  29.171  1.00  0.00     0.049 A 
ATOM     39  N   UNL A   1      43.911  29.277  29.166  1.00  0.00    -0.248 NA
ATOM     40  C   UNL A   1      43.273  29.434  26.951  1.00  0.00     0.031 C 
ATOM     41  C   UNL A   1      39.490  27.514  29.187  1.00  0.00     0.029 A 
ATOM     42  N   UNL A   1      40.457  29.382  29.845  1.00  0.00    -0.354 N 
ATOM     43  C   UNL A   1      44.696  30.246  28.539  1.00  0.00     0.074 A 
ATOM     44  C   UNL A   1      44.380  30.157  27.137  1.00  0.00     0.031 C 
ATOM     45  C   UNL A   1      38.499  28.333  29.600  1.00  0.00     0.029 A 
ATOM     46  C   UNL A   1      39.090  29.574  30.050  1.00  0.00     0.049 A 
ATOM     47  H   UNL A   1      41.138  30.018  30.163  1.00  0.00     0.167 HD
ATOM     48  C   UNL A   1      45.386  31.180  29.257  1.00  0.00     0.037 A 
ATOM     49  C   UNL A   1      38.498  30.702  30.521  1.00  0.00     0.037 A 
ATOM     50  C   UNL A   1      45.379  30.842  30.659  1.00  0.00     0.049 A 
ATOM     51  C   UNL A   1      39.567  31.462  31.232  1.00  0.00     0.074 A 
ATOM     52  C   UNL A   1      45.866  29.781  31.398  1.00  0.00     0.029 A 
ATOM     53  N   UNL A   1      44.447  31.465  31.456  1.00  0.00    -0.354 N 
ATOM     54  N   UNL A   1      40.162  31.016  32.310  1.00  0.00    -0.248 NA
ATOM     55  C   UNL A   1      40.331  32.432  30.460  1.00  0.00     0.031 C 
ATOM     56  C   UNL A   1      44.856  29.526  32.370  1.00  0.00     0.029 A 
ATOM     57  C   UNL A   1      43.863  30.499  32.235  1.00  0.00     0.049 A 
ATOM     58  H   UNL A   1      44.237  32.427  31.465  1.00  0.00     0.167 HD
ATOM     59  C   UNL A   1      41.508  31.314  32.129  1.00  0.00     0.074 A 
ATOM     60  C   UNL A   1      41.540  32.247  31.003  1.00  0.00     0.031 C 
ATOM     61  C   UNL A   1      42.491  30.548  32.695  1.00  0.00     0.037 A 
BRANCH  48  62
ATOM     62  C   UNL A   1      45.786  32.565  28.796  1.00  0.00     0.058 A 
ATOM     63  C   UNL A   1      47.142  32.955  28.899  1.00  0.00     0.135 A 
ATOM     64  C   UNL A   1      44.878  33.610  28.528  1.00  0.00     0.135 A 
ATOM     65  F   UNL A   1      48.104  32.044  29.122  1.00  0.00    -0.206 F 
ATOM     66  C   UNL A   1      47.546  34.289  28.853  1.00  0.00     0.059 A 
ATOM     67  C   UNL A   1      45.266  34.943  28.428  1.00  0.00     0.059 A 
ATOM     68  F   UNL A   1      43.558  33.406  28.447  1.00  0.00    -0.206 F 
ATOM     69  C   UNL A   1      46.594  35.280  28.643  1.00  0.00     0.060 A 
BRANCH  69  70
ATOM     70  S   UNL A   1      47.088  37.010  28.723  1.00  0.00     0.124 S 
ATOM     71  O   UNL A   1      46.562  37.403  30.026  1.00  0.00    -0.237 OA
ATOM     72  O   UNL A   1      48.541  36.915  28.622  1.00  0.00    -0.237 OA
ATOM     73  O   UNL A   1      46.423  37.603  27.568  1.00  0.00    -0.744 OA
ENDBRANCH  69  70
ENDBRANCH  48  62
BRANCH  49  74
ATOM     74  C   UNL A   1      37.199  31.289  30.086  1.00  0.00     0.058 A 
ATOM     75  C   UNL A   1      36.289  31.844  31.003  1.00  0.00     0.135 A 
ATOM     76  C   UNL A   1      36.929  31.546  28.722  1.00  0.00     0.135 A 
ATOM     77  F   UNL A   1      36.475  31.671  32.321  1.00  0.00    -0.206 F 
ATOM     78  C   UNL A   1      35.207  32.639  30.598  1.00  0.00     0.059 A 
ATOM     79  C   UNL A   1      35.853  32.325  28.295  1.00  0.00     0.059 A 
ATOM     80  F   UNL A   1      37.760  31.116  27.761  1.00  0.00    -0.206 F 
ATOM     81  C   UNL A   1      35.009  32.892  29.240  1.00  0.00     0.060 A 
BRANCH  81  82
ATOM     82  S   UNL A   1      33.726  34.062  28.725  1.00  0.00     0.124 S 
ATOM     83  O   UNL A   1      33.226  34.549  30.006  1.00  0.00    -0.237 OA
ATOM     84  O   UNL A   1      34.487  35.024  27.934  1.00  0.00    -0.237 OA
ATOM     85  O   UNL A   1      32.793  33.237  27.964  1.00  0.00    -0.744 OA
ENDBRANCH  81  82
ENDBRANCH  49  74
BRANCH  61  86
ATOM     86  C   UNL A   1      42.104  29.498  33.711  1.00  0.00     0.058 A 
ATOM     87  C   UNL A   1      41.834  28.153  33.397  1.00  0.00     0.135 A 
ATOM     88  C   UNL A   1      42.229  29.817  35.070  1.00  0.00     0.135 A 
ATOM     89  F   UNL A   1      41.806  27.735  32.127  1.00  0.00    -0.206 F 
ATOM     90  C   UNL A   1      41.669  27.179  34.383  1.00  0.00     0.059 A 
ATOM     91  C   UNL A   1      42.100  28.857  36.071  1.00  0.00     0.059 A 
ATOM     92  F   UNL A   1      42.556  31.067  35.437  1.00  0.00    -0.206 F 
ATOM     93  C   UNL A   1      41.809  27.540  35.720  1.00  0.00     0.060 A 
BRANCH  93  94
ATOM     94  S   UNL A   1      41.688  26.265  36.993  1.00  0.00     0.124 S 
ATOM     95  O   UNL A   1      42.791  26.617  37.882  1.00  0.00    -0.237 OA
ATOM     96  O   UNL A   1      40.348  26.478  37.531  1.00  0.00    -0.237 OA
ATOM     97  O   UNL A   1      41.859  25.021  36.247  1.00  0.00    -0.744 OA
ENDBRANCH  93  94
ENDBRANCH  61  86
ENDBRANCH  35  36
ENDBRANCH  27  30
ENDBRANCH  25  26
ENDBRANCH  24  25
ENDBRANCH   1  24
TORSDOF 17
ENDMDL
