MODEL 1
REMARK VINA RESULT:     -12.5      0.000      0.000
REMARK SMILES CN1C(=O)C[C@H](C(=O)Nc2ccc(C(=O)NCCCCNC(=O)c3ccc(-c4c5nc(c(-c6c(F)cc(S(=O)(=O)[O-])cc6F)c6ccc([nH]6)c(-c6c(F)cc(S(=O)(=O)[O-])cc6F)c6nc(c(-c7c(F)cc(S(=O)(=O)[O-])cc7F)c7ccc4[nH]7)C=C6)C=C5)cc3)cc2)S/C1=[NH+]\c1cccc(C(F)(F)F)c1
REMARK SMILES IDX 18 1 17 2 16 3 14 4 15 5 13 7 10 8 11 9 91 10 12 11 90 12
REMARK SMILES IDX 9 13 7 14 8 15 6 17 1 18 2 19 3 20 93 21 4 22 5 23 92 24
REMARK SMILES IDX 94 25 95 27 96 28 104 29 97 30 99 31 98 32 100 33 101 34
REMARK SMILES IDX 102 35 103 36 19 37 20 38 21 39 22 40 23 42 24 43 25 44
REMARK SMILES IDX 89 45 26 46 88 47 27 48 28 49 29 50 82 51 30 52 87 53 81 54
REMARK SMILES IDX 83 55 31 56 86 57 80 58 79 59 32 61 66 62 45 63 65 64 46 65
REMARK SMILES IDX 49 66 64 67 84 68 47 69 48 70 63 72 85 73 50 74 33 75 34 76
REMARK SMILES IDX 43 77 35 78 36 79 42 80 44 81 37 82 38 83 39 84 40 85 41 86
REMARK SMILES IDX 67 87 68 88 77 89 69 90 70 91 76 92 78 93 71 94 72 95 73 96
REMARK SMILES IDX 74 97 75 98 51 99 52 100 61 101 53 102 54 103 60 104 62 105
REMARK SMILES IDX 55 106 56 107 57 108 58 109 59 110
REMARK H PARENT 16 6 9 16 94 26 21 41 83 60 49 71
REMARK Flexibility Score: inf
ROOT
ATOM      1  C   UNL A   1      37.508  33.781  28.938  1.00  0.00     0.023 C 
ENDROOT
BRANCH   1   2
ATOM      2  C   UNL A   1      36.480  33.005  28.112  1.00  0.00     0.116 C 
BRANCH   2   3
ATOM      3  N   UNL A   1      35.133  33.400  28.478  1.00  0.00    -0.352 N 
ATOM      4  C   UNL A   1      33.919  32.798  28.271  1.00  0.00     0.251 C 
ATOM      5  O   UNL A   1      32.908  33.350  28.705  1.00  0.00    -0.269 OA
ATOM      6  H   UNL A   1      35.082  34.254  28.963  1.00  0.00     0.163 HD
BRANCH   4   7
ATOM      7  C   UNL A   1      33.789  31.467  27.622  1.00  0.00     0.039 A 
ATOM      8  C   UNL A   1      33.895  29.064  26.211  1.00  0.00     0.041 A 
ATOM      9  C   UNL A   1      34.857  29.334  27.181  1.00  0.00     0.027 A 
ATOM     10  C   UNL A   1      32.787  29.896  26.071  1.00  0.00     0.027 A 
ATOM     11  C   UNL A   1      34.820  30.548  27.861  1.00  0.00     0.016 A 
ATOM     12  C   UNL A   1      32.727  31.087  26.797  1.00  0.00     0.016 A 
BRANCH   8  13
ATOM     13  N   UNL A   1      34.113  27.963  25.391  1.00  0.00    -0.325 N 
ATOM     14  C   UNL A   1      33.605  26.702  25.463  1.00  0.00     0.238 C 
ATOM     15  O   UNL A   1      34.109  25.883  24.684  1.00  0.00    -0.273 OA
ATOM     16  H   UNL A   1      34.732  28.120  24.641  1.00  0.00     0.169 HD
BRANCH  14  17
ATOM     17  C   UNL A   1      32.464  26.315  26.436  1.00  0.00     0.160 C 
ATOM     18  C   UNL A   1      29.964  24.879  23.135  1.00  0.00     0.301 C 
ATOM     19  N   UNL A   1      30.733  25.243  24.321  1.00  0.00    -0.194 N 
ATOM     20  C   UNL A   1      30.505  26.511  24.842  1.00  0.00     0.311 C 
ATOM     21  C   UNL A   1      31.680  24.318  24.771  1.00  0.00     0.319 C 
ATOM     22  O   UNL A   1      29.857  27.379  24.253  1.00  0.00    -0.247 OA
ATOM     23  C   UNL A   1      31.051  26.810  26.210  1.00  0.00     0.153 C 
ATOM     24  S   UNL A   1      32.260  24.507  26.421  1.00  0.00    -0.024 SA
ATOM     25  N   UNL A   1      32.050  23.368  23.969  1.00  0.00    -0.235 N 
ATOM     26  H   UNL A   1      31.604  23.267  23.097  1.00  0.00     0.313 HD
BRANCH  25  27
ATOM     27  C   UNL A   1      33.073  22.484  24.325  1.00  0.00     0.126 A 
ATOM     28  C   UNL A   1      32.752  21.263  24.925  1.00  0.00     0.052 A 
ATOM     29  C   UNL A   1      34.409  22.810  24.101  1.00  0.00     0.064 A 
ATOM     30  C   UNL A   1      33.755  20.356  25.260  1.00  0.00     0.005 A 
ATOM     31  C   UNL A   1      35.426  21.892  24.392  1.00  0.00     0.060 A 
ATOM     32  C   UNL A   1      35.088  20.664  24.987  1.00  0.00     0.013 A 
BRANCH  31  33
ATOM     33  C   UNL A   1      36.856  22.212  24.057  1.00  0.00     0.416 C 
ATOM     34  F   UNL A   1      37.343  23.249  24.793  1.00  0.00    -0.166 F 
ATOM     35  F   UNL A   1      37.697  21.164  24.288  1.00  0.00    -0.166 F 
ATOM     36  F   UNL A   1      37.048  22.558  22.753  1.00  0.00    -0.166 F 
ENDBRANCH  31  33
ENDBRANCH  25  27
ENDBRANCH  14  17
ENDBRANCH   8  13
ENDBRANCH   4   7
ENDBRANCH   2   3
ENDBRANCH   1   2
BRANCH   1  37
ATOM     37  C   UNL A   1      37.147  33.924  30.418  1.00  0.00     0.023 C 
BRANCH  37  38
ATOM     38  C   UNL A   1      37.661  32.807  31.318  1.00  0.00     0.116 C 
BRANCH  38  39
ATOM     39  N   UNL A   1      36.708  31.719  31.470  1.00  0.00    -0.352 N 
ATOM     40  C   UNL A   1      36.828  30.400  31.101  1.00  0.00     0.251 C 
ATOM     41  H   UNL A   1      35.857  31.963  31.900  1.00  0.00     0.163 HD
ATOM     42  O   UNL A   1      35.864  29.656  31.201  1.00  0.00    -0.269 OA
BRANCH  40  43
ATOM     43  C   UNL A   1      38.109  29.902  30.552  1.00  0.00     0.039 A 
ATOM     44  C   UNL A   1      38.307  29.961  29.171  1.00  0.00     0.014 A 
ATOM     45  C   UNL A   1      39.109  29.386  31.383  1.00  0.00     0.014 A 
ATOM     46  C   UNL A   1      39.529  29.557  28.630  1.00  0.00     0.010 A 
ATOM     47  C   UNL A   1      40.352  29.054  30.850  1.00  0.00     0.010 A 
ATOM     48  C   UNL A   1      40.574  29.131  29.469  1.00  0.00    -0.014 A 
BRANCH  48  49
ATOM     49  C   UNL A   1      41.902  28.785  28.899  1.00  0.00     0.031 A 
ATOM     50  C   UNL A   1      42.984  29.824  28.788  1.00  0.00     0.074 A 
ATOM     51  C   UNL A   1      42.117  27.532  28.453  1.00  0.00     0.049 A 
ATOM     52  N   UNL A   1      44.211  29.690  28.354  1.00  0.00    -0.248 NA
ATOM     53  C   UNL A   1      42.638  31.196  29.192  1.00  0.00     0.031 C 
ATOM     54  C   UNL A   1      41.121  26.457  28.437  1.00  0.00     0.029 A 
ATOM     55  N   UNL A   1      43.243  26.946  27.932  1.00  0.00    -0.354 N 
ATOM     56  C   UNL A   1      44.782  30.955  28.430  1.00  0.00     0.074 A 
ATOM     57  C   UNL A   1      43.748  31.855  28.893  1.00  0.00     0.031 C 
ATOM     58  C   UNL A   1      41.691  25.335  27.970  1.00  0.00     0.029 A 
ATOM     59  C   UNL A   1      43.082  25.615  27.629  1.00  0.00     0.049 A 
ATOM     60  H   UNL A   1      44.086  27.434  27.787  1.00  0.00     0.167 HD
ATOM     61  C   UNL A   1      46.058  31.328  28.167  1.00  0.00     0.037 A 
ATOM     62  C   UNL A   1      43.960  24.717  27.144  1.00  0.00     0.037 A 
ATOM     63  C   UNL A   1      47.086  30.422  27.721  1.00  0.00     0.049 A 
ATOM     64  C   UNL A   1      45.378  25.147  26.889  1.00  0.00     0.074 A 
ATOM     65  C   UNL A   1      48.424  30.688  27.481  1.00  0.00     0.029 A 
ATOM     66  N   UNL A   1      46.893  29.076  27.446  1.00  0.00    -0.354 N 
ATOM     67  N   UNL A   1      45.922  26.332  27.042  1.00  0.00    -0.248 NA
ATOM     68  C   UNL A   1      46.306  24.115  26.410  1.00  0.00     0.031 C 
ATOM     69  C   UNL A   1      49.029  29.512  27.020  1.00  0.00     0.029 A 
ATOM     70  C   UNL A   1      48.080  28.501  27.022  1.00  0.00     0.049 A 
ATOM     71  H   UNL A   1      46.037  28.599  27.539  1.00  0.00     0.167 HD
ATOM     72  C   UNL A   1      47.261  26.181  26.699  1.00  0.00     0.074 A 
ATOM     73  C   UNL A   1      47.447  24.786  26.355  1.00  0.00     0.031 C 
ATOM     74  C   UNL A   1      48.247  27.114  26.671  1.00  0.00     0.037 A 
BRANCH  61  75
ATOM     75  C   UNL A   1      46.414  32.778  28.363  1.00  0.00     0.058 A 
ATOM     76  C   UNL A   1      46.277  33.716  27.326  1.00  0.00     0.135 A 
ATOM     77  C   UNL A   1      46.869  33.243  29.607  1.00  0.00     0.135 A 
ATOM     78  F   UNL A   1      45.861  33.325  26.111  1.00  0.00    -0.206 F 
ATOM     79  C   UNL A   1      46.608  35.055  27.507  1.00  0.00     0.059 A 
ATOM     80  C   UNL A   1      47.179  34.583  29.818  1.00  0.00     0.059 A 
ATOM     81  F   UNL A   1      47.020  32.391  30.634  1.00  0.00    -0.206 F 
ATOM     82  C   UNL A   1      47.060  35.480  28.757  1.00  0.00     0.060 A 
BRANCH  82  83
ATOM     83  S   UNL A   1      47.483  37.221  28.974  1.00  0.00     0.124 S 
ATOM     84  O   UNL A   1      48.466  37.149  30.051  1.00  0.00    -0.237 OA
ATOM     85  O   UNL A   1      48.008  37.581  27.661  1.00  0.00    -0.237 OA
ATOM     86  O   UNL A   1      46.210  37.839  29.329  1.00  0.00    -0.744 OA
ENDBRANCH  82  83
ENDBRANCH  61  75
BRANCH  62  87
ATOM     87  C   UNL A   1      43.532  23.311  26.912  1.00  0.00     0.058 A 
ATOM     88  C   UNL A   1      43.338  22.429  27.985  1.00  0.00     0.135 A 
ATOM     89  C   UNL A   1      43.294  22.827  25.617  1.00  0.00     0.135 A 
ATOM     90  F   UNL A   1      43.556  22.844  29.242  1.00  0.00    -0.206 F 
ATOM     91  C   UNL A   1      42.942  21.111  27.783  1.00  0.00     0.059 A 
ATOM     92  C   UNL A   1      42.871  21.521  25.391  1.00  0.00     0.059 A 
ATOM     93  F   UNL A   1      43.446  23.637  24.558  1.00  0.00    -0.206 F 
ATOM     94  C   UNL A   1      42.708  20.667  26.480  1.00  0.00     0.060 A 
BRANCH  94  95
ATOM     95  S   UNL A   1      42.143  18.970  26.232  1.00  0.00     0.124 S 
ATOM     96  O   UNL A   1      40.771  19.178  25.787  1.00  0.00    -0.237 OA
ATOM     97  O   UNL A   1      43.077  18.480  25.222  1.00  0.00    -0.237 OA
ATOM     98  O   UNL A   1      42.296  18.371  27.555  1.00  0.00    -0.744 OA
ENDBRANCH  94  95
ENDBRANCH  62  87
BRANCH  74  99
ATOM     99  C   UNL A   1      49.618  26.640  26.272  1.00  0.00     0.058 A 
ATOM    100  C   UNL A   1      50.489  26.036  27.193  1.00  0.00     0.135 A 
ATOM    101  C   UNL A   1      50.069  26.796  24.950  1.00  0.00     0.135 A 
ATOM    102  F   UNL A   1      50.109  25.864  28.470  1.00  0.00    -0.206 F 
ATOM    103  C   UNL A   1      51.776  25.651  26.832  1.00  0.00     0.059 A 
ATOM    104  C   UNL A   1      51.341  26.391  24.560  1.00  0.00     0.059 A 
ATOM    105  F   UNL A   1      49.271  27.353  24.025  1.00  0.00    -0.206 F 
ATOM    106  C   UNL A   1      52.196  25.842  25.515  1.00  0.00     0.060 A 
BRANCH 106 107
ATOM    107  S   UNL A   1      53.876  25.360  25.061  1.00  0.00     0.124 S 
ATOM    108  O   UNL A   1      54.137  26.241  23.928  1.00  0.00    -0.237 OA
ATOM    109  O   UNL A   1      54.627  25.651  26.278  1.00  0.00    -0.237 OA
ATOM    110  O   UNL A   1      53.745  23.942  24.737  1.00  0.00    -0.744 OA
ENDBRANCH 106 107
ENDBRANCH  74  99
ENDBRANCH  48  49
ENDBRANCH  40  43
ENDBRANCH  38  39
ENDBRANCH  37  38
ENDBRANCH   1  37
TORSDOF 18
ENDMDL
MODEL 2
REMARK VINA RESULT:     -12.3      1.774      3.043
REMARK SMILES CN1C(=O)C[C@H](C(=O)Nc2ccc(C(=O)NCCCCNC(=O)c3ccc(-c4c5nc(c(-c6c(F)cc(S(=O)(=O)[O-])cc6F)c6ccc([nH]6)c(-c6c(F)cc(S(=O)(=O)[O-])cc6F)c6nc(c(-c7c(F)cc(S(=O)(=O)[O-])cc7F)c7ccc4[nH]7)C=C6)C=C5)cc3)cc2)S/C1=[NH+]\c1cccc(C(F)(F)F)c1
REMARK SMILES IDX 18 1 17 2 16 3 14 4 15 5 13 7 10 8 11 9 91 10 12 11 90 12
REMARK SMILES IDX 9 13 7 14 8 15 6 17 1 18 2 19 3 20 93 21 4 22 5 23 92 24
REMARK SMILES IDX 94 25 95 27 96 28 104 29 97 30 99 31 98 32 100 33 101 34
REMARK SMILES IDX 102 35 103 36 19 37 20 38 21 39 22 40 23 42 24 43 25 44
REMARK SMILES IDX 89 45 26 46 88 47 27 48 28 49 29 50 82 51 30 52 87 53 81 54
REMARK SMILES IDX 83 55 31 56 86 57 80 58 79 59 32 61 66 62 45 63 65 64 46 65
REMARK SMILES IDX 49 66 64 67 84 68 47 69 48 70 63 72 85 73 50 74 33 75 34 76
REMARK SMILES IDX 43 77 35 78 36 79 42 80 44 81 37 82 38 83 39 84 40 85 41 86
REMARK SMILES IDX 67 87 68 88 77 89 69 90 70 91 76 92 78 93 71 94 72 95 73 96
REMARK SMILES IDX 74 97 75 98 51 99 52 100 61 101 53 102 54 103 60 104 62 105
REMARK SMILES IDX 55 106 56 107 57 108 58 109 59 110
REMARK H PARENT 16 6 9 16 94 26 21 41 83 60 49 71
REMARK Flexibility Score: inf
ROOT
ATOM      1  C   UNL A   1      33.251  31.446  27.619  1.00  0.00     0.023 C 
ENDROOT
BRANCH   1   2
ATOM      2  C   UNL A   1      32.787  30.348  26.659  1.00  0.00     0.116 C 
BRANCH   2   3
ATOM      3  N   UNL A   1      31.630  30.791  25.904  1.00  0.00    -0.352 N 
ATOM      4  C   UNL A   1      31.039  30.295  24.771  1.00  0.00     0.251 C 
ATOM      5  O   UNL A   1      30.038  30.864  24.334  1.00  0.00    -0.269 OA
ATOM      6  H   UNL A   1      31.191  31.590  26.272  1.00  0.00     0.163 HD
BRANCH   4   7
ATOM      7  C   UNL A   1      31.507  29.052  24.104  1.00  0.00     0.039 A 
ATOM      8  C   UNL A   1      32.273  26.527  23.201  1.00  0.00     0.041 A 
ATOM      9  C   UNL A   1      30.925  26.799  23.419  1.00  0.00     0.027 A 
ATOM     10  C   UNL A   1      33.214  27.554  23.256  1.00  0.00     0.027 A 
ATOM     11  C   UNL A   1      30.549  28.050  23.900  1.00  0.00     0.016 A 
ATOM     12  C   UNL A   1      32.821  28.822  23.687  1.00  0.00     0.016 A 
BRANCH   8  13
ATOM     13  N   UNL A   1      32.623  25.203  22.962  1.00  0.00    -0.325 N 
ATOM     14  C   UNL A   1      33.319  24.326  23.736  1.00  0.00     0.238 C 
ATOM     15  O   UNL A   1      33.618  23.258  23.188  1.00  0.00    -0.273 OA
ATOM     16  H   UNL A   1      32.319  24.844  22.097  1.00  0.00     0.169 HD
BRANCH  14  17
ATOM     17  C   UNL A   1      33.699  24.630  25.206  1.00  0.00     0.160 C 
ATOM     18  C   UNL A   1      30.239  22.390  26.695  1.00  0.00     0.301 C 
ATOM     19  N   UNL A   1      31.467  23.085  26.326  1.00  0.00    -0.194 N 
ATOM     20  C   UNL A   1      31.395  24.471  26.248  1.00  0.00     0.311 C 
ATOM     21  C   UNL A   1      32.575  22.292  26.010  1.00  0.00     0.319 C 
ATOM     22  O   UNL A   1      30.333  25.097  26.278  1.00  0.00    -0.247 OA
ATOM     23  C   UNL A   1      32.688  25.231  26.160  1.00  0.00     0.153 C 
ATOM     24  S   UNL A   1      34.150  23.074  26.035  1.00  0.00    -0.024 SA
ATOM     25  N   UNL A   1      32.384  21.035  25.751  1.00  0.00    -0.235 N 
ATOM     26  H   UNL A   1      31.485  20.648  25.859  1.00  0.00     0.313 HD
BRANCH  25  27
ATOM     27  C   UNL A   1      33.437  20.223  25.321  1.00  0.00     0.126 A 
ATOM     28  C   UNL A   1      34.744  20.716  25.349  1.00  0.00     0.052 A 
ATOM     29  C   UNL A   1      33.199  18.932  24.853  1.00  0.00     0.064 A 
ATOM     30  C   UNL A   1      35.811  19.911  24.953  1.00  0.00     0.005 A 
ATOM     31  C   UNL A   1      34.263  18.096  24.493  1.00  0.00     0.060 A 
ATOM     32  C   UNL A   1      35.573  18.602  24.534  1.00  0.00     0.013 A 
BRANCH  31  33
ATOM     33  C   UNL A   1      34.005  16.672  24.083  1.00  0.00     0.416 C 
ATOM     34  F   UNL A   1      34.408  16.417  22.807  1.00  0.00    -0.166 F 
ATOM     35  F   UNL A   1      34.662  15.773  24.868  1.00  0.00    -0.166 F 
ATOM     36  F   UNL A   1      32.690  16.318  24.136  1.00  0.00    -0.166 F 
ENDBRANCH  31  33
ENDBRANCH  25  27
ENDBRANCH  14  17
ENDBRANCH   8  13
ENDBRANCH   4   7
ENDBRANCH   2   3
ENDBRANCH   1   2
BRANCH   1  37
ATOM     37  C   UNL A   1      34.767  31.650  27.657  1.00  0.00     0.023 C 
BRANCH  37  38
ATOM     38  C   UNL A   1      35.565  30.454  28.162  1.00  0.00     0.116 C 
BRANCH  38  39
ATOM     39  N   UNL A   1      35.520  30.312  29.607  1.00  0.00    -0.352 N 
ATOM     40  C   UNL A   1      36.519  29.941  30.477  1.00  0.00     0.251 C 
ATOM     41  H   UNL A   1      34.650  30.510  30.023  1.00  0.00     0.163 HD
ATOM     42  O   UNL A   1      36.256  29.757  31.656  1.00  0.00    -0.269 OA
BRANCH  40  43
ATOM     43  C   UNL A   1      37.895  29.732  29.972  1.00  0.00     0.039 A 
ATOM     44  C   UNL A   1      38.895  29.398  30.888  1.00  0.00     0.014 A 
ATOM     45  C   UNL A   1      38.201  29.857  28.614  1.00  0.00     0.014 A 
ATOM     46  C   UNL A   1      40.188  29.135  30.434  1.00  0.00     0.010 A 
ATOM     47  C   UNL A   1      39.472  29.520  28.154  1.00  0.00     0.010 A 
ATOM     48  C   UNL A   1      40.480  29.161  29.058  1.00  0.00    -0.014 A 
BRANCH  48  49
ATOM     49  C   UNL A   1      41.834  28.794  28.571  1.00  0.00     0.031 A 
ATOM     50  C   UNL A   1      42.927  29.824  28.491  1.00  0.00     0.074 A 
ATOM     51  C   UNL A   1      42.066  27.527  28.171  1.00  0.00     0.049 A 
ATOM     52  N   UNL A   1      44.175  29.673  28.129  1.00  0.00    -0.248 NA
ATOM     53  C   UNL A   1      42.567  31.208  28.838  1.00  0.00     0.031 C 
ATOM     54  C   UNL A   1      41.066  26.457  28.130  1.00  0.00     0.029 A 
ATOM     55  N   UNL A   1      43.215  26.923  27.728  1.00  0.00    -0.354 N 
ATOM     56  C   UNL A   1      44.749  30.938  28.202  1.00  0.00     0.074 A 
ATOM     57  C   UNL A   1      43.696  31.854  28.583  1.00  0.00     0.031 C 
ATOM     58  C   UNL A   1      41.655  25.320  27.725  1.00  0.00     0.029 A 
ATOM     59  C   UNL A   1      43.064  25.585  27.453  1.00  0.00     0.049 A 
ATOM     60  H   UNL A   1      44.068  27.403  27.617  1.00  0.00     0.167 HD
ATOM     61  C   UNL A   1      46.039  31.297  27.999  1.00  0.00     0.037 A 
ATOM     62  C   UNL A   1      43.961  24.670  27.041  1.00  0.00     0.037 A 
ATOM     63  C   UNL A   1      47.085  30.376  27.635  1.00  0.00     0.049 A 
ATOM     64  C   UNL A   1      45.394  25.086  26.852  1.00  0.00     0.074 A 
ATOM     65  C   UNL A   1      48.435  30.629  27.460  1.00  0.00     0.029 A 
ATOM     66  N   UNL A   1      46.899  29.023  27.385  1.00  0.00    -0.354 N 
ATOM     67  N   UNL A   1      45.935  26.273  27.003  1.00  0.00    -0.248 NA
ATOM     68  C   UNL A   1      46.340  24.038  26.453  1.00  0.00     0.031 C 
ATOM     69  C   UNL A   1      49.057  29.438  27.065  1.00  0.00     0.029 A 
ATOM     70  C   UNL A   1      48.104  28.432  27.042  1.00  0.00     0.049 A 
ATOM     71  H   UNL A   1      46.036  28.552  27.444  1.00  0.00     0.167 HD
ATOM     72  C   UNL A   1      47.290  26.108  26.738  1.00  0.00     0.074 A 
ATOM     73  C   UNL A   1      47.487  24.703  26.442  1.00  0.00     0.031 C 
ATOM     74  C   UNL A   1      48.282  27.035  26.739  1.00  0.00     0.037 A 
BRANCH  61  75
ATOM     75  C   UNL A   1      46.392  32.750  28.174  1.00  0.00     0.058 A 
ATOM     76  C   UNL A   1      46.859  33.251  29.401  1.00  0.00     0.135 A 
ATOM     77  C   UNL A   1      46.291  33.649  27.100  1.00  0.00     0.135 A 
ATOM     78  F   UNL A   1      46.961  32.441  30.467  1.00  0.00    -0.206 F 
ATOM     79  C   UNL A   1      47.183  34.594  29.564  1.00  0.00     0.059 A 
ATOM     80  C   UNL A   1      46.637  34.990  27.233  1.00  0.00     0.059 A 
ATOM     81  F   UNL A   1      45.849  33.226  25.904  1.00  0.00    -0.206 F 
ATOM     82  C   UNL A   1      47.068  35.457  28.474  1.00  0.00     0.060 A 
BRANCH  82  83
ATOM     83  S   UNL A   1      47.494  37.196  28.702  1.00  0.00     0.124 S 
ATOM     84  O   UNL A   1      47.034  37.432  30.068  1.00  0.00    -0.237 OA
ATOM     85  O   UNL A   1      48.941  37.190  28.514  1.00  0.00    -0.237 OA
ATOM     86  O   UNL A   1      46.731  37.874  27.659  1.00  0.00    -0.744 OA
ENDBRANCH  82  83
ENDBRANCH  61  75
BRANCH  62  87
ATOM     87  C   UNL A   1      43.539  23.260  26.824  1.00  0.00     0.058 A 
ATOM     88  C   UNL A   1      43.444  22.726  25.530  1.00  0.00     0.135 A 
ATOM     89  C   UNL A   1      43.238  22.416  27.902  1.00  0.00     0.135 A 
ATOM     90  F   UNL A   1      43.718  23.496  24.465  1.00  0.00    -0.206 F 
ATOM     91  C   UNL A   1      43.047  21.412  25.311  1.00  0.00     0.059 A 
ATOM     92  C   UNL A   1      42.865  21.089  27.710  1.00  0.00     0.059 A 
ATOM     93  F   UNL A   1      43.334  22.872  29.161  1.00  0.00    -0.206 F 
ATOM     94  C   UNL A   1      42.762  20.599  26.409  1.00  0.00     0.060 A 
BRANCH  94  95
ATOM     95  S   UNL A   1      42.298  18.879  26.117  1.00  0.00     0.124 S 
ATOM     96  O   UNL A   1      43.222  18.501  25.055  1.00  0.00    -0.237 OA
ATOM     97  O   UNL A   1      42.537  18.270  27.421  1.00  0.00    -0.237 OA
ATOM     98  O   UNL A   1      40.893  18.974  25.729  1.00  0.00    -0.744 OA
ENDBRANCH  94  95
ENDBRANCH  62  87
BRANCH  74  99
ATOM     99  C   UNL A   1      49.670  26.544  26.428  1.00  0.00     0.058 A 
ATOM    100  C   UNL A   1      50.188  26.571  25.122  1.00  0.00     0.135 A 
ATOM    101  C   UNL A   1      50.491  26.036  27.448  1.00  0.00     0.135 A 
ATOM    102  F   UNL A   1      49.444  27.045  24.109  1.00  0.00    -0.206 F 
ATOM    103  C   UNL A   1      51.450  26.064  24.831  1.00  0.00     0.059 A 
ATOM    104  C   UNL A   1      51.769  25.553  27.184  1.00  0.00     0.059 A 
ATOM    105  F   UNL A   1      50.052  26.002  28.715  1.00  0.00    -0.206 F 
ATOM    106  C   UNL A   1      52.229  25.548  25.868  1.00  0.00     0.060 A 
BRANCH 106 107
ATOM    107  S   UNL A   1      53.858  24.873  25.477  1.00  0.00     0.124 S 
ATOM    108  O   UNL A   1      53.524  23.502  25.109  1.00  0.00    -0.237 OA
ATOM    109  O   UNL A   1      54.301  25.734  24.385  1.00  0.00    -0.237 OA
ATOM    110  O   UNL A   1      54.596  25.027  26.726  1.00  0.00    -0.744 OA
ENDBRANCH 106 107
ENDBRANCH  74  99
ENDBRANCH  48  49
ENDBRANCH  40  43
ENDBRANCH  38  39
ENDBRANCH  37  38
ENDBRANCH   1  37
TORSDOF 18
ENDMDL
MODEL 3
REMARK VINA RESULT:     -12.3      2.217      8.372
REMARK SMILES CN1C(=O)C[C@H](C(=O)Nc2ccc(C(=O)NCCCCNC(=O)c3ccc(-c4c5nc(c(-c6c(F)cc(S(=O)(=O)[O-])cc6F)c6ccc([nH]6)c(-c6c(F)cc(S(=O)(=O)[O-])cc6F)c6nc(c(-c7c(F)cc(S(=O)(=O)[O-])cc7F)c7ccc4[nH]7)C=C6)C=C5)cc3)cc2)S/C1=[NH+]\c1cccc(C(F)(F)F)c1
REMARK SMILES IDX 18 1 17 2 16 3 14 4 15 5 13 7 10 8 11 9 91 10 12 11 90 12
REMARK SMILES IDX 9 13 7 14 8 15 6 17 1 18 2 19 3 20 93 21 4 22 5 23 92 24
REMARK SMILES IDX 94 25 95 27 96 28 104 29 97 30 99 31 98 32 100 33 101 34
REMARK SMILES IDX 102 35 103 36 19 37 20 38 21 39 22 40 23 42 24 43 25 44
REMARK SMILES IDX 89 45 26 46 88 47 27 48 28 49 29 50 82 51 30 52 87 53 81 54
REMARK SMILES IDX 83 55 31 56 86 57 80 58 79 59 32 61 66 62 45 63 65 64 46 65
REMARK SMILES IDX 49 66 64 67 84 68 47 69 48 70 63 72 85 73 50 74 33 75 34 76
REMARK SMILES IDX 43 77 35 78 36 79 42 80 44 81 37 82 38 83 39 84 40 85 41 86
REMARK SMILES IDX 67 87 68 88 77 89 69 90 70 91 76 92 78 93 71 94 72 95 73 96
REMARK SMILES IDX 74 97 75 98 51 99 52 100 61 101 53 102 54 103 60 104 62 105
REMARK SMILES IDX 55 106 56 107 57 108 58 109 59 110
REMARK H PARENT 16 6 9 16 94 26 21 41 83 60 49 71
REMARK Flexibility Score: inf
ROOT
ATOM      1  C   UNL A   1      32.957  30.184  25.790  1.00  0.00     0.023 C 
ENDROOT
BRANCH   1   2
ATOM      2  C   UNL A   1      31.476  30.067  26.156  1.00  0.00     0.116 C 
BRANCH   2   3
ATOM      3  N   UNL A   1      30.653  30.716  25.152  1.00  0.00    -0.352 N 
ATOM      4  C   UNL A   1      30.259  30.318  23.901  1.00  0.00     0.251 C 
ATOM      5  O   UNL A   1      29.536  31.068  23.247  1.00  0.00    -0.269 OA
ATOM      6  H   UNL A   1      30.318  31.602  25.418  1.00  0.00     0.163 HD
BRANCH   4   7
ATOM      7  C   UNL A   1      30.600  28.983  23.345  1.00  0.00     0.039 A 
ATOM      8  C   UNL A   1      31.208  26.341  22.688  1.00  0.00     0.041 A 
ATOM      9  C   UNL A   1      29.932  26.659  23.146  1.00  0.00     0.027 A 
ATOM     10  C   UNL A   1      32.117  27.352  22.386  1.00  0.00     0.027 A 
ATOM     11  C   UNL A   1      29.641  27.973  23.503  1.00  0.00     0.016 A 
ATOM     12  C   UNL A   1      31.799  28.676  22.695  1.00  0.00     0.016 A 
BRANCH   8  13
ATOM     13  N   UNL A   1      31.525  24.992  22.581  1.00  0.00    -0.325 N 
ATOM     14  C   UNL A   1      32.356  24.223  23.339  1.00  0.00     0.238 C 
ATOM     15  O   UNL A   1      32.566  23.085  22.904  1.00  0.00    -0.273 OA
ATOM     16  H   UNL A   1      31.080  24.518  21.842  1.00  0.00     0.169 HD
BRANCH  14  17
ATOM     17  C   UNL A   1      32.982  24.726  24.663  1.00  0.00     0.160 C 
ATOM     18  C   UNL A   1      29.976  22.601  27.040  1.00  0.00     0.301 C 
ATOM     19  N   UNL A   1      31.078  23.277  26.364  1.00  0.00    -0.194 N 
ATOM     20  C   UNL A   1      30.920  24.639  26.132  1.00  0.00     0.311 C 
ATOM     21  C   UNL A   1      32.149  22.482  25.944  1.00  0.00     0.319 C 
ATOM     22  O   UNL A   1      29.850  25.232  26.285  1.00  0.00    -0.247 OA
ATOM     23  C   UNL A   1      32.133  25.417  25.709  1.00  0.00     0.153 C 
ATOM     24  S   UNL A   1      33.659  23.305  25.575  1.00  0.00    -0.024 SA
ATOM     25  N   UNL A   1      31.980  21.197  25.882  1.00  0.00    -0.235 N 
ATOM     26  H   UNL A   1      31.138  20.801  26.203  1.00  0.00     0.313 HD
BRANCH  25  27
ATOM     27  C   UNL A   1      32.977  20.366  25.363  1.00  0.00     0.126 A 
ATOM     28  C   UNL A   1      34.321  20.676  25.592  1.00  0.00     0.052 A 
ATOM     29  C   UNL A   1      32.650  19.240  24.611  1.00  0.00     0.064 A 
ATOM     30  C   UNL A   1      35.329  19.844  25.110  1.00  0.00     0.005 A 
ATOM     31  C   UNL A   1      33.649  18.370  24.156  1.00  0.00     0.060 A 
ATOM     32  C   UNL A   1      34.995  18.690  24.401  1.00  0.00     0.013 A 
BRANCH  31  33
ATOM     33  C   UNL A   1      33.282  17.105  23.430  1.00  0.00     0.416 C 
ATOM     34  F   UNL A   1      32.806  16.144  24.269  1.00  0.00    -0.166 F 
ATOM     35  F   UNL A   1      32.308  17.301  22.496  1.00  0.00    -0.166 F 
ATOM     36  F   UNL A   1      34.324  16.536  22.762  1.00  0.00    -0.166 F 
ENDBRANCH  31  33
ENDBRANCH  25  27
ENDBRANCH  14  17
ENDBRANCH   8  13
ENDBRANCH   4   7
ENDBRANCH   2   3
ENDBRANCH   1   2
BRANCH   1  37
ATOM     37  C   UNL A   1      33.748  28.883  25.946  1.00  0.00     0.023 C 
BRANCH  37  38
ATOM     38  C   UNL A   1      34.678  28.834  27.152  1.00  0.00     0.116 C 
BRANCH  38  39
ATOM     39  N   UNL A   1      34.515  29.974  28.039  1.00  0.00    -0.352 N 
ATOM     40  C   UNL A   1      35.429  30.553  28.890  1.00  0.00     0.251 C 
ATOM     41  H   UNL A   1      33.624  30.392  28.029  1.00  0.00     0.163 HD
ATOM     42  O   UNL A   1      35.067  31.435  29.653  1.00  0.00    -0.269 OA
BRANCH  40  43
ATOM     43  C   UNL A   1      36.830  30.077  28.899  1.00  0.00     0.039 A 
ATOM     44  C   UNL A   1      37.553  30.116  27.704  1.00  0.00     0.014 A 
ATOM     45  C   UNL A   1      37.432  29.601  30.068  1.00  0.00     0.014 A 
ATOM     46  C   UNL A   1      38.894  29.732  27.696  1.00  0.00     0.010 A 
ATOM     47  C   UNL A   1      38.790  29.290  30.074  1.00  0.00     0.010 A 
ATOM     48  C   UNL A   1      39.534  29.348  28.888  1.00  0.00    -0.014 A 
BRANCH  48  49
ATOM     49  C   UNL A   1      40.984  29.024  28.892  1.00  0.00     0.031 A 
ATOM     50  C   UNL A   1      41.467  27.656  28.496  1.00  0.00     0.074 A 
ATOM     51  C   UNL A   1      41.865  29.966  29.283  1.00  0.00     0.049 A 
ATOM     52  N   UNL A   1      42.693  27.211  28.404  1.00  0.00    -0.248 NA
ATOM     53  C   UNL A   1      40.440  26.648  28.190  1.00  0.00     0.031 C 
ATOM     54  C   UNL A   1      41.513  31.306  29.762  1.00  0.00     0.029 A 
ATOM     55  N   UNL A   1      43.235  29.946  29.338  1.00  0.00    -0.354 N 
ATOM     56  C   UNL A   1      42.588  25.876  28.032  1.00  0.00     0.074 A 
ATOM     57  C   UNL A   1      41.176  25.566  27.976  1.00  0.00     0.031 C 
ATOM     58  C   UNL A   1      42.638  31.991  30.021  1.00  0.00     0.029 A 
ATOM     59  C   UNL A   1      43.788  31.133  29.755  1.00  0.00     0.049 A 
ATOM     60  H   UNL A   1      43.772  29.155  29.101  1.00  0.00     0.167 HD
ATOM     61  C   UNL A   1      43.575  24.996  27.735  1.00  0.00     0.037 A 
ATOM     62  C   UNL A   1      45.078  31.495  29.894  1.00  0.00     0.037 A 
ATOM     63  C   UNL A   1      44.979  25.317  27.778  1.00  0.00     0.049 A 
ATOM     64  C   UNL A   1      46.156  30.512  29.529  1.00  0.00     0.074 A 
ATOM     65  C   UNL A   1      46.057  24.516  27.442  1.00  0.00     0.029 A 
ATOM     66  N   UNL A   1      45.502  26.536  28.184  1.00  0.00    -0.354 N 
ATOM     67  N   UNL A   1      46.036  29.277  29.102  1.00  0.00    -0.248 NA
ATOM     68  C   UNL A   1      47.543  30.977  29.650  1.00  0.00     0.031 C 
ATOM     69  C   UNL A   1      47.233  25.236  27.685  1.00  0.00     0.029 A 
ATOM     70  C   UNL A   1      46.886  26.504  28.124  1.00  0.00     0.049 A 
ATOM     71  H   UNL A   1      44.968  27.311  28.473  1.00  0.00     0.167 HD
ATOM     72  C   UNL A   1      47.332  28.825  28.882  1.00  0.00     0.074 A 
ATOM     73  C   UNL A   1      48.216  29.928  29.201  1.00  0.00     0.031 C 
ATOM     74  C   UNL A   1      47.753  27.607  28.456  1.00  0.00     0.037 A 
BRANCH  61  75
ATOM     75  C   UNL A   1      43.169  23.605  27.330  1.00  0.00     0.058 A 
ATOM     76  C   UNL A   1      43.143  23.208  25.982  1.00  0.00     0.135 A 
ATOM     77  C   UNL A   1      42.829  22.646  28.298  1.00  0.00     0.135 A 
ATOM     78  F   UNL A   1      43.444  24.087  25.014  1.00  0.00    -0.206 F 
ATOM     79  C   UNL A   1      42.766  21.923  25.608  1.00  0.00     0.059 A 
ATOM     80  C   UNL A   1      42.475  21.346  27.947  1.00  0.00     0.059 A 
ATOM     81  F   UNL A   1      42.834  22.969  29.601  1.00  0.00    -0.206 F 
ATOM     82  C   UNL A   1      42.432  20.998  26.598  1.00  0.00     0.060 A 
BRANCH  82  83
ATOM     83  S   UNL A   1      41.946  19.334  26.094  1.00  0.00     0.124 S 
ATOM     84  O   UNL A   1      42.310  18.555  27.274  1.00  0.00    -0.237 OA
ATOM     85  O   UNL A   1      40.515  19.486  25.853  1.00  0.00    -0.237 OA
ATOM     86  O   UNL A   1      42.757  19.087  24.907  1.00  0.00    -0.744 OA
ENDBRANCH  82  83
ENDBRANCH  61  75
BRANCH  62  87
ATOM     87  C   UNL A   1      45.417  32.867  30.359  1.00  0.00     0.058 A 
ATOM     88  C   UNL A   1      45.615  33.139  31.721  1.00  0.00     0.135 A 
ATOM     89  C   UNL A   1      45.566  33.927  29.453  1.00  0.00     0.135 A 
ATOM     90  F   UNL A   1      45.481  32.158  32.627  1.00  0.00    -0.206 F 
ATOM     91  C   UNL A   1      45.930  34.417  32.171  1.00  0.00     0.059 A 
ATOM     92  C   UNL A   1      45.907  35.208  29.876  1.00  0.00     0.059 A 
ATOM     93  F   UNL A   1      45.408  33.714  28.137  1.00  0.00    -0.206 F 
ATOM     94  C   UNL A   1      46.077  35.445  31.239  1.00  0.00     0.060 A 
BRANCH  94  95
ATOM     95  S   UNL A   1      46.536  37.089  31.828  1.00  0.00     0.124 S 
ATOM     96  O   UNL A   1      47.547  37.480  30.854  1.00  0.00    -0.237 OA
ATOM     97  O   UNL A   1      45.268  37.807  31.757  1.00  0.00    -0.237 OA
ATOM     98  O   UNL A   1      47.026  36.834  33.180  1.00  0.00    -0.744 OA
ENDBRANCH  94  95
ENDBRANCH  62  87
BRANCH  74  99
ATOM     99  C   UNL A   1      49.237  27.420  28.294  1.00  0.00     0.058 A 
ATOM    100  C   UNL A   1      49.898  27.754  27.100  1.00  0.00     0.135 A 
ATOM    101  C   UNL A   1      50.009  26.895  29.344  1.00  0.00     0.135 A 
ATOM    102  F   UNL A   1      49.208  28.258  26.064  1.00  0.00    -0.206 F 
ATOM    103  C   UNL A   1      51.261  27.526  26.936  1.00  0.00     0.059 A 
ATOM    104  C   UNL A   1      51.378  26.688  29.212  1.00  0.00     0.059 A 
ATOM    105  F   UNL A   1      49.430  26.574  30.512  1.00  0.00    -0.206 F 
ATOM    106  C   UNL A   1      51.990  26.984  27.995  1.00  0.00     0.060 A 
BRANCH 106 107
ATOM    107  S   UNL A   1      53.753  26.672  27.765  1.00  0.00     0.124 S 
ATOM    108  O   UNL A   1      53.735  25.385  27.078  1.00  0.00    -0.237 OA
ATOM    109  O   UNL A   1      54.172  27.815  26.959  1.00  0.00    -0.237 OA
ATOM    110  O   UNL A   1      54.274  26.651  29.128  1.00  0.00    -0.744 OA
ENDBRANCH 106 107
ENDBRANCH  74  99
ENDBRANCH  48  49
ENDBRANCH  40  43
ENDBRANCH  38  39
ENDBRANCH  37  38
ENDBRANCH   1  37
TORSDOF 18
ENDMDL
