MODEL 1
REMARK VINA RESULT:     -10.3      0.000      0.000
REMARK SMILES O=C(NCCCCNC(=O)c1cc(Br)cnc1S)c1ccc(-c2c3nc(c(-c4c(F)cc(S(=O)(=O)[O-])cc4F)c4ccc([nH]4)c(-c4c(F)cc(S(=O)(=O)[O-])cc4F)c4nc(c(-c5c(F)cc(S(=O)(=O)[O-])cc5F)c5ccc2[nH]5)C=C4)C=C3)cc1
REMARK SMILES IDX 4 1 3 2 1 3 2 4 19 6 20 7 84 8 21 9 83 10 22 11 23 12 24 13
REMARK SMILES IDX 77 14 25 15 82 16 76 17 78 18 26 19 81 20 75 21 74 22 27 24
REMARK SMILES IDX 61 25 40 26 60 27 41 28 44 29 59 30 79 31 42 32 43 33 58 35
REMARK SMILES IDX 80 36 45 37 28 38 29 39 38 40 30 41 31 42 37 43 39 44 32 45
REMARK SMILES IDX 33 46 34 47 35 48 36 49 62 50 63 51 72 52 64 53 65 54 71 55
REMARK SMILES IDX 73 56 66 57 67 58 68 59 69 60 70 61 46 62 47 63 56 64 48 65
REMARK SMILES IDX 49 66 55 67 57 68 50 69 51 70 52 71 53 72 54 73 5 74 6 75
REMARK SMILES IDX 7 76 8 77 9 78 10 80 11 81 12 82 17 83 13 84 16 85 14 86
REMARK SMILES IDX 15 87 18 88
REMARK H PARENT 3 5 78 23 44 34 8 79 18 89
REMARK Flexibility Score: inf
ROOT
ATOM      1  C   UNL A   1      33.662  28.103  26.888  1.00  0.00     0.116 C 
ENDROOT
BRANCH   1   2
ATOM      2  N   UNL A   1      33.460  29.513  27.175  1.00  0.00    -0.352 N 
ATOM      3  O   UNL A   1      33.870  31.525  28.084  1.00  0.00    -0.269 OA
ATOM      4  C   UNL A   1      34.297  30.410  27.792  1.00  0.00     0.251 C 
ATOM      5  H   UNL A   1      32.594  29.880  26.883  1.00  0.00     0.163 HD
BRANCH   4   6
ATOM      6  C   UNL A   1      35.692  30.044  28.121  1.00  0.00     0.039 A 
ATOM      7  C   UNL A   1      36.661  30.117  27.116  1.00  0.00     0.014 A 
ATOM      8  C   UNL A   1      36.041  29.579  29.394  1.00  0.00     0.014 A 
ATOM      9  C   UNL A   1      37.987  29.769  27.395  1.00  0.00     0.010 A 
ATOM     10  C   UNL A   1      37.372  29.281  29.685  1.00  0.00     0.010 A 
ATOM     11  C   UNL A   1      38.357  29.365  28.687  1.00  0.00    -0.014 A 
BRANCH  11  12
ATOM     12  C   UNL A   1      39.752  28.970  29.009  1.00  0.00     0.031 A 
ATOM     13  C   UNL A   1      40.664  29.958  29.689  1.00  0.00     0.074 A 
ATOM     14  C   UNL A   1      40.213  27.751  28.667  1.00  0.00     0.049 A 
ATOM     15  N   UNL A   1      41.949  29.877  29.916  1.00  0.00    -0.248 NA
ATOM     16  C   UNL A   1      40.048  31.209  30.162  1.00  0.00     0.031 C 
ATOM     17  C   UNL A   1      39.427  26.695  28.026  1.00  0.00     0.029 A 
ATOM     18  N   UNL A   1      41.461  27.196  28.806  1.00  0.00    -0.354 N 
ATOM     19  C   UNL A   1      42.297  31.064  30.552  1.00  0.00     0.074 A 
ATOM     20  C   UNL A   1      41.096  31.867  30.636  1.00  0.00     0.031 C 
ATOM     21  C   UNL A   1      40.206  25.615  27.846  1.00  0.00     0.029 A 
ATOM     22  C   UNL A   1      41.556  25.916  28.313  1.00  0.00     0.049 A 
ATOM     23  H   UNL A   1      42.217  27.671  29.219  1.00  0.00     0.167 HD
ATOM     24  C   UNL A   1      43.503  31.441  31.039  1.00  0.00     0.037 A 
ATOM     25  C   UNL A   1      42.615  25.086  28.235  1.00  0.00     0.037 A 
ATOM     26  C   UNL A   1      44.692  30.633  30.972  1.00  0.00     0.049 A 
ATOM     27  C   UNL A   1      43.956  25.553  28.739  1.00  0.00     0.074 A 
ATOM     28  C   UNL A   1      45.971  30.942  31.405  1.00  0.00     0.029 A 
ATOM     29  N   UNL A   1      44.746  29.344  30.462  1.00  0.00    -0.354 N 
ATOM     30  N   UNL A   1      44.278  26.700  29.288  1.00  0.00    -0.248 NA
ATOM     31  C   UNL A   1      45.078  24.612  28.608  1.00  0.00     0.031 C 
ATOM     32  C   UNL A   1      46.800  29.846  31.145  1.00  0.00     0.029 A 
ATOM     33  C   UNL A   1      46.030  28.842  30.583  1.00  0.00     0.049 A 
ATOM     34  H   UNL A   1      43.983  28.859  30.073  1.00  0.00     0.167 HD
ATOM     35  C   UNL A   1      45.629  26.601  29.605  1.00  0.00     0.074 A 
ATOM     36  C   UNL A   1      46.062  25.285  29.188  1.00  0.00     0.031 C 
ATOM     37  C   UNL A   1      46.437  27.518  30.191  1.00  0.00     0.037 A 
BRANCH  24  38
ATOM     38  C   UNL A   1      43.599  32.781  31.711  1.00  0.00     0.058 A 
ATOM     39  C   UNL A   1      43.845  33.948  30.971  1.00  0.00     0.135 A 
ATOM     40  C   UNL A   1      43.368  32.913  33.089  1.00  0.00     0.135 A 
ATOM     41  F   UNL A   1      44.095  33.873  29.654  1.00  0.00    -0.206 F 
ATOM     42  C   UNL A   1      43.860  35.201  31.574  1.00  0.00     0.059 A 
ATOM     43  C   UNL A   1      43.357  34.159  33.710  1.00  0.00     0.059 A 
ATOM     44  F   UNL A   1      43.135  31.827  33.843  1.00  0.00    -0.206 F 
ATOM     45  C   UNL A   1      43.607  35.297  32.943  1.00  0.00     0.060 A 
BRANCH  45  46
ATOM     46  S   UNL A   1      43.583  36.936  33.699  1.00  0.00     0.124 S 
ATOM     47  O   UNL A   1      42.293  36.925  34.381  1.00  0.00    -0.237 OA
ATOM     48  O   UNL A   1      44.759  36.896  34.562  1.00  0.00    -0.237 OA
ATOM     49  O   UNL A   1      43.679  37.840  32.556  1.00  0.00    -0.744 OA
ENDBRANCH  45  46
ENDBRANCH  24  38
BRANCH  25  50
ATOM     50  C   UNL A   1      42.464  23.718  27.672  1.00  0.00     0.058 A 
ATOM     51  C   UNL A   1      42.332  22.608  28.520  1.00  0.00     0.135 A 
ATOM     52  C   UNL A   1      42.481  23.487  26.289  1.00  0.00     0.135 A 
ATOM     53  F   UNL A   1      42.319  22.778  29.851  1.00  0.00    -0.206 F 
ATOM     54  C   UNL A   1      42.255  21.313  28.018  1.00  0.00     0.059 A 
ATOM     55  C   UNL A   1      42.381  22.202  25.762  1.00  0.00     0.059 A 
ATOM     56  F   UNL A   1      42.590  24.516  25.435  1.00  0.00    -0.206 F 
ATOM     57  C   UNL A   1      42.284  21.120  26.637  1.00  0.00     0.060 A 
BRANCH  57  58
ATOM     58  S   UNL A   1      42.170  19.437  25.993  1.00  0.00     0.124 S 
ATOM     59  O   UNL A   1      42.701  18.660  27.107  1.00  0.00    -0.237 OA
ATOM     60  O   UNL A   1      40.738  19.299  25.743  1.00  0.00    -0.237 OA
ATOM     61  O   UNL A   1      43.005  19.479  24.797  1.00  0.00    -0.744 OA
ENDBRANCH  57  58
ENDBRANCH  25  50
BRANCH  37  62
ATOM     62  C   UNL A   1      47.853  27.107  30.479  1.00  0.00     0.058 A 
ATOM     63  C   UNL A   1      48.895  27.358  29.576  1.00  0.00     0.135 A 
ATOM     64  C   UNL A   1      48.172  26.488  31.700  1.00  0.00     0.135 A 
ATOM     65  F   UNL A   1      48.640  27.943  28.395  1.00  0.00    -0.206 F 
ATOM     66  C   UNL A   1      50.205  26.983  29.858  1.00  0.00     0.059 A 
ATOM     67  C   UNL A   1      49.479  26.127  32.013  1.00  0.00     0.059 A 
ATOM     68  F   UNL A   1      47.211  26.238  32.603  1.00  0.00    -0.206 F 
ATOM     69  C   UNL A   1      50.486  26.366  31.080  1.00  0.00     0.060 A 
BRANCH  69  70
ATOM     70  S   UNL A   1      52.192  25.902  31.443  1.00  0.00     0.124 S 
ATOM     71  O   UNL A   1      52.547  26.870  32.475  1.00  0.00    -0.237 OA
ATOM     72  O   UNL A   1      52.053  24.520  31.890  1.00  0.00    -0.237 OA
ATOM     73  O   UNL A   1      52.871  26.074  30.161  1.00  0.00    -0.744 OA
ENDBRANCH  69  70
ENDBRANCH  37  62
ENDBRANCH  11  12
ENDBRANCH   4   6
ENDBRANCH   1   2
BRANCH   1  74
ATOM     74  C   UNL A   1      32.507  27.493  26.097  1.00  0.00     0.023 C 
BRANCH  74  75
ATOM     75  C   UNL A   1      32.264  25.998  26.319  1.00  0.00     0.023 C 
BRANCH  75  76
ATOM     76  C   UNL A   1      33.387  25.073  25.856  1.00  0.00     0.116 C 
BRANCH  76  77
ATOM     77  N   UNL A   1      33.603  25.136  24.418  1.00  0.00    -0.352 N 
ATOM     78  C   UNL A   1      34.302  24.271  23.616  1.00  0.00     0.254 C 
ATOM     79  H   UNL A   1      33.192  25.903  23.959  1.00  0.00     0.163 HD
ATOM     80  O   UNL A   1      34.443  24.488  22.418  1.00  0.00    -0.269 OA
BRANCH  78  81
ATOM     81  C   UNL A   1      34.928  23.083  24.203  1.00  0.00     0.072 A 
ATOM     82  C   UNL A   1      36.238  23.219  24.677  1.00  0.00     0.034 A 
ATOM     83  C   UNL A   1      34.287  21.845  24.286  1.00  0.00     0.106 A 
ATOM     84  C   UNL A   1      36.852  22.125  25.267  1.00  0.00     0.037 A 
ATOM     85  N   UNL A   1      34.885  20.777  24.878  1.00  0.00    -0.248 NA
ATOM     86  Br  UNL A   1      38.608  22.254  25.938  1.00  0.00    -0.049 Br
ATOM     87  C   UNL A   1      36.143  20.940  25.356  1.00  0.00     0.128 A 
BRANCH  83  88
ATOM     88  S   UNL A   1      32.661  21.497  23.650  1.00  0.00    -0.123 SA
ATOM     89  H   UNL A   1      31.726  22.053  24.466  1.00  0.00     0.109 HD
ENDBRANCH  83  88
ENDBRANCH  78  81
ENDBRANCH  76  77
ENDBRANCH  75  76
ENDBRANCH  74  75
ENDBRANCH   1  74
TORSDOF 15
ENDMDL
MODEL 2
REMARK VINA RESULT:     -10.3      3.856      4.712
REMARK SMILES O=C(NCCCCNC(=O)c1cc(Br)cnc1S)c1ccc(-c2c3nc(c(-c4c(F)cc(S(=O)(=O)[O-])cc4F)c4ccc([nH]4)c(-c4c(F)cc(S(=O)(=O)[O-])cc4F)c4nc(c(-c5c(F)cc(S(=O)(=O)[O-])cc5F)c5ccc2[nH]5)C=C4)C=C3)cc1
REMARK SMILES IDX 4 1 3 2 1 3 2 4 19 6 20 7 84 8 21 9 83 10 22 11 23 12 24 13
REMARK SMILES IDX 77 14 25 15 82 16 76 17 78 18 26 19 81 20 75 21 74 22 27 24
REMARK SMILES IDX 61 25 40 26 60 27 41 28 44 29 59 30 79 31 42 32 43 33 58 35
REMARK SMILES IDX 80 36 45 37 28 38 29 39 38 40 30 41 31 42 37 43 39 44 32 45
REMARK SMILES IDX 33 46 34 47 35 48 36 49 62 50 63 51 72 52 64 53 65 54 71 55
REMARK SMILES IDX 73 56 66 57 67 58 68 59 69 60 70 61 46 62 47 63 56 64 48 65
REMARK SMILES IDX 49 66 55 67 57 68 50 69 51 70 52 71 53 72 54 73 5 74 6 75
REMARK SMILES IDX 7 76 8 77 9 78 10 80 11 81 12 82 17 83 13 84 16 85 14 86
REMARK SMILES IDX 15 87 18 88
REMARK H PARENT 3 5 78 23 44 34 8 79 18 89
REMARK Flexibility Score: inf
ROOT
ATOM      1  C   UNL A   1      35.152  29.330  27.550  1.00  0.00     0.116 C 
ENDROOT
BRANCH   1   2
ATOM      2  N   UNL A   1      35.144  30.159  28.744  1.00  0.00    -0.352 N 
ATOM      3  O   UNL A   1      35.905  31.036  30.666  1.00  0.00    -0.269 OA
ATOM      4  C   UNL A   1      36.161  30.438  29.624  1.00  0.00     0.251 C 
ATOM      5  H   UNL A   1      34.280  30.583  28.953  1.00  0.00     0.163 HD
BRANCH   4   6
ATOM      6  C   UNL A   1      37.550  30.014  29.338  1.00  0.00     0.039 A 
ATOM      7  C   UNL A   1      37.995  30.021  28.013  1.00  0.00     0.014 A 
ATOM      8  C   UNL A   1      38.395  29.558  30.355  1.00  0.00     0.014 A 
ATOM      9  C   UNL A   1      39.300  29.618  27.711  1.00  0.00     0.010 A 
ATOM     10  C   UNL A   1      39.712  29.204  30.060  1.00  0.00     0.010 A 
ATOM     11  C   UNL A   1      40.175  29.222  28.735  1.00  0.00    -0.014 A 
BRANCH  11  12
ATOM     12  C   UNL A   1      41.559  28.769  28.444  1.00  0.00     0.031 A 
ATOM     13  C   UNL A   1      42.689  29.765  28.482  1.00  0.00     0.074 A 
ATOM     14  C   UNL A   1      41.802  27.486  28.113  1.00  0.00     0.049 A 
ATOM     15  N   UNL A   1      43.934  29.619  28.111  1.00  0.00    -0.248 NA
ATOM     16  C   UNL A   1      42.368  31.108  28.993  1.00  0.00     0.031 C 
ATOM     17  C   UNL A   1      40.802  26.418  28.062  1.00  0.00     0.029 A 
ATOM     18  N   UNL A   1      42.971  26.862  27.752  1.00  0.00    -0.354 N 
ATOM     19  C   UNL A   1      44.544  30.848  28.338  1.00  0.00     0.074 A 
ATOM     20  C   UNL A   1      43.522  31.742  28.838  1.00  0.00     0.031 C 
ATOM     21  C   UNL A   1      41.403  25.269  27.709  1.00  0.00     0.029 A 
ATOM     22  C   UNL A   1      42.819  25.526  27.463  1.00  0.00     0.049 A 
ATOM     23  H   UNL A   1      43.836  27.329  27.702  1.00  0.00     0.167 HD
ATOM     24  C   UNL A   1      45.842  31.193  28.164  1.00  0.00     0.037 A 
ATOM     25  C   UNL A   1      43.717  24.617  27.037  1.00  0.00     0.037 A 
ATOM     26  C   UNL A   1      46.861  30.297  27.685  1.00  0.00     0.049 A 
ATOM     27  C   UNL A   1      45.143  25.044  26.803  1.00  0.00     0.074 A 
ATOM     28  C   UNL A   1      48.198  30.564  27.441  1.00  0.00     0.029 A 
ATOM     29  N   UNL A   1      46.665  28.954  27.402  1.00  0.00    -0.354 N 
ATOM     30  N   UNL A   1      45.690  26.224  26.971  1.00  0.00    -0.248 NA
ATOM     31  C   UNL A   1      46.073  24.012  26.318  1.00  0.00     0.031 C 
ATOM     32  C   UNL A   1      48.807  29.385  26.997  1.00  0.00     0.029 A 
ATOM     33  C   UNL A   1      47.858  28.377  27.000  1.00  0.00     0.049 A 
ATOM     34  H   UNL A   1      45.805  28.481  27.477  1.00  0.00     0.167 HD
ATOM     35  C   UNL A   1      47.035  26.066  26.652  1.00  0.00     0.074 A 
ATOM     36  C   UNL A   1      47.219  24.679  26.283  1.00  0.00     0.031 C 
ATOM     37  C   UNL A   1      48.029  26.987  26.666  1.00  0.00     0.037 A 
BRANCH  24  38
ATOM     38  C   UNL A   1      46.246  32.597  28.514  1.00  0.00     0.058 A 
ATOM     39  C   UNL A   1      46.730  32.915  29.792  1.00  0.00     0.135 A 
ATOM     40  C   UNL A   1      46.223  33.615  27.548  1.00  0.00     0.135 A 
ATOM     41  F   UNL A   1      46.750  31.984  30.759  1.00  0.00    -0.206 F 
ATOM     42  C   UNL A   1      47.178  34.195  30.102  1.00  0.00     0.059 A 
ATOM     43  C   UNL A   1      46.687  34.897  27.829  1.00  0.00     0.059 A 
ATOM     44  F   UNL A   1      45.763  33.364  26.312  1.00  0.00    -0.206 F 
ATOM     45  C   UNL A   1      47.159  35.177  29.111  1.00  0.00     0.060 A 
BRANCH  45  46
ATOM     46  S   UNL A   1      47.789  36.820  29.518  1.00  0.00     0.124 S 
ATOM     47  O   UNL A   1      46.872  37.229  30.577  1.00  0.00    -0.237 OA
ATOM     48  O   UNL A   1      49.157  36.532  29.938  1.00  0.00    -0.237 OA
ATOM     49  O   UNL A   1      47.663  37.553  28.262  1.00  0.00    -0.744 OA
ENDBRANCH  45  46
ENDBRANCH  24  38
BRANCH  25  50
ATOM     50  C   UNL A   1      43.314  23.203  26.812  1.00  0.00     0.058 A 
ATOM     51  C   UNL A   1      43.079  22.346  27.898  1.00  0.00     0.135 A 
ATOM     52  C   UNL A   1      43.189  22.672  25.520  1.00  0.00     0.135 A 
ATOM     53  F   UNL A   1      43.195  22.807  29.153  1.00  0.00    -0.206 F 
ATOM     54  C   UNL A   1      42.765  21.004  27.713  1.00  0.00     0.059 A 
ATOM     55  C   UNL A   1      42.852  21.338  25.309  1.00  0.00     0.059 A 
ATOM     56  F   UNL A   1      43.390  23.453  24.448  1.00  0.00    -0.206 F 
ATOM     57  C   UNL A   1      42.658  20.508  26.413  1.00  0.00     0.060 A 
BRANCH  57  58
ATOM     58  S   UNL A   1      42.236  18.768  26.181  1.00  0.00     0.124 S 
ATOM     59  O   UNL A   1      43.215  18.360  25.181  1.00  0.00    -0.237 OA
ATOM     60  O   UNL A   1      42.428  18.223  27.523  1.00  0.00    -0.237 OA
ATOM     61  O   UNL A   1      40.850  18.818  25.727  1.00  0.00    -0.744 OA
ENDBRANCH  57  58
ENDBRANCH  25  50
BRANCH  37  62
ATOM     62  C   UNL A   1      49.416  26.513  26.338  1.00  0.00     0.058 A 
ATOM     63  C   UNL A   1      49.947  26.614  25.044  1.00  0.00     0.135 A 
ATOM     64  C   UNL A   1      50.238  25.986  27.349  1.00  0.00     0.135 A 
ATOM     65  F   UNL A   1      49.200  27.107  24.044  1.00  0.00    -0.206 F 
ATOM     66  C   UNL A   1      51.237  26.182  24.754  1.00  0.00     0.059 A 
ATOM     67  C   UNL A   1      51.539  25.570  27.087  1.00  0.00     0.059 A 
ATOM     68  F   UNL A   1      49.779  25.880  28.606  1.00  0.00    -0.206 F 
ATOM     69  C   UNL A   1      52.025  25.659  25.783  1.00  0.00     0.060 A 
BRANCH  69  70
ATOM     70  S   UNL A   1      53.704  25.119  25.398  1.00  0.00     0.124 S 
ATOM     71  O   UNL A   1      53.548  23.667  25.380  1.00  0.00    -0.237 OA
ATOM     72  O   UNL A   1      53.946  25.746  24.104  1.00  0.00    -0.237 OA
ATOM     73  O   UNL A   1      54.494  25.651  26.504  1.00  0.00    -0.744 OA
ENDBRANCH  69  70
ENDBRANCH  37  62
ENDBRANCH  11  12
ENDBRANCH   4   6
ENDBRANCH   1   2
BRANCH   1  74
ATOM     74  C   UNL A   1      33.774  28.763  27.219  1.00  0.00     0.023 C 
BRANCH  74  75
ATOM     75  C   UNL A   1      32.625  29.775  27.193  1.00  0.00     0.023 C 
BRANCH  75  76
ATOM     76  C   UNL A   1      32.193  30.242  25.805  1.00  0.00     0.116 C 
BRANCH  76  77
ATOM     77  N   UNL A   1      33.023  29.687  24.746  1.00  0.00    -0.352 N 
ATOM     78  C   UNL A   1      32.645  28.944  23.659  1.00  0.00     0.254 C 
ATOM     79  H   UNL A   1      33.988  29.870  24.821  1.00  0.00     0.163 HD
ATOM     80  O   UNL A   1      33.474  28.497  22.875  1.00  0.00    -0.269 OA
BRANCH  78  81
ATOM     81  C   UNL A   1      31.227  28.642  23.444  1.00  0.00     0.072 A 
ATOM     82  C   UNL A   1      30.494  29.543  22.663  1.00  0.00     0.034 A 
ATOM     83  C   UNL A   1      30.592  27.528  23.994  1.00  0.00     0.106 A 
ATOM     84  C   UNL A   1      29.157  29.276  22.412  1.00  0.00     0.037 A 
ATOM     85  N   UNL A   1      29.285  27.259  23.735  1.00  0.00    -0.248 NA
ATOM     86  Br  UNL A   1      28.125  30.444  21.353  1.00  0.00    -0.049 Br
ATOM     87  C   UNL A   1      28.602  28.129  22.953  1.00  0.00     0.128 A 
BRANCH  83  88
ATOM     88  S   UNL A   1      31.369  26.345  25.075  1.00  0.00    -0.123 SA
ATOM     89  H   UNL A   1      31.150  26.702  26.369  1.00  0.00     0.109 HD
ENDBRANCH  83  88
ENDBRANCH  78  81
ENDBRANCH  76  77
ENDBRANCH  75  76
ENDBRANCH  74  75
ENDBRANCH   1  74
TORSDOF 15
ENDMDL
MODEL 3
REMARK VINA RESULT:     -10.3      3.396      5.692
REMARK SMILES O=C(NCCCCNC(=O)c1cc(Br)cnc1S)c1ccc(-c2c3nc(c(-c4c(F)cc(S(=O)(=O)[O-])cc4F)c4ccc([nH]4)c(-c4c(F)cc(S(=O)(=O)[O-])cc4F)c4nc(c(-c5c(F)cc(S(=O)(=O)[O-])cc5F)c5ccc2[nH]5)C=C4)C=C3)cc1
REMARK SMILES IDX 4 1 3 2 1 3 2 4 19 6 20 7 84 8 21 9 83 10 22 11 23 12 24 13
REMARK SMILES IDX 77 14 25 15 82 16 76 17 78 18 26 19 81 20 75 21 74 22 27 24
REMARK SMILES IDX 61 25 40 26 60 27 41 28 44 29 59 30 79 31 42 32 43 33 58 35
REMARK SMILES IDX 80 36 45 37 28 38 29 39 38 40 30 41 31 42 37 43 39 44 32 45
REMARK SMILES IDX 33 46 34 47 35 48 36 49 62 50 63 51 72 52 64 53 65 54 71 55
REMARK SMILES IDX 73 56 66 57 67 58 68 59 69 60 70 61 46 62 47 63 56 64 48 65
REMARK SMILES IDX 49 66 55 67 57 68 50 69 51 70 52 71 53 72 54 73 5 74 6 75
REMARK SMILES IDX 7 76 8 77 9 78 10 80 11 81 12 82 17 83 13 84 16 85 14 86
REMARK SMILES IDX 15 87 18 88
REMARK H PARENT 3 5 78 23 44 34 8 79 18 89
REMARK Flexibility Score: inf
ROOT
ATOM      1  C   UNL A   1      34.657  32.360  29.200  1.00  0.00     0.116 C 
ENDROOT
BRANCH   1   2
ATOM      2  N   UNL A   1      34.050  31.334  28.370  1.00  0.00    -0.352 N 
ATOM      3  O   UNL A   1      33.963  29.577  26.974  1.00  0.00    -0.269 OA
ATOM      4  C   UNL A   1      34.622  30.237  27.774  1.00  0.00     0.251 C 
ATOM      5  H   UNL A   1      33.084  31.441  28.212  1.00  0.00     0.163 HD
BRANCH   4   6
ATOM      6  C   UNL A   1      36.022  29.856  28.070  1.00  0.00     0.039 A 
ATOM      7  C   UNL A   1      36.326  29.346  29.335  1.00  0.00     0.014 A 
ATOM      8  C   UNL A   1      37.041  30.048  27.131  1.00  0.00     0.014 A 
ATOM      9  C   UNL A   1      37.640  28.986  29.647  1.00  0.00     0.010 A 
ATOM     10  C   UNL A   1      38.343  29.640  27.425  1.00  0.00     0.010 A 
ATOM     11  C   UNL A   1      38.657  29.113  28.688  1.00  0.00    -0.014 A 
BRANCH  11  12
ATOM     12  C   UNL A   1      40.066  28.757  28.996  1.00  0.00     0.031 A 
ATOM     13  C   UNL A   1      40.962  29.776  29.651  1.00  0.00     0.074 A 
ATOM     14  C   UNL A   1      40.553  27.547  28.662  1.00  0.00     0.049 A 
ATOM     15  N   UNL A   1      42.251  29.730  29.862  1.00  0.00    -0.248 NA
ATOM     16  C   UNL A   1      40.320  31.017  30.117  1.00  0.00     0.031 C 
ATOM     17  C   UNL A   1      39.786  26.463  28.044  1.00  0.00     0.029 A 
ATOM     18  N   UNL A   1      41.817  27.025  28.791  1.00  0.00    -0.354 N 
ATOM     19  C   UNL A   1      42.577  30.933  30.479  1.00  0.00     0.074 A 
ATOM     20  C   UNL A   1      41.358  31.707  30.570  1.00  0.00     0.031 C 
ATOM     21  C   UNL A   1      40.590  25.401  27.866  1.00  0.00     0.029 A 
ATOM     22  C   UNL A   1      41.937  25.742  28.311  1.00  0.00     0.049 A 
ATOM     23  H   UNL A   1      42.566  27.524  29.188  1.00  0.00     0.167 HD
ATOM     24  C   UNL A   1      43.780  31.346  30.945  1.00  0.00     0.037 A 
ATOM     25  C   UNL A   1      43.016  24.938  28.229  1.00  0.00     0.037 A 
ATOM     26  C   UNL A   1      44.988  30.568  30.872  1.00  0.00     0.049 A 
ATOM     27  C   UNL A   1      44.351  25.445  28.709  1.00  0.00     0.074 A 
ATOM     28  C   UNL A   1      46.264  30.915  31.284  1.00  0.00     0.029 A 
ATOM     29  N   UNL A   1      45.067  29.275  30.376  1.00  0.00    -0.354 N 
ATOM     30  N   UNL A   1      44.651  26.606  29.240  1.00  0.00    -0.248 NA
ATOM     31  C   UNL A   1      45.495  24.530  28.574  1.00  0.00     0.031 C 
ATOM     32  C   UNL A   1      47.117  29.837  31.025  1.00  0.00     0.029 A 
ATOM     33  C   UNL A   1      46.366  28.807  30.486  1.00  0.00     0.049 A 
ATOM     34  H   UNL A   1      44.312  28.766  30.003  1.00  0.00     0.167 HD
ATOM     35  C   UNL A   1      46.008  26.545  29.539  1.00  0.00     0.074 A 
ATOM     36  C   UNL A   1      46.470  25.235  29.132  1.00  0.00     0.031 C 
ATOM     37  C   UNL A   1      46.801  27.488  30.104  1.00  0.00     0.037 A 
BRANCH  24  38
ATOM     38  C   UNL A   1      43.851  32.696  31.600  1.00  0.00     0.058 A 
ATOM     39  C   UNL A   1      43.953  33.869  30.836  1.00  0.00     0.135 A 
ATOM     40  C   UNL A   1      43.739  32.828  32.992  1.00  0.00     0.135 A 
ATOM     41  F   UNL A   1      44.086  33.797  29.502  1.00  0.00    -0.206 F 
ATOM     42  C   UNL A   1      43.942  35.127  31.429  1.00  0.00     0.059 A 
ATOM     43  C   UNL A   1      43.704  34.077  33.607  1.00  0.00     0.059 A 
ATOM     44  F   UNL A   1      43.645  31.737  33.769  1.00  0.00    -0.206 F 
ATOM     45  C   UNL A   1      43.809  35.220  32.815  1.00  0.00     0.060 A 
BRANCH  45  46
ATOM     46  S   UNL A   1      43.750  36.862  33.563  1.00  0.00     0.124 S 
ATOM     47  O   UNL A   1      43.914  37.721  32.395  1.00  0.00    -0.237 OA
ATOM     48  O   UNL A   1      42.427  36.874  34.179  1.00  0.00    -0.237 OA
ATOM     49  O   UNL A   1      44.872  36.852  34.497  1.00  0.00    -0.744 OA
ENDBRANCH  45  46
ENDBRANCH  24  38
BRANCH  25  50
ATOM     50  C   UNL A   1      42.892  23.560  27.684  1.00  0.00     0.058 A 
ATOM     51  C   UNL A   1      43.117  23.307  26.323  1.00  0.00     0.135 A 
ATOM     52  C   UNL A   1      42.517  22.479  28.497  1.00  0.00     0.135 A 
ATOM     53  F   UNL A   1      43.470  24.309  25.504  1.00  0.00    -0.206 F 
ATOM     54  C   UNL A   1      42.944  22.039  25.778  1.00  0.00     0.059 A 
ATOM     55  C   UNL A   1      42.361  21.197  27.980  1.00  0.00     0.059 A 
ATOM     56  F   UNL A   1      42.304  22.666  29.809  1.00  0.00    -0.206 F 
ATOM     57  C   UNL A   1      42.561  20.990  26.615  1.00  0.00     0.060 A 
BRANCH  57  58
ATOM     58  S   UNL A   1      42.352  19.344  25.903  1.00  0.00     0.124 S 
ATOM     59  O   UNL A   1      40.908  19.288  25.715  1.00  0.00    -0.237 OA
ATOM     60  O   UNL A   1      43.153  19.431  24.685  1.00  0.00    -0.237 OA
ATOM     61  O   UNL A   1      42.891  18.463  26.934  1.00  0.00    -0.744 OA
ENDBRANCH  57  58
ENDBRANCH  25  50
BRANCH  37  62
ATOM     62  C   UNL A   1      48.230  27.118  30.378  1.00  0.00     0.058 A 
ATOM     63  C   UNL A   1      49.255  27.389  29.460  1.00  0.00     0.135 A 
ATOM     64  C   UNL A   1      48.581  26.515  31.598  1.00  0.00     0.135 A 
ATOM     65  F   UNL A   1      48.971  27.959  28.279  1.00  0.00    -0.206 F 
ATOM     66  C   UNL A   1      50.577  27.051  29.729  1.00  0.00     0.059 A 
ATOM     67  C   UNL A   1      49.899  26.190  31.898  1.00  0.00     0.059 A 
ATOM     68  F   UNL A   1      47.637  26.246  32.514  1.00  0.00    -0.206 F 
ATOM     69  C   UNL A   1      50.889  26.450  30.951  1.00  0.00     0.060 A 
BRANCH  69  70
ATOM     70  S   UNL A   1      52.611  26.033  31.297  1.00  0.00     0.124 S 
ATOM     71  O   UNL A   1      53.196  26.068  29.959  1.00  0.00    -0.237 OA
ATOM     72  O   UNL A   1      53.020  27.107  32.195  1.00  0.00    -0.237 OA
ATOM     73  O   UNL A   1      52.524  24.710  31.908  1.00  0.00    -0.744 OA
ENDBRANCH  69  70
ENDBRANCH  37  62
ENDBRANCH  11  12
ENDBRANCH   4   6
ENDBRANCH   1   2
BRANCH   1  74
ATOM     74  C   UNL A   1      35.695  33.188  28.447  1.00  0.00     0.023 C 
BRANCH  74  75
ATOM     75  C   UNL A   1      37.124  33.123  28.992  1.00  0.00     0.023 C 
BRANCH  75  76
ATOM     76  C   UNL A   1      37.629  34.396  29.666  1.00  0.00     0.116 C 
BRANCH  76  77
ATOM     77  N   UNL A   1      38.486  34.119  30.809  1.00  0.00    -0.352 N 
ATOM     78  C   UNL A   1      38.132  33.892  32.113  1.00  0.00     0.254 C 
ATOM     79  H   UNL A   1      39.452  34.091  30.620  1.00  0.00     0.163 HD
ATOM     80  O   UNL A   1      38.980  33.725  32.983  1.00  0.00    -0.269 OA
BRANCH  78  81
ATOM     81  C   UNL A   1      36.715  33.885  32.489  1.00  0.00     0.072 A 
ATOM     82  C   UNL A   1      36.092  35.127  32.655  1.00  0.00     0.034 A 
ATOM     83  C   UNL A   1      35.988  32.713  32.703  1.00  0.00     0.106 A 
ATOM     84  C   UNL A   1      34.745  35.162  32.980  1.00  0.00     0.037 A 
ATOM     85  N   UNL A   1      34.663  32.747  33.007  1.00  0.00    -0.248 NA
ATOM     86  Br  UNL A   1      33.850  36.805  33.198  1.00  0.00    -0.049 Br
ATOM     87  C   UNL A   1      34.074  33.961  33.134  1.00  0.00     0.128 A 
BRANCH  83  88
ATOM     88  S   UNL A   1      36.663  31.067  32.616  1.00  0.00    -0.123 SA
ATOM     89  H   UNL A   1      36.424  30.543  31.385  1.00  0.00     0.109 HD
ENDBRANCH  83  88
ENDBRANCH  78  81
ENDBRANCH  76  77
ENDBRANCH  75  76
ENDBRANCH  74  75
ENDBRANCH   1  74
TORSDOF 15
ENDMDL
