MODEL 1
REMARK VINA RESULT:     -11.1      0.000      0.000
REMARK SMILES O=C(NCCCCNC(=O)c1cc(Br)ccc1OCc1ccccc1F)c1ccc(-c2c3nc(c(-c4c(F)cc(S(=O)(=O)[O-])cc4F)c4ccc([nH]4)c(-c4c(F)cc(S(=O)(=O)[O-])cc4F)c4nc(c(-c5c(F)cc(S(=O)(=O)[O-])cc5F)c5ccc2[nH]5)C=C4)C=C3)cc1
REMARK SMILES IDX 5 1 4 2 3 3 1 4 2 5 27 7 28 8 92 9 29 10 91 11 30 12 31 13
REMARK SMILES IDX 32 14 85 15 33 16 90 17 84 18 86 19 34 20 89 21 83 22 82 23
REMARK SMILES IDX 35 25 69 26 48 27 68 28 49 29 52 30 67 31 87 32 50 33 51 34
REMARK SMILES IDX 66 36 88 37 53 38 36 39 37 40 46 41 38 42 39 43 45 44 47 45
REMARK SMILES IDX 40 46 41 47 42 48 43 49 44 50 70 51 71 52 80 53 72 54 73 55
REMARK SMILES IDX 79 56 81 57 74 58 75 59 76 60 77 61 78 62 54 63 55 64 64 65
REMARK SMILES IDX 56 66 57 67 63 68 65 69 58 70 59 71 60 72 61 73 62 74 6 75
REMARK SMILES IDX 7 76 8 77 9 78 10 80 11 81 12 82 17 83 13 84 16 85 14 86
REMARK SMILES IDX 15 87 18 88 19 89 20 90 21 91 25 92 22 93 24 94 26 95 23 96
REMARK H PARENT 3 6 86 24 52 35 8 79
REMARK Flexibility Score: inf
ROOT
ATOM      1  C   UNL A   1      32.548  27.793  26.166  1.00  0.00     0.023 C 
ENDROOT
BRANCH   1   2
ATOM      2  C   UNL A   1      33.694  28.310  27.023  1.00  0.00     0.116 C 
BRANCH   2   3
ATOM      3  N   UNL A   1      33.516  29.678  27.480  1.00  0.00    -0.352 N 
ATOM      4  O   UNL A   1      34.074  31.617  28.491  1.00  0.00    -0.269 OA
ATOM      5  C   UNL A   1      34.425  30.510  28.094  1.00  0.00     0.251 C 
ATOM      6  H   UNL A   1      32.621  30.062  27.332  1.00  0.00     0.163 HD
BRANCH   5   7
ATOM      7  C   UNL A   1      35.814  30.044  28.307  1.00  0.00     0.039 A 
ATOM      8  C   UNL A   1      36.226  29.584  29.559  1.00  0.00     0.014 A 
ATOM      9  C   UNL A   1      36.724  30.100  27.247  1.00  0.00     0.014 A 
ATOM     10  C   UNL A   1      37.575  29.346  29.793  1.00  0.00     0.010 A 
ATOM     11  C   UNL A   1      38.066  29.763  27.461  1.00  0.00     0.010 A 
ATOM     12  C   UNL A   1      38.510  29.415  28.745  1.00  0.00    -0.014 A 
BRANCH  12  13
ATOM     13  C   UNL A   1      39.923  29.045  29.024  1.00  0.00     0.031 A 
ATOM     14  C   UNL A   1      40.482  27.704  28.634  1.00  0.00     0.074 A 
ATOM     15  C   UNL A   1      40.724  29.980  29.574  1.00  0.00     0.049 A 
ATOM     16  N   UNL A   1      41.710  27.265  28.745  1.00  0.00    -0.248 NA
ATOM     17  C   UNL A   1      39.550  26.724  28.051  1.00  0.00     0.031 C 
ATOM     18  C   UNL A   1      40.286  31.312  30.006  1.00  0.00     0.029 A 
ATOM     19  N   UNL A   1      42.071  29.982  29.824  1.00  0.00    -0.354 N 
ATOM     20  C   UNL A   1      41.701  25.962  28.262  1.00  0.00     0.074 A 
ATOM     21  C   UNL A   1      40.338  25.668  27.875  1.00  0.00     0.031 C 
ATOM     22  C   UNL A   1      41.353  32.027  30.385  1.00  0.00     0.029 A 
ATOM     23  C   UNL A   1      42.541  31.188  30.291  1.00  0.00     0.049 A 
ATOM     24  H   UNL A   1      42.648  29.196  29.683  1.00  0.00     0.167 HD
ATOM     25  C   UNL A   1      42.739  25.098  28.145  1.00  0.00     0.037 A 
ATOM     26  C   UNL A   1      43.789  31.578  30.613  1.00  0.00     0.037 A 
ATOM     27  C   UNL A   1      44.099  25.410  28.510  1.00  0.00     0.049 A 
ATOM     28  C   UNL A   1      44.914  30.597  30.475  1.00  0.00     0.074 A 
ATOM     29  C   UNL A   1      45.221  24.604  28.411  1.00  0.00     0.029 A 
ATOM     30  N   UNL A   1      44.524  26.621  29.034  1.00  0.00    -0.354 N 
ATOM     31  N   UNL A   1      44.880  29.367  30.020  1.00  0.00    -0.248 NA
ATOM     32  C   UNL A   1      46.242  31.047  30.911  1.00  0.00     0.031 C 
ATOM     33  C   UNL A   1      46.318  25.316  28.905  1.00  0.00     0.029 A 
ATOM     34  C   UNL A   1      45.888  26.579  29.277  1.00  0.00     0.049 A 
ATOM     35  H   UNL A   1      43.943  27.397  29.208  1.00  0.00     0.167 HD
ATOM     36  C   UNL A   1      46.182  28.894  30.120  1.00  0.00     0.074 A 
ATOM     37  C   UNL A   1      46.984  29.981  30.645  1.00  0.00     0.031 C 
ATOM     38  C   UNL A   1      46.666  27.665  29.816  1.00  0.00     0.037 A 
BRANCH  25  39
ATOM     39  C   UNL A   1      42.468  23.724  27.595  1.00  0.00     0.058 A 
ATOM     40  C   UNL A   1      42.301  22.631  28.461  1.00  0.00     0.135 A 
ATOM     41  C   UNL A   1      42.488  23.470  26.215  1.00  0.00     0.135 A 
ATOM     42  F   UNL A   1      42.267  22.818  29.789  1.00  0.00    -0.206 F 
ATOM     43  C   UNL A   1      42.196  21.329  27.978  1.00  0.00     0.059 A 
ATOM     44  C   UNL A   1      42.366  22.177  25.710  1.00  0.00     0.059 A 
ATOM     45  F   UNL A   1      42.624  24.482  25.345  1.00  0.00    -0.206 F 
ATOM     46  C   UNL A   1      42.240  21.111  26.601  1.00  0.00     0.060 A 
BRANCH  46  47
ATOM     47  S   UNL A   1      42.115  19.416  25.990  1.00  0.00     0.124 S 
ATOM     48  O   UNL A   1      42.597  18.648  27.132  1.00  0.00    -0.237 OA
ATOM     49  O   UNL A   1      40.689  19.299  25.700  1.00  0.00    -0.237 OA
ATOM     50  O   UNL A   1      42.984  19.414  24.817  1.00  0.00    -0.744 OA
ENDBRANCH  46  47
ENDBRANCH  25  39
BRANCH  26  51
ATOM     51  C   UNL A   1      44.027  32.962  31.096  1.00  0.00     0.058 A 
ATOM     52  C   UNL A   1      43.840  33.301  32.446  1.00  0.00     0.135 A 
ATOM     53  C   UNL A   1      44.417  33.979  30.213  1.00  0.00     0.135 A 
ATOM     54  F   UNL A   1      43.457  32.366  33.329  1.00  0.00    -0.206 F 
ATOM     55  C   UNL A   1      44.007  34.604  32.899  1.00  0.00     0.059 A 
ATOM     56  C   UNL A   1      44.617  35.287  30.648  1.00  0.00     0.059 A 
ATOM     57  F   UNL A   1      44.617  33.700  28.916  1.00  0.00    -0.206 F 
ATOM     58  C   UNL A   1      44.392  35.591  31.991  1.00  0.00     0.060 A 
BRANCH  58  59
ATOM     59  S   UNL A   1      44.616  37.276  32.597  1.00  0.00     0.124 S 
ATOM     60  O   UNL A   1      44.510  38.045  31.362  1.00  0.00    -0.237 OA
ATOM     61  O   UNL A   1      43.502  37.419  33.531  1.00  0.00    -0.237 OA
ATOM     62  O   UNL A   1      45.940  37.241  33.207  1.00  0.00    -0.744 OA
ENDBRANCH  58  59
ENDBRANCH  26  51
BRANCH  38  63
ATOM     63  C   UNL A   1      48.130  27.433  30.056  1.00  0.00     0.058 A 
ATOM     64  C   UNL A   1      49.061  27.596  29.020  1.00  0.00     0.135 A 
ATOM     65  C   UNL A   1      48.604  27.019  31.311  1.00  0.00     0.135 A 
ATOM     66  F   UNL A   1      48.657  27.987  27.801  1.00  0.00    -0.206 F 
ATOM     67  C   UNL A   1      50.416  27.355  29.219  1.00  0.00     0.059 A 
ATOM     68  C   UNL A   1      49.957  26.795  31.539  1.00  0.00     0.059 A 
ATOM     69  F   UNL A   1      47.751  26.864  32.337  1.00  0.00    -0.206 F 
ATOM     70  C   UNL A   1      50.855  26.956  30.483  1.00  0.00     0.060 A 
BRANCH  70  71
ATOM     71  S   UNL A   1      52.622  26.692  30.741  1.00  0.00     0.124 S 
ATOM     72  O   UNL A   1      52.633  25.413  31.443  1.00  0.00    -0.237 OA
ATOM     73  O   UNL A   1      53.137  26.672  29.375  1.00  0.00    -0.237 OA
ATOM     74  O   UNL A   1      53.022  27.849  31.535  1.00  0.00    -0.744 OA
ENDBRANCH  70  71
ENDBRANCH  38  63
ENDBRANCH  12  13
ENDBRANCH   5   7
ENDBRANCH   2   3
ENDBRANCH   1   2
BRANCH   1  75
ATOM     75  C   UNL A   1      32.084  26.368  26.446  1.00  0.00     0.023 C 
BRANCH  75  76
ATOM     76  C   UNL A   1      33.047  25.258  26.049  1.00  0.00     0.116 C 
BRANCH  76  77
ATOM     77  N   UNL A   1      32.691  23.949  26.565  1.00  0.00    -0.352 N 
ATOM     78  C   UNL A   1      33.458  22.817  26.562  1.00  0.00     0.255 C 
ATOM     79  H   UNL A   1      31.794  23.866  26.962  1.00  0.00     0.163 HD
ATOM     80  O   UNL A   1      33.265  21.949  27.411  1.00  0.00    -0.269 OA
BRANCH  78  81
ATOM     81  C   UNL A   1      34.558  22.699  25.601  1.00  0.00     0.082 A 
ATOM     82  C   UNL A   1      35.838  22.679  26.185  1.00  0.00     0.033 A 
ATOM     83  C   UNL A   1      34.409  22.676  24.208  1.00  0.00     0.132 A 
ATOM     84  C   UNL A   1      36.972  22.721  25.382  1.00  0.00     0.019 A 
ATOM     85  C   UNL A   1      35.573  22.745  23.423  1.00  0.00     0.048 A 
ATOM     86  Br  UNL A   1      38.685  22.740  26.174  1.00  0.00    -0.051 Br
ATOM     87  C   UNL A   1      36.845  22.775  24.000  1.00  0.00     0.019 A 
BRANCH  83  88
ATOM     88  O   UNL A   1      33.295  22.565  23.427  1.00  0.00    -0.488 OA
BRANCH  88  89
ATOM     89  C   UNL A   1      33.070  23.386  22.276  1.00  0.00     0.268 C 
BRANCH  89  90
ATOM     90  C   UNL A   1      32.692  24.828  22.521  1.00  0.00     0.025 A 
ATOM     91  C   UNL A   1      33.586  25.901  22.415  1.00  0.00     0.010 A 
ATOM     92  C   UNL A   1      31.346  25.111  22.788  1.00  0.00     0.129 A 
ATOM     93  C   UNL A   1      33.116  27.217  22.458  1.00  0.00     0.001 A 
ATOM     94  C   UNL A   1      30.875  26.418  22.846  1.00  0.00     0.039 A 
ATOM     95  F   UNL A   1      30.476  24.102  22.947  1.00  0.00    -0.207 F 
ATOM     96  C   UNL A   1      31.760  27.475  22.653  1.00  0.00     0.003 A 
ENDBRANCH  89  90
ENDBRANCH  88  89
ENDBRANCH  83  88
ENDBRANCH  78  81
ENDBRANCH  76  77
ENDBRANCH  75  76
ENDBRANCH   1  75
TORSDOF 17
ENDMDL
MODEL 2
REMARK VINA RESULT:     -11.0      1.287      2.183
REMARK SMILES O=C(NCCCCNC(=O)c1cc(Br)ccc1OCc1ccccc1F)c1ccc(-c2c3nc(c(-c4c(F)cc(S(=O)(=O)[O-])cc4F)c4ccc([nH]4)c(-c4c(F)cc(S(=O)(=O)[O-])cc4F)c4nc(c(-c5c(F)cc(S(=O)(=O)[O-])cc5F)c5ccc2[nH]5)C=C4)C=C3)cc1
REMARK SMILES IDX 5 1 4 2 3 3 1 4 2 5 27 7 28 8 92 9 29 10 91 11 30 12 31 13
REMARK SMILES IDX 32 14 85 15 33 16 90 17 84 18 86 19 34 20 89 21 83 22 82 23
REMARK SMILES IDX 35 25 69 26 48 27 68 28 49 29 52 30 67 31 87 32 50 33 51 34
REMARK SMILES IDX 66 36 88 37 53 38 36 39 37 40 46 41 38 42 39 43 45 44 47 45
REMARK SMILES IDX 40 46 41 47 42 48 43 49 44 50 70 51 71 52 80 53 72 54 73 55
REMARK SMILES IDX 79 56 81 57 74 58 75 59 76 60 77 61 78 62 54 63 55 64 64 65
REMARK SMILES IDX 56 66 57 67 63 68 65 69 58 70 59 71 60 72 61 73 62 74 6 75
REMARK SMILES IDX 7 76 8 77 9 78 10 80 11 81 12 82 17 83 13 84 16 85 14 86
REMARK SMILES IDX 15 87 18 88 19 89 20 90 21 91 25 92 22 93 24 94 26 95 23 96
REMARK H PARENT 3 6 86 24 52 35 8 79
REMARK Flexibility Score: inf
ROOT
ATOM      1  C   UNL A   1      32.269  27.643  27.145  1.00  0.00     0.023 C 
ENDROOT
BRANCH   1   2
ATOM      2  C   UNL A   1      33.593  28.389  27.213  1.00  0.00     0.116 C 
BRANCH   2   3
ATOM      3  N   UNL A   1      33.460  29.792  27.566  1.00  0.00    -0.352 N 
ATOM      4  O   UNL A   1      34.088  31.786  28.417  1.00  0.00    -0.269 OA
ATOM      5  C   UNL A   1      34.402  30.642  28.101  1.00  0.00     0.251 C 
ATOM      6  H   UNL A   1      32.574  30.189  27.402  1.00  0.00     0.163 HD
BRANCH   5   7
ATOM      7  C   UNL A   1      35.781  30.155  28.329  1.00  0.00     0.039 A 
ATOM      8  C   UNL A   1      36.173  29.692  29.586  1.00  0.00     0.014 A 
ATOM      9  C   UNL A   1      36.702  30.192  27.278  1.00  0.00     0.014 A 
ATOM     10  C   UNL A   1      37.515  29.433  29.834  1.00  0.00     0.010 A 
ATOM     11  C   UNL A   1      38.036  29.833  27.506  1.00  0.00     0.010 A 
ATOM     12  C   UNL A   1      38.462  29.483  28.795  1.00  0.00    -0.014 A 
BRANCH  12  13
ATOM     13  C   UNL A   1      39.866  29.090  29.089  1.00  0.00     0.031 A 
ATOM     14  C   UNL A   1      40.409  27.742  28.701  1.00  0.00     0.074 A 
ATOM     15  C   UNL A   1      40.674  30.011  29.652  1.00  0.00     0.049 A 
ATOM     16  N   UNL A   1      41.629  27.285  28.825  1.00  0.00    -0.248 NA
ATOM     17  C   UNL A   1      39.470  26.778  28.104  1.00  0.00     0.031 C 
ATOM     18  C   UNL A   1      40.251  31.348  30.083  1.00  0.00     0.029 A 
ATOM     19  N   UNL A   1      42.019  29.992  29.917  1.00  0.00    -0.354 N 
ATOM     20  C   UNL A   1      41.606  25.984  28.337  1.00  0.00     0.074 A 
ATOM     21  C   UNL A   1      40.243  25.712  27.934  1.00  0.00     0.031 C 
ATOM     22  C   UNL A   1      41.325  32.046  30.476  1.00  0.00     0.029 A 
ATOM     23  C   UNL A   1      42.501  31.189  30.394  1.00  0.00     0.049 A 
ATOM     24  H   UNL A   1      42.585  29.198  29.780  1.00  0.00     0.167 HD
ATOM     25  C   UNL A   1      42.632  25.104  28.229  1.00  0.00     0.037 A 
ATOM     26  C   UNL A   1      43.751  31.560  30.731  1.00  0.00     0.037 A 
ATOM     27  C   UNL A   1      43.992  25.394  28.610  1.00  0.00     0.049 A 
ATOM     28  C   UNL A   1      44.863  30.562  30.603  1.00  0.00     0.074 A 
ATOM     29  C   UNL A   1      45.104  24.572  28.522  1.00  0.00     0.029 A 
ATOM     30  N   UNL A   1      44.430  26.598  29.144  1.00  0.00    -0.354 N 
ATOM     31  N   UNL A   1      44.815  29.335  30.143  1.00  0.00    -0.248 NA
ATOM     32  C   UNL A   1      46.192  30.991  31.055  1.00  0.00     0.031 C 
ATOM     33  C   UNL A   1      46.205  25.266  29.031  1.00  0.00     0.029 A 
ATOM     34  C   UNL A   1      45.790  26.534  29.402  1.00  0.00     0.049 A 
ATOM     35  H   UNL A   1      43.858  27.381  29.313  1.00  0.00     0.167 HD
ATOM     36  C   UNL A   1      46.109  28.841  30.256  1.00  0.00     0.074 A 
ATOM     37  C   UNL A   1      46.921  29.914  30.794  1.00  0.00     0.031 C 
ATOM     38  C   UNL A   1      46.578  27.607  29.953  1.00  0.00     0.037 A 
BRANCH  25  39
ATOM     39  C   UNL A   1      42.347  23.737  27.672  1.00  0.00     0.058 A 
ATOM     40  C   UNL A   1      42.241  22.627  28.526  1.00  0.00     0.135 A 
ATOM     41  C   UNL A   1      42.293  23.506  26.288  1.00  0.00     0.135 A 
ATOM     42  F   UNL A   1      42.280  22.792  29.857  1.00  0.00    -0.206 F 
ATOM     43  C   UNL A   1      42.124  21.332  28.027  1.00  0.00     0.059 A 
ATOM     44  C   UNL A   1      42.157  22.220  25.768  1.00  0.00     0.059 A 
ATOM     45  F   UNL A   1      42.368  24.534  25.430  1.00  0.00    -0.206 F 
ATOM     46  C   UNL A   1      42.094  21.138  26.646  1.00  0.00     0.060 A 
BRANCH  46  47
ATOM     47  S   UNL A   1      41.955  19.451  26.013  1.00  0.00     0.124 S 
ATOM     48  O   UNL A   1      42.796  19.506  24.824  1.00  0.00    -0.237 OA
ATOM     49  O   UNL A   1      42.477  18.663  27.126  1.00  0.00    -0.237 OA
ATOM     50  O   UNL A   1      40.524  19.299  25.768  1.00  0.00    -0.744 OA
ENDBRANCH  46  47
ENDBRANCH  25  39
BRANCH  26  51
ATOM     51  C   UNL A   1      44.004  32.938  31.222  1.00  0.00     0.058 A 
ATOM     52  C   UNL A   1      43.945  33.243  32.591  1.00  0.00     0.135 A 
ATOM     53  C   UNL A   1      44.281  33.984  30.329  1.00  0.00     0.135 A 
ATOM     54  F   UNL A   1      43.673  32.279  33.485  1.00  0.00    -0.206 F 
ATOM     55  C   UNL A   1      44.126  34.539  33.057  1.00  0.00     0.059 A 
ATOM     56  C   UNL A   1      44.493  35.286  30.773  1.00  0.00     0.059 A 
ATOM     57  F   UNL A   1      44.357  33.738  29.013  1.00  0.00    -0.206 F 
ATOM     58  C   UNL A   1      44.396  35.555  32.139  1.00  0.00     0.060 A 
BRANCH  58  59
ATOM     59  S   UNL A   1      44.640  37.232  32.761  1.00  0.00     0.124 S 
ATOM     60  O   UNL A   1      44.453  38.021  31.548  1.00  0.00    -0.237 OA
ATOM     61  O   UNL A   1      43.584  37.347  33.763  1.00  0.00    -0.237 OA
ATOM     62  O   UNL A   1      45.999  37.200  33.289  1.00  0.00    -0.744 OA
ENDBRANCH  58  59
ENDBRANCH  26  51
BRANCH  38  63
ATOM     63  C   UNL A   1      48.035  27.351  30.210  1.00  0.00     0.058 A 
ATOM     64  C   UNL A   1      48.982  27.516  29.188  1.00  0.00     0.135 A 
ATOM     65  C   UNL A   1      48.487  26.915  31.465  1.00  0.00     0.135 A 
ATOM     66  F   UNL A   1      48.600  27.928  27.970  1.00  0.00    -0.206 F 
ATOM     67  C   UNL A   1      50.331  27.254  29.402  1.00  0.00     0.059 A 
ATOM     68  C   UNL A   1      49.833  26.669  31.708  1.00  0.00     0.059 A 
ATOM     69  F   UNL A   1      47.618  26.757  32.477  1.00  0.00    -0.206 F 
ATOM     70  C   UNL A   1      50.747  26.832  30.666  1.00  0.00     0.060 A 
BRANCH  70  71
ATOM     71  S   UNL A   1      52.507  26.541  30.944  1.00  0.00     0.124 S 
ATOM     72  O   UNL A   1      52.876  27.695  31.754  1.00  0.00    -0.237 OA
ATOM     73  O   UNL A   1      52.505  25.254  31.634  1.00  0.00    -0.237 OA
ATOM     74  O   UNL A   1      53.062  26.516  29.594  1.00  0.00    -0.744 OA
ENDBRANCH  70  71
ENDBRANCH  38  63
ENDBRANCH  12  13
ENDBRANCH   5   7
ENDBRANCH   2   3
ENDBRANCH   1   2
BRANCH   1  75
ATOM     75  C   UNL A   1      32.045  26.772  25.913  1.00  0.00     0.023 C 
BRANCH  75  76
ATOM     76  C   UNL A   1      33.015  25.613  25.726  1.00  0.00     0.116 C 
BRANCH  76  77
ATOM     77  N   UNL A   1      32.619  24.392  26.403  1.00  0.00    -0.352 N 
ATOM     78  C   UNL A   1      33.346  23.242  26.537  1.00  0.00     0.255 C 
ATOM     79  H   UNL A   1      31.725  24.391  26.814  1.00  0.00     0.163 HD
ATOM     80  O   UNL A   1      33.133  22.493  27.489  1.00  0.00    -0.269 OA
BRANCH  78  81
ATOM     81  C   UNL A   1      34.432  22.967  25.591  1.00  0.00     0.082 A 
ATOM     82  C   UNL A   1      35.718  22.985  26.163  1.00  0.00     0.033 A 
ATOM     83  C   UNL A   1      34.266  22.765  24.214  1.00  0.00     0.132 A 
ATOM     84  C   UNL A   1      36.842  22.887  25.352  1.00  0.00     0.019 A 
ATOM     85  C   UNL A   1      35.422  22.696  23.418  1.00  0.00     0.048 A 
ATOM     86  Br  UNL A   1      38.564  22.958  26.121  1.00  0.00    -0.051 Br
ATOM     87  C   UNL A   1      36.700  22.763  23.975  1.00  0.00     0.019 A 
BRANCH  83  88
ATOM     88  O   UNL A   1      33.140  22.587  23.463  1.00  0.00    -0.488 OA
BRANCH  88  89
ATOM     89  C   UNL A   1      32.094  21.682  23.836  1.00  0.00     0.268 C 
BRANCH  89  90
ATOM     90  C   UNL A   1      32.450  20.217  23.923  1.00  0.00     0.025 A 
ATOM     91  C   UNL A   1      32.789  19.562  25.114  1.00  0.00     0.010 A 
ATOM     92  C   UNL A   1      32.353  19.453  22.753  1.00  0.00     0.129 A 
ATOM     93  C   UNL A   1      32.906  18.169  25.145  1.00  0.00     0.001 A 
ATOM     94  C   UNL A   1      32.483  18.069  22.774  1.00  0.00     0.039 A 
ATOM     95  F   UNL A   1      32.082  20.059  21.587  1.00  0.00    -0.207 F 
ATOM     96  C   UNL A   1      32.735  17.421  23.981  1.00  0.00     0.003 A 
ENDBRANCH  89  90
ENDBRANCH  88  89
ENDBRANCH  83  88
ENDBRANCH  78  81
ENDBRANCH  76  77
ENDBRANCH  75  76
ENDBRANCH   1  75
TORSDOF 17
ENDMDL
MODEL 3
REMARK VINA RESULT:     -11.0      3.538      8.136
REMARK SMILES O=C(NCCCCNC(=O)c1cc(Br)ccc1OCc1ccccc1F)c1ccc(-c2c3nc(c(-c4c(F)cc(S(=O)(=O)[O-])cc4F)c4ccc([nH]4)c(-c4c(F)cc(S(=O)(=O)[O-])cc4F)c4nc(c(-c5c(F)cc(S(=O)(=O)[O-])cc5F)c5ccc2[nH]5)C=C4)C=C3)cc1
REMARK SMILES IDX 5 1 4 2 3 3 1 4 2 5 27 7 28 8 92 9 29 10 91 11 30 12 31 13
REMARK SMILES IDX 32 14 85 15 33 16 90 17 84 18 86 19 34 20 89 21 83 22 82 23
REMARK SMILES IDX 35 25 69 26 48 27 68 28 49 29 52 30 67 31 87 32 50 33 51 34
REMARK SMILES IDX 66 36 88 37 53 38 36 39 37 40 46 41 38 42 39 43 45 44 47 45
REMARK SMILES IDX 40 46 41 47 42 48 43 49 44 50 70 51 71 52 80 53 72 54 73 55
REMARK SMILES IDX 79 56 81 57 74 58 75 59 76 60 77 61 78 62 54 63 55 64 64 65
REMARK SMILES IDX 56 66 57 67 63 68 65 69 58 70 59 71 60 72 61 73 62 74 6 75
REMARK SMILES IDX 7 76 8 77 9 78 10 80 11 81 12 82 17 83 13 84 16 85 14 86
REMARK SMILES IDX 15 87 18 88 19 89 20 90 21 91 25 92 22 93 24 94 26 95 23 96
REMARK H PARENT 3 6 86 24 52 35 8 79
REMARK Flexibility Score: inf
ROOT
ATOM      1  C   UNL A   1      38.119  19.925  25.012  1.00  0.00     0.023 C 
ENDROOT
BRANCH   1   2
ATOM      2  C   UNL A   1      39.197  20.120  26.068  1.00  0.00     0.116 C 
BRANCH   2   3
ATOM      3  N   UNL A   1      40.310  19.194  25.950  1.00  0.00    -0.352 N 
ATOM      4  O   UNL A   1      42.471  18.548  25.852  1.00  0.00    -0.269 OA
ATOM      5  C   UNL A   1      41.660  19.444  26.066  1.00  0.00     0.251 C 
ATOM      6  H   UNL A   1      40.066  18.258  25.760  1.00  0.00     0.163 HD
BRANCH   5   7
ATOM      7  C   UNL A   1      42.123  20.807  26.409  1.00  0.00     0.039 A 
ATOM      8  C   UNL A   1      42.299  21.769  25.414  1.00  0.00     0.014 A 
ATOM      9  C   UNL A   1      42.416  21.114  27.742  1.00  0.00     0.014 A 
ATOM     10  C   UNL A   1      42.926  22.970  25.725  1.00  0.00     0.010 A 
ATOM     11  C   UNL A   1      42.955  22.365  28.067  1.00  0.00     0.010 A 
ATOM     12  C   UNL A   1      43.246  23.292  27.056  1.00  0.00    -0.014 A 
BRANCH  12  13
ATOM     13  C   UNL A   1      43.816  24.634  27.349  1.00  0.00     0.031 A 
ATOM     14  C   UNL A   1      45.246  24.974  27.030  1.00  0.00     0.074 A 
ATOM     15  C   UNL A   1      42.988  25.576  27.845  1.00  0.00     0.049 A 
ATOM     16  N   UNL A   1      45.863  26.122  27.161  1.00  0.00    -0.248 NA
ATOM     17  C   UNL A   1      46.100  23.896  26.505  1.00  0.00     0.031 C 
ATOM     18  C   UNL A   1      41.584  25.354  28.205  1.00  0.00     0.029 A 
ATOM     19  N   UNL A   1      43.182  26.911  28.089  1.00  0.00    -0.354 N 
ATOM     20  C   UNL A   1      47.172  25.906  26.749  1.00  0.00     0.074 A 
ATOM     21  C   UNL A   1      47.272  24.509  26.384  1.00  0.00     0.031 C 
ATOM     22  C   UNL A   1      41.023  26.524  28.540  1.00  0.00     0.029 A 
ATOM     23  C   UNL A   1      42.040  27.567  28.488  1.00  0.00     0.049 A 
ATOM     24  H   UNL A   1      44.054  27.358  27.988  1.00  0.00     0.167 HD
ATOM     25  C   UNL A   1      48.192  26.796  26.675  1.00  0.00     0.037 A 
ATOM     26  C   UNL A   1      41.830  28.864  28.783  1.00  0.00     0.037 A 
ATOM     27  C   UNL A   1      48.076  28.192  27.017  1.00  0.00     0.049 A 
ATOM     28  C   UNL A   1      42.980  29.822  28.695  1.00  0.00     0.074 A 
ATOM     29  C   UNL A   1      49.049  29.176  26.959  1.00  0.00     0.029 A 
ATOM     30  N   UNL A   1      46.918  28.806  27.473  1.00  0.00    -0.354 N 
ATOM     31  N   UNL A   1      44.212  29.593  28.307  1.00  0.00    -0.248 NA
ATOM     32  C   UNL A   1      42.718  31.209  29.100  1.00  0.00     0.031 C 
ATOM     33  C   UNL A   1      48.490  30.375  27.409  1.00  0.00     0.029 A 
ATOM     34  C   UNL A   1      47.158  30.150  27.713  1.00  0.00     0.049 A 
ATOM     35  H   UNL A   1      46.054  28.354  27.607  1.00  0.00     0.167 HD
ATOM     36  C   UNL A   1      44.875  30.808  28.428  1.00  0.00     0.074 A 
ATOM     37  C   UNL A   1      43.900  31.774  28.890  1.00  0.00     0.031 C 
ATOM     38  C   UNL A   1      46.178  31.093  28.189  1.00  0.00     0.037 A 
BRANCH  25  39
ATOM     39  C   UNL A   1      49.534  26.310  26.202  1.00  0.00     0.058 A 
ATOM     40  C   UNL A   1      50.410  25.660  27.088  1.00  0.00     0.135 A 
ATOM     41  C   UNL A   1      50.000  26.587  24.907  1.00  0.00     0.135 A 
ATOM     42  F   UNL A   1      50.013  25.365  28.336  1.00  0.00    -0.206 F 
ATOM     43  C   UNL A   1      51.711  25.332  26.717  1.00  0.00     0.059 A 
ATOM     44  C   UNL A   1      51.292  26.251  24.509  1.00  0.00     0.059 A 
ATOM     45  F   UNL A   1      49.196  27.187  24.016  1.00  0.00    -0.206 F 
ATOM     46  C   UNL A   1      52.146  25.641  25.428  1.00  0.00     0.060 A 
BRANCH  46  47
ATOM     47  S   UNL A   1      53.841  25.221  24.964  1.00  0.00     0.124 S 
ATOM     48  O   UNL A   1      53.793  23.764  24.935  1.00  0.00    -0.237 OA
ATOM     49  O   UNL A   1      53.976  25.880  23.669  1.00  0.00    -0.237 OA
ATOM     50  O   UNL A   1      54.640  25.804  26.039  1.00  0.00    -0.744 OA
ENDBRANCH  46  47
ENDBRANCH  25  39
BRANCH  26  51
ATOM     51  C   UNL A   1      40.477  29.318  29.190  1.00  0.00     0.058 A 
ATOM     52  C   UNL A   1      39.475  29.557  28.236  1.00  0.00     0.135 A 
ATOM     53  C   UNL A   1      40.167  29.552  30.538  1.00  0.00     0.135 A 
ATOM     54  F   UNL A   1      39.724  29.359  26.933  1.00  0.00    -0.206 F 
ATOM     55  C   UNL A   1      38.222  30.035  28.601  1.00  0.00     0.059 A 
ATOM     56  C   UNL A   1      38.911  30.004  30.931  1.00  0.00     0.059 A 
ATOM     57  F   UNL A   1      41.091  29.328  31.485  1.00  0.00    -0.206 F 
ATOM     58  C   UNL A   1      37.952  30.259  29.951  1.00  0.00     0.060 A 
BRANCH  58  59
ATOM     59  S   UNL A   1      36.315  30.869  30.410  1.00  0.00     0.124 S 
ATOM     60  O   UNL A   1      36.558  32.304  30.508  1.00  0.00    -0.237 OA
ATOM     61  O   UNL A   1      35.497  30.439  29.280  1.00  0.00    -0.237 OA
ATOM     62  O   UNL A   1      36.044  30.187  31.671  1.00  0.00    -0.744 OA
ENDBRANCH  58  59
ENDBRANCH  26  51
BRANCH  38  63
ATOM     63  C   UNL A   1      46.622  32.505  28.436  1.00  0.00     0.058 A 
ATOM     64  C   UNL A   1      47.098  32.897  29.696  1.00  0.00     0.135 A 
ATOM     65  C   UNL A   1      46.546  33.478  27.427  1.00  0.00     0.135 A 
ATOM     66  F   UNL A   1      47.186  32.005  30.694  1.00  0.00    -0.206 F 
ATOM     67  C   UNL A   1      47.483  34.209  29.948  1.00  0.00     0.059 A 
ATOM     68  C   UNL A   1      46.948  34.790  27.650  1.00  0.00     0.059 A 
ATOM     69  F   UNL A   1      46.110  33.146  26.200  1.00  0.00    -0.206 F 
ATOM     70  C   UNL A   1      47.406  35.149  28.918  1.00  0.00     0.060 A 
BRANCH  70  71
ATOM     71  S   UNL A   1      47.954  36.838  29.245  1.00  0.00     0.124 S 
ATOM     72  O   UNL A   1      49.218  36.886  28.520  1.00  0.00    -0.237 OA
ATOM     73  O   UNL A   1      46.867  37.632  28.681  1.00  0.00    -0.237 OA
ATOM     74  O   UNL A   1      48.061  36.882  30.700  1.00  0.00    -0.744 OA
ENDBRANCH  70  71
ENDBRANCH  38  63
ENDBRANCH  12  13
ENDBRANCH   5   7
ENDBRANCH   2   3
ENDBRANCH   1   2
BRANCH   1  75
ATOM     75  C   UNL A   1      37.233  21.132  24.720  1.00  0.00     0.023 C 
BRANCH  75  76
ATOM     76  C   UNL A   1      35.743  20.945  24.969  1.00  0.00     0.116 C 
BRANCH  76  77
ATOM     77  N   UNL A   1      35.338  21.165  26.345  1.00  0.00    -0.352 N 
ATOM     78  C   UNL A   1      34.162  21.703  26.791  1.00  0.00     0.255 C 
ATOM     79  H   UNL A   1      35.984  20.897  27.037  1.00  0.00     0.163 HD
ATOM     80  O   UNL A   1      33.743  21.408  27.908  1.00  0.00    -0.269 OA
BRANCH  78  81
ATOM     81  C   UNL A   1      33.376  22.552  25.891  1.00  0.00     0.082 A 
ATOM     82  C   UNL A   1      33.766  23.904  25.882  1.00  0.00     0.033 A 
ATOM     83  C   UNL A   1      32.278  22.121  25.134  1.00  0.00     0.132 A 
ATOM     84  C   UNL A   1      33.011  24.842  25.188  1.00  0.00     0.019 A 
ATOM     85  C   UNL A   1      31.520  23.097  24.465  1.00  0.00     0.048 A 
ATOM     86  Br  UNL A   1      33.514  26.661  25.219  1.00  0.00    -0.051 Br
ATOM     87  C   UNL A   1      31.875  24.447  24.494  1.00  0.00     0.019 A 
BRANCH  83  88
ATOM     88  O   UNL A   1      31.795  20.868  24.888  1.00  0.00    -0.488 OA
BRANCH  88  89
ATOM     89  C   UNL A   1      32.325  20.019  23.865  1.00  0.00     0.268 C 
BRANCH  89  90
ATOM     90  C   UNL A   1      32.788  18.643  24.282  1.00  0.00     0.025 A 
ATOM     91  C   UNL A   1      32.864  18.212  25.613  1.00  0.00     0.010 A 
ATOM     92  C   UNL A   1      33.077  17.720  23.270  1.00  0.00     0.129 A 
ATOM     93  C   UNL A   1      33.106  16.866  25.906  1.00  0.00     0.001 A 
ATOM     94  C   UNL A   1      33.333  16.383  23.555  1.00  0.00     0.039 A 
ATOM     95  F   UNL A   1      33.065  18.116  21.988  1.00  0.00    -0.207 F 
ATOM     96  C   UNL A   1      33.321  15.949  24.878  1.00  0.00     0.003 A 
ENDBRANCH  89  90
ENDBRANCH  88  89
ENDBRANCH  83  88
ENDBRANCH  78  81
ENDBRANCH  76  77
ENDBRANCH  75  76
ENDBRANCH   1  75
TORSDOF 17
ENDMDL
