MODEL 1
REMARK VINA RESULT:     -12.8      0.000      0.000
REMARK SMILES Cc1ccc(C)c(S(=O)(=O)N[C@H](CC2=c3ccccc3=NC2)C(=O)NCCCCNC(=O)c2ccc(-c3c4nc(c(-c5c(F)cc(S(=O)(=O)[O-])cc5F)c5ccc([nH]5)c(-c5c(F)cc(S(=O)(=O)[O-])cc5F)c5nc(c(-c6c(F)cc(S(=O)(=O)[O-])cc6F)c6ccc3[nH]6)C=C5)C=C4)cc2)c1
REMARK SMILES IDX 27 1 26 2 25 3 23 4 24 5 12 7 11 8 8 10 9 11 10 12 7 13 1 14
REMARK SMILES IDX 2 15 3 16 99 17 4 18 5 19 6 20 13 21 14 22 15 23 22 24 16 25
REMARK SMILES IDX 20 26 21 27 17 28 19 29 18 30 28 31 29 32 30 33 31 34 32 36
REMARK SMILES IDX 33 37 34 38 98 39 35 40 97 41 36 42 37 43 38 44 91 45 39 46
REMARK SMILES IDX 96 47 90 48 92 49 40 50 95 51 89 52 88 53 41 55 75 56 54 57
REMARK SMILES IDX 74 58 55 59 58 60 73 61 93 62 56 63 57 64 72 66 94 67 59 68
REMARK SMILES IDX 42 69 43 70 52 71 44 72 45 73 51 74 53 75 46 76 47 77 48 78
REMARK SMILES IDX 49 79 50 80 76 81 77 82 86 83 78 84 79 85 85 86 87 87 80 88
REMARK SMILES IDX 81 89 82 90 83 91 84 92 60 93 61 94 70 95 62 96 63 97 69 98
REMARK SMILES IDX 71 99 64 100 65 101 66 102 67 103 68 104
REMARK H PARENT 25 6 11 9 30 35 92 54 58 65
REMARK Flexibility Score: inf
ROOT
ATOM      1  C   UNL A   1      35.189  30.198  27.675  1.00  0.00     0.023 C 
ENDROOT
BRANCH   1   2
ATOM      2  C   UNL A   1      34.464  28.912  27.166  1.00  0.00     0.116 C 
BRANCH   2   3
ATOM      3  N   UNL A   1      33.112  28.615  27.625  1.00  0.00    -0.355 N 
ATOM      4  C   UNL A   1      32.146  27.702  27.279  1.00  0.00     0.238 C 
ATOM      5  O   UNL A   1      31.058  27.829  27.856  1.00  0.00    -0.273 OA
ATOM      6  H   UNL A   1      32.824  29.209  28.356  1.00  0.00     0.163 HD
BRANCH   4   7
ATOM      7  C   UNL A   1      32.296  26.625  26.182  1.00  0.00     0.163 C 
BRANCH   7   8
ATOM      8  N   UNL A   1      32.150  25.257  26.778  1.00  0.00    -0.198 NA
ATOM      9  H   UNL A   1      33.067  24.812  26.723  1.00  0.00     0.142 HD
BRANCH   8  10
ATOM     10  S   UNL A   1      31.033  24.161  26.118  1.00  0.00     0.241 S 
ATOM     11  O   UNL A   1      30.426  24.797  24.968  1.00  0.00    -0.207 OA
ATOM     12  O   UNL A   1      30.270  23.705  27.250  1.00  0.00    -0.207 OA
BRANCH  10  13
ATOM     13  C   UNL A   1      32.006  22.781  25.559  1.00  0.00     0.085 A 
ATOM     14  C   UNL A   1      32.152  20.661  22.404  1.00  0.00     0.044 C 
ATOM     15  C   UNL A   1      32.433  21.164  23.786  1.00  0.00    -0.050 A 
ATOM     16  C   UNL A   1      33.269  20.458  24.653  1.00  0.00     0.004 A 
ATOM     17  C   UNL A   1      31.844  22.345  24.237  1.00  0.00     0.025 A 
ATOM     18  C   UNL A   1      33.502  20.932  25.949  1.00  0.00     0.005 A 
ATOM     19  C   UNL A   1      32.875  22.097  26.427  1.00  0.00    -0.031 A 
ATOM     20  C   UNL A   1      33.204  22.535  27.829  1.00  0.00     0.046 C 
ENDBRANCH  10  13
ENDBRANCH   8  10
ENDBRANCH   7   8
BRANCH   7  21
ATOM     21  C   UNL A   1      33.566  26.690  25.243  1.00  0.00     0.063 C 
BRANCH  21  22
ATOM     22  C   UNL A   1      34.112  25.481  24.515  1.00  0.00    -0.037 C 
ATOM     23  C   UNL A   1      35.026  24.542  24.778  1.00  0.00     0.001 A 
ATOM     24  C   UNL A   1      33.665  25.311  23.114  1.00  0.00     0.174 C 
ATOM     25  C   UNL A   1      35.920  24.204  25.838  1.00  0.00     0.010 A 
ATOM     26  C   UNL A   1      35.085  23.775  23.510  1.00  0.00     0.065 A 
ATOM     27  N   UNL A   1      34.396  24.202  22.503  1.00  0.00    -0.280 NA
ATOM     28  C   UNL A   1      36.731  23.137  25.688  1.00  0.00     0.001 A 
ATOM     29  C   UNL A   1      35.929  22.578  23.444  1.00  0.00     0.028 A 
ATOM     30  C   UNL A   1      36.697  22.293  24.502  1.00  0.00     0.002 A 
ENDBRANCH  21  22
ENDBRANCH   7  21
ENDBRANCH   4   7
ENDBRANCH   2   3
ENDBRANCH   1   2
BRANCH   1  31
ATOM     31  C   UNL A   1      34.471  31.568  27.738  1.00  0.00     0.023 C 
BRANCH  31  32
ATOM     32  C   UNL A   1      35.033  32.735  28.563  1.00  0.00     0.116 C 
BRANCH  32  33
ATOM     33  N   UNL A   1      34.550  32.801  29.942  1.00  0.00    -0.352 N 
ATOM     34  C   UNL A   1      35.057  32.285  31.125  1.00  0.00     0.251 C 
ATOM     35  H   UNL A   1      33.709  33.303  30.050  1.00  0.00     0.163 HD
ATOM     36  O   UNL A   1      34.374  32.329  32.144  1.00  0.00    -0.269 OA
BRANCH  34  37
ATOM     37  C   UNL A   1      36.412  31.694  31.166  1.00  0.00     0.039 A 
ATOM     38  C   UNL A   1      37.598  32.410  31.320  1.00  0.00     0.014 A 
ATOM     39  C   UNL A   1      36.532  30.358  30.859  1.00  0.00     0.014 A 
ATOM     40  C   UNL A   1      38.806  31.747  31.040  1.00  0.00     0.010 A 
ATOM     41  C   UNL A   1      37.650  29.673  31.153  1.00  0.00     0.010 A 
ATOM     42  C   UNL A   1      38.778  30.367  30.813  1.00  0.00    -0.014 A 
BRANCH  42  43
ATOM     43  C   UNL A   1      39.908  29.500  30.583  1.00  0.00     0.031 A 
ATOM     44  C   UNL A   1      40.590  29.146  31.840  1.00  0.00     0.074 A 
ATOM     45  C   UNL A   1      40.081  28.755  29.473  1.00  0.00     0.049 A 
ATOM     46  N   UNL A   1      41.545  29.815  32.389  1.00  0.00    -0.248 NA
ATOM     47  C   UNL A   1      39.964  28.151  32.734  1.00  0.00     0.031 C 
ATOM     48  C   UNL A   1      39.247  28.604  28.281  1.00  0.00     0.029 A 
ATOM     49  N   UNL A   1      41.104  27.902  29.224  1.00  0.00    -0.354 N 
ATOM     50  C   UNL A   1      41.818  29.134  33.562  1.00  0.00     0.074 A 
ATOM     51  C   UNL A   1      40.624  28.394  33.867  1.00  0.00     0.031 C 
ATOM     52  C   UNL A   1      39.716  27.586  27.516  1.00  0.00     0.029 A 
ATOM     53  C   UNL A   1      40.973  27.126  28.081  1.00  0.00     0.049 A 
ATOM     54  H   UNL A   1      41.889  27.838  29.815  1.00  0.00     0.167 HD
ATOM     55  C   UNL A   1      43.097  28.964  33.993  1.00  0.00     0.037 A 
ATOM     56  C   UNL A   1      41.858  26.179  27.674  1.00  0.00     0.037 A 
ATOM     57  C   UNL A   1      44.011  29.744  33.184  1.00  0.00     0.049 A 
ATOM     58  C   UNL A   1      43.151  26.493  28.355  1.00  0.00     0.074 A 
ATOM     59  C   UNL A   1      44.136  31.088  32.887  1.00  0.00     0.029 A 
ATOM     60  N   UNL A   1      44.683  29.076  32.183  1.00  0.00    -0.354 N 
ATOM     61  N   UNL A   1      43.844  27.583  28.143  1.00  0.00    -0.248 NA
ATOM     62  C   UNL A   1      43.425  25.826  29.619  1.00  0.00     0.031 C 
ATOM     63  C   UNL A   1      44.467  31.136  31.499  1.00  0.00     0.029 A 
ATOM     64  C   UNL A   1      44.603  29.827  31.033  1.00  0.00     0.049 A 
ATOM     65  H   UNL A   1      45.142  28.210  32.275  1.00  0.00     0.167 HD
ATOM     66  C   UNL A   1      44.318  27.962  29.393  1.00  0.00     0.074 A 
ATOM     67  C   UNL A   1      44.101  26.794  30.245  1.00  0.00     0.031 C 
ATOM     68  C   UNL A   1      44.574  29.273  29.690  1.00  0.00     0.037 A 
BRANCH  55  69
ATOM     69  C   UNL A   1      43.561  27.834  34.877  1.00  0.00     0.058 A 
ATOM     70  C   UNL A   1      44.067  28.144  36.154  1.00  0.00     0.135 A 
ATOM     71  C   UNL A   1      43.729  26.492  34.467  1.00  0.00     0.135 A 
ATOM     72  F   UNL A   1      43.970  29.390  36.643  1.00  0.00    -0.206 F 
ATOM     73  C   UNL A   1      44.739  27.207  36.937  1.00  0.00     0.059 A 
ATOM     74  C   UNL A   1      44.338  25.527  35.258  1.00  0.00     0.059 A 
ATOM     75  F   UNL A   1      43.405  26.059  33.244  1.00  0.00    -0.206 F 
ATOM     76  C   UNL A   1      44.876  25.902  36.474  1.00  0.00     0.060 A 
BRANCH  76  77
ATOM     77  S   UNL A   1      45.821  24.715  37.440  1.00  0.00     0.124 S 
ATOM     78  O   UNL A   1      47.024  24.574  36.627  1.00  0.00    -0.237 OA
ATOM     79  O   UNL A   1      45.981  25.420  38.707  1.00  0.00    -0.237 OA
ATOM     80  O   UNL A   1      44.947  23.546  37.485  1.00  0.00    -0.744 OA
ENDBRANCH  76  77
ENDBRANCH  55  69
BRANCH  56  81
ATOM     81  C   UNL A   1      41.590  24.845  27.068  1.00  0.00     0.058 A 
ATOM     82  C   UNL A   1      42.517  24.259  26.185  1.00  0.00     0.135 A 
ATOM     83  C   UNL A   1      40.599  23.986  27.584  1.00  0.00     0.135 A 
ATOM     84  F   UNL A   1      43.505  24.998  25.656  1.00  0.00    -0.206 F 
ATOM     85  C   UNL A   1      42.511  22.890  25.892  1.00  0.00     0.059 A 
ATOM     86  C   UNL A   1      40.567  22.619  27.299  1.00  0.00     0.059 A 
ATOM     87  F   UNL A   1      39.698  24.435  28.471  1.00  0.00    -0.206 F 
ATOM     88  C   UNL A   1      41.547  22.071  26.477  1.00  0.00     0.060 A 
BRANCH  88  89
ATOM     89  S   UNL A   1      41.668  20.278  26.261  1.00  0.00     0.124 S 
ATOM     90  O   UNL A   1      41.879  19.818  27.630  1.00  0.00    -0.237 OA
ATOM     91  O   UNL A   1      40.372  19.951  25.676  1.00  0.00    -0.237 OA
ATOM     92  O   UNL A   1      42.810  20.115  25.365  1.00  0.00    -0.744 OA
ENDBRANCH  88  89
ENDBRANCH  56  81
BRANCH  68  93
ATOM     93  C   UNL A   1      44.637  30.264  28.546  1.00  0.00     0.058 A 
ATOM     94  C   UNL A   1      43.522  30.893  27.962  1.00  0.00     0.135 A 
ATOM     95  C   UNL A   1      45.902  30.708  28.131  1.00  0.00     0.135 A 
ATOM     96  F   UNL A   1      42.277  30.603  28.361  1.00  0.00    -0.206 F 
ATOM     97  C   UNL A   1      43.657  31.891  26.990  1.00  0.00     0.059 A 
ATOM     98  C   UNL A   1      46.062  31.723  27.189  1.00  0.00     0.059 A 
ATOM     99  F   UNL A   1      47.010  30.190  28.686  1.00  0.00    -0.206 F 
ATOM    100  C   UNL A   1      44.934  32.305  26.615  1.00  0.00     0.060 A 
BRANCH 100 101
ATOM    101  S   UNL A   1      45.111  33.654  25.426  1.00  0.00     0.124 S 
ATOM    102  O   UNL A   1      44.530  33.080  24.217  1.00  0.00    -0.237 OA
ATOM    103  O   UNL A   1      44.344  34.728  26.049  1.00  0.00    -0.237 OA
ATOM    104  O   UNL A   1      46.555  33.880  25.376  1.00  0.00    -0.744 OA
ENDBRANCH 100 101
ENDBRANCH  68  93
ENDBRANCH  42  43
ENDBRANCH  34  37
ENDBRANCH  32  33
ENDBRANCH  31  32
ENDBRANCH   1  31
TORSDOF 19
ENDMDL
MODEL 2
REMARK VINA RESULT:     -12.7      2.737      9.067
REMARK SMILES Cc1ccc(C)c(S(=O)(=O)N[C@H](CC2=c3ccccc3=NC2)C(=O)NCCCCNC(=O)c2ccc(-c3c4nc(c(-c5c(F)cc(S(=O)(=O)[O-])cc5F)c5ccc([nH]5)c(-c5c(F)cc(S(=O)(=O)[O-])cc5F)c5nc(c(-c6c(F)cc(S(=O)(=O)[O-])cc6F)c6ccc3[nH]6)C=C5)C=C4)cc2)c1
REMARK SMILES IDX 27 1 26 2 25 3 23 4 24 5 12 7 11 8 8 10 9 11 10 12 7 13 1 14
REMARK SMILES IDX 2 15 3 16 99 17 4 18 5 19 6 20 13 21 14 22 15 23 22 24 16 25
REMARK SMILES IDX 20 26 21 27 17 28 19 29 18 30 28 31 29 32 30 33 31 34 32 36
REMARK SMILES IDX 33 37 34 38 98 39 35 40 97 41 36 42 37 43 38 44 91 45 39 46
REMARK SMILES IDX 96 47 90 48 92 49 40 50 95 51 89 52 88 53 41 55 75 56 54 57
REMARK SMILES IDX 74 58 55 59 58 60 73 61 93 62 56 63 57 64 72 66 94 67 59 68
REMARK SMILES IDX 42 69 43 70 52 71 44 72 45 73 51 74 53 75 46 76 47 77 48 78
REMARK SMILES IDX 49 79 50 80 76 81 77 82 86 83 78 84 79 85 85 86 87 87 80 88
REMARK SMILES IDX 81 89 82 90 83 91 84 92 60 93 61 94 70 95 62 96 63 97 69 98
REMARK SMILES IDX 71 99 64 100 65 101 66 102 67 103 68 104
REMARK H PARENT 25 6 11 9 30 35 92 54 58 65
REMARK Flexibility Score: inf
ROOT
ATOM      1  C   UNL A   1      35.128  22.878  26.743  1.00  0.00     0.023 C 
ENDROOT
BRANCH   1   2
ATOM      2  C   UNL A   1      33.772  22.465  26.089  1.00  0.00     0.116 C 
BRANCH   2   3
ATOM      3  N   UNL A   1      32.522  23.005  26.612  1.00  0.00    -0.355 N 
ATOM      4  C   UNL A   1      31.838  24.188  26.470  1.00  0.00     0.238 C 
ATOM      5  O   UNL A   1      30.825  24.307  27.171  1.00  0.00    -0.273 OA
ATOM      6  H   UNL A   1      32.060  22.372  27.208  1.00  0.00     0.163 HD
BRANCH   4   7
ATOM      7  C   UNL A   1      32.293  25.375  25.592  1.00  0.00     0.163 C 
BRANCH   7   8
ATOM      8  N   UNL A   1      32.650  24.893  24.219  1.00  0.00    -0.198 NA
ATOM      9  H   UNL A   1      33.496  25.393  23.941  1.00  0.00     0.142 HD
BRANCH   8  10
ATOM     10  S   UNL A   1      31.539  25.066  22.946  1.00  0.00     0.241 S 
ATOM     11  O   UNL A   1      30.392  24.239  23.253  1.00  0.00    -0.207 OA
ATOM     12  O   UNL A   1      32.330  24.892  21.756  1.00  0.00    -0.207 OA
BRANCH  10  13
ATOM     13  C   UNL A   1      31.040  26.773  22.989  1.00  0.00     0.085 A 
ATOM     14  C   UNL A   1      27.723  28.630  23.149  1.00  0.00     0.044 C 
ATOM     15  C   UNL A   1      29.194  28.363  23.048  1.00  0.00    -0.050 A 
ATOM     16  C   UNL A   1      30.097  29.397  22.799  1.00  0.00     0.004 A 
ATOM     17  C   UNL A   1      29.684  27.064  23.185  1.00  0.00     0.025 A 
ATOM     18  C   UNL A   1      31.466  29.126  22.686  1.00  0.00     0.005 A 
ATOM     19  C   UNL A   1      31.962  27.813  22.775  1.00  0.00    -0.031 A 
ATOM     20  C   UNL A   1      33.451  27.625  22.658  1.00  0.00     0.046 C 
ENDBRANCH  10  13
ENDBRANCH   8  10
ENDBRANCH   7   8
BRANCH   7  21
ATOM     21  C   UNL A   1      33.418  26.331  26.157  1.00  0.00     0.063 C 
BRANCH  21  22
ATOM     22  C   UNL A   1      33.170  27.787  26.484  1.00  0.00    -0.037 C 
ATOM     23  C   UNL A   1      33.919  28.810  26.907  1.00  0.00     0.001 A 
ATOM     24  C   UNL A   1      31.754  28.220  26.484  1.00  0.00     0.174 C 
ATOM     25  C   UNL A   1      35.283  29.051  27.250  1.00  0.00     0.010 A 
ATOM     26  C   UNL A   1      32.919  29.885  27.119  1.00  0.00     0.065 A 
ATOM     27  N   UNL A   1      31.668  29.597  26.970  1.00  0.00    -0.280 NA
ATOM     28  C   UNL A   1      35.638  30.281  27.673  1.00  0.00     0.001 A 
ATOM     29  C   UNL A   1      33.385  31.221  27.501  1.00  0.00     0.028 A 
ATOM     30  C   UNL A   1      34.690  31.383  27.750  1.00  0.00     0.002 A 
ENDBRANCH  21  22
ENDBRANCH   7  21
ENDBRANCH   4   7
ENDBRANCH   2   3
ENDBRANCH   1   2
BRANCH   1  31
ATOM     31  C   UNL A   1      36.173  23.732  25.983  1.00  0.00     0.023 C 
BRANCH  31  32
ATOM     32  C   UNL A   1      37.370  23.090  25.267  1.00  0.00     0.116 C 
BRANCH  32  33
ATOM     33  N   UNL A   1      38.274  22.338  26.136  1.00  0.00    -0.352 N 
ATOM     34  C   UNL A   1      39.334  22.738  26.935  1.00  0.00     0.251 C 
ATOM     35  H   UNL A   1      38.099  21.369  26.157  1.00  0.00     0.163 HD
ATOM     36  O   UNL A   1      40.059  21.890  27.446  1.00  0.00    -0.269 OA
BRANCH  34  37
ATOM     37  C   UNL A   1      39.588  24.175  27.180  1.00  0.00     0.039 A 
ATOM     38  C   UNL A   1      40.194  25.051  26.280  1.00  0.00     0.014 A 
ATOM     39  C   UNL A   1      39.368  24.650  28.452  1.00  0.00     0.014 A 
ATOM     40  C   UNL A   1      40.633  26.294  26.769  1.00  0.00     0.010 A 
ATOM     41  C   UNL A   1      39.282  25.969  28.698  1.00  0.00     0.010 A 
ATOM     42  C   UNL A   1      40.271  26.672  28.067  1.00  0.00    -0.014 A 
BRANCH  42  43
ATOM     43  C   UNL A   1      40.557  27.925  28.720  1.00  0.00     0.031 A 
ATOM     44  C   UNL A   1      41.754  28.575  28.157  1.00  0.00     0.074 A 
ATOM     45  C   UNL A   1      39.656  28.638  29.426  1.00  0.00     0.049 A 
ATOM     46  N   UNL A   1      42.966  28.388  28.556  1.00  0.00    -0.248 NA
ATOM     47  C   UNL A   1      41.651  29.242  26.845  1.00  0.00     0.031 C 
ATOM     48  C   UNL A   1      38.243  28.384  29.707  1.00  0.00     0.029 A 
ATOM     49  N   UNL A   1      39.865  29.833  30.028  1.00  0.00    -0.354 N 
ATOM     50  C   UNL A   1      43.735  29.158  27.703  1.00  0.00     0.074 A 
ATOM     51  C   UNL A   1      42.941  29.336  26.519  1.00  0.00     0.031 C 
ATOM     52  C   UNL A   1      37.684  29.479  30.282  1.00  0.00     0.029 A 
ATOM     53  C   UNL A   1      38.736  30.444  30.555  1.00  0.00     0.049 A 
ATOM     54  H   UNL A   1      40.759  30.241  30.089  1.00  0.00     0.167 HD
ATOM     55  C   UNL A   1      44.802  29.865  28.166  1.00  0.00     0.037 A 
ATOM     56  C   UNL A   1      38.715  31.662  31.158  1.00  0.00     0.037 A 
ATOM     57  C   UNL A   1      45.079  29.515  29.545  1.00  0.00     0.049 A 
ATOM     58  C   UNL A   1      40.120  31.943  31.581  1.00  0.00     0.074 A 
ATOM     59  C   UNL A   1      45.387  28.340  30.203  1.00  0.00     0.029 A 
ATOM     60  N   UNL A   1      44.600  30.371  30.513  1.00  0.00    -0.354 N 
ATOM     61  N   UNL A   1      40.771  31.240  32.473  1.00  0.00    -0.248 NA
ATOM     62  C   UNL A   1      40.959  32.705  30.668  1.00  0.00     0.031 C 
ATOM     63  C   UNL A   1      44.652  28.391  31.425  1.00  0.00     0.029 A 
ATOM     64  C   UNL A   1      43.992  29.620  31.492  1.00  0.00     0.049 A 
ATOM     65  H   UNL A   1      44.678  31.353  30.506  1.00  0.00     0.167 HD
ATOM     66  C   UNL A   1      42.067  31.137  31.982  1.00  0.00     0.074 A 
ATOM     67  C   UNL A   1      42.141  32.132  30.913  1.00  0.00     0.031 C 
ATOM     68  C   UNL A   1      42.861  30.066  32.288  1.00  0.00     0.037 A 
BRANCH  55  69
ATOM     69  C   UNL A   1      45.348  31.113  27.522  1.00  0.00     0.058 A 
ATOM     70  C   UNL A   1      46.685  31.111  27.078  1.00  0.00     0.135 A 
ATOM     71  C   UNL A   1      44.705  32.371  27.501  1.00  0.00     0.135 A 
ATOM     72  F   UNL A   1      47.397  29.973  27.062  1.00  0.00    -0.206 F 
ATOM     73  C   UNL A   1      47.347  32.277  26.699  1.00  0.00     0.059 A 
ATOM     74  C   UNL A   1      45.325  33.535  27.066  1.00  0.00     0.059 A 
ATOM     75  F   UNL A   1      43.476  32.568  27.991  1.00  0.00    -0.206 F 
ATOM     76  C   UNL A   1      46.659  33.486  26.705  1.00  0.00     0.060 A 
BRANCH  76  77
ATOM     77  S   UNL A   1      47.534  35.005  26.306  1.00  0.00     0.124 S 
ATOM     78  O   UNL A   1      48.778  34.825  27.046  1.00  0.00    -0.237 OA
ATOM     79  O   UNL A   1      47.634  34.919  24.852  1.00  0.00    -0.237 OA
ATOM     80  O   UNL A   1      46.644  36.048  26.806  1.00  0.00    -0.744 OA
ENDBRANCH  76  77
ENDBRANCH  55  69
BRANCH  56  81
ATOM     81  C   UNL A   1      37.690  32.738  31.060  1.00  0.00     0.058 A 
ATOM     82  C   UNL A   1      37.322  33.266  29.808  1.00  0.00     0.135 A 
ATOM     83  C   UNL A   1      36.828  33.035  32.134  1.00  0.00     0.135 A 
ATOM     84  F   UNL A   1      38.077  33.022  28.724  1.00  0.00    -0.206 F 
ATOM     85  C   UNL A   1      36.133  33.979  29.615  1.00  0.00     0.059 A 
ATOM     86  C   UNL A   1      35.641  33.752  31.968  1.00  0.00     0.059 A 
ATOM     87  F   UNL A   1      37.063  32.539  33.358  1.00  0.00    -0.206 F 
ATOM     88  C   UNL A   1      35.283  34.193  30.698  1.00  0.00     0.060 A 
BRANCH  88  89
ATOM     89  S   UNL A   1      33.655  34.930  30.406  1.00  0.00     0.124 S 
ATOM     90  O   UNL A   1      33.024  34.807  31.715  1.00  0.00    -0.237 OA
ATOM     91  O   UNL A   1      34.002  36.287  29.995  1.00  0.00    -0.237 OA
ATOM     92  O   UNL A   1      33.081  34.094  29.355  1.00  0.00    -0.744 OA
ENDBRANCH  88  89
ENDBRANCH  56  81
BRANCH  68  93
ATOM     93  C   UNL A   1      42.427  29.157  33.419  1.00  0.00     0.058 A 
ATOM     94  C   UNL A   1      41.595  28.031  33.275  1.00  0.00     0.135 A 
ATOM     95  C   UNL A   1      43.011  29.353  34.680  1.00  0.00     0.135 A 
ATOM     96  F   UNL A   1      41.068  27.709  32.087  1.00  0.00    -0.206 F 
ATOM     97  C   UNL A   1      41.331  27.162  34.340  1.00  0.00     0.059 A 
ATOM     98  C   UNL A   1      42.790  28.483  35.746  1.00  0.00     0.059 A 
ATOM     99  F   UNL A   1      43.860  30.376  34.874  1.00  0.00    -0.206 F 
ATOM    100  C   UNL A   1      41.941  27.393  35.572  1.00  0.00     0.060 A 
BRANCH 100 101
ATOM    101  S   UNL A   1      41.671  26.223  36.923  1.00  0.00     0.124 S 
ATOM    102  O   UNL A   1      40.359  26.620  37.421  1.00  0.00    -0.237 OA
ATOM    103  O   UNL A   1      41.726  24.933  36.241  1.00  0.00    -0.237 OA
ATOM    104  O   UNL A   1      42.787  26.485  37.830  1.00  0.00    -0.744 OA
ENDBRANCH 100 101
ENDBRANCH  68  93
ENDBRANCH  42  43
ENDBRANCH  34  37
ENDBRANCH  32  33
ENDBRANCH  31  32
ENDBRANCH   1  31
TORSDOF 19
ENDMDL
MODEL 3
REMARK VINA RESULT:     -12.5      2.761      9.143
REMARK SMILES Cc1ccc(C)c(S(=O)(=O)N[C@H](CC2=c3ccccc3=NC2)C(=O)NCCCCNC(=O)c2ccc(-c3c4nc(c(-c5c(F)cc(S(=O)(=O)[O-])cc5F)c5ccc([nH]5)c(-c5c(F)cc(S(=O)(=O)[O-])cc5F)c5nc(c(-c6c(F)cc(S(=O)(=O)[O-])cc6F)c6ccc3[nH]6)C=C5)C=C4)cc2)c1
REMARK SMILES IDX 27 1 26 2 25 3 23 4 24 5 12 7 11 8 8 10 9 11 10 12 7 13 1 14
REMARK SMILES IDX 2 15 3 16 99 17 4 18 5 19 6 20 13 21 14 22 15 23 22 24 16 25
REMARK SMILES IDX 20 26 21 27 17 28 19 29 18 30 28 31 29 32 30 33 31 34 32 36
REMARK SMILES IDX 33 37 34 38 98 39 35 40 97 41 36 42 37 43 38 44 91 45 39 46
REMARK SMILES IDX 96 47 90 48 92 49 40 50 95 51 89 52 88 53 41 55 75 56 54 57
REMARK SMILES IDX 74 58 55 59 58 60 73 61 93 62 56 63 57 64 72 66 94 67 59 68
REMARK SMILES IDX 42 69 43 70 52 71 44 72 45 73 51 74 53 75 46 76 47 77 48 78
REMARK SMILES IDX 49 79 50 80 76 81 77 82 86 83 78 84 79 85 85 86 87 87 80 88
REMARK SMILES IDX 81 89 82 90 83 91 84 92 60 93 61 94 70 95 62 96 63 97 69 98
REMARK SMILES IDX 71 99 64 100 65 101 66 102 67 103 68 104
REMARK H PARENT 25 6 11 9 30 35 92 54 58 65
REMARK Flexibility Score: inf
ROOT
ATOM      1  C   UNL A   1      36.908  21.646  24.114  1.00  0.00     0.023 C 
ENDROOT
BRANCH   1   2
ATOM      2  C   UNL A   1      36.594  20.548  25.179  1.00  0.00     0.116 C 
BRANCH   2   3
ATOM      3  N   UNL A   1      35.417  19.701  25.020  1.00  0.00    -0.355 N 
ATOM      4  C   UNL A   1      34.074  19.925  24.836  1.00  0.00     0.238 C 
ATOM      5  O   UNL A   1      33.358  18.916  24.838  1.00  0.00    -0.273 OA
ATOM      6  H   UNL A   1      35.638  18.742  25.052  1.00  0.00     0.163 HD
BRANCH   4   7
ATOM      7  C   UNL A   1      33.415  21.318  24.729  1.00  0.00     0.163 C 
BRANCH   7   8
ATOM      8  N   UNL A   1      32.622  21.610  25.967  1.00  0.00    -0.198 NA
ATOM      9  H   UNL A   1      31.704  21.934  25.660  1.00  0.00     0.142 HD
BRANCH   8  10
ATOM     10  S   UNL A   1      33.194  22.750  27.089  1.00  0.00     0.241 S 
ATOM     11  O   UNL A   1      34.627  22.849  26.917  1.00  0.00    -0.207 OA
ATOM     12  O   UNL A   1      32.582  22.363  28.333  1.00  0.00    -0.207 OA
BRANCH  10  13
ATOM     13  C   UNL A   1      32.453  24.294  26.606  1.00  0.00     0.085 A 
ATOM     14  C   UNL A   1      33.722  27.807  25.884  1.00  0.00     0.044 C 
ATOM     15  C   UNL A   1      32.790  26.653  26.095  1.00  0.00    -0.050 A 
ATOM     16  C   UNL A   1      31.407  26.837  26.108  1.00  0.00     0.004 A 
ATOM     17  C   UNL A   1      33.297  25.370  26.301  1.00  0.00     0.025 A 
ATOM     18  C   UNL A   1      30.553  25.751  26.329  1.00  0.00     0.005 A 
ATOM     19  C   UNL A   1      31.057  24.463  26.584  1.00  0.00    -0.031 A 
ATOM     20  C   UNL A   1      30.058  23.356  26.792  1.00  0.00     0.046 C 
ENDBRANCH  10  13
ENDBRANCH   8  10
ENDBRANCH   7   8
BRANCH   7  21
ATOM     21  C   UNL A   1      32.567  21.644  23.435  1.00  0.00     0.063 C 
BRANCH  21  22
ATOM     22  C   UNL A   1      32.045  23.030  23.123  1.00  0.00    -0.037 C 
ATOM     23  C   UNL A   1      32.593  24.227  22.898  1.00  0.00     0.001 A 
ATOM     24  C   UNL A   1      30.576  23.201  23.198  1.00  0.00     0.174 C 
ATOM     25  C   UNL A   1      33.901  24.796  22.833  1.00  0.00     0.010 A 
ATOM     26  C   UNL A   1      31.411  25.117  22.796  1.00  0.00     0.065 A 
ATOM     27  N   UNL A   1      30.244  24.615  23.030  1.00  0.00    -0.280 NA
ATOM     28  C   UNL A   1      34.022  26.117  22.591  1.00  0.00     0.001 A 
ATOM     29  C   UNL A   1      31.614  26.528  22.450  1.00  0.00     0.028 A 
ATOM     30  C   UNL A   1      32.871  26.974  22.350  1.00  0.00     0.002 A 
ENDBRANCH  21  22
ENDBRANCH   7  21
ENDBRANCH   4   7
ENDBRANCH   2   3
ENDBRANCH   1   2
BRANCH   1  31
ATOM     31  C   UNL A   1      37.051  23.139  24.500  1.00  0.00     0.023 C 
BRANCH  31  32
ATOM     32  C   UNL A   1      37.750  23.572  25.796  1.00  0.00     0.116 C 
BRANCH  32  33
ATOM     33  N   UNL A   1      38.702  22.601  26.335  1.00  0.00    -0.352 N 
ATOM     34  C   UNL A   1      39.900  22.759  27.012  1.00  0.00     0.251 C 
ATOM     35  H   UNL A   1      38.444  21.661  26.187  1.00  0.00     0.163 HD
ATOM     36  O   UNL A   1      40.613  21.780  27.216  1.00  0.00    -0.269 OA
BRANCH  34  37
ATOM     37  C   UNL A   1      40.317  24.092  27.498  1.00  0.00     0.039 A 
ATOM     38  C   UNL A   1      41.634  24.496  27.712  1.00  0.00     0.014 A 
ATOM     39  C   UNL A   1      39.330  24.946  27.935  1.00  0.00     0.014 A 
ATOM     40  C   UNL A   1      41.848  25.672  28.452  1.00  0.00     0.010 A 
ATOM     41  C   UNL A   1      39.569  26.257  28.109  1.00  0.00     0.010 A 
ATOM     42  C   UNL A   1      40.748  26.478  28.766  1.00  0.00    -0.014 A 
BRANCH  42  43
ATOM     43  C   UNL A   1      40.766  27.749  29.447  1.00  0.00     0.031 A 
ATOM     44  C   UNL A   1      41.752  28.672  28.857  1.00  0.00     0.074 A 
ATOM     45  C   UNL A   1      39.760  28.216  30.214  1.00  0.00     0.049 A 
ATOM     46  N   UNL A   1      42.992  28.764  29.199  1.00  0.00    -0.248 NA
ATOM     47  C   UNL A   1      41.434  29.326  27.573  1.00  0.00     0.031 C 
ATOM     48  C   UNL A   1      38.460  27.634  30.545  1.00  0.00     0.029 A 
ATOM     49  N   UNL A   1      39.715  29.413  30.846  1.00  0.00    -0.354 N 
ATOM     50  C   UNL A   1      43.519  29.711  28.341  1.00  0.00     0.074 A 
ATOM     51  C   UNL A   1      42.650  29.725  27.197  1.00  0.00     0.031 C 
ATOM     52  C   UNL A   1      37.690  28.556  31.178  1.00  0.00     0.029 A 
ATOM     53  C   UNL A   1      38.502  29.733  31.439  1.00  0.00     0.049 A 
ATOM     54  H   UNL A   1      40.492  30.017  30.883  1.00  0.00     0.167 HD
ATOM     55  C   UNL A   1      44.414  30.636  28.781  1.00  0.00     0.037 A 
ATOM     56  C   UNL A   1      38.229  30.899  32.082  1.00  0.00     0.037 A 
ATOM     57  C   UNL A   1      44.831  30.330  30.135  1.00  0.00     0.049 A 
ATOM     58  C   UNL A   1      39.549  31.490  32.456  1.00  0.00     0.074 A 
ATOM     59  C   UNL A   1      45.435  29.245  30.741  1.00  0.00     0.029 A 
ATOM     60  N   UNL A   1      44.214  31.029  31.150  1.00  0.00    -0.354 N 
ATOM     61  N   UNL A   1      40.387  30.938  33.295  1.00  0.00    -0.248 NA
ATOM     62  C   UNL A   1      40.143  32.446  31.533  1.00  0.00     0.031 C 
ATOM     63  C   UNL A   1      44.768  29.095  31.994  1.00  0.00     0.029 A 
ATOM     64  C   UNL A   1      43.844  30.135  32.128  1.00  0.00     0.049 A 
ATOM     65  H   UNL A   1      44.062  32.002  31.172  1.00  0.00     0.167 HD
ATOM     66  C   UNL A   1      41.646  31.151  32.747  1.00  0.00     0.074 A 
ATOM     67  C   UNL A   1      41.436  32.160  31.710  1.00  0.00     0.031 C 
ATOM     68  C   UNL A   1      42.681  30.288  32.985  1.00  0.00     0.037 A 
BRANCH  55  69
ATOM     69  C   UNL A   1      44.625  31.992  28.156  1.00  0.00     0.058 A 
ATOM     70  C   UNL A   1      45.789  32.206  27.392  1.00  0.00     0.135 A 
ATOM     71  C   UNL A   1      43.859  33.147  28.432  1.00  0.00     0.135 A 
ATOM     72  F   UNL A   1      46.596  31.181  27.076  1.00  0.00    -0.206 F 
ATOM     73  C   UNL A   1      46.189  33.476  26.984  1.00  0.00     0.059 A 
ATOM     74  C   UNL A   1      44.206  34.413  27.981  1.00  0.00     0.059 A 
ATOM     75  F   UNL A   1      42.789  33.136  29.234  1.00  0.00    -0.206 F 
ATOM     76  C   UNL A   1      45.393  34.575  27.292  1.00  0.00     0.060 A 
BRANCH  76  77
ATOM     77  S   UNL A   1      45.952  36.226  26.848  1.00  0.00     0.124 S 
ATOM     78  O   UNL A   1      44.684  36.912  26.632  1.00  0.00    -0.237 OA
ATOM     79  O   UNL A   1      46.700  36.619  28.038  1.00  0.00    -0.237 OA
ATOM     80  O   UNL A   1      46.760  35.998  25.654  1.00  0.00    -0.744 OA
ENDBRANCH  76  77
ENDBRANCH  55  69
BRANCH  56  81
ATOM     81  C   UNL A   1      36.979  31.709  32.062  1.00  0.00     0.058 A 
ATOM     82  C   UNL A   1      36.435  32.218  33.256  1.00  0.00     0.135 A 
ATOM     83  C   UNL A   1      36.482  32.268  30.868  1.00  0.00     0.135 A 
ATOM     84  F   UNL A   1      36.860  31.754  34.442  1.00  0.00    -0.206 F 
ATOM     85  C   UNL A   1      35.514  33.272  33.271  1.00  0.00     0.059 A 
ATOM     86  C   UNL A   1      35.556  33.313  30.857  1.00  0.00     0.059 A 
ATOM     87  F   UNL A   1      36.969  31.886  29.678  1.00  0.00    -0.206 F 
ATOM     88  C   UNL A   1      35.100  33.833  32.064  1.00  0.00     0.060 A 
BRANCH  88  89
ATOM     89  S   UNL A   1      34.073  35.323  32.095  1.00  0.00     0.124 S 
ATOM     90  O   UNL A   1      32.852  34.840  32.733  1.00  0.00    -0.237 OA
ATOM     91  O   UNL A   1      34.884  36.239  32.891  1.00  0.00    -0.237 OA
ATOM     92  O   UNL A   1      33.941  35.681  30.685  1.00  0.00    -0.744 OA
ENDBRANCH  88  89
ENDBRANCH  56  81
BRANCH  68  93
ATOM     93  C   UNL A   1      42.525  29.278  34.103  1.00  0.00     0.058 A 
ATOM     94  C   UNL A   1      41.898  28.023  33.975  1.00  0.00     0.135 A 
ATOM     95  C   UNL A   1      43.178  29.536  35.317  1.00  0.00     0.135 A 
ATOM     96  F   UNL A   1      41.330  27.650  32.822  1.00  0.00    -0.206 F 
ATOM     97  C   UNL A   1      41.896  27.086  35.014  1.00  0.00     0.059 A 
ATOM     98  C   UNL A   1      43.218  28.605  36.354  1.00  0.00     0.059 A 
ATOM     99  F   UNL A   1      43.844  30.690  35.489  1.00  0.00    -0.206 F 
ATOM    100  C   UNL A   1      42.566  27.384  36.199  1.00  0.00     0.060 A 
BRANCH 100 101
ATOM    101  S   UNL A   1      42.638  26.141  37.509  1.00  0.00     0.124 S 
ATOM    102  O   UNL A   1      41.235  26.008  37.889  1.00  0.00    -0.237 OA
ATOM    103  O   UNL A   1      43.219  24.991  36.822  1.00  0.00    -0.237 OA
ATOM    104  O   UNL A   1      43.500  26.754  38.517  1.00  0.00    -0.744 OA
ENDBRANCH 100 101
ENDBRANCH  68  93
ENDBRANCH  42  43
ENDBRANCH  34  37
ENDBRANCH  32  33
ENDBRANCH  31  32
ENDBRANCH   1  31
TORSDOF 19
ENDMDL
