MODEL 1
REMARK VINA RESULT:     -12.3      0.000      0.000
REMARK SMILES O=C(CCC(=O)N1CCCn2nc(-c3ccccc3)cc21)NCCCCNC(=O)c1ccc(-c2c3nc(c(-c4c(F)cc(S(=O)(=O)[O-])cc4F)c4ccc([nH]4)c(-c4c(F)cc(S(=O)(=O)[O-])cc4F)c4nc(c(-c5c(F)cc(S(=O)(=O)[O-])cc5F)c5ccc2[nH]5)C=C4)C=C3)cc1
REMARK SMILES IDX 24 1 23 2 22 3 1 4 2 5 3 7 4 8 5 9 6 10 7 11 8 12 21 13 9 14
REMARK SMILES IDX 11 15 20 16 10 17 12 18 13 19 14 20 15 21 19 22 16 23 18 24
REMARK SMILES IDX 17 25 25 26 26 27 27 28 28 29 29 31 30 32 31 33 95 34 32 35
REMARK SMILES IDX 94 36 33 37 34 38 35 39 88 40 36 41 93 42 87 43 89 44 37 45
REMARK SMILES IDX 92 46 86 47 85 48 38 50 72 51 51 52 71 53 52 54 55 55 70 56
REMARK SMILES IDX 90 57 53 58 54 59 69 61 91 62 56 63 39 64 40 65 49 66 41 67
REMARK SMILES IDX 42 68 48 69 50 70 43 71 44 72 45 73 46 74 47 75 73 76 74 77
REMARK SMILES IDX 83 78 75 79 76 80 82 81 84 82 77 83 78 84 79 85 80 86 81 87
REMARK SMILES IDX 57 88 58 89 67 90 59 91 60 92 66 93 68 94 61 95 62 96 63 97
REMARK SMILES IDX 64 98 65 99
REMARK H PARENT 22 6 27 30 89 49 55 60
REMARK Flexibility Score: inf
ROOT
ATOM      1  C   UNL A   1      40.756  22.093  27.664  1.00  0.00     0.023 C 
ENDROOT
BRANCH   1   2
ATOM      2  C   UNL A   1      39.873  21.897  26.405  1.00  0.00     0.116 C 
BRANCH   2   3
ATOM      3  N   UNL A   1      38.904  22.952  26.127  1.00  0.00    -0.356 N 
ATOM      4  O   UNL A   1      37.247  21.516  25.448  1.00  0.00    -0.275 OA
ATOM      5  C   UNL A   1      37.598  22.646  25.777  1.00  0.00     0.220 C 
ATOM      6  H   UNL A   1      39.181  23.894  26.190  1.00  0.00     0.163 HD
BRANCH   5   7
ATOM      7  C   UNL A   1      36.582  23.748  26.062  1.00  0.00     0.110 C 
BRANCH   7   8
ATOM      8  C   UNL A   1      35.733  24.074  24.815  1.00  0.00     0.110 C 
BRANCH   8   9
ATOM      9  C   UNL A   1      34.428  24.855  25.018  1.00  0.00     0.228 C 
ATOM     10  O   UNL A   1      34.365  26.065  24.813  1.00  0.00    -0.274 OA
BRANCH   9  11
ATOM     11  N   UNL A   1      33.219  24.134  25.383  1.00  0.00    -0.297 N 
ATOM     12  C   UNL A   1      32.106  24.874  26.000  1.00  0.00     0.129 C 
ATOM     13  C   UNL A   1      33.019  22.765  25.156  1.00  0.00     0.134 A 
ATOM     14  C   UNL A   1      30.753  24.215  25.811  1.00  0.00     0.046 C 
ATOM     15  N   UNL A   1      31.874  22.134  25.568  1.00  0.00    -0.249 N 
ATOM     16  C   UNL A   1      33.773  21.769  24.573  1.00  0.00     0.077 A 
ATOM     17  C   UNL A   1      30.795  22.785  26.270  1.00  0.00     0.148 C 
ATOM     18  N   UNL A   1      31.766  20.870  25.211  1.00  0.00    -0.171 NA
ATOM     19  C   UNL A   1      32.944  20.601  24.631  1.00  0.00     0.095 A 
BRANCH  19  20
ATOM     20  C   UNL A   1      33.181  19.226  24.229  1.00  0.00     0.002 A 
ATOM     21  C   UNL A   1      34.323  18.560  24.695  1.00  0.00     0.010 A 
ATOM     22  C   UNL A   1      32.423  18.668  23.195  1.00  0.00     0.010 A 
ATOM     23  C   UNL A   1      34.715  17.353  24.115  1.00  0.00     0.001 A 
ATOM     24  C   UNL A   1      32.826  17.466  22.611  1.00  0.00     0.001 A 
ATOM     25  C   UNL A   1      33.974  16.815  23.066  1.00  0.00     0.000 A 
ENDBRANCH  19  20
ENDBRANCH   9  11
ENDBRANCH   8   9
ENDBRANCH   7   8
ENDBRANCH   5   7
ENDBRANCH   2   3
ENDBRANCH   1   2
BRANCH   1  26
ATOM     26  C   UNL A   1      42.278  22.107  27.434  1.00  0.00     0.023 C 
BRANCH  26  27
ATOM     27  C   UNL A   1      43.002  23.431  27.102  1.00  0.00     0.116 C 
BRANCH  27  28
ATOM     28  N   UNL A   1      42.517  24.181  25.957  1.00  0.00    -0.352 N 
ATOM     29  C   UNL A   1      41.767  25.342  25.973  1.00  0.00     0.251 C 
ATOM     30  H   UNL A   1      42.747  23.822  25.069  1.00  0.00     0.163 HD
ATOM     31  O   UNL A   1      41.172  25.686  24.957  1.00  0.00    -0.269 OA
BRANCH  29  32
ATOM     32  C   UNL A   1      41.662  26.158  27.205  1.00  0.00     0.039 A 
ATOM     33  C   UNL A   1      42.625  27.137  27.467  1.00  0.00     0.014 A 
ATOM     34  C   UNL A   1      40.644  25.919  28.131  1.00  0.00     0.014 A 
ATOM     35  C   UNL A   1      42.522  27.927  28.621  1.00  0.00     0.010 A 
ATOM     36  C   UNL A   1      40.529  26.727  29.269  1.00  0.00     0.010 A 
ATOM     37  C   UNL A   1      41.453  27.754  29.517  1.00  0.00    -0.014 A 
BRANCH  37  38
ATOM     38  C   UNL A   1      41.242  28.692  30.659  1.00  0.00     0.031 A 
ATOM     39  C   UNL A   1      42.053  28.594  31.924  1.00  0.00     0.074 A 
ATOM     40  C   UNL A   1      40.253  29.606  30.582  1.00  0.00     0.049 A 
ATOM     41  N   UNL A   1      41.954  29.301  33.022  1.00  0.00    -0.248 NA
ATOM     42  C   UNL A   1      43.099  27.563  31.966  1.00  0.00     0.031 C 
ATOM     43  C   UNL A   1      39.360  29.787  29.436  1.00  0.00     0.029 A 
ATOM     44  N   UNL A   1      39.820  30.544  31.489  1.00  0.00    -0.354 N 
ATOM     45  C   UNL A   1      42.922  28.805  33.889  1.00  0.00     0.074 A 
ATOM     46  C   UNL A   1      43.573  27.710  33.198  1.00  0.00     0.031 C 
ATOM     47  C   UNL A   1      38.494  30.776  29.704  1.00  0.00     0.029 A 
ATOM     48  C   UNL A   1      38.745  31.282  31.051  1.00  0.00     0.049 A 
ATOM     49  H   UNL A   1      40.240  30.675  32.369  1.00  0.00     0.167 HD
ATOM     50  C   UNL A   1      43.248  29.231  35.136  1.00  0.00     0.037 A 
ATOM     51  C   UNL A   1      38.029  32.248  31.661  1.00  0.00     0.037 A 
ATOM     52  C   UNL A   1      42.612  30.327  35.824  1.00  0.00     0.049 A 
ATOM     53  C   UNL A   1      38.402  32.694  33.047  1.00  0.00     0.074 A 
ATOM     54  C   UNL A   1      42.921  30.858  37.067  1.00  0.00     0.029 A 
ATOM     55  N   UNL A   1      41.537  31.058  35.341  1.00  0.00    -0.354 N 
ATOM     56  N   UNL A   1      39.363  32.254  33.822  1.00  0.00    -0.248 NA
ATOM     57  C   UNL A   1      37.601  33.775  33.638  1.00  0.00     0.031 C 
ATOM     58  C   UNL A   1      42.006  31.878  37.353  1.00  0.00     0.029 A 
ATOM     59  C   UNL A   1      41.155  32.016  36.269  1.00  0.00     0.049 A 
ATOM     60  H   UNL A   1      41.106  30.916  34.466  1.00  0.00     0.167 HD
ATOM     61  C   UNL A   1      39.298  33.021  34.981  1.00  0.00     0.074 A 
ATOM     62  C   UNL A   1      38.210  33.959  34.802  1.00  0.00     0.031 C 
ATOM     63  C   UNL A   1      40.074  32.952  36.090  1.00  0.00     0.037 A 
BRANCH  50  64
ATOM     64  C   UNL A   1      44.356  28.505  35.852  1.00  0.00     0.058 A 
ATOM     65  C   UNL A   1      44.093  27.415  36.696  1.00  0.00     0.135 A 
ATOM     66  C   UNL A   1      45.698  28.868  35.650  1.00  0.00     0.135 A 
ATOM     67  F   UNL A   1      42.828  27.030  36.929  1.00  0.00    -0.206 F 
ATOM     68  C   UNL A   1      45.119  26.729  37.340  1.00  0.00     0.059 A 
ATOM     69  C   UNL A   1      46.741  28.181  36.264  1.00  0.00     0.059 A 
ATOM     70  F   UNL A   1      46.006  29.898  34.847  1.00  0.00    -0.206 F 
ATOM     71  C   UNL A   1      46.440  27.124  37.122  1.00  0.00     0.060 A 
BRANCH  71  72
ATOM     72  S   UNL A   1      47.759  26.240  37.980  1.00  0.00     0.124 S 
ATOM     73  O   UNL A   1      47.321  24.855  37.829  1.00  0.00    -0.237 OA
ATOM     74  O   UNL A   1      48.941  26.618  37.211  1.00  0.00    -0.237 OA
ATOM     75  O   UNL A   1      47.698  26.773  39.336  1.00  0.00    -0.744 OA
ENDBRANCH  71  72
ENDBRANCH  50  64
BRANCH  51  76
ATOM     76  C   UNL A   1      36.886  32.877  30.949  1.00  0.00     0.058 A 
ATOM     77  C   UNL A   1      35.562  32.544  31.273  1.00  0.00     0.135 A 
ATOM     78  C   UNL A   1      37.094  33.835  29.945  1.00  0.00     0.135 A 
ATOM     79  F   UNL A   1      35.316  31.627  32.222  1.00  0.00    -0.206 F 
ATOM     80  C   UNL A   1      34.484  33.131  30.621  1.00  0.00     0.059 A 
ATOM     81  C   UNL A   1      36.031  34.453  29.294  1.00  0.00     0.059 A 
ATOM     82  F   UNL A   1      38.342  34.201  29.612  1.00  0.00    -0.206 F 
ATOM     83  C   UNL A   1      34.729  34.088  29.635  1.00  0.00     0.060 A 
BRANCH  83  84
ATOM     84  S   UNL A   1      33.324  34.898  28.841  1.00  0.00     0.124 S 
ATOM     85  O   UNL A   1      33.972  36.018  28.172  1.00  0.00    -0.237 OA
ATOM     86  O   UNL A   1      32.813  33.841  27.973  1.00  0.00    -0.237 OA
ATOM     87  O   UNL A   1      32.461  35.244  29.967  1.00  0.00    -0.744 OA
ENDBRANCH  83  84
ENDBRANCH  51  76
BRANCH  63  88
ATOM     88  C   UNL A   1      39.799  33.937  37.194  1.00  0.00     0.058 A 
ATOM     89  C   UNL A   1      39.032  33.592  38.318  1.00  0.00     0.135 A 
ATOM     90  C   UNL A   1      40.345  35.230  37.147  1.00  0.00     0.135 A 
ATOM     91  F   UNL A   1      38.479  32.372  38.410  1.00  0.00    -0.206 F 
ATOM     92  C   UNL A   1      38.797  34.500  39.346  1.00  0.00     0.059 A 
ATOM     93  C   UNL A   1      40.143  36.147  38.175  1.00  0.00     0.059 A 
ATOM     94  F   UNL A   1      41.091  35.611  36.099  1.00  0.00    -0.206 F 
ATOM     95  C   UNL A   1      39.358  35.777  39.265  1.00  0.00     0.060 A 
BRANCH  95  96
ATOM     96  S   UNL A   1      39.072  36.936  40.620  1.00  0.00     0.124 S 
ATOM     97  O   UNL A   1      38.342  36.104  41.570  1.00  0.00    -0.237 OA
ATOM     98  O   UNL A   1      40.430  37.302  41.011  1.00  0.00    -0.237 OA
ATOM     99  O   UNL A   1      38.299  38.005  39.995  1.00  0.00    -0.744 OA
ENDBRANCH  95  96
ENDBRANCH  63  88
ENDBRANCH  37  38
ENDBRANCH  29  32
ENDBRANCH  27  28
ENDBRANCH  26  27
ENDBRANCH   1  26
TORSDOF 18
ENDMDL
MODEL 2
REMARK VINA RESULT:     -12.2      1.384      3.244
REMARK SMILES O=C(CCC(=O)N1CCCn2nc(-c3ccccc3)cc21)NCCCCNC(=O)c1ccc(-c2c3nc(c(-c4c(F)cc(S(=O)(=O)[O-])cc4F)c4ccc([nH]4)c(-c4c(F)cc(S(=O)(=O)[O-])cc4F)c4nc(c(-c5c(F)cc(S(=O)(=O)[O-])cc5F)c5ccc2[nH]5)C=C4)C=C3)cc1
REMARK SMILES IDX 24 1 23 2 22 3 1 4 2 5 3 7 4 8 5 9 6 10 7 11 8 12 21 13 9 14
REMARK SMILES IDX 11 15 20 16 10 17 12 18 13 19 14 20 15 21 19 22 16 23 18 24
REMARK SMILES IDX 17 25 25 26 26 27 27 28 28 29 29 31 30 32 31 33 95 34 32 35
REMARK SMILES IDX 94 36 33 37 34 38 35 39 88 40 36 41 93 42 87 43 89 44 37 45
REMARK SMILES IDX 92 46 86 47 85 48 38 50 72 51 51 52 71 53 52 54 55 55 70 56
REMARK SMILES IDX 90 57 53 58 54 59 69 61 91 62 56 63 39 64 40 65 49 66 41 67
REMARK SMILES IDX 42 68 48 69 50 70 43 71 44 72 45 73 46 74 47 75 73 76 74 77
REMARK SMILES IDX 83 78 75 79 76 80 82 81 84 82 77 83 78 84 79 85 80 86 81 87
REMARK SMILES IDX 57 88 58 89 67 90 59 91 60 92 66 93 68 94 61 95 62 96 63 97
REMARK SMILES IDX 64 98 65 99
REMARK H PARENT 22 6 27 30 89 49 55 60
REMARK Flexibility Score: inf
ROOT
ATOM      1  C   UNL A   1      41.669  22.258  28.091  1.00  0.00     0.023 C 
ENDROOT
BRANCH   1   2
ATOM      2  C   UNL A   1      41.145  20.984  27.380  1.00  0.00     0.116 C 
BRANCH   2   3
ATOM      3  N   UNL A   1      40.032  21.173  26.455  1.00  0.00    -0.356 N 
ATOM      4  O   UNL A   1      40.246  19.110  25.473  1.00  0.00    -0.275 OA
ATOM      5  C   UNL A   1      39.596  20.138  25.644  1.00  0.00     0.220 C 
ATOM      6  H   UNL A   1      39.584  22.048  26.408  1.00  0.00     0.163 HD
BRANCH   5   7
ATOM      7  C   UNL A   1      38.150  20.258  25.172  1.00  0.00     0.110 C 
BRANCH   7   8
ATOM      8  C   UNL A   1      37.586  21.672  25.424  1.00  0.00     0.110 C 
BRANCH   8   9
ATOM      9  C   UNL A   1      36.539  22.214  24.441  1.00  0.00     0.228 C 
ATOM     10  O   UNL A   1      36.858  22.637  23.331  1.00  0.00    -0.274 OA
BRANCH   9  11
ATOM     11  N   UNL A   1      35.131  22.154  24.799  1.00  0.00    -0.297 N 
ATOM     12  C   UNL A   1      34.450  20.848  24.792  1.00  0.00     0.129 C 
ATOM     13  C   UNL A   1      34.368  23.262  25.190  1.00  0.00     0.134 A 
ATOM     14  C   UNL A   1      33.231  20.789  25.694  1.00  0.00     0.046 C 
ATOM     15  N   UNL A   1      33.032  23.146  25.469  1.00  0.00    -0.249 N 
ATOM     16  C   UNL A   1      34.645  24.601  25.370  1.00  0.00     0.077 A 
ATOM     17  C   UNL A   1      32.287  21.913  25.378  1.00  0.00     0.148 C 
ATOM     18  N   UNL A   1      32.451  24.241  25.917  1.00  0.00    -0.171 NA
ATOM     19  C   UNL A   1      33.411  25.171  25.827  1.00  0.00     0.095 A 
BRANCH  19  20
ATOM     20  C   UNL A   1      33.036  26.537  26.144  1.00  0.00     0.002 A 
ATOM     21  C   UNL A   1      34.021  27.535  26.163  1.00  0.00     0.010 A 
ATOM     22  C   UNL A   1      31.767  26.801  26.671  1.00  0.00     0.010 A 
ATOM     23  C   UNL A   1      33.744  28.781  26.725  1.00  0.00     0.001 A 
ATOM     24  C   UNL A   1      31.499  28.046  27.242  1.00  0.00     0.001 A 
ATOM     25  C   UNL A   1      32.489  29.030  27.276  1.00  0.00     0.000 A 
ENDBRANCH  19  20
ENDBRANCH   9  11
ENDBRANCH   8   9
ENDBRANCH   7   8
ENDBRANCH   5   7
ENDBRANCH   2   3
ENDBRANCH   1   2
BRANCH   1  26
ATOM     26  C   UNL A   1      42.931  22.903  27.490  1.00  0.00     0.023 C 
BRANCH  26  27
ATOM     27  C   UNL A   1      42.814  24.166  26.606  1.00  0.00     0.116 C 
BRANCH  27  28
ATOM     28  N   UNL A   1      41.570  24.351  25.881  1.00  0.00    -0.352 N 
ATOM     29  C   UNL A   1      40.433  25.001  26.322  1.00  0.00     0.251 C 
ATOM     30  H   UNL A   1      41.532  23.971  24.973  1.00  0.00     0.163 HD
ATOM     31  O   UNL A   1      39.370  24.813  25.739  1.00  0.00    -0.269 OA
BRANCH  29  32
ATOM     32  C   UNL A   1      40.484  25.903  27.496  1.00  0.00     0.039 A 
ATOM     33  C   UNL A   1      41.432  26.931  27.535  1.00  0.00     0.014 A 
ATOM     34  C   UNL A   1      39.633  25.700  28.586  1.00  0.00     0.014 A 
ATOM     35  C   UNL A   1      41.474  27.800  28.634  1.00  0.00     0.010 A 
ATOM     36  C   UNL A   1      39.660  26.586  29.670  1.00  0.00     0.010 A 
ATOM     37  C   UNL A   1      40.565  27.659  29.698  1.00  0.00    -0.014 A 
BRANCH  37  38
ATOM     38  C   UNL A   1      40.492  28.672  30.792  1.00  0.00     0.031 A 
ATOM     39  C   UNL A   1      41.347  28.567  32.027  1.00  0.00     0.074 A 
ATOM     40  C   UNL A   1      39.588  29.669  30.703  1.00  0.00     0.049 A 
ATOM     41  N   UNL A   1      41.362  29.337  33.086  1.00  0.00    -0.248 NA
ATOM     42  C   UNL A   1      42.296  27.445  32.086  1.00  0.00     0.031 C 
ATOM     43  C   UNL A   1      38.664  29.871  29.584  1.00  0.00     0.029 A 
ATOM     44  N   UNL A   1      39.283  30.691  31.571  1.00  0.00    -0.354 N 
ATOM     45  C   UNL A   1      42.320  28.800  33.940  1.00  0.00     0.074 A 
ATOM     46  C   UNL A   1      42.836  27.613  33.287  1.00  0.00     0.031 C 
ATOM     47  C   UNL A   1      37.905  30.950  29.829  1.00  0.00     0.029 A 
ATOM     48  C   UNL A   1      38.261  31.501  31.135  1.00  0.00     0.049 A 
ATOM     49  H   UNL A   1      39.752  30.829  32.424  1.00  0.00     0.167 HD
ATOM     50  C   UNL A   1      42.739  29.259  35.146  1.00  0.00     0.037 A 
ATOM     51  C   UNL A   1      37.665  32.561  31.716  1.00  0.00     0.037 A 
ATOM     52  C   UNL A   1      42.237  30.444  35.796  1.00  0.00     0.049 A 
ATOM     53  C   UNL A   1      38.139  33.044  33.058  1.00  0.00     0.074 A 
ATOM     54  C   UNL A   1      42.648  31.010  36.993  1.00  0.00     0.029 A 
ATOM     55  N   UNL A   1      41.212  31.246  35.315  1.00  0.00    -0.354 N 
ATOM     56  N   UNL A   1      39.090  32.557  33.819  1.00  0.00    -0.248 NA
ATOM     57  C   UNL A   1      37.467  34.225  33.619  1.00  0.00     0.031 C 
ATOM     58  C   UNL A   1      41.844  32.124  37.257  1.00  0.00     0.029 A 
ATOM     59  C   UNL A   1      40.962  32.283  36.201  1.00  0.00     0.049 A 
ATOM     60  H   UNL A   1      40.731  31.098  34.468  1.00  0.00     0.167 HD
ATOM     61  C   UNL A   1      39.147  33.387  34.934  1.00  0.00     0.074 A 
ATOM     62  C   UNL A   1      38.143  34.412  34.745  1.00  0.00     0.031 C 
ATOM     63  C   UNL A   1      39.963  33.306  36.012  1.00  0.00     0.037 A 
BRANCH  50  64
ATOM     64  C   UNL A   1      43.807  28.472  35.858  1.00  0.00     0.058 A 
ATOM     65  C   UNL A   1      43.486  27.404  36.712  1.00  0.00     0.135 A 
ATOM     66  C   UNL A   1      45.167  28.752  35.642  1.00  0.00     0.135 A 
ATOM     67  F   UNL A   1      42.203  27.098  36.958  1.00  0.00    -0.206 F 
ATOM     68  C   UNL A   1      44.475  26.662  37.352  1.00  0.00     0.059 A 
ATOM     69  C   UNL A   1      46.172  28.006  36.252  1.00  0.00     0.059 A 
ATOM     70  F   UNL A   1      45.529  29.756  34.830  1.00  0.00    -0.206 F 
ATOM     71  C   UNL A   1      45.815  26.975  37.119  1.00  0.00     0.060 A 
BRANCH  71  72
ATOM     72  S   UNL A   1      47.086  26.018  37.972  1.00  0.00     0.124 S 
ATOM     73  O   UNL A   1      47.644  27.022  38.873  1.00  0.00    -0.237 OA
ATOM     74  O   UNL A   1      46.308  24.958  38.606  1.00  0.00    -0.237 OA
ATOM     75  O   UNL A   1      47.968  25.587  36.892  1.00  0.00    -0.744 OA
ENDBRANCH  71  72
ENDBRANCH  50  64
BRANCH  51  76
ATOM     76  C   UNL A   1      36.552  33.255  31.016  1.00  0.00     0.058 A 
ATOM     77  C   UNL A   1      35.226  33.113  31.450  1.00  0.00     0.135 A 
ATOM     78  C   UNL A   1      36.796  34.087  29.913  1.00  0.00     0.135 A 
ATOM     79  F   UNL A   1      34.945  32.321  32.496  1.00  0.00    -0.206 F 
ATOM     80  C   UNL A   1      34.178  33.763  30.809  1.00  0.00     0.059 A 
ATOM     81  C   UNL A   1      35.767  34.766  29.269  1.00  0.00     0.059 A 
ATOM     82  F   UNL A   1      38.051  34.270  29.472  1.00  0.00    -0.206 F 
ATOM     83  C   UNL A   1      34.459  34.592  29.721  1.00  0.00     0.060 A 
BRANCH  83  84
ATOM     84  S   UNL A   1      33.103  35.488  28.938  1.00  0.00     0.124 S 
ATOM     85  O   UNL A   1      33.821  36.512  28.190  1.00  0.00    -0.237 OA
ATOM     86  O   UNL A   1      32.464  34.443  28.142  1.00  0.00    -0.237 OA
ATOM     87  O   UNL A   1      32.319  35.964  30.074  1.00  0.00    -0.744 OA
ENDBRANCH  83  84
ENDBRANCH  51  76
BRANCH  63  88
ATOM     88  C   UNL A   1      39.830  34.370  37.069  1.00  0.00     0.058 A 
ATOM     89  C   UNL A   1      40.448  35.623  36.937  1.00  0.00     0.135 A 
ATOM     90  C   UNL A   1      39.041  34.146  38.209  1.00  0.00     0.135 A 
ATOM     91  F   UNL A   1      41.221  35.887  35.871  1.00  0.00    -0.206 F 
ATOM     92  C   UNL A   1      40.305  36.611  37.907  1.00  0.00     0.059 A 
ATOM     93  C   UNL A   1      38.864  35.128  39.180  1.00  0.00     0.059 A 
ATOM     94  F   UNL A   1      38.422  32.968  38.382  1.00  0.00    -0.206 F 
ATOM     95  C   UNL A   1      39.510  36.353  39.026  1.00  0.00     0.060 A 
BRANCH  95  96
ATOM     96  S   UNL A   1      39.307  37.653  40.263  1.00  0.00     0.124 S 
ATOM     97  O   UNL A   1      38.302  38.503  39.633  1.00  0.00    -0.237 OA
ATOM     98  O   UNL A   1      38.860  36.905  41.434  1.00  0.00    -0.237 OA
ATOM     99  O   UNL A   1      40.642  38.232  40.370  1.00  0.00    -0.744 OA
ENDBRANCH  95  96
ENDBRANCH  63  88
ENDBRANCH  37  38
ENDBRANCH  29  32
ENDBRANCH  27  28
ENDBRANCH  26  27
ENDBRANCH   1  26
TORSDOF 18
ENDMDL
MODEL 3
REMARK VINA RESULT:     -12.1      4.720     10.207
REMARK SMILES O=C(CCC(=O)N1CCCn2nc(-c3ccccc3)cc21)NCCCCNC(=O)c1ccc(-c2c3nc(c(-c4c(F)cc(S(=O)(=O)[O-])cc4F)c4ccc([nH]4)c(-c4c(F)cc(S(=O)(=O)[O-])cc4F)c4nc(c(-c5c(F)cc(S(=O)(=O)[O-])cc5F)c5ccc2[nH]5)C=C4)C=C3)cc1
REMARK SMILES IDX 24 1 23 2 22 3 1 4 2 5 3 7 4 8 5 9 6 10 7 11 8 12 21 13 9 14
REMARK SMILES IDX 11 15 20 16 10 17 12 18 13 19 14 20 15 21 19 22 16 23 18 24
REMARK SMILES IDX 17 25 25 26 26 27 27 28 28 29 29 31 30 32 31 33 95 34 32 35
REMARK SMILES IDX 94 36 33 37 34 38 35 39 88 40 36 41 93 42 87 43 89 44 37 45
REMARK SMILES IDX 92 46 86 47 85 48 38 50 72 51 51 52 71 53 52 54 55 55 70 56
REMARK SMILES IDX 90 57 53 58 54 59 69 61 91 62 56 63 39 64 40 65 49 66 41 67
REMARK SMILES IDX 42 68 48 69 50 70 43 71 44 72 45 73 46 74 47 75 73 76 74 77
REMARK SMILES IDX 83 78 75 79 76 80 82 81 84 82 77 83 78 84 79 85 80 86 81 87
REMARK SMILES IDX 57 88 58 89 67 90 59 91 60 92 66 93 68 94 61 95 62 96 63 97
REMARK SMILES IDX 64 98 65 99
REMARK H PARENT 22 6 27 30 89 49 55 60
REMARK Flexibility Score: inf
ROOT
ATOM      1  C   UNL A   1      32.686  29.014  24.723  1.00  0.00     0.023 C 
ENDROOT
BRANCH   1   2
ATOM      2  C   UNL A   1      31.213  28.586  24.504  1.00  0.00     0.116 C 
BRANCH   2   3
ATOM      3  N   UNL A   1      30.943  27.153  24.558  1.00  0.00    -0.356 N 
ATOM      4  O   UNL A   1      31.057  26.849  22.286  1.00  0.00    -0.275 OA
ATOM      5  C   UNL A   1      31.012  26.371  23.416  1.00  0.00     0.220 C 
ATOM      6  H   UNL A   1      30.711  26.735  25.419  1.00  0.00     0.163 HD
BRANCH   5   7
ATOM      7  C   UNL A   1      31.271  24.888  23.668  1.00  0.00     0.110 C 
BRANCH   7   8
ATOM      8  C   UNL A   1      30.780  24.455  25.066  1.00  0.00     0.110 C 
BRANCH   8   9
ATOM      9  C   UNL A   1      31.835  24.053  26.106  1.00  0.00     0.228 C 
ATOM     10  O   UNL A   1      31.583  24.052  27.309  1.00  0.00    -0.274 OA
BRANCH   9  11
ATOM     11  N   UNL A   1      33.136  23.587  25.653  1.00  0.00    -0.297 N 
ATOM     12  C   UNL A   1      34.228  24.563  25.498  1.00  0.00     0.129 C 
ATOM     13  C   UNL A   1      33.443  22.247  25.382  1.00  0.00     0.134 A 
ATOM     14  C   UNL A   1      35.613  23.952  25.596  1.00  0.00     0.046 C 
ATOM     15  N   UNL A   1      34.676  21.878  24.912  1.00  0.00    -0.249 N 
ATOM     16  C   UNL A   1      32.734  21.067  25.457  1.00  0.00     0.077 A 
ATOM     17  C   UNL A   1      35.751  22.802  24.641  1.00  0.00     0.148 C 
ATOM     18  N   UNL A   1      34.869  20.580  24.787  1.00  0.00    -0.171 NA
ATOM     19  C   UNL A   1      33.671  20.052  25.075  1.00  0.00     0.095 A 
BRANCH  19  20
ATOM     20  C   UNL A   1      33.529  18.617  24.908  1.00  0.00     0.002 A 
ATOM     21  C   UNL A   1      32.525  17.938  25.615  1.00  0.00     0.010 A 
ATOM     22  C   UNL A   1      34.535  17.893  24.259  1.00  0.00     0.010 A 
ATOM     23  C   UNL A   1      32.541  16.545  25.687  1.00  0.00     0.001 A 
ATOM     24  C   UNL A   1      34.551  16.500  24.344  1.00  0.00     0.001 A 
ATOM     25  C   UNL A   1      33.561  15.829  25.064  1.00  0.00     0.000 A 
ENDBRANCH  19  20
ENDBRANCH   9  11
ENDBRANCH   8   9
ENDBRANCH   7   8
ENDBRANCH   5   7
ENDBRANCH   2   3
ENDBRANCH   1   2
BRANCH   1  26
ATOM     26  C   UNL A   1      33.517  28.134  25.674  1.00  0.00     0.023 C 
BRANCH  26  27
ATOM     27  C   UNL A   1      33.661  28.521  27.164  1.00  0.00     0.116 C 
BRANCH  27  28
ATOM     28  N   UNL A   1      33.555  29.931  27.494  1.00  0.00    -0.352 N 
ATOM     29  C   UNL A   1      34.457  30.693  28.212  1.00  0.00     0.251 C 
ATOM     30  H   UNL A   1      32.749  30.396  27.171  1.00  0.00     0.163 HD
ATOM     31  O   UNL A   1      34.098  31.770  28.676  1.00  0.00    -0.269 OA
BRANCH  29  32
ATOM     32  C   UNL A   1      35.840  30.213  28.440  1.00  0.00     0.039 A 
ATOM     33  C   UNL A   1      36.763  30.246  27.389  1.00  0.00     0.014 A 
ATOM     34  C   UNL A   1      36.213  29.678  29.675  1.00  0.00     0.014 A 
ATOM     35  C   UNL A   1      38.079  29.813  27.602  1.00  0.00     0.010 A 
ATOM     36  C   UNL A   1      37.535  29.270  29.892  1.00  0.00     0.010 A 
ATOM     37  C   UNL A   1      38.489  29.352  28.866  1.00  0.00    -0.014 A 
BRANCH  37  38
ATOM     38  C   UNL A   1      39.921  29.043  29.148  1.00  0.00     0.031 A 
ATOM     39  C   UNL A   1      40.862  30.079  29.704  1.00  0.00     0.074 A 
ATOM     40  C   UNL A   1      40.403  27.823  28.831  1.00  0.00     0.049 A 
ATOM     41  N   UNL A   1      42.143  29.979  29.953  1.00  0.00    -0.248 NA
ATOM     42  C   UNL A   1      40.292  31.401  30.006  1.00  0.00     0.031 C 
ATOM     43  C   UNL A   1      39.618  26.733  28.246  1.00  0.00     0.029 A 
ATOM     44  N   UNL A   1      41.668  27.296  28.939  1.00  0.00    -0.354 N 
ATOM     45  C   UNL A   1      42.539  31.220  30.443  1.00  0.00     0.074 A 
ATOM     46  C   UNL A   1      41.364  32.068  30.417  1.00  0.00     0.031 C 
ATOM     47  C   UNL A   1      40.414  25.670  28.055  1.00  0.00     0.029 A 
ATOM     48  C   UNL A   1      41.773  26.007  28.473  1.00  0.00     0.049 A 
ATOM     49  H   UNL A   1      42.428  27.796  29.316  1.00  0.00     0.167 HD
ATOM     50  C   UNL A   1      43.761  31.611  30.884  1.00  0.00     0.037 A 
ATOM     51  C   UNL A   1      42.838  25.186  28.377  1.00  0.00     0.037 A 
ATOM     52  C   UNL A   1      44.932  30.769  30.922  1.00  0.00     0.049 A 
ATOM     53  C   UNL A   1      44.184  25.647  28.862  1.00  0.00     0.074 A 
ATOM     54  C   UNL A   1      46.195  31.072  31.407  1.00  0.00     0.029 A 
ATOM     55  N   UNL A   1      44.993  29.464  30.453  1.00  0.00    -0.354 N 
ATOM     56  N   UNL A   1      44.521  26.803  29.380  1.00  0.00    -0.248 NA
ATOM     57  C   UNL A   1      45.294  24.689  28.759  1.00  0.00     0.031 C 
ATOM     58  C   UNL A   1      47.028  29.969  31.192  1.00  0.00     0.029 A 
ATOM     59  C   UNL A   1      46.275  28.960  30.615  1.00  0.00     0.049 A 
ATOM     60  H   UNL A   1      44.237  28.970  30.062  1.00  0.00     0.167 HD
ATOM     61  C   UNL A   1      45.874  26.702  29.687  1.00  0.00     0.074 A 
ATOM     62  C   UNL A   1      46.292  25.370  29.307  1.00  0.00     0.031 C 
ATOM     63  C   UNL A   1      46.691  27.632  30.239  1.00  0.00     0.037 A 
BRANCH  50  64
ATOM     64  C   UNL A   1      43.906  33.029  31.370  1.00  0.00     0.058 A 
ATOM     65  C   UNL A   1      44.349  34.054  30.520  1.00  0.00     0.135 A 
ATOM     66  C   UNL A   1      43.544  33.376  32.683  1.00  0.00     0.135 A 
ATOM     67  F   UNL A   1      44.713  33.777  29.259  1.00  0.00    -0.206 F 
ATOM     68  C   UNL A   1      44.460  35.369  30.963  1.00  0.00     0.059 A 
ATOM     69  C   UNL A   1      43.623  34.689  33.139  1.00  0.00     0.059 A 
ATOM     70  F   UNL A   1      43.106  32.436  33.535  1.00  0.00    -0.206 F 
ATOM     71  C   UNL A   1      44.099  35.675  32.277  1.00  0.00     0.060 A 
BRANCH  71  72
ATOM     72  S   UNL A   1      44.268  37.380  32.845  1.00  0.00     0.124 S 
ATOM     73  O   UNL A   1      43.861  38.120  31.654  1.00  0.00    -0.237 OA
ATOM     74  O   UNL A   1      43.340  37.429  33.970  1.00  0.00    -0.237 OA
ATOM     75  O   UNL A   1      45.681  37.483  33.195  1.00  0.00    -0.744 OA
ENDBRANCH  71  72
ENDBRANCH  50  64
BRANCH  51  76
ATOM     76  C   UNL A   1      42.668  23.824  27.807  1.00  0.00     0.058 A 
ATOM     77  C   UNL A   1      42.598  22.697  28.640  1.00  0.00     0.135 A 
ATOM     78  C   UNL A   1      42.553  23.625  26.423  1.00  0.00     0.135 A 
ATOM     79  F   UNL A   1      42.710  22.839  29.969  1.00  0.00    -0.206 F 
ATOM     80  C   UNL A   1      42.430  21.418  28.120  1.00  0.00     0.059 A 
ATOM     81  C   UNL A   1      42.362  22.359  25.881  1.00  0.00     0.059 A 
ATOM     82  F   UNL A   1      42.595  24.674  25.587  1.00  0.00    -0.206 F 
ATOM     83  C   UNL A   1      42.309  21.260  26.739  1.00  0.00     0.060 A 
BRANCH  83  84
ATOM     84  S   UNL A   1      42.022  19.606  26.075  1.00  0.00     0.124 S 
ATOM     85  O   UNL A   1      42.983  19.558  24.981  1.00  0.00    -0.237 OA
ATOM     86  O   UNL A   1      42.318  18.759  27.226  1.00  0.00    -0.237 OA
ATOM     87  O   UNL A   1      40.616  19.645  25.683  1.00  0.00    -0.744 OA
ENDBRANCH  83  84
ENDBRANCH  51  76
BRANCH  63  88
ATOM     88  C   UNL A   1      48.121  27.238  30.496  1.00  0.00     0.058 A 
ATOM     89  C   UNL A   1      49.129  27.457  29.544  1.00  0.00     0.135 A 
ATOM     90  C   UNL A   1      48.494  26.670  31.725  1.00  0.00     0.135 A 
ATOM     91  F   UNL A   1      48.827  27.988  28.348  1.00  0.00    -0.206 F 
ATOM     92  C   UNL A   1      50.454  27.109  29.793  1.00  0.00     0.059 A 
ATOM     93  C   UNL A   1      49.816  26.337  32.005  1.00  0.00     0.059 A 
ATOM     94  F   UNL A   1      47.571  26.445  32.673  1.00  0.00    -0.206 F 
ATOM     95  C   UNL A   1      50.787  26.549  31.028  1.00  0.00     0.060 A 
BRANCH  95  96
ATOM     96  S   UNL A   1      52.514  26.131  31.352  1.00  0.00     0.124 S 
ATOM     97  O   UNL A   1      53.072  26.123  30.004  1.00  0.00    -0.237 OA
ATOM     98  O   UNL A   1      52.947  27.229  32.211  1.00  0.00    -0.237 OA
ATOM     99  O   UNL A   1      52.431  24.828  32.006  1.00  0.00    -0.744 OA
ENDBRANCH  95  96
ENDBRANCH  63  88
ENDBRANCH  37  38
ENDBRANCH  29  32
ENDBRANCH  27  28
ENDBRANCH  26  27
ENDBRANCH   1  26
TORSDOF 18
ENDMDL
