MODEL 1
REMARK VINA RESULT:     -11.4      0.000      0.000
REMARK SMILES CC[C@](C)(NC(=O)NCc1ccco1)C(=O)NCCCCNC(=O)c1ccc(-c2c3nc(c(-c4c(F)cc(S(=O)(=O)[O-])cc4F)c4ccc([nH]4)c(-c4c(F)cc(S(=O)(=O)[O-])cc4F)c4nc(c(-c5c(F)cc(S(=O)(=O)[O-])cc5F)c5ccc2[nH]5)C=C4)C=C3)cc1
REMARK SMILES IDX 19 1 18 2 17 3 15 4 16 5 3 7 4 8 2 9 1 10 5 11 6 12 7 14
REMARK SMILES IDX 8 15 9 17 10 18 11 19 14 20 12 21 13 22 20 23 21 24 22 25
REMARK SMILES IDX 23 26 24 28 25 29 26 30 90 31 27 32 89 33 28 34 29 35 30 36
REMARK SMILES IDX 83 37 31 38 88 39 82 40 84 41 32 42 87 43 81 44 80 45 33 47
REMARK SMILES IDX 67 48 46 49 66 50 47 51 50 52 65 53 85 54 48 55 49 56 64 58
REMARK SMILES IDX 86 59 51 60 34 61 35 62 44 63 36 64 37 65 43 66 45 67 38 68
REMARK SMILES IDX 39 69 40 70 41 71 42 72 68 73 69 74 78 75 70 76 71 77 77 78
REMARK SMILES IDX 79 79 72 80 73 81 74 82 75 83 76 84 52 85 53 86 62 87 54 88
REMARK SMILES IDX 55 89 61 90 63 91 56 92 57 93 58 94 59 95 60 96
REMARK H PARENT 17 6 5 13 8 16 22 27 84 46 50 57
REMARK Flexibility Score: inf
ROOT
ATOM      1  C   UNL A   1      38.342  23.526  26.123  1.00  0.00     0.023 C 
ENDROOT
BRANCH   1   2
ATOM      2  C   UNL A   1      36.929  23.047  25.756  1.00  0.00     0.116 C 
BRANCH   2   3
ATOM      3  N   UNL A   1      35.903  22.936  26.784  1.00  0.00    -0.354 N 
ATOM      4  C   UNL A   1      34.534  23.006  26.812  1.00  0.00     0.245 C 
ATOM      5  O   UNL A   1      33.954  22.554  27.808  1.00  0.00    -0.272 OA
ATOM      6  H   UNL A   1      36.285  22.769  27.676  1.00  0.00     0.163 HD
BRANCH   4   7
ATOM      7  C   UNL A   1      33.715  23.516  25.613  1.00  0.00     0.117 C 
ATOM      8  C   UNL A   1      34.181  23.040  24.226  1.00  0.00     0.045 C 
BRANCH   7   9
ATOM      9  C   UNL A   1      33.852  25.076  25.654  1.00  0.00     0.035 C 
ATOM     10  C   UNL A   1      32.593  25.814  26.126  1.00  0.00     0.007 C 
ENDBRANCH   7   9
BRANCH   7  11
ATOM     11  N   UNL A   1      32.321  23.075  25.778  1.00  0.00    -0.324 N 
ATOM     12  C   UNL A   1      31.700  21.885  25.741  1.00  0.00     0.316 C 
ATOM     13  H   UNL A   1      31.704  23.821  25.957  1.00  0.00     0.166 HD
ATOM     14  O   UNL A   1      30.465  21.921  25.747  1.00  0.00    -0.249 OA
ATOM     15  N   UNL A   1      32.276  20.677  25.834  1.00  0.00    -0.331 N 
ATOM     16  H   UNL A   1      31.708  20.043  26.329  1.00  0.00     0.165 HD
BRANCH  15  17
ATOM     17  C   UNL A   1      33.521  20.052  25.397  1.00  0.00     0.193 C 
BRANCH  17  18
ATOM     18  C   UNL A   1      33.352  18.887  24.457  1.00  0.00     0.122 A 
ATOM     19  C   UNL A   1      32.515  18.653  23.379  1.00  0.00     0.047 A 
ATOM     20  O   UNL A   1      34.252  17.861  24.523  1.00  0.00    -0.467 OA
ATOM     21  C   UNL A   1      32.958  17.457  22.751  1.00  0.00     0.042 A 
ATOM     22  C   UNL A   1      34.029  17.021  23.485  1.00  0.00     0.195 A 
ENDBRANCH  17  18
ENDBRANCH  15  17
ENDBRANCH   7  11
ENDBRANCH   4   7
ENDBRANCH   2   3
ENDBRANCH   1   2
BRANCH   1  23
ATOM     23  C   UNL A   1      39.378  22.536  26.650  1.00  0.00     0.023 C 
BRANCH  23  24
ATOM     24  C   UNL A   1      40.728  23.113  27.044  1.00  0.00     0.116 C 
BRANCH  24  25
ATOM     25  N   UNL A   1      41.311  23.947  26.012  1.00  0.00    -0.352 N 
ATOM     26  C   UNL A   1      41.603  25.291  26.025  1.00  0.00     0.251 C 
ATOM     27  H   UNL A   1      41.530  23.481  25.173  1.00  0.00     0.163 HD
ATOM     28  O   UNL A   1      42.021  25.820  25.001  1.00  0.00    -0.269 OA
BRANCH  26  29
ATOM     29  C   UNL A   1      41.382  26.115  27.243  1.00  0.00     0.039 A 
ATOM     30  C   UNL A   1      42.350  27.072  27.570  1.00  0.00     0.014 A 
ATOM     31  C   UNL A   1      40.275  25.945  28.077  1.00  0.00     0.014 A 
ATOM     32  C   UNL A   1      42.182  27.885  28.694  1.00  0.00     0.010 A 
ATOM     33  C   UNL A   1      40.074  26.802  29.165  1.00  0.00     0.010 A 
ATOM     34  C   UNL A   1      41.027  27.780  29.487  1.00  0.00    -0.014 A 
BRANCH  34  35
ATOM     35  C   UNL A   1      40.820  28.695  30.643  1.00  0.00     0.031 A 
ATOM     36  C   UNL A   1      41.662  28.567  31.886  1.00  0.00     0.074 A 
ATOM     37  C   UNL A   1      39.856  29.637  30.583  1.00  0.00     0.049 A 
ATOM     38  N   UNL A   1      41.626  29.278  32.984  1.00  0.00    -0.248 NA
ATOM     39  C   UNL A   1      42.664  27.490  31.905  1.00  0.00     0.031 C 
ATOM     40  C   UNL A   1      38.950  29.843  29.451  1.00  0.00     0.029 A 
ATOM     41  N   UNL A   1      39.477  30.599  31.488  1.00  0.00    -0.354 N 
ATOM     42  C   UNL A   1      42.592  28.734  33.824  1.00  0.00     0.074 A 
ATOM     43  C   UNL A   1      43.161  27.601  33.128  1.00  0.00     0.031 C 
ATOM     44  C   UNL A   1      38.144  30.884  29.716  1.00  0.00     0.029 A 
ATOM     45  C   UNL A   1      38.445  31.395  31.050  1.00  0.00     0.049 A 
ATOM     46  H   UNL A   1      39.905  30.707  32.368  1.00  0.00     0.167 HD
ATOM     47  C   UNL A   1      42.982  29.153  35.054  1.00  0.00     0.037 A 
ATOM     48  C   UNL A   1      37.808  32.419  31.652  1.00  0.00     0.037 A 
ATOM     49  C   UNL A   1      42.422  30.292  35.737  1.00  0.00     0.049 A 
ATOM     50  C   UNL A   1      38.245  32.850  33.028  1.00  0.00     0.074 A 
ATOM     51  C   UNL A   1      42.790  30.827  36.959  1.00  0.00     0.029 A 
ATOM     52  N   UNL A   1      41.372  31.066  35.264  1.00  0.00    -0.354 N 
ATOM     53  N   UNL A   1      39.206  32.366  33.777  1.00  0.00    -0.248 NA
ATOM     54  C   UNL A   1      37.514  33.969  33.638  1.00  0.00     0.031 C 
ATOM     55  C   UNL A   1      41.924  31.886  37.253  1.00  0.00     0.029 A 
ATOM     56  C   UNL A   1      41.058  32.053  36.185  1.00  0.00     0.049 A 
ATOM     57  H   UNL A   1      40.916  30.934  34.401  1.00  0.00     0.167 HD
ATOM     58  C   UNL A   1      39.216  33.141  34.932  1.00  0.00     0.074 A 
ATOM     59  C   UNL A   1      38.173  34.133  34.777  1.00  0.00     0.031 C 
ATOM     60  C   UNL A   1      40.019  33.040  36.020  1.00  0.00     0.037 A 
BRANCH  47  61
ATOM     61  C   UNL A   1      44.063  28.369  35.752  1.00  0.00     0.058 A 
ATOM     62  C   UNL A   1      45.425  28.651  35.559  1.00  0.00     0.135 A 
ATOM     63  C   UNL A   1      43.731  27.353  36.663  1.00  0.00     0.135 A 
ATOM     64  F   UNL A   1      45.802  29.604  34.691  1.00  0.00    -0.206 F 
ATOM     65  C   UNL A   1      46.418  27.935  36.219  1.00  0.00     0.059 A 
ATOM     66  C   UNL A   1      44.706  26.645  37.358  1.00  0.00     0.059 A 
ATOM     67  F   UNL A   1      42.445  27.042  36.889  1.00  0.00    -0.206 F 
ATOM     68  C   UNL A   1      46.049  26.933  37.118  1.00  0.00     0.060 A 
BRANCH  68  69
ATOM     69  S   UNL A   1      47.350  26.015  37.968  1.00  0.00     0.124 S 
ATOM     70  O   UNL A   1      46.857  24.646  37.863  1.00  0.00    -0.237 OA
ATOM     71  O   UNL A   1      48.528  26.329  37.165  1.00  0.00    -0.237 OA
ATOM     72  O   UNL A   1      47.345  26.582  39.313  1.00  0.00    -0.744 OA
ENDBRANCH  68  69
ENDBRANCH  47  61
BRANCH  48  73
ATOM     73  C   UNL A   1      36.698  33.123  30.952  1.00  0.00     0.058 A 
ATOM     74  C   UNL A   1      36.955  34.016  29.902  1.00  0.00     0.135 A 
ATOM     75  C   UNL A   1      35.358  32.913  31.316  1.00  0.00     0.135 A 
ATOM     76  F   UNL A   1      38.218  34.259  29.521  1.00  0.00    -0.206 F 
ATOM     77  C   UNL A   1      35.927  34.690  29.249  1.00  0.00     0.059 A 
ATOM     78  C   UNL A   1      34.312  33.553  30.660  1.00  0.00     0.059 A 
ATOM     79  F   UNL A   1      35.056  32.058  32.306  1.00  0.00    -0.206 F 
ATOM     80  C   UNL A   1      34.608  34.449  29.634  1.00  0.00     0.060 A 
BRANCH  80  81
ATOM     81  S   UNL A   1      33.279  35.296  28.751  1.00  0.00     0.124 S 
ATOM     82  O   UNL A   1      34.026  36.267  27.959  1.00  0.00    -0.237 OA
ATOM     83  O   UNL A   1      32.663  34.203  28.006  1.00  0.00    -0.237 OA
ATOM     84  O   UNL A   1      32.463  35.852  29.826  1.00  0.00    -0.744 OA
ENDBRANCH  80  81
ENDBRANCH  48  73
BRANCH  60  85
ATOM     85  C   UNL A   1      39.831  34.052  37.120  1.00  0.00     0.058 A 
ATOM     86  C   UNL A   1      40.464  35.305  37.092  1.00  0.00     0.135 A 
ATOM     87  C   UNL A   1      38.961  33.784  38.191  1.00  0.00     0.135 A 
ATOM     88  F   UNL A   1      41.309  35.613  36.096  1.00  0.00    -0.206 F 
ATOM     89  C   UNL A   1      40.262  36.244  38.099  1.00  0.00     0.059 A 
ATOM     90  C   UNL A   1      38.721  34.720  39.191  1.00  0.00     0.059 A 
ATOM     91  F   UNL A   1      38.322  32.606  38.263  1.00  0.00    -0.206 F 
ATOM     92  C   UNL A   1      39.385  35.944  39.142  1.00  0.00     0.060 A 
BRANCH  92  93
ATOM     93  S   UNL A   1      39.106  37.187  40.422  1.00  0.00     0.124 S 
ATOM     94  O   UNL A   1      38.192  38.103  39.748  1.00  0.00    -0.237 OA
ATOM     95  O   UNL A   1      38.529  36.396  41.504  1.00  0.00    -0.237 OA
ATOM     96  O   UNL A   1      40.443  37.713  40.683  1.00  0.00    -0.744 OA
ENDBRANCH  92  93
ENDBRANCH  60  85
ENDBRANCH  34  35
ENDBRANCH  26  29
ENDBRANCH  24  25
ENDBRANCH  23  24
ENDBRANCH   1  23
TORSDOF 18
ENDMDL
MODEL 2
REMARK VINA RESULT:     -11.1      1.049      2.985
REMARK SMILES CC[C@](C)(NC(=O)NCc1ccco1)C(=O)NCCCCNC(=O)c1ccc(-c2c3nc(c(-c4c(F)cc(S(=O)(=O)[O-])cc4F)c4ccc([nH]4)c(-c4c(F)cc(S(=O)(=O)[O-])cc4F)c4nc(c(-c5c(F)cc(S(=O)(=O)[O-])cc5F)c5ccc2[nH]5)C=C4)C=C3)cc1
REMARK SMILES IDX 19 1 18 2 17 3 15 4 16 5 3 7 4 8 2 9 1 10 5 11 6 12 7 14
REMARK SMILES IDX 8 15 9 17 10 18 11 19 14 20 12 21 13 22 20 23 21 24 22 25
REMARK SMILES IDX 23 26 24 28 25 29 26 30 90 31 27 32 89 33 28 34 29 35 30 36
REMARK SMILES IDX 83 37 31 38 88 39 82 40 84 41 32 42 87 43 81 44 80 45 33 47
REMARK SMILES IDX 67 48 46 49 66 50 47 51 50 52 65 53 85 54 48 55 49 56 64 58
REMARK SMILES IDX 86 59 51 60 34 61 35 62 44 63 36 64 37 65 43 66 45 67 38 68
REMARK SMILES IDX 39 69 40 70 41 71 42 72 68 73 69 74 78 75 70 76 71 77 77 78
REMARK SMILES IDX 79 79 72 80 73 81 74 82 75 83 76 84 52 85 53 86 62 87 54 88
REMARK SMILES IDX 55 89 61 90 63 91 56 92 57 93 58 94 59 95 60 96
REMARK H PARENT 17 6 5 13 8 16 22 27 84 46 50 57
REMARK Flexibility Score: inf
ROOT
ATOM      1  C   UNL A   1      37.504  22.051  25.261  1.00  0.00     0.023 C 
ENDROOT
BRANCH   1   2
ATOM      2  C   UNL A   1      36.263  21.185  25.526  1.00  0.00     0.116 C 
BRANCH   2   3
ATOM      3  N   UNL A   1      35.305  21.573  26.553  1.00  0.00    -0.354 N 
ATOM      4  C   UNL A   1      33.941  21.532  26.684  1.00  0.00     0.245 C 
ATOM      5  O   UNL A   1      33.468  21.658  27.821  1.00  0.00    -0.272 OA
ATOM      6  H   UNL A   1      35.744  21.959  27.345  1.00  0.00     0.163 HD
BRANCH   4   7
ATOM      7  C   UNL A   1      33.012  21.226  25.496  1.00  0.00     0.117 C 
ATOM      8  C   UNL A   1      33.011  19.769  24.999  1.00  0.00     0.045 C 
BRANCH   7   9
ATOM      9  C   UNL A   1      33.529  22.131  24.326  1.00  0.00     0.035 C 
ATOM     10  C   UNL A   1      32.652  22.105  23.067  1.00  0.00     0.007 C 
ENDBRANCH   7   9
BRANCH   7  11
ATOM     11  N   UNL A   1      31.632  21.553  25.886  1.00  0.00    -0.324 N 
ATOM     12  C   UNL A   1      31.005  22.673  26.279  1.00  0.00     0.316 C 
ATOM     13  H   UNL A   1      31.032  20.773  25.850  1.00  0.00     0.166 HD
ATOM     14  O   UNL A   1      29.855  22.526  26.706  1.00  0.00    -0.249 OA
ATOM     15  N   UNL A   1      31.446  23.932  26.132  1.00  0.00    -0.331 N 
ATOM     16  H   UNL A   1      30.705  24.554  25.948  1.00  0.00     0.165 HD
BRANCH  15  17
ATOM     17  C   UNL A   1      32.731  24.624  26.172  1.00  0.00     0.193 C 
BRANCH  17  18
ATOM     18  C   UNL A   1      32.642  26.126  26.246  1.00  0.00     0.122 A 
ATOM     19  C   UNL A   1      31.623  27.000  26.588  1.00  0.00     0.047 A 
ATOM     20  O   UNL A   1      33.786  26.855  26.085  1.00  0.00    -0.467 OA
ATOM     21  C   UNL A   1      32.192  28.299  26.675  1.00  0.00     0.042 A 
ATOM     22  C   UNL A   1      33.518  28.152  26.368  1.00  0.00     0.195 A 
ENDBRANCH  17  18
ENDBRANCH  15  17
ENDBRANCH   7  11
ENDBRANCH   4   7
ENDBRANCH   2   3
ENDBRANCH   1   2
BRANCH   1  23
ATOM     23  C   UNL A   1      37.453  23.560  25.486  1.00  0.00     0.023 C 
BRANCH  23  24
ATOM     24  C   UNL A   1      38.401  24.122  26.533  1.00  0.00     0.116 C 
BRANCH  24  25
ATOM     25  N   UNL A   1      39.795  24.014  26.151  1.00  0.00    -0.352 N 
ATOM     26  C   UNL A   1      40.883  24.744  26.570  1.00  0.00     0.251 C 
ATOM     27  H   UNL A   1      39.994  23.312  25.489  1.00  0.00     0.163 HD
ATOM     28  O   UNL A   1      41.973  24.540  26.049  1.00  0.00    -0.269 OA
BRANCH  26  29
ATOM     29  C   UNL A   1      40.749  25.798  27.610  1.00  0.00     0.039 A 
ATOM     30  C   UNL A   1      39.727  25.657  28.556  1.00  0.00     0.014 A 
ATOM     31  C   UNL A   1      41.574  26.924  27.652  1.00  0.00     0.014 A 
ATOM     32  C   UNL A   1      39.569  26.611  29.566  1.00  0.00     0.010 A 
ATOM     33  C   UNL A   1      41.457  27.844  28.700  1.00  0.00     0.010 A 
ATOM     34  C   UNL A   1      40.451  27.699  29.667  1.00  0.00    -0.014 A 
BRANCH  34  35
ATOM     35  C   UNL A   1      40.321  28.674  30.785  1.00  0.00     0.031 A 
ATOM     36  C   UNL A   1      41.192  28.560  32.010  1.00  0.00     0.074 A 
ATOM     37  C   UNL A   1      39.402  29.659  30.708  1.00  0.00     0.049 A 
ATOM     38  N   UNL A   1      41.222  29.320  33.074  1.00  0.00    -0.248 NA
ATOM     39  C   UNL A   1      42.141  27.437  32.050  1.00  0.00     0.031 C 
ATOM     40  C   UNL A   1      38.474  29.858  29.593  1.00  0.00     0.029 A 
ATOM     41  N   UNL A   1      39.096  30.677  31.577  1.00  0.00    -0.354 N 
ATOM     42  C   UNL A   1      42.185  28.767  33.912  1.00  0.00     0.074 A 
ATOM     43  C   UNL A   1      42.679  27.578  33.253  1.00  0.00     0.031 C 
ATOM     44  C   UNL A   1      37.727  30.948  29.831  1.00  0.00     0.029 A 
ATOM     45  C   UNL A   1      38.091  31.503  31.132  1.00  0.00     0.049 A 
ATOM     46  H   UNL A   1      39.554  30.803  32.440  1.00  0.00     0.167 HD
ATOM     47  C   UNL A   1      42.630  29.221  35.110  1.00  0.00     0.037 A 
ATOM     48  C   UNL A   1      37.521  32.583  31.703  1.00  0.00     0.037 A 
ATOM     49  C   UNL A   1      42.145  30.415  35.755  1.00  0.00     0.049 A 
ATOM     50  C   UNL A   1      38.019  33.053  33.045  1.00  0.00     0.074 A 
ATOM     51  C   UNL A   1      42.574  30.986  36.941  1.00  0.00     0.029 A 
ATOM     52  N   UNL A   1      41.120  31.219  35.275  1.00  0.00    -0.354 N 
ATOM     53  N   UNL A   1      38.977  32.556  33.789  1.00  0.00    -0.248 NA
ATOM     54  C   UNL A   1      37.360  34.232  33.622  1.00  0.00     0.031 C 
ATOM     55  C   UNL A   1      41.769  32.098  37.209  1.00  0.00     0.029 A 
ATOM     56  C   UNL A   1      40.881  32.260  36.158  1.00  0.00     0.049 A 
ATOM     57  H   UNL A   1      40.634  31.071  34.432  1.00  0.00     0.167 HD
ATOM     58  C   UNL A   1      39.058  33.380  34.907  1.00  0.00     0.074 A 
ATOM     59  C   UNL A   1      38.059  34.415  34.735  1.00  0.00     0.031 C 
ATOM     60  C   UNL A   1      39.886  33.288  35.977  1.00  0.00     0.037 A 
BRANCH  47  61
ATOM     61  C   UNL A   1      43.692  28.417  35.814  1.00  0.00     0.058 A 
ATOM     62  C   UNL A   1      45.061  28.665  35.619  1.00  0.00     0.135 A 
ATOM     63  C   UNL A   1      43.336  27.415  36.733  1.00  0.00     0.135 A 
ATOM     64  F   UNL A   1      45.460  29.602  34.744  1.00  0.00    -0.206 F 
ATOM     65  C   UNL A   1      46.036  27.930  36.284  1.00  0.00     0.059 A 
ATOM     66  C   UNL A   1      44.294  26.690  37.433  1.00  0.00     0.059 A 
ATOM     67  F   UNL A   1      42.043  27.137  36.961  1.00  0.00    -0.206 F 
ATOM     68  C   UNL A   1      45.643  26.944  37.191  1.00  0.00     0.060 A 
BRANCH  68  69
ATOM     69  S   UNL A   1      46.923  26.002  38.047  1.00  0.00     0.124 S 
ATOM     70  O   UNL A   1      46.821  24.705  37.387  1.00  0.00    -0.237 OA
ATOM     71  O   UNL A   1      48.127  26.772  37.752  1.00  0.00    -0.237 OA
ATOM     72  O   UNL A   1      46.492  26.031  39.442  1.00  0.00    -0.744 OA
ENDBRANCH  68  69
ENDBRANCH  47  61
BRANCH  48  73
ATOM     73  C   UNL A   1      36.427  33.308  31.001  1.00  0.00     0.058 A 
ATOM     74  C   UNL A   1      35.103  33.239  31.457  1.00  0.00     0.135 A 
ATOM     75  C   UNL A   1      36.684  34.089  29.862  1.00  0.00     0.135 A 
ATOM     76  F   UNL A   1      34.802  32.500  32.535  1.00  0.00    -0.206 F 
ATOM     77  C   UNL A   1      34.069  33.901  30.801  1.00  0.00     0.059 A 
ATOM     78  C   UNL A   1      35.673  34.783  29.206  1.00  0.00     0.059 A 
ATOM     79  F   UNL A   1      37.937  34.200  29.391  1.00  0.00    -0.206 F 
ATOM     80  C   UNL A   1      34.366  34.674  29.678  1.00  0.00     0.060 A 
BRANCH  80  81
ATOM     81  S   UNL A   1      33.024  35.564  28.860  1.00  0.00     0.124 S 
ATOM     82  O   UNL A   1      33.757  36.589  28.124  1.00  0.00    -0.237 OA
ATOM     83  O   UNL A   1      32.408  34.516  28.054  1.00  0.00    -0.237 OA
ATOM     84  O   UNL A   1      32.214  36.047  29.974  1.00  0.00    -0.744 OA
ENDBRANCH  80  81
ENDBRANCH  48  73
BRANCH  60  85
ATOM     85  C   UNL A   1      39.779  34.356  37.034  1.00  0.00     0.058 A 
ATOM     86  C   UNL A   1      38.997  34.185  38.186  1.00  0.00     0.135 A 
ATOM     87  C   UNL A   1      40.515  35.548  36.916  1.00  0.00     0.135 A 
ATOM     88  F   UNL A   1      38.269  33.068  38.348  1.00  0.00    -0.206 F 
ATOM     89  C   UNL A   1      38.926  35.165  39.171  1.00  0.00     0.059 A 
ATOM     90  C   UNL A   1      40.484  36.528  37.902  1.00  0.00     0.059 A 
ATOM     91  F   UNL A   1      41.288  35.762  35.839  1.00  0.00    -0.206 F 
ATOM     92  C   UNL A   1      39.677  36.332  39.021  1.00  0.00     0.060 A 
BRANCH  92  93
ATOM     93  S   UNL A   1      39.604  37.580  40.324  1.00  0.00     0.124 S 
ATOM     94  O   UNL A   1      38.933  36.849  41.395  1.00  0.00    -0.237 OA
ATOM     95  O   UNL A   1      41.014  37.881  40.548  1.00  0.00    -0.237 OA
ATOM     96  O   UNL A   1      38.827  38.659  39.720  1.00  0.00    -0.744 OA
ENDBRANCH  92  93
ENDBRANCH  60  85
ENDBRANCH  34  35
ENDBRANCH  26  29
ENDBRANCH  24  25
ENDBRANCH  23  24
ENDBRANCH   1  23
TORSDOF 18
ENDMDL
MODEL 3
REMARK VINA RESULT:     -11.1      4.833     10.302
REMARK SMILES CC[C@](C)(NC(=O)NCc1ccco1)C(=O)NCCCCNC(=O)c1ccc(-c2c3nc(c(-c4c(F)cc(S(=O)(=O)[O-])cc4F)c4ccc([nH]4)c(-c4c(F)cc(S(=O)(=O)[O-])cc4F)c4nc(c(-c5c(F)cc(S(=O)(=O)[O-])cc5F)c5ccc2[nH]5)C=C4)C=C3)cc1
REMARK SMILES IDX 19 1 18 2 17 3 15 4 16 5 3 7 4 8 2 9 1 10 5 11 6 12 7 14
REMARK SMILES IDX 8 15 9 17 10 18 11 19 14 20 12 21 13 22 20 23 21 24 22 25
REMARK SMILES IDX 23 26 24 28 25 29 26 30 90 31 27 32 89 33 28 34 29 35 30 36
REMARK SMILES IDX 83 37 31 38 88 39 82 40 84 41 32 42 87 43 81 44 80 45 33 47
REMARK SMILES IDX 67 48 46 49 66 50 47 51 50 52 65 53 85 54 48 55 49 56 64 58
REMARK SMILES IDX 86 59 51 60 34 61 35 62 44 63 36 64 37 65 43 66 45 67 38 68
REMARK SMILES IDX 39 69 40 70 41 71 42 72 68 73 69 74 78 75 70 76 71 77 77 78
REMARK SMILES IDX 79 79 72 80 73 81 74 82 75 83 76 84 52 85 53 86 62 87 54 88
REMARK SMILES IDX 55 89 61 90 63 91 56 92 57 93 58 94 59 95 60 96
REMARK H PARENT 17 6 5 13 8 16 22 27 84 46 50 57
REMARK Flexibility Score: inf
ROOT
ATOM      1  C   UNL A   1      31.514  27.739  25.683  1.00  0.00     0.023 C 
ENDROOT
BRANCH   1   2
ATOM      2  C   UNL A   1      30.690  26.448  25.808  1.00  0.00     0.116 C 
BRANCH   2   3
ATOM      3  N   UNL A   1      30.543  25.559  24.664  1.00  0.00    -0.354 N 
ATOM      4  C   UNL A   1      30.918  24.274  24.369  1.00  0.00     0.245 C 
ATOM      5  O   UNL A   1      30.358  23.715  23.417  1.00  0.00    -0.272 OA
ATOM      6  H   UNL A   1      30.055  25.984  23.922  1.00  0.00     0.163 HD
BRANCH   4   7
ATOM      7  C   UNL A   1      31.912  23.489  25.243  1.00  0.00     0.117 C 
ATOM      8  C   UNL A   1      31.776  23.687  26.763  1.00  0.00     0.045 C 
BRANCH   7   9
ATOM      9  C   UNL A   1      33.329  24.004  24.819  1.00  0.00     0.035 C 
ATOM     10  C   UNL A   1      33.772  23.566  23.416  1.00  0.00     0.007 C 
ENDBRANCH   7   9
BRANCH   7  11
ATOM     11  N   UNL A   1      31.737  22.053  24.975  1.00  0.00    -0.324 N 
ATOM     12  C   UNL A   1      32.415  20.943  25.308  1.00  0.00     0.316 C 
ATOM     13  H   UNL A   1      30.940  21.863  24.428  1.00  0.00     0.166 HD
ATOM     14  O   UNL A   1      32.061  19.905  24.740  1.00  0.00    -0.249 OA
ATOM     15  N   UNL A   1      33.333  20.827  26.279  1.00  0.00    -0.331 N 
ATOM     16  H   UNL A   1      33.284  19.947  26.718  1.00  0.00     0.165 HD
BRANCH  15  17
ATOM     17  C   UNL A   1      34.386  21.657  26.857  1.00  0.00     0.193 C 
BRANCH  17  18
ATOM     18  C   UNL A   1      35.643  21.756  26.032  1.00  0.00     0.122 A 
ATOM     19  C   UNL A   1      36.622  22.729  25.909  1.00  0.00     0.047 A 
ATOM     20  O   UNL A   1      36.048  20.658  25.328  1.00  0.00    -0.467 OA
ATOM     21  C   UNL A   1      37.674  22.173  25.133  1.00  0.00     0.042 A 
ATOM     22  C   UNL A   1      37.277  20.902  24.813  1.00  0.00     0.195 A 
ENDBRANCH  17  18
ENDBRANCH  15  17
ENDBRANCH   7  11
ENDBRANCH   4   7
ENDBRANCH   2   3
ENDBRANCH   1   2
BRANCH   1  23
ATOM     23  C   UNL A   1      33.031  27.705  25.859  1.00  0.00     0.023 C 
BRANCH  23  24
ATOM     24  C   UNL A   1      33.564  28.115  27.223  1.00  0.00     0.116 C 
BRANCH  24  25
ATOM     25  N   UNL A   1      33.439  29.537  27.475  1.00  0.00    -0.352 N 
ATOM     26  C   UNL A   1      34.368  30.433  27.948  1.00  0.00     0.251 C 
ATOM     27  H   UNL A   1      32.553  29.920  27.278  1.00  0.00     0.163 HD
ATOM     28  O   UNL A   1      34.023  31.588  28.169  1.00  0.00    -0.269 OA
BRANCH  26  29
ATOM     29  C   UNL A   1      35.766  30.014  28.234  1.00  0.00     0.039 A 
ATOM     30  C   UNL A   1      36.707  30.126  27.203  1.00  0.00     0.014 A 
ATOM     31  C   UNL A   1      36.158  29.488  29.467  1.00  0.00     0.014 A 
ATOM     32  C   UNL A   1      38.038  29.763  27.425  1.00  0.00     0.010 A 
ATOM     33  C   UNL A   1      37.503  29.186  29.708  1.00  0.00     0.010 A 
ATOM     34  C   UNL A   1      38.457  29.317  28.688  1.00  0.00    -0.014 A 
BRANCH  34  35
ATOM     35  C   UNL A   1      39.890  28.997  28.939  1.00  0.00     0.031 A 
ATOM     36  C   UNL A   1      40.814  30.026  29.537  1.00  0.00     0.074 A 
ATOM     37  C   UNL A   1      40.369  27.780  28.610  1.00  0.00     0.049 A 
ATOM     38  N   UNL A   1      42.085  29.923  29.831  1.00  0.00    -0.248 NA
ATOM     39  C   UNL A   1      40.239  31.348  29.830  1.00  0.00     0.031 C 
ATOM     40  C   UNL A   1      39.587  26.706  27.992  1.00  0.00     0.029 A 
ATOM     41  N   UNL A   1      41.623  27.236  28.749  1.00  0.00    -0.354 N 
ATOM     42  C   UNL A   1      42.464  31.162  30.335  1.00  0.00     0.074 A 
ATOM     43  C   UNL A   1      41.299  32.017  30.261  1.00  0.00     0.031 C 
ATOM     44  C   UNL A   1      40.369  25.626  27.836  1.00  0.00     0.029 A 
ATOM     45  C   UNL A   1      41.717  25.939  28.302  1.00  0.00     0.049 A 
ATOM     46  H   UNL A   1      42.383  27.730  29.132  1.00  0.00     0.167 HD
ATOM     47  C   UNL A   1      43.665  31.546  30.833  1.00  0.00     0.037 A 
ATOM     48  C   UNL A   1      42.767  25.095  28.266  1.00  0.00     0.037 A 
ATOM     49  C   UNL A   1      44.818  30.685  30.920  1.00  0.00     0.049 A 
ATOM     50  C   UNL A   1      44.097  25.553  28.805  1.00  0.00     0.074 A 
ATOM     51  C   UNL A   1      46.061  30.965  31.460  1.00  0.00     0.029 A 
ATOM     52  N   UNL A   1      44.875  29.381  30.448  1.00  0.00    -0.354 N 
ATOM     53  N   UNL A   1      44.417  26.706  29.341  1.00  0.00    -0.248 NA
ATOM     54  C   UNL A   1      45.208  24.594  28.738  1.00  0.00     0.031 C 
ATOM     55  C   UNL A   1      46.887  29.855  31.261  1.00  0.00     0.029 A 
ATOM     56  C   UNL A   1      46.141  28.857  30.654  1.00  0.00     0.049 A 
ATOM     57  H   UNL A   1      44.126  28.899  30.027  1.00  0.00     0.167 HD
ATOM     58  C   UNL A   1      45.755  26.600  29.704  1.00  0.00     0.074 A 
ATOM     59  C   UNL A   1      46.182  25.266  29.337  1.00  0.00     0.031 C 
ATOM     60  C   UNL A   1      46.556  27.524  30.289  1.00  0.00     0.037 A 
BRANCH  47  61
ATOM     61  C   UNL A   1      43.803  32.966  31.317  1.00  0.00     0.058 A 
ATOM     62  C   UNL A   1      44.229  34.001  30.468  1.00  0.00     0.135 A 
ATOM     63  C   UNL A   1      43.461  33.305  32.637  1.00  0.00     0.135 A 
ATOM     64  F   UNL A   1      44.581  33.734  29.201  1.00  0.00    -0.206 F 
ATOM     65  C   UNL A   1      44.339  35.312  30.918  1.00  0.00     0.059 A 
ATOM     66  C   UNL A   1      43.532  34.615  33.099  1.00  0.00     0.059 A 
ATOM     67  F   UNL A   1      43.045  32.357  33.492  1.00  0.00    -0.206 F 
ATOM     68  C   UNL A   1      43.988  35.611  32.236  1.00  0.00     0.060 A 
BRANCH  68  69
ATOM     69  S   UNL A   1      44.134  37.319  32.801  1.00  0.00     0.124 S 
ATOM     70  O   UNL A   1      43.075  37.386  33.802  1.00  0.00    -0.237 OA
ATOM     71  O   UNL A   1      45.498  37.361  33.316  1.00  0.00    -0.237 OA
ATOM     72  O   UNL A   1      43.900  38.100  31.589  1.00  0.00    -0.744 OA
ENDBRANCH  68  69
ENDBRANCH  47  61
BRANCH  48  73
ATOM     73  C   UNL A   1      42.602  23.721  27.716  1.00  0.00     0.058 A 
ATOM     74  C   UNL A   1      42.659  23.482  26.335  1.00  0.00     0.135 A 
ATOM     75  C   UNL A   1      42.387  22.620  28.560  1.00  0.00     0.135 A 
ATOM     76  F   UNL A   1      42.852  24.501  25.485  1.00  0.00    -0.206 F 
ATOM     77  C   UNL A   1      42.492  22.204  25.809  1.00  0.00     0.059 A 
ATOM     78  C   UNL A   1      42.247  21.329  28.060  1.00  0.00     0.059 A 
ATOM     79  F   UNL A   1      42.338  22.791  29.891  1.00  0.00    -0.206 F 
ATOM     80  C   UNL A   1      42.289  21.134  26.681  1.00  0.00     0.060 A 
BRANCH  80  81
ATOM     81  S   UNL A   1      42.118  19.474  25.989  1.00  0.00     0.124 S 
ATOM     82  O   UNL A   1      42.612  18.647  27.084  1.00  0.00    -0.237 OA
ATOM     83  O   UNL A   1      40.685  19.399  25.728  1.00  0.00    -0.237 OA
ATOM     84  O   UNL A   1      42.963  19.517  24.800  1.00  0.00    -0.744 OA
ENDBRANCH  80  81
ENDBRANCH  48  73
BRANCH  60  85
ATOM     85  C   UNL A   1      47.971  27.117  30.609  1.00  0.00     0.058 A 
ATOM     86  C   UNL A   1      49.033  27.371  29.729  1.00  0.00     0.135 A 
ATOM     87  C   UNL A   1      48.274  26.511  31.841  1.00  0.00     0.135 A 
ATOM     88  F   UNL A   1      48.801  27.944  28.537  1.00  0.00    -0.206 F 
ATOM     89  C   UNL A   1      50.342  27.017  30.045  1.00  0.00     0.059 A 
ATOM     90  C   UNL A   1      49.578  26.177  32.191  1.00  0.00     0.059 A 
ATOM     91  F   UNL A   1      47.298  26.253  32.725  1.00  0.00    -0.206 F 
ATOM     92  C   UNL A   1      50.604  26.424  31.281  1.00  0.00     0.060 A 
BRANCH  92  93
ATOM     93  S   UNL A   1      52.311  26.002  31.692  1.00  0.00     0.124 S 
ATOM     94  O   UNL A   1      52.970  26.149  30.399  1.00  0.00    -0.237 OA
ATOM     95  O   UNL A   1      52.648  27.008  32.694  1.00  0.00    -0.237 OA
ATOM     96  O   UNL A   1      52.212  24.634  32.195  1.00  0.00    -0.744 OA
ENDBRANCH  92  93
ENDBRANCH  60  85
ENDBRANCH  34  35
ENDBRANCH  26  29
ENDBRANCH  24  25
ENDBRANCH  23  24
ENDBRANCH   1  23
TORSDOF 18
ENDMDL
