MODEL 1
REMARK VINA RESULT:     -12.8      0.000      0.000
REMARK SMILES Cn1c(C[NH+]2CCC3(CC2)NC(=O)C[C@@H]3C(=O)NCCCCNC(=O)c2ccc(-c3c4nc(c(-c5c(F)cc(S(=O)(=O)[O-])cc5F)c5ccc([nH]5)c(-c5c(F)cc(S(=O)(=O)[O-])cc5F)c5nc(c(-c6c(F)cc(S(=O)(=O)[O-])cc6F)c6ccc3[nH]6)C=C5)C=C4)cc2)nc2ccccc21
REMARK SMILES IDX 21 1 20 2 19 3 18 4 16 5 17 6 15 8 5 9 6 10 10 11 7 13 9 14
REMARK SMILES IDX 8 15 11 16 12 17 14 19 13 20 4 21 3 22 1 23 2 24 98 25 92 26
REMARK SMILES IDX 93 27 97 28 94 29 96 30 95 31 22 32 23 33 24 34 25 36 26 37
REMARK SMILES IDX 27 38 91 39 28 40 90 41 29 42 30 43 31 44 84 45 32 46 89 47
REMARK SMILES IDX 83 48 85 49 33 50 88 51 82 52 81 53 34 55 68 56 47 57 67 58
REMARK SMILES IDX 48 59 51 60 66 61 86 62 49 63 50 64 65 66 87 67 52 68 35 69
REMARK SMILES IDX 36 70 45 71 37 72 38 73 44 74 46 75 39 76 40 77 41 78 42 79
REMARK SMILES IDX 43 80 69 81 70 82 79 83 71 84 72 85 78 86 80 87 73 88 74 89
REMARK SMILES IDX 75 90 76 91 77 92 53 93 54 94 63 95 55 96 56 97 62 98 64 99
REMARK SMILES IDX 57 100 58 101 59 102 60 103 61 104
REMARK H PARENT 18 7 5 12 11 18 23 35 85 54 51 65
REMARK Flexibility Score: inf
ROOT
ATOM      1  C   UNL A   1      33.725  28.451  25.445  1.00  0.00     0.023 C 
ENDROOT
BRANCH   1   2
ATOM      2  C   UNL A   1      32.599  29.268  24.842  1.00  0.00     0.023 C 
BRANCH   2   3
ATOM      3  C   UNL A   1      31.743  28.562  23.783  1.00  0.00     0.116 C 
BRANCH   3   4
ATOM      4  N   UNL A   1      30.594  27.882  24.350  1.00  0.00    -0.356 N 
ATOM      5  C   UNL A   1      30.140  26.609  24.193  1.00  0.00     0.226 C 
ATOM      6  O   UNL A   1      29.193  26.262  24.900  1.00  0.00    -0.275 OA
ATOM      7  H   UNL A   1      30.048  28.438  24.951  1.00  0.00     0.163 HD
BRANCH   5   8
ATOM      8  C   UNL A   1      30.757  25.674  23.164  1.00  0.00     0.114 C 
ATOM      9  N   UNL A   1      31.683  23.651  26.484  1.00  0.00    -0.328 N 
ATOM     10  C   UNL A   1      32.089  25.031  26.253  1.00  0.00     0.265 C 
ATOM     11  C   UNL A   1      30.969  23.029  25.377  1.00  0.00     0.265 C 
ATOM     12  H   UNL A   1      30.978  23.764  27.212  1.00  0.00     0.348 HD
ATOM     13  C   UNL A   1      32.704  25.314  24.880  1.00  0.00     0.091 C 
ATOM     14  C   UNL A   1      31.433  23.314  23.959  1.00  0.00     0.091 C 
ATOM     15  C   UNL A   1      31.899  24.751  23.694  1.00  0.00     0.063 C 
ATOM     16  N   UNL A   1      32.786  24.685  22.534  1.00  0.00    -0.349 N 
ATOM     17  C   UNL A   1      32.553  25.630  21.574  1.00  0.00     0.221 C 
ATOM     18  H   UNL A   1      33.498  24.010  22.451  1.00  0.00     0.164 HD
ATOM     19  C   UNL A   1      31.424  26.498  22.040  1.00  0.00     0.116 C 
ATOM     20  O   UNL A   1      33.182  25.747  20.540  1.00  0.00    -0.275 OA
BRANCH   9  21
ATOM     21  C   UNL A   1      32.673  22.778  27.134  1.00  0.00     0.339 C 
BRANCH  21  22
ATOM     22  C   UNL A   1      33.856  22.468  26.271  1.00  0.00     0.165 A 
ATOM     23  C   UNL A   1      33.141  20.195  25.415  1.00  0.00     0.152 C 
ATOM     24  N   UNL A   1      34.075  21.275  25.617  1.00  0.00    -0.326 N 
ATOM     25  C   UNL A   1      35.429  21.189  25.363  1.00  0.00     0.068 A 
ATOM     26  N   UNL A   1      34.920  23.246  26.173  1.00  0.00    -0.227 NA
ATOM     27  C   UNL A   1      35.926  22.431  25.741  1.00  0.00     0.089 A 
ATOM     28  C   UNL A   1      36.256  20.154  24.917  1.00  0.00     0.028 A 
ATOM     29  C   UNL A   1      37.307  22.665  25.733  1.00  0.00     0.030 A 
ATOM     30  C   UNL A   1      37.636  20.397  24.936  1.00  0.00     0.002 A 
ATOM     31  C   UNL A   1      38.157  21.624  25.350  1.00  0.00     0.002 A 
ENDBRANCH  21  22
ENDBRANCH   9  21
ENDBRANCH   5   8
ENDBRANCH   3   4
ENDBRANCH   2   3
ENDBRANCH   1   2
BRANCH   1  32
ATOM     32  C   UNL A   1      33.769  28.487  26.955  1.00  0.00     0.116 C 
BRANCH  32  33
ATOM     33  N   UNL A   1      33.668  29.844  27.477  1.00  0.00    -0.352 N 
ATOM     34  C   UNL A   1      34.586  30.560  28.207  1.00  0.00     0.251 C 
ATOM     35  H   UNL A   1      32.825  30.313  27.280  1.00  0.00     0.163 HD
ATOM     36  O   UNL A   1      34.263  31.615  28.742  1.00  0.00    -0.269 OA
BRANCH  34  37
ATOM     37  C   UNL A   1      35.951  30.021  28.359  1.00  0.00     0.039 A 
ATOM     38  C   UNL A   1      36.847  30.108  27.293  1.00  0.00     0.014 A 
ATOM     39  C   UNL A   1      36.357  29.488  29.584  1.00  0.00     0.014 A 
ATOM     40  C   UNL A   1      38.175  29.726  27.486  1.00  0.00     0.010 A 
ATOM     41  C   UNL A   1      37.701  29.236  29.810  1.00  0.00     0.010 A 
ATOM     42  C   UNL A   1      38.622  29.329  28.758  1.00  0.00    -0.014 A 
BRANCH  42  43
ATOM     43  C   UNL A   1      40.040  28.976  29.009  1.00  0.00     0.031 A 
ATOM     44  C   UNL A   1      40.972  30.010  29.584  1.00  0.00     0.074 A 
ATOM     45  C   UNL A   1      40.500  27.759  28.659  1.00  0.00     0.049 A 
ATOM     46  N   UNL A   1      42.255  29.926  29.814  1.00  0.00    -0.248 NA
ATOM     47  C   UNL A   1      40.393  31.325  29.910  1.00  0.00     0.031 C 
ATOM     48  C   UNL A   1      39.704  26.698  28.036  1.00  0.00     0.029 A 
ATOM     49  N   UNL A   1      41.751  27.208  28.772  1.00  0.00    -0.354 N 
ATOM     50  C   UNL A   1      42.636  31.173  30.295  1.00  0.00     0.074 A 
ATOM     51  C   UNL A   1      41.466  32.020  30.254  1.00  0.00     0.031 C 
ATOM     52  C   UNL A   1      40.477  25.614  27.855  1.00  0.00     0.029 A 
ATOM     53  C   UNL A   1      41.831  25.916  28.306  1.00  0.00     0.049 A 
ATOM     54  H   UNL A   1      42.519  27.692  29.152  1.00  0.00     0.167 HD
ATOM     55  C   UNL A   1      43.843  31.568  30.762  1.00  0.00     0.037 A 
ATOM     56  C   UNL A   1      42.881  25.074  28.245  1.00  0.00     0.037 A 
ATOM     57  C   UNL A   1      44.993  30.708  30.827  1.00  0.00     0.049 A 
ATOM     58  C   UNL A   1      44.214  25.537  28.769  1.00  0.00     0.074 A 
ATOM     59  C   UNL A   1      46.248  30.988  31.336  1.00  0.00     0.029 A 
ATOM     60  N   UNL A   1      45.029  29.399  30.367  1.00  0.00    -0.354 N 
ATOM     61  N   UNL A   1      44.539  26.699  29.288  1.00  0.00    -0.248 NA
ATOM     62  C   UNL A   1      45.322  24.573  28.711  1.00  0.00     0.031 C 
ATOM     63  C   UNL A   1      47.059  29.867  31.135  1.00  0.00     0.029 A 
ATOM     64  C   UNL A   1      46.292  28.866  30.559  1.00  0.00     0.049 A 
ATOM     65  H   UNL A   1      44.269  28.921  29.964  1.00  0.00     0.167 HD
ATOM     66  C   UNL A   1      45.878  26.594  29.647  1.00  0.00     0.074 A 
ATOM     67  C   UNL A   1      46.298  25.253  29.297  1.00  0.00     0.031 C 
ATOM     68  C   UNL A   1      46.687  27.523  30.215  1.00  0.00     0.037 A 
BRANCH  55  69
ATOM     69  C   UNL A   1      43.976  32.987  31.246  1.00  0.00     0.058 A 
ATOM     70  C   UNL A   1      44.342  34.032  30.380  1.00  0.00     0.135 A 
ATOM     71  C   UNL A   1      43.699  33.315  32.583  1.00  0.00     0.135 A 
ATOM     72  F   UNL A   1      44.637  33.775  29.095  1.00  0.00    -0.206 F 
ATOM     73  C   UNL A   1      44.456  35.343  30.828  1.00  0.00     0.059 A 
ATOM     74  C   UNL A   1      43.775  34.626  33.045  1.00  0.00     0.059 A 
ATOM     75  F   UNL A   1      43.349  32.357  33.456  1.00  0.00    -0.206 F 
ATOM     76  C   UNL A   1      44.167  35.632  32.163  1.00  0.00     0.060 A 
BRANCH  76  77
ATOM     77  S   UNL A   1      44.304  37.342  32.721  1.00  0.00     0.124 S 
ATOM     78  O   UNL A   1      45.617  37.336  33.358  1.00  0.00    -0.237 OA
ATOM     79  O   UNL A   1      44.210  38.085  31.469  1.00  0.00    -0.237 OA
ATOM     80  O   UNL A   1      43.169  37.496  33.626  1.00  0.00    -0.744 OA
ENDBRANCH  76  77
ENDBRANCH  55  69
BRANCH  56  81
ATOM     81  C   UNL A   1      42.708  23.704  27.690  1.00  0.00     0.058 A 
ATOM     82  C   UNL A   1      42.512  22.600  28.534  1.00  0.00     0.135 A 
ATOM     83  C   UNL A   1      42.730  23.470  26.306  1.00  0.00     0.135 A 
ATOM     84  F   UNL A   1      42.488  22.770  29.865  1.00  0.00    -0.206 F 
ATOM     85  C   UNL A   1      42.367  21.312  28.029  1.00  0.00     0.059 A 
ATOM     86  C   UNL A   1      42.557  22.195  25.776  1.00  0.00     0.059 A 
ATOM     87  F   UNL A   1      42.895  24.493  25.452  1.00  0.00    -0.206 F 
ATOM     88  C   UNL A   1      42.389  21.120  26.647  1.00  0.00     0.060 A 
BRANCH  88  89
ATOM     89  S   UNL A   1      42.163  19.448  26.001  1.00  0.00     0.124 S 
ATOM     90  O   UNL A   1      40.715  19.392  25.835  1.00  0.00    -0.237 OA
ATOM     91  O   UNL A   1      42.947  19.488  24.771  1.00  0.00    -0.237 OA
ATOM     92  O   UNL A   1      42.710  18.603  27.058  1.00  0.00    -0.744 OA
ENDBRANCH  88  89
ENDBRANCH  56  81
BRANCH  68  93
ATOM     93  C   UNL A   1      48.097  27.110  30.539  1.00  0.00     0.058 A 
ATOM     94  C   UNL A   1      49.180  27.458  29.718  1.00  0.00     0.135 A 
ATOM     95  C   UNL A   1      48.371  26.404  31.722  1.00  0.00     0.135 A 
ATOM     96  F   UNL A   1      48.973  28.126  28.572  1.00  0.00    -0.206 F 
ATOM     97  C   UNL A   1      50.483  27.096  30.043  1.00  0.00     0.059 A 
ATOM     98  C   UNL A   1      49.670  26.062  32.085  1.00  0.00     0.059 A 
ATOM     99  F   UNL A   1      47.373  26.057  32.551  1.00  0.00    -0.206 F 
ATOM    100  C   UNL A   1      50.718  26.402  31.232  1.00  0.00     0.060 A 
BRANCH 100 101
ATOM    101  S   UNL A   1      52.417  25.969  31.659  1.00  0.00     0.124 S 
ATOM    102  O   UNL A   1      52.236  24.676  32.311  1.00  0.00    -0.237 OA
ATOM    103  O   UNL A   1      53.067  25.935  30.352  1.00  0.00    -0.237 OA
ATOM    104  O   UNL A   1      52.837  27.060  32.533  1.00  0.00    -0.744 OA
ENDBRANCH 100 101
ENDBRANCH  68  93
ENDBRANCH  42  43
ENDBRANCH  34  37
ENDBRANCH  32  33
ENDBRANCH   1  32
TORSDOF 16
ENDMDL
MODEL 2
REMARK VINA RESULT:     -12.8      2.687      3.725
REMARK SMILES Cn1c(C[NH+]2CCC3(CC2)NC(=O)C[C@@H]3C(=O)NCCCCNC(=O)c2ccc(-c3c4nc(c(-c5c(F)cc(S(=O)(=O)[O-])cc5F)c5ccc([nH]5)c(-c5c(F)cc(S(=O)(=O)[O-])cc5F)c5nc(c(-c6c(F)cc(S(=O)(=O)[O-])cc6F)c6ccc3[nH]6)C=C5)C=C4)cc2)nc2ccccc21
REMARK SMILES IDX 21 1 20 2 19 3 18 4 16 5 17 6 15 8 5 9 6 10 10 11 7 13 9 14
REMARK SMILES IDX 8 15 11 16 12 17 14 19 13 20 4 21 3 22 1 23 2 24 98 25 92 26
REMARK SMILES IDX 93 27 97 28 94 29 96 30 95 31 22 32 23 33 24 34 25 36 26 37
REMARK SMILES IDX 27 38 91 39 28 40 90 41 29 42 30 43 31 44 84 45 32 46 89 47
REMARK SMILES IDX 83 48 85 49 33 50 88 51 82 52 81 53 34 55 68 56 47 57 67 58
REMARK SMILES IDX 48 59 51 60 66 61 86 62 49 63 50 64 65 66 87 67 52 68 35 69
REMARK SMILES IDX 36 70 45 71 37 72 38 73 44 74 46 75 39 76 40 77 41 78 42 79
REMARK SMILES IDX 43 80 69 81 70 82 79 83 71 84 72 85 78 86 80 87 73 88 74 89
REMARK SMILES IDX 75 90 76 91 77 92 53 93 54 94 63 95 55 96 56 97 62 98 64 99
REMARK SMILES IDX 57 100 58 101 59 102 60 103 61 104
REMARK H PARENT 18 7 5 12 11 18 23 35 85 54 51 65
REMARK Flexibility Score: inf
ROOT
ATOM      1  C   UNL A   1      34.374  30.644  27.488  1.00  0.00     0.023 C 
ENDROOT
BRANCH   1   2
ATOM      2  C   UNL A   1      34.324  29.183  27.086  1.00  0.00     0.023 C 
BRANCH   2   3
ATOM      3  C   UNL A   1      33.085  28.740  26.298  1.00  0.00     0.116 C 
BRANCH   3   4
ATOM      4  N   UNL A   1      33.224  28.944  24.869  1.00  0.00    -0.356 N 
ATOM      5  C   UNL A   1      32.291  29.038  23.883  1.00  0.00     0.226 C 
ATOM      6  O   UNL A   1      32.694  29.336  22.758  1.00  0.00    -0.275 OA
ATOM      7  H   UNL A   1      34.154  29.029  24.558  1.00  0.00     0.163 HD
BRANCH   5   8
ATOM      8  C   UNL A   1      30.823  28.750  24.157  1.00  0.00     0.114 C 
ATOM      9  N   UNL A   1      32.206  25.001  24.153  1.00  0.00    -0.328 N 
ATOM     10  C   UNL A   1      32.364  25.909  23.025  1.00  0.00     0.265 C 
ATOM     11  C   UNL A   1      31.436  25.537  25.269  1.00  0.00     0.265 C 
ATOM     12  H   UNL A   1      33.161  24.943  24.506  1.00  0.00     0.348 HD
ATOM     13  C   UNL A   1      31.098  26.659  22.603  1.00  0.00     0.091 C 
ATOM     14  C   UNL A   1      30.209  26.379  24.968  1.00  0.00     0.091 C 
ATOM     15  C   UNL A   1      30.333  27.321  23.764  1.00  0.00     0.063 C 
ATOM     16  N   UNL A   1      28.969  27.590  23.313  1.00  0.00    -0.349 N 
ATOM     17  C   UNL A   1      28.692  28.906  23.065  1.00  0.00     0.221 C 
ATOM     18  H   UNL A   1      28.300  26.876  23.198  1.00  0.00     0.164 HD
ATOM     19  C   UNL A   1      29.938  29.699  23.318  1.00  0.00     0.116 C 
ATOM     20  O   UNL A   1      27.622  29.334  22.678  1.00  0.00    -0.275 OA
BRANCH   9  21
ATOM     21  C   UNL A   1      31.904  23.598  23.827  1.00  0.00     0.339 C 
BRANCH  21  22
ATOM     22  C   UNL A   1      33.122  22.737  23.701  1.00  0.00     0.165 A 
ATOM     23  C   UNL A   1      32.297  20.694  24.949  1.00  0.00     0.152 C 
ATOM     24  N   UNL A   1      33.296  21.509  24.301  1.00  0.00    -0.326 N 
ATOM     25  C   UNL A   1      34.654  21.275  24.371  1.00  0.00     0.068 A 
ATOM     26  N   UNL A   1      34.249  23.133  23.136  1.00  0.00    -0.227 NA
ATOM     27  C   UNL A   1      35.217  22.320  23.649  1.00  0.00     0.089 A 
ATOM     28  C   UNL A   1      35.428  20.318  25.034  1.00  0.00     0.028 A 
ATOM     29  C   UNL A   1      36.609  22.473  23.608  1.00  0.00     0.030 A 
ATOM     30  C   UNL A   1      36.817  20.498  25.001  1.00  0.00     0.002 A 
ATOM     31  C   UNL A   1      37.400  21.564  24.314  1.00  0.00     0.002 A 
ENDBRANCH  21  22
ENDBRANCH   9  21
ENDBRANCH   5   8
ENDBRANCH   3   4
ENDBRANCH   2   3
ENDBRANCH   1   2
BRANCH   1  32
ATOM     32  C   UNL A   1      35.655  31.047  28.180  1.00  0.00     0.116 C 
BRANCH  32  33
ATOM     33  N   UNL A   1      35.553  30.948  29.631  1.00  0.00    -0.352 N 
ATOM     34  C   UNL A   1      36.366  30.276  30.510  1.00  0.00     0.251 C 
ATOM     35  H   UNL A   1      34.796  31.429  30.037  1.00  0.00     0.163 HD
ATOM     36  O   UNL A   1      36.023  30.126  31.678  1.00  0.00    -0.269 OA
BRANCH  34  37
ATOM     37  C   UNL A   1      37.639  29.715  30.017  1.00  0.00     0.039 A 
ATOM     38  C   UNL A   1      37.958  29.820  28.664  1.00  0.00     0.014 A 
ATOM     39  C   UNL A   1      38.542  29.143  30.916  1.00  0.00     0.014 A 
ATOM     40  C   UNL A   1      39.220  29.416  28.227  1.00  0.00     0.010 A 
ATOM     41  C   UNL A   1      39.836  28.867  30.504  1.00  0.00     0.010 A 
ATOM     42  C   UNL A   1      40.184  28.977  29.151  1.00  0.00    -0.014 A 
BRANCH  42  43
ATOM     43  C   UNL A   1      41.553  28.599  28.727  1.00  0.00     0.031 A 
ATOM     44  C   UNL A   1      42.625  29.654  28.651  1.00  0.00     0.074 A 
ATOM     45  C   UNL A   1      41.812  27.332  28.347  1.00  0.00     0.049 A 
ATOM     46  N   UNL A   1      43.861  29.545  28.241  1.00  0.00    -0.248 NA
ATOM     47  C   UNL A   1      42.249  31.020  29.054  1.00  0.00     0.031 C 
ATOM     48  C   UNL A   1      40.836  26.239  28.319  1.00  0.00     0.029 A 
ATOM     49  N   UNL A   1      42.972  26.748  27.907  1.00  0.00    -0.354 N 
ATOM     50  C   UNL A   1      44.401  30.824  28.323  1.00  0.00     0.074 A 
ATOM     51  C   UNL A   1      43.340  31.706  28.750  1.00  0.00     0.031 C 
ATOM     52  C   UNL A   1      41.446  25.112  27.920  1.00  0.00     0.029 A 
ATOM     53  C   UNL A   1      42.843  25.409  27.620  1.00  0.00     0.049 A 
ATOM     54  H   UNL A   1      43.818  27.241  27.807  1.00  0.00     0.167 HD
ATOM     55  C   UNL A   1      45.674  31.221  28.098  1.00  0.00     0.037 A 
ATOM     56  C   UNL A   1      43.750  24.524  27.162  1.00  0.00     0.037 A 
ATOM     57  C   UNL A   1      46.730  30.328  27.703  1.00  0.00     0.049 A 
ATOM     58  C   UNL A   1      45.160  24.990  26.917  1.00  0.00     0.074 A 
ATOM     59  C   UNL A   1      48.068  30.615  27.504  1.00  0.00     0.029 A 
ATOM     60  N   UNL A   1      46.566  28.975  27.443  1.00  0.00    -0.354 N 
ATOM     61  N   UNL A   1      45.671  26.190  27.070  1.00  0.00    -0.248 NA
ATOM     62  C   UNL A   1      46.120  23.982  26.447  1.00  0.00     0.031 C 
ATOM     63  C   UNL A   1      48.703  29.446  27.073  1.00  0.00     0.029 A 
ATOM     64  C   UNL A   1      47.775  28.418  27.064  1.00  0.00     0.049 A 
ATOM     65  H   UNL A   1      45.715  28.484  27.519  1.00  0.00     0.167 HD
ATOM     66  C   UNL A   1      47.018  26.073  26.747  1.00  0.00     0.074 A 
ATOM     67  C   UNL A   1      47.244  24.685  26.402  1.00  0.00     0.031 C 
ATOM     68  C   UNL A   1      47.982  27.028  26.736  1.00  0.00     0.037 A 
BRANCH  55  69
ATOM     69  C   UNL A   1      45.995  32.680  28.282  1.00  0.00     0.058 A 
ATOM     70  C   UNL A   1      46.480  33.182  29.502  1.00  0.00     0.135 A 
ATOM     71  C   UNL A   1      45.851  33.583  27.216  1.00  0.00     0.135 A 
ATOM     72  F   UNL A   1      46.620  32.369  30.561  1.00  0.00    -0.206 F 
ATOM     73  C   UNL A   1      46.783  34.529  29.666  1.00  0.00     0.059 A 
ATOM     74  C   UNL A   1      46.179  34.929  27.348  1.00  0.00     0.059 A 
ATOM     75  F   UNL A   1      45.388  33.160  26.030  1.00  0.00    -0.206 F 
ATOM     76  C   UNL A   1      46.633  35.395  28.582  1.00  0.00     0.060 A 
BRANCH  76  77
ATOM     77  S   UNL A   1      47.048  37.136  28.810  1.00  0.00     0.124 S 
ATOM     78  O   UNL A   1      47.481  37.152  30.203  1.00  0.00    -0.237 OA
ATOM     79  O   UNL A   1      48.097  37.338  27.817  1.00  0.00    -0.237 OA
ATOM     80  O   UNL A   1      45.789  37.824  28.537  1.00  0.00    -0.744 OA
ENDBRANCH  76  77
ENDBRANCH  55  69
BRANCH  56  81
ATOM     81  C   UNL A   1      43.359  23.107  26.929  1.00  0.00     0.058 A 
ATOM     82  C   UNL A   1      43.255  22.588  25.629  1.00  0.00     0.135 A 
ATOM     83  C   UNL A   1      43.086  22.240  27.999  1.00  0.00     0.135 A 
ATOM     84  F   UNL A   1      43.501  23.377  24.572  1.00  0.00    -0.206 F 
ATOM     85  C   UNL A   1      42.873  21.271  25.397  1.00  0.00     0.059 A 
ATOM     86  C   UNL A   1      42.732  20.910  27.793  1.00  0.00     0.059 A 
ATOM     87  F   UNL A   1      43.188  22.679  29.264  1.00  0.00    -0.206 F 
ATOM     88  C   UNL A   1      42.615  20.439  26.487  1.00  0.00     0.060 A 
BRANCH  88  89
ATOM     89  S   UNL A   1      42.157  18.719  26.175  1.00  0.00     0.124 S 
ATOM     90  O   UNL A   1      42.371  18.116  27.484  1.00  0.00    -0.237 OA
ATOM     91  O   UNL A   1      40.767  18.847  25.749  1.00  0.00    -0.237 OA
ATOM     92  O   UNL A   1      43.089  18.308  25.130  1.00  0.00    -0.744 OA
ENDBRANCH  88  89
ENDBRANCH  56  81
BRANCH  68  93
ATOM     93  C   UNL A   1      49.380  26.599  26.387  1.00  0.00     0.058 A 
ATOM     94  C   UNL A   1      50.232  26.004  27.330  1.00  0.00     0.135 A 
ATOM     95  C   UNL A   1      49.853  26.736  25.071  1.00  0.00     0.135 A 
ATOM     96  F   UNL A   1      49.833  25.856  28.603  1.00  0.00    -0.206 F 
ATOM     97  C   UNL A   1      51.513  25.584  26.988  1.00  0.00     0.059 A 
ATOM     98  C   UNL A   1      51.117  26.291  24.699  1.00  0.00     0.059 A 
ATOM     99  F   UNL A   1      49.074  27.286  24.125  1.00  0.00    -0.206 F 
ATOM    100  C   UNL A   1      51.945  25.728  25.668  1.00  0.00     0.060 A 
BRANCH 100 101
ATOM    101  S   UNL A   1      53.596  25.147  25.231  1.00  0.00     0.124 S 
ATOM    102  O   UNL A   1      53.447  23.702  25.376  1.00  0.00    -0.237 OA
ATOM    103  O   UNL A   1      53.746  25.635  23.863  1.00  0.00    -0.237 OA
ATOM    104  O   UNL A   1      54.457  25.792  26.218  1.00  0.00    -0.744 OA
ENDBRANCH 100 101
ENDBRANCH  68  93
ENDBRANCH  42  43
ENDBRANCH  34  37
ENDBRANCH  32  33
ENDBRANCH   1  32
TORSDOF 16
ENDMDL
MODEL 3
REMARK VINA RESULT:     -12.7      3.313      9.220
REMARK SMILES Cn1c(C[NH+]2CCC3(CC2)NC(=O)C[C@@H]3C(=O)NCCCCNC(=O)c2ccc(-c3c4nc(c(-c5c(F)cc(S(=O)(=O)[O-])cc5F)c5ccc([nH]5)c(-c5c(F)cc(S(=O)(=O)[O-])cc5F)c5nc(c(-c6c(F)cc(S(=O)(=O)[O-])cc6F)c6ccc3[nH]6)C=C5)C=C4)cc2)nc2ccccc21
REMARK SMILES IDX 21 1 20 2 19 3 18 4 16 5 17 6 15 8 5 9 6 10 10 11 7 13 9 14
REMARK SMILES IDX 8 15 11 16 12 17 14 19 13 20 4 21 3 22 1 23 2 24 98 25 92 26
REMARK SMILES IDX 93 27 97 28 94 29 96 30 95 31 22 32 23 33 24 34 25 36 26 37
REMARK SMILES IDX 27 38 91 39 28 40 90 41 29 42 30 43 31 44 84 45 32 46 89 47
REMARK SMILES IDX 83 48 85 49 33 50 88 51 82 52 81 53 34 55 68 56 47 57 67 58
REMARK SMILES IDX 48 59 51 60 66 61 86 62 49 63 50 64 65 66 87 67 52 68 35 69
REMARK SMILES IDX 36 70 45 71 37 72 38 73 44 74 46 75 39 76 40 77 41 78 42 79
REMARK SMILES IDX 43 80 69 81 70 82 79 83 71 84 72 85 78 86 80 87 73 88 74 89
REMARK SMILES IDX 75 90 76 91 77 92 53 93 54 94 63 95 55 96 56 97 62 98 64 99
REMARK SMILES IDX 57 100 58 101 59 102 60 103 61 104
REMARK H PARENT 18 7 5 12 11 18 23 35 85 54 51 65
REMARK Flexibility Score: inf
ROOT
ATOM      1  C   UNL A   1      38.043  20.285  25.382  1.00  0.00     0.023 C 
ENDROOT
BRANCH   1   2
ATOM      2  C   UNL A   1      37.386  21.338  24.511  1.00  0.00     0.023 C 
BRANCH   2   3
ATOM      3  C   UNL A   1      36.639  22.456  25.248  1.00  0.00     0.116 C 
BRANCH   3   4
ATOM      4  N   UNL A   1      35.672  21.951  26.205  1.00  0.00    -0.356 N 
ATOM      5  C   UNL A   1      34.619  21.103  26.050  1.00  0.00     0.226 C 
ATOM      6  O   UNL A   1      34.032  20.748  27.073  1.00  0.00    -0.275 OA
ATOM      7  H   UNL A   1      35.799  22.279  27.124  1.00  0.00     0.163 HD
BRANCH   5   8
ATOM      8  C   UNL A   1      34.171  20.646  24.670  1.00  0.00     0.114 C 
ATOM      9  N   UNL A   1      32.124  24.071  24.893  1.00  0.00    -0.328 N 
ATOM     10  C   UNL A   1      31.993  23.000  25.872  1.00  0.00     0.265 C 
ATOM     11  C   UNL A   1      33.010  23.775  23.774  1.00  0.00     0.265 C 
ATOM     12  H   UNL A   1      32.620  24.782  25.430  1.00  0.00     0.348 HD
ATOM     13  C   UNL A   1      31.809  21.597  25.289  1.00  0.00     0.091 C 
ATOM     14  C   UNL A   1      32.982  22.380  23.173  1.00  0.00     0.091 C 
ATOM     15  C   UNL A   1      32.811  21.233  24.178  1.00  0.00     0.063 C 
ATOM     16  N   UNL A   1      32.261  20.109  23.422  1.00  0.00    -0.349 N 
ATOM     17  C   UNL A   1      32.871  18.906  23.650  1.00  0.00     0.221 C 
ATOM     18  H   UNL A   1      31.508  20.210  22.795  1.00  0.00     0.164 HD
ATOM     19  C   UNL A   1      33.947  19.117  24.671  1.00  0.00     0.116 C 
ATOM     20  O   UNL A   1      32.560  17.854  23.128  1.00  0.00    -0.275 OA
BRANCH   9  21
ATOM     21  C   UNL A   1      30.885  24.769  24.515  1.00  0.00     0.339 C 
BRANCH  21  22
ATOM     22  C   UNL A   1      30.778  26.150  25.084  1.00  0.00     0.165 A 
ATOM     23  C   UNL A   1      30.408  27.438  22.935  1.00  0.00     0.152 C 
ATOM     24  N   UNL A   1      30.677  27.310  24.347  1.00  0.00    -0.326 N 
ATOM     25  C   UNL A   1      31.096  28.347  25.155  1.00  0.00     0.068 A 
ATOM     26  N   UNL A   1      30.943  26.434  26.363  1.00  0.00    -0.227 NA
ATOM     27  C   UNL A   1      31.270  27.759  26.401  1.00  0.00     0.089 A 
ATOM     28  C   UNL A   1      31.397  29.691  24.910  1.00  0.00     0.028 A 
ATOM     29  C   UNL A   1      31.814  28.502  27.457  1.00  0.00     0.030 A 
ATOM     30  C   UNL A   1      31.959  30.413  25.970  1.00  0.00     0.002 A 
ATOM     31  C   UNL A   1      32.180  29.829  27.219  1.00  0.00     0.002 A 
ENDBRANCH  21  22
ENDBRANCH   9  21
ENDBRANCH   5   8
ENDBRANCH   3   4
ENDBRANCH   2   3
ENDBRANCH   1   2
BRANCH   1  32
ATOM     32  C   UNL A   1      39.381  20.702  25.947  1.00  0.00     0.116 C 
BRANCH  32  33
ATOM     33  N   UNL A   1      40.312  19.585  26.043  1.00  0.00    -0.352 N 
ATOM     34  C   UNL A   1      41.682  19.607  26.132  1.00  0.00     0.251 C 
ATOM     35  H   UNL A   1      39.901  18.690  26.044  1.00  0.00     0.163 HD
ATOM     36  O   UNL A   1      42.327  18.572  26.001  1.00  0.00    -0.269 OA
BRANCH  34  37
ATOM     37  C   UNL A   1      42.360  20.898  26.358  1.00  0.00     0.039 A 
ATOM     38  C   UNL A   1      42.694  21.699  25.267  1.00  0.00     0.014 A 
ATOM     39  C   UNL A   1      42.603  21.338  27.662  1.00  0.00     0.014 A 
ATOM     40  C   UNL A   1      43.207  22.977  25.491  1.00  0.00     0.010 A 
ATOM     41  C   UNL A   1      42.986  22.652  27.881  1.00  0.00     0.010 A 
ATOM     42  C   UNL A   1      43.315  23.480  26.800  1.00  0.00    -0.014 A 
BRANCH  42  43
ATOM     43  C   UNL A   1      43.797  24.856  27.067  1.00  0.00     0.031 A 
ATOM     44  C   UNL A   1      45.257  25.180  26.883  1.00  0.00     0.074 A 
ATOM     45  C   UNL A   1      42.944  25.787  27.537  1.00  0.00     0.049 A 
ATOM     46  N   UNL A   1      45.890  26.296  27.126  1.00  0.00    -0.248 NA
ATOM     47  C   UNL A   1      46.127  24.095  26.395  1.00  0.00     0.031 C 
ATOM     48  C   UNL A   1      41.521  25.570  27.814  1.00  0.00     0.029 A 
ATOM     49  N   UNL A   1      43.147  27.102  27.870  1.00  0.00    -0.354 N 
ATOM     50  C   UNL A   1      47.226  26.044  26.837  1.00  0.00     0.074 A 
ATOM     51  C   UNL A   1      47.326  24.650  26.472  1.00  0.00     0.031 C 
ATOM     52  C   UNL A   1      40.974  26.720  28.240  1.00  0.00     0.029 A 
ATOM     53  C   UNL A   1      42.012  27.743  28.310  1.00  0.00     0.049 A 
ATOM     54  H   UNL A   1      44.023  27.545  27.799  1.00  0.00     0.167 HD
ATOM     55  C   UNL A   1      48.270  26.904  26.840  1.00  0.00     0.037 A 
ATOM     56  C   UNL A   1      41.834  29.011  28.727  1.00  0.00     0.037 A 
ATOM     57  C   UNL A   1      48.154  28.298  27.176  1.00  0.00     0.049 A 
ATOM     58  C   UNL A   1      43.011  29.949  28.724  1.00  0.00     0.074 A 
ATOM     59  C   UNL A   1      49.136  29.271  27.156  1.00  0.00     0.029 A 
ATOM     60  N   UNL A   1      46.984  28.916  27.595  1.00  0.00    -0.354 N 
ATOM     61  N   UNL A   1      44.255  29.712  28.378  1.00  0.00    -0.248 NA
ATOM     62  C   UNL A   1      42.761  31.330  29.159  1.00  0.00     0.031 C 
ATOM     63  C   UNL A   1      48.573  30.466  27.614  1.00  0.00     0.029 A 
ATOM     64  C   UNL A   1      47.226  30.253  27.859  1.00  0.00     0.049 A 
ATOM     65  H   UNL A   1      46.112  28.469  27.690  1.00  0.00     0.167 HD
ATOM     66  C   UNL A   1      44.927  30.920  28.521  1.00  0.00     0.074 A 
ATOM     67  C   UNL A   1      43.950  31.888  28.974  1.00  0.00     0.031 C 
ATOM     68  C   UNL A   1      46.234  31.204  28.298  1.00  0.00     0.037 A 
BRANCH  55  69
ATOM     69  C   UNL A   1      49.623  26.364  26.462  1.00  0.00     0.058 A 
ATOM     70  C   UNL A   1      50.109  26.441  25.145  1.00  0.00     0.135 A 
ATOM     71  C   UNL A   1      50.462  25.795  27.434  1.00  0.00     0.135 A 
ATOM     72  F   UNL A   1      49.343  26.958  24.171  1.00  0.00    -0.206 F 
ATOM     73  C   UNL A   1      51.362  25.949  24.801  1.00  0.00     0.059 A 
ATOM     74  C   UNL A   1      51.733  25.326  27.119  1.00  0.00     0.059 A 
ATOM     75  F   UNL A   1      50.049  25.691  28.707  1.00  0.00    -0.206 F 
ATOM     76  C   UNL A   1      52.170  25.395  25.796  1.00  0.00     0.060 A 
BRANCH  76  77
ATOM     77  S   UNL A   1      53.801  24.777  25.333  1.00  0.00     0.124 S 
ATOM     78  O   UNL A   1      54.566  25.035  26.549  1.00  0.00    -0.237 OA
ATOM     79  O   UNL A   1      53.529  23.374  25.041  1.00  0.00    -0.237 OA
ATOM     80  O   UNL A   1      54.161  25.598  24.180  1.00  0.00    -0.744 OA
ENDBRANCH  76  77
ENDBRANCH  55  69
BRANCH  56  81
ATOM     81  C   UNL A   1      40.486  29.472  29.159  1.00  0.00     0.058 A 
ATOM     82  C   UNL A   1      39.471  29.722  28.222  1.00  0.00     0.135 A 
ATOM     83  C   UNL A   1      40.182  29.668  30.516  1.00  0.00     0.135 A 
ATOM     84  F   UNL A   1      39.712  29.553  26.913  1.00  0.00    -0.206 F 
ATOM     85  C   UNL A   1      38.213  30.170  28.611  1.00  0.00     0.059 A 
ATOM     86  C   UNL A   1      38.921  30.087  30.931  1.00  0.00     0.059 A 
ATOM     87  F   UNL A   1      41.110  29.426  31.456  1.00  0.00    -0.206 F 
ATOM     88  C   UNL A   1      37.947  30.348  29.969  1.00  0.00     0.060 A 
BRANCH  88  89
ATOM     89  S   UNL A   1      36.298  30.894  30.465  1.00  0.00     0.124 S 
ATOM     90  O   UNL A   1      35.993  29.964  31.545  1.00  0.00    -0.237 OA
ATOM     91  O   UNL A   1      36.542  32.277  30.861  1.00  0.00    -0.237 OA
ATOM     92  O   UNL A   1      35.510  30.728  29.248  1.00  0.00    -0.744 OA
ENDBRANCH  88  89
ENDBRANCH  56  81
BRANCH  68  93
ATOM     93  C   UNL A   1      46.678  32.628  28.492  1.00  0.00     0.058 A 
ATOM     94  C   UNL A   1      47.196  33.084  29.714  1.00  0.00     0.135 A 
ATOM     95  C   UNL A   1      46.637  33.534  27.419  1.00  0.00     0.135 A 
ATOM     96  F   UNL A   1      47.252  32.261  30.774  1.00  0.00    -0.206 F 
ATOM     97  C   UNL A   1      47.632  34.395  29.874  1.00  0.00     0.059 A 
ATOM     98  C   UNL A   1      47.099  34.839  27.546  1.00  0.00     0.059 A 
ATOM     99  F   UNL A   1      46.163  33.146  26.224  1.00  0.00    -0.206 F 
ATOM    100  C   UNL A   1      47.583  35.264  28.782  1.00  0.00     0.060 A 
BRANCH 100 101
ATOM    101  S   UNL A   1      48.183  36.953  28.994  1.00  0.00     0.124 S 
ATOM    102  O   UNL A   1      46.985  37.632  29.476  1.00  0.00    -0.237 OA
ATOM    103  O   UNL A   1      49.252  36.782  29.974  1.00  0.00    -0.237 OA
ATOM    104  O   UNL A   1      48.623  37.329  27.654  1.00  0.00    -0.744 OA
ENDBRANCH 100 101
ENDBRANCH  68  93
ENDBRANCH  42  43
ENDBRANCH  34  37
ENDBRANCH  32  33
ENDBRANCH   1  32
TORSDOF 16
ENDMDL
