MODEL 1
REMARK VINA RESULT:     -11.3      0.000      0.000
REMARK SMILES Cc1cccc(C[NH+]2CCC(OCC(=O)NCCCCNC(=O)c3ccc(-c4c5nc(c(-c6c(F)cc(S(=O)(=O)[O-])cc6F)c6ccc([nH]6)c(-c6c(F)cc(S(=O)(=O)[O-])cc6F)c6nc(c(-c7c(F)cc(S(=O)(=O)[O-])cc7F)c7ccc4[nH]7)C=C6)C=C5)cc3)CC2)n1
REMARK SMILES IDX 18 1 17 2 16 3 14 4 15 5 13 7 12 8 11 9 8 10 9 11 91 12
REMARK SMILES IDX 10 14 90 15 7 16 6 17 1 18 2 19 3 20 92 21 4 22 5 23 19 24
REMARK SMILES IDX 20 25 21 26 22 27 23 29 24 30 25 31 89 32 26 33 88 34 27 35
REMARK SMILES IDX 28 36 29 37 82 38 30 39 87 40 81 41 83 42 31 43 86 44 80 45
REMARK SMILES IDX 79 46 32 48 66 49 45 50 65 51 46 52 49 53 64 54 84 55 47 56
REMARK SMILES IDX 48 57 63 59 85 60 50 61 33 62 34 63 43 64 35 65 36 66 42 67
REMARK SMILES IDX 44 68 37 69 38 70 39 71 40 72 41 73 67 74 68 75 77 76 69 77
REMARK SMILES IDX 70 78 76 79 78 80 71 81 72 82 73 83 74 84 75 85 51 86 52 87
REMARK SMILES IDX 61 88 53 89 54 90 60 91 62 92 55 93 56 94 57 95 58 96 59 97
REMARK H PARENT 16 6 8 13 21 28 83 47 49 58
REMARK Flexibility Score: inf
ROOT
ATOM      1  C   UNL A   1      32.948  29.350  24.884  1.00  0.00     0.023 C 
ENDROOT
BRANCH   1   2
ATOM      2  C   UNL A   1      31.425  29.373  24.762  1.00  0.00     0.116 C 
BRANCH   2   3
ATOM      3  N   UNL A   1      30.940  29.750  23.451  1.00  0.00    -0.354 N 
ATOM      4  C   UNL A   1      30.357  28.958  22.501  1.00  0.00     0.246 C 
ATOM      5  O   UNL A   1      29.832  29.493  21.523  1.00  0.00    -0.272 OA
ATOM      6  H   UNL A   1      31.043  30.699  23.212  1.00  0.00     0.163 HD
BRANCH   4   7
ATOM      7  C   UNL A   1      30.347  27.434  22.681  1.00  0.00     0.260 C 
BRANCH   7   8
ATOM      8  O   UNL A   1      29.561  26.893  23.728  1.00  0.00    -0.368 OA
BRANCH   8   9
ATOM      9  C   UNL A   1      29.994  25.661  24.317  1.00  0.00     0.130 C 
ATOM     10  N   UNL A   1      31.870  23.692  25.315  1.00  0.00    -0.330 N 
ATOM     11  C   UNL A   1      31.180  23.448  24.046  1.00  0.00     0.265 C 
ATOM     12  C   UNL A   1      31.033  24.461  26.245  1.00  0.00     0.265 C 
ATOM     13  H   UNL A   1      32.687  24.257  25.082  1.00  0.00     0.348 HD
ATOM     14  C   UNL A   1      30.808  24.774  23.369  1.00  0.00     0.093 C 
ATOM     15  C   UNL A   1      30.719  25.824  25.651  1.00  0.00     0.093 C 
BRANCH  10  16
ATOM     16  C   UNL A   1      32.393  22.462  25.948  1.00  0.00     0.319 C 
BRANCH  16  17
ATOM     17  C   UNL A   1      33.832  22.083  25.634  1.00  0.00     0.095 A 
ATOM     18  C   UNL A   1      37.079  23.775  25.971  1.00  0.00     0.067 C 
ATOM     19  C   UNL A   1      36.079  22.714  25.629  1.00  0.00     0.038 A 
ATOM     20  C   UNL A   1      36.469  21.455  25.196  1.00  0.00     0.023 A 
ATOM     21  N   UNL A   1      34.782  23.032  25.829  1.00  0.00    -0.252 NA
ATOM     22  C   UNL A   1      35.488  20.496  24.959  1.00  0.00     0.004 A 
ATOM     23  C   UNL A   1      34.151  20.807  25.186  1.00  0.00     0.030 A 
ENDBRANCH  16  17
ENDBRANCH  10  16
ENDBRANCH   8   9
ENDBRANCH   7   8
ENDBRANCH   4   7
ENDBRANCH   2   3
ENDBRANCH   1   2
BRANCH   1  24
ATOM     24  C   UNL A   1      33.536  28.199  25.706  1.00  0.00     0.023 C 
BRANCH  24  25
ATOM     25  C   UNL A   1      33.566  28.411  27.216  1.00  0.00     0.116 C 
BRANCH  25  26
ATOM     26  N   UNL A   1      33.487  29.811  27.603  1.00  0.00    -0.352 N 
ATOM     27  C   UNL A   1      34.448  30.606  28.181  1.00  0.00     0.251 C 
ATOM     28  H   UNL A   1      32.623  30.250  27.428  1.00  0.00     0.163 HD
ATOM     29  O   UNL A   1      34.167  31.748  28.535  1.00  0.00    -0.269 OA
BRANCH  27  30
ATOM     30  C   UNL A   1      35.808  30.070  28.411  1.00  0.00     0.039 A 
ATOM     31  C   UNL A   1      36.724  30.078  27.356  1.00  0.00     0.014 A 
ATOM     32  C   UNL A   1      36.186  29.584  29.666  1.00  0.00     0.014 A 
ATOM     33  C   UNL A   1      38.043  29.675  27.578  1.00  0.00     0.010 A 
ATOM     34  C   UNL A   1      37.514  29.241  29.901  1.00  0.00     0.010 A 
ATOM     35  C   UNL A   1      38.458  29.293  28.863  1.00  0.00    -0.014 A 
BRANCH  35  36
ATOM     36  C   UNL A   1      39.875  28.961  29.161  1.00  0.00     0.031 A 
ATOM     37  C   UNL A   1      40.803  30.026  29.673  1.00  0.00     0.074 A 
ATOM     38  C   UNL A   1      40.350  27.734  28.868  1.00  0.00     0.049 A 
ATOM     39  N   UNL A   1      42.099  29.983  29.844  1.00  0.00    -0.248 NA
ATOM     40  C   UNL A   1      40.195  31.324  30.007  1.00  0.00     0.031 C 
ATOM     41  C   UNL A   1      39.559  26.628  28.325  1.00  0.00     0.029 A 
ATOM     42  N   UNL A   1      41.619  27.220  28.959  1.00  0.00    -0.354 N 
ATOM     43  C   UNL A   1      42.466  31.249  30.280  1.00  0.00     0.074 A 
ATOM     44  C   UNL A   1      41.261  32.051  30.309  1.00  0.00     0.031 C 
ATOM     45  C   UNL A   1      40.361  25.571  28.124  1.00  0.00     0.029 A 
ATOM     46  C   UNL A   1      41.727  25.933  28.487  1.00  0.00     0.049 A 
ATOM     47  H   UNL A   1      42.381  27.725  29.326  1.00  0.00     0.167 HD
ATOM     48  C   UNL A   1      43.693  31.699  30.638  1.00  0.00     0.037 A 
ATOM     49  C   UNL A   1      42.808  25.140  28.341  1.00  0.00     0.037 A 
ATOM     50  C   UNL A   1      44.882  30.890  30.629  1.00  0.00     0.049 A 
ATOM     51  C   UNL A   1      44.158  25.654  28.755  1.00  0.00     0.074 A 
ATOM     52  C   UNL A   1      46.162  31.235  31.026  1.00  0.00     0.029 A 
ATOM     53  N   UNL A   1      44.940  29.573  30.196  1.00  0.00    -0.354 N 
ATOM     54  N   UNL A   1      44.480  26.837  29.221  1.00  0.00    -0.248 NA
ATOM     55  C   UNL A   1      45.292  24.727  28.630  1.00  0.00     0.031 C 
ATOM     56  C   UNL A   1      47.000  30.137  30.804  1.00  0.00     0.029 A 
ATOM     57  C   UNL A   1      46.236  29.095  30.304  1.00  0.00     0.049 A 
ATOM     58  H   UNL A   1      44.173  29.054  29.860  1.00  0.00     0.167 HD
ATOM     59  C   UNL A   1      45.848  26.791  29.465  1.00  0.00     0.074 A 
ATOM     60  C   UNL A   1      46.293  25.460  29.101  1.00  0.00     0.031 C 
ATOM     61  C   UNL A   1      46.660  27.763  29.948  1.00  0.00     0.037 A 
BRANCH  48  62
ATOM     62  C   UNL A   1      43.801  33.137  31.064  1.00  0.00     0.058 A 
ATOM     63  C   UNL A   1      44.058  34.161  30.139  1.00  0.00     0.135 A 
ATOM     64  C   UNL A   1      43.645  33.498  32.412  1.00  0.00     0.135 A 
ATOM     65  F   UNL A   1      44.229  33.871  28.838  1.00  0.00    -0.206 F 
ATOM     66  C   UNL A   1      44.204  35.485  30.540  1.00  0.00     0.059 A 
ATOM     67  C   UNL A   1      43.758  34.820  32.833  1.00  0.00     0.059 A 
ATOM     68  F   UNL A   1      43.393  32.560  33.339  1.00  0.00    -0.206 F 
ATOM     69  C   UNL A   1      44.061  35.804  31.891  1.00  0.00     0.060 A 
BRANCH  69  70
ATOM     70  S   UNL A   1      44.283  37.520  32.403  1.00  0.00     0.124 S 
ATOM     71  O   UNL A   1      43.938  38.233  31.177  1.00  0.00    -0.237 OA
ATOM     72  O   UNL A   1      43.329  37.648  33.500  1.00  0.00    -0.237 OA
ATOM     73  O   UNL A   1      45.689  37.580  32.790  1.00  0.00    -0.744 OA
ENDBRANCH  69  70
ENDBRANCH  48  62
BRANCH  49  74
ATOM     74  C   UNL A   1      42.642  23.773  27.781  1.00  0.00     0.058 A 
ATOM     75  C   UNL A   1      42.539  22.657  28.625  1.00  0.00     0.135 A 
ATOM     76  C   UNL A   1      42.535  23.561  26.398  1.00  0.00     0.135 A 
ATOM     77  F   UNL A   1      42.643  22.809  29.953  1.00  0.00    -0.206 F 
ATOM     78  C   UNL A   1      42.338  21.378  28.117  1.00  0.00     0.059 A 
ATOM     79  C   UNL A   1      42.312  22.294  25.867  1.00  0.00     0.059 A 
ATOM     80  F   UNL A   1      42.610  24.599  25.552  1.00  0.00    -0.206 F 
ATOM     81  C   UNL A   1      42.220  21.207  26.736  1.00  0.00     0.060 A 
BRANCH  81  82
ATOM     82  S   UNL A   1      41.881  19.553  26.093  1.00  0.00     0.124 S 
ATOM     83  O   UNL A   1      42.739  19.514  24.914  1.00  0.00    -0.237 OA
ATOM     84  O   UNL A   1      42.288  18.701  27.206  1.00  0.00    -0.237 OA
ATOM     85  O   UNL A   1      40.445  19.583  25.831  1.00  0.00    -0.744 OA
ENDBRANCH  81  82
ENDBRANCH  49  74
BRANCH  61  86
ATOM     86  C   UNL A   1      48.110  27.424  30.147  1.00  0.00     0.058 A 
ATOM     87  C   UNL A   1      49.055  27.607  29.127  1.00  0.00     0.135 A 
ATOM     88  C   UNL A   1      48.571  26.995  31.403  1.00  0.00     0.135 A 
ATOM     89  F   UNL A   1      48.662  28.006  27.907  1.00  0.00    -0.206 F 
ATOM     90  C   UNL A   1      50.409  27.372  29.342  1.00  0.00     0.059 A 
ATOM     91  C   UNL A   1      49.923  26.775  31.646  1.00  0.00     0.059 A 
ATOM     92  F   UNL A   1      47.707  26.812  32.414  1.00  0.00    -0.206 F 
ATOM     93  C   UNL A   1      50.835  26.962  30.608  1.00  0.00     0.060 A 
BRANCH  93  94
ATOM     94  S   UNL A   1      52.601  26.726  30.895  1.00  0.00     0.124 S 
ATOM     95  O   UNL A   1      52.624  25.411  31.527  1.00  0.00    -0.237 OA
ATOM     96  O   UNL A   1      53.150  26.790  29.544  1.00  0.00    -0.237 OA
ATOM     97  O   UNL A   1      52.957  27.846  31.762  1.00  0.00    -0.744 OA
ENDBRANCH  93  94
ENDBRANCH  61  86
ENDBRANCH  35  36
ENDBRANCH  27  30
ENDBRANCH  25  26
ENDBRANCH  24  25
ENDBRANCH   1  24
TORSDOF 18
ENDMDL
MODEL 2
REMARK VINA RESULT:     -11.0      2.407      3.367
REMARK SMILES Cc1cccc(C[NH+]2CCC(OCC(=O)NCCCCNC(=O)c3ccc(-c4c5nc(c(-c6c(F)cc(S(=O)(=O)[O-])cc6F)c6ccc([nH]6)c(-c6c(F)cc(S(=O)(=O)[O-])cc6F)c6nc(c(-c7c(F)cc(S(=O)(=O)[O-])cc7F)c7ccc4[nH]7)C=C6)C=C5)cc3)CC2)n1
REMARK SMILES IDX 18 1 17 2 16 3 14 4 15 5 13 7 12 8 11 9 8 10 9 11 91 12
REMARK SMILES IDX 10 14 90 15 7 16 6 17 1 18 2 19 3 20 92 21 4 22 5 23 19 24
REMARK SMILES IDX 20 25 21 26 22 27 23 29 24 30 25 31 89 32 26 33 88 34 27 35
REMARK SMILES IDX 28 36 29 37 82 38 30 39 87 40 81 41 83 42 31 43 86 44 80 45
REMARK SMILES IDX 79 46 32 48 66 49 45 50 65 51 46 52 49 53 64 54 84 55 47 56
REMARK SMILES IDX 48 57 63 59 85 60 50 61 33 62 34 63 43 64 35 65 36 66 42 67
REMARK SMILES IDX 44 68 37 69 38 70 39 71 40 72 41 73 67 74 68 75 77 76 69 77
REMARK SMILES IDX 70 78 76 79 78 80 71 81 72 82 73 83 74 84 75 85 51 86 52 87
REMARK SMILES IDX 61 88 53 89 54 90 60 91 62 92 55 93 56 94 57 95 58 96 59 97
REMARK H PARENT 16 6 8 13 21 28 83 47 49 58
REMARK Flexibility Score: inf
ROOT
ATOM      1  C   UNL A   1      32.528  29.525  27.171  1.00  0.00     0.023 C 
ENDROOT
BRANCH   1   2
ATOM      2  C   UNL A   1      32.345  30.339  25.892  1.00  0.00     0.116 C 
BRANCH   2   3
ATOM      3  N   UNL A   1      32.870  29.702  24.701  1.00  0.00    -0.354 N 
ATOM      4  C   UNL A   1      32.201  28.955  23.773  1.00  0.00     0.246 C 
ATOM      5  O   UNL A   1      32.776  28.657  22.725  1.00  0.00    -0.272 OA
ATOM      6  H   UNL A   1      33.833  29.823  24.541  1.00  0.00     0.163 HD
BRANCH   4   7
ATOM      7  C   UNL A   1      30.752  28.525  24.041  1.00  0.00     0.260 C 
BRANCH   7   8
ATOM      8  O   UNL A   1      30.227  27.450  23.283  1.00  0.00    -0.368 OA
BRANCH   8   9
ATOM      9  C   UNL A   1      30.182  26.159  23.901  1.00  0.00     0.130 C 
ATOM     10  N   UNL A   1      31.202  23.813  25.261  1.00  0.00    -0.330 N 
ATOM     11  C   UNL A   1      30.845  23.723  23.843  1.00  0.00     0.265 C 
ATOM     12  C   UNL A   1      30.346  24.773  25.972  1.00  0.00     0.265 C 
ATOM     13  H   UNL A   1      32.159  24.163  25.286  1.00  0.00     0.348 HD
ATOM     14  C   UNL A   1      30.993  25.090  23.161  1.00  0.00     0.093 C 
ATOM     15  C   UNL A   1      30.533  26.163  25.387  1.00  0.00     0.093 C 
BRANCH  10  16
ATOM     16  C   UNL A   1      31.229  22.503  25.947  1.00  0.00     0.319 C 
BRANCH  16  17
ATOM     17  C   UNL A   1      32.340  21.542  25.552  1.00  0.00     0.095 A 
ATOM     18  C   UNL A   1      32.440  18.196  24.030  1.00  0.00     0.067 C 
ATOM     19  C   UNL A   1      32.925  19.472  24.647  1.00  0.00     0.038 A 
ATOM     20  C   UNL A   1      34.275  19.784  24.712  1.00  0.00     0.023 A 
ATOM     21  N   UNL A   1      31.971  20.326  25.075  1.00  0.00    -0.252 NA
ATOM     22  C   UNL A   1      34.652  21.017  25.238  1.00  0.00     0.004 A 
ATOM     23  C   UNL A   1      33.675  21.914  25.659  1.00  0.00     0.030 A 
ENDBRANCH  16  17
ENDBRANCH  10  16
ENDBRANCH   8   9
ENDBRANCH   7   8
ENDBRANCH   4   7
ENDBRANCH   2   3
ENDBRANCH   1   2
BRANCH   1  24
ATOM     24  C   UNL A   1      33.820  28.706  27.264  1.00  0.00     0.023 C 
BRANCH  24  25
ATOM     25  C   UNL A   1      35.104  29.510  27.435  1.00  0.00     0.116 C 
BRANCH  25  26
ATOM     26  N   UNL A   1      35.118  30.323  28.641  1.00  0.00    -0.352 N 
ATOM     27  C   UNL A   1      36.138  30.521  29.541  1.00  0.00     0.251 C 
ATOM     28  H   UNL A   1      34.279  30.797  28.841  1.00  0.00     0.163 HD
ATOM     29  O   UNL A   1      35.936  31.167  30.566  1.00  0.00    -0.269 OA
BRANCH  27  30
ATOM     30  C   UNL A   1      37.468  29.923  29.291  1.00  0.00     0.039 A 
ATOM     31  C   UNL A   1      37.958  29.888  27.982  1.00  0.00     0.014 A 
ATOM     32  C   UNL A   1      38.239  29.421  30.343  1.00  0.00     0.014 A 
ATOM     33  C   UNL A   1      39.253  29.425  27.737  1.00  0.00     0.010 A 
ATOM     34  C   UNL A   1      39.550  29.017  30.106  1.00  0.00     0.010 A 
ATOM     35  C   UNL A   1      40.074  29.024  28.802  1.00  0.00    -0.014 A 
BRANCH  35  36
ATOM     36  C   UNL A   1      41.490  28.628  28.593  1.00  0.00     0.031 A 
ATOM     37  C   UNL A   1      42.571  29.671  28.606  1.00  0.00     0.074 A 
ATOM     38  C   UNL A   1      41.787  27.349  28.285  1.00  0.00     0.049 A 
ATOM     39  N   UNL A   1      43.835  29.557  28.291  1.00  0.00    -0.248 NA
ATOM     40  C   UNL A   1      42.167  31.032  28.992  1.00  0.00     0.031 C 
ATOM     41  C   UNL A   1      40.820  26.253  28.198  1.00  0.00     0.029 A 
ATOM     42  N   UNL A   1      42.983  26.761  27.959  1.00  0.00    -0.354 N 
ATOM     43  C   UNL A   1      44.373  30.831  28.418  1.00  0.00     0.074 A 
ATOM     44  C   UNL A   1      43.288  31.711  28.799  1.00  0.00     0.031 C 
ATOM     45  C   UNL A   1      41.460  25.130  27.835  1.00  0.00     0.029 A 
ATOM     46  C   UNL A   1      42.872  25.432  27.628  1.00  0.00     0.049 A 
ATOM     47  H   UNL A   1      43.841  27.246  27.962  1.00  0.00     0.167 HD
ATOM     48  C   UNL A   1      45.657  31.229  28.246  1.00  0.00     0.037 A 
ATOM     49  C   UNL A   1      43.798  24.558  27.183  1.00  0.00     0.037 A 
ATOM     50  C   UNL A   1      46.734  30.344  27.890  1.00  0.00     0.049 A 
ATOM     51  C   UNL A   1      45.219  25.016  27.012  1.00  0.00     0.074 A 
ATOM     52  C   UNL A   1      48.079  30.638  27.748  1.00  0.00     0.029 A 
ATOM     53  N   UNL A   1      46.590  28.991  27.616  1.00  0.00    -0.354 N 
ATOM     54  N   UNL A   1      45.724  26.213  27.191  1.00  0.00    -0.248 NA
ATOM     55  C   UNL A   1      46.198  24.007  26.582  1.00  0.00     0.031 C 
ATOM     56  C   UNL A   1      48.743  29.470  27.356  1.00  0.00     0.029 A 
ATOM     57  C   UNL A   1      47.819  28.439  27.293  1.00  0.00     0.049 A 
ATOM     58  H   UNL A   1      45.739  28.496  27.647  1.00  0.00     0.167 HD
ATOM     59  C   UNL A   1      47.082  26.099  26.918  1.00  0.00     0.074 A 
ATOM     60  C   UNL A   1      47.322  24.713  26.567  1.00  0.00     0.031 C 
ATOM     61  C   UNL A   1      48.043  27.055  26.957  1.00  0.00     0.037 A 
BRANCH  48  62
ATOM     62  C   UNL A   1      45.956  32.690  28.439  1.00  0.00     0.058 A 
ATOM     63  C   UNL A   1      46.282  33.213  29.701  1.00  0.00     0.135 A 
ATOM     64  C   UNL A   1      45.919  33.578  27.352  1.00  0.00     0.135 A 
ATOM     65  F   UNL A   1      46.320  32.410  30.777  1.00  0.00    -0.206 F 
ATOM     66  C   UNL A   1      46.514  34.572  29.887  1.00  0.00     0.059 A 
ATOM     67  C   UNL A   1      46.175  34.937  27.510  1.00  0.00     0.059 A 
ATOM     68  F   UNL A   1      45.617  33.130  26.123  1.00  0.00    -0.206 F 
ATOM     69  C   UNL A   1      46.449  35.428  28.787  1.00  0.00     0.060 A 
BRANCH  69  70
ATOM     70  S   UNL A   1      46.721  37.192  29.047  1.00  0.00     0.124 S 
ATOM     71  O   UNL A   1      47.292  37.589  27.764  1.00  0.00    -0.237 OA
ATOM     72  O   UNL A   1      45.374  37.684  29.319  1.00  0.00    -0.237 OA
ATOM     73  O   UNL A   1      47.639  37.230  30.182  1.00  0.00    -0.744 OA
ENDBRANCH  69  70
ENDBRANCH  48  62
BRANCH  49  74
ATOM     74  C   UNL A   1      43.397  23.159  26.880  1.00  0.00     0.058 A 
ATOM     75  C   UNL A   1      43.372  22.687  25.560  1.00  0.00     0.135 A 
ATOM     76  C   UNL A   1      43.077  22.255  27.906  1.00  0.00     0.135 A 
ATOM     77  F   UNL A   1      43.662  23.516  24.546  1.00  0.00    -0.206 F 
ATOM     78  C   UNL A   1      43.043  21.368  25.265  1.00  0.00     0.059 A 
ATOM     79  C   UNL A   1      42.766  20.925  27.637  1.00  0.00     0.059 A 
ATOM     80  F   UNL A   1      43.104  22.655  29.186  1.00  0.00    -0.206 F 
ATOM     81  C   UNL A   1      42.747  20.492  26.312  1.00  0.00     0.060 A 
BRANCH  81  82
ATOM     82  S   UNL A   1      42.398  18.763  25.923  1.00  0.00     0.124 S 
ATOM     83  O   UNL A   1      40.954  18.794  25.714  1.00  0.00    -0.237 OA
ATOM     84  O   UNL A   1      43.210  18.545  24.731  1.00  0.00    -0.237 OA
ATOM     85  O   UNL A   1      42.850  18.054  27.116  1.00  0.00    -0.744 OA
ENDBRANCH  81  82
ENDBRANCH  49  74
BRANCH  61  86
ATOM     86  C   UNL A   1      49.452  26.639  26.645  1.00  0.00     0.058 A 
ATOM     87  C   UNL A   1      50.278  26.053  27.614  1.00  0.00     0.135 A 
ATOM     88  C   UNL A   1      49.950  26.751  25.336  1.00  0.00     0.135 A 
ATOM     89  F   UNL A   1      49.851  25.932  28.881  1.00  0.00    -0.206 F 
ATOM     90  C   UNL A   1      51.552  25.593  27.299  1.00  0.00     0.059 A 
ATOM     91  C   UNL A   1      51.213  26.279  24.994  1.00  0.00     0.059 A 
ATOM     92  F   UNL A   1      49.195  27.300  24.370  1.00  0.00    -0.206 F 
ATOM     93  C   UNL A   1      52.009  25.705  25.983  1.00  0.00     0.060 A 
BRANCH  93  94
ATOM     94  S   UNL A   1      53.637  25.043  25.570  1.00  0.00     0.124 S 
ATOM     95  O   UNL A   1      53.334  23.634  25.348  1.00  0.00    -0.237 OA
ATOM     96  O   UNL A   1      53.995  25.810  24.381  1.00  0.00    -0.237 OA
ATOM     97  O   UNL A   1      54.434  25.335  26.759  1.00  0.00    -0.744 OA
ENDBRANCH  93  94
ENDBRANCH  61  86
ENDBRANCH  35  36
ENDBRANCH  27  30
ENDBRANCH  25  26
ENDBRANCH  24  25
ENDBRANCH   1  24
TORSDOF 18
ENDMDL
MODEL 3
REMARK VINA RESULT:     -10.6      1.338      2.189
REMARK SMILES Cc1cccc(C[NH+]2CCC(OCC(=O)NCCCCNC(=O)c3ccc(-c4c5nc(c(-c6c(F)cc(S(=O)(=O)[O-])cc6F)c6ccc([nH]6)c(-c6c(F)cc(S(=O)(=O)[O-])cc6F)c6nc(c(-c7c(F)cc(S(=O)(=O)[O-])cc7F)c7ccc4[nH]7)C=C6)C=C5)cc3)CC2)n1
REMARK SMILES IDX 18 1 17 2 16 3 14 4 15 5 13 7 12 8 11 9 8 10 9 11 91 12
REMARK SMILES IDX 10 14 90 15 7 16 6 17 1 18 2 19 3 20 92 21 4 22 5 23 19 24
REMARK SMILES IDX 20 25 21 26 22 27 23 29 24 30 25 31 89 32 26 33 88 34 27 35
REMARK SMILES IDX 28 36 29 37 82 38 30 39 87 40 81 41 83 42 31 43 86 44 80 45
REMARK SMILES IDX 79 46 32 48 66 49 45 50 65 51 46 52 49 53 64 54 84 55 47 56
REMARK SMILES IDX 48 57 63 59 85 60 50 61 33 62 34 63 43 64 35 65 36 66 42 67
REMARK SMILES IDX 44 68 37 69 38 70 39 71 40 72 41 73 67 74 68 75 77 76 69 77
REMARK SMILES IDX 70 78 76 79 78 80 71 81 72 82 73 83 74 84 75 85 51 86 52 87
REMARK SMILES IDX 61 88 53 89 54 90 60 91 62 92 55 93 56 94 57 95 58 96 59 97
REMARK H PARENT 16 6 8 13 21 28 83 47 49 58
REMARK Flexibility Score: inf
ROOT
ATOM      1  C   UNL A   1      33.508  26.919  25.057  1.00  0.00     0.023 C 
ENDROOT
BRANCH   1   2
ATOM      2  C   UNL A   1      33.610  26.770  23.539  1.00  0.00     0.116 C 
BRANCH   2   3
ATOM      3  N   UNL A   1      32.626  27.534  22.800  1.00  0.00    -0.354 N 
ATOM      4  C   UNL A   1      31.269  27.376  22.779  1.00  0.00     0.246 C 
ATOM      5  O   UNL A   1      30.579  28.244  22.241  1.00  0.00    -0.272 OA
ATOM      6  H   UNL A   1      32.982  28.260  22.238  1.00  0.00     0.163 HD
BRANCH   4   7
ATOM      7  C   UNL A   1      30.634  26.146  23.441  1.00  0.00     0.260 C 
BRANCH   7   8
ATOM      8  O   UNL A   1      30.877  24.878  22.859  1.00  0.00    -0.368 OA
BRANCH   8   9
ATOM      9  C   UNL A   1      31.745  23.980  23.558  1.00  0.00     0.130 C 
ATOM     10  N   UNL A   1      32.874  21.432  24.352  1.00  0.00    -0.330 N 
ATOM     11  C   UNL A   1      32.015  22.160  25.289  1.00  0.00     0.265 C 
ATOM     12  C   UNL A   1      33.637  22.350  23.495  1.00  0.00     0.265 C 
ATOM     13  H   UNL A   1      32.244  20.894  23.758  1.00  0.00     0.348 HD
ATOM     14  C   UNL A   1      31.017  23.046  24.531  1.00  0.00     0.093 C 
ATOM     15  C   UNL A   1      32.684  23.184  22.655  1.00  0.00     0.093 C 
BRANCH  10  16
ATOM     16  C   UNL A   1      33.759  20.445  25.008  1.00  0.00     0.319 C 
BRANCH  16  17
ATOM     17  C   UNL A   1      33.772  19.039  24.427  1.00  0.00     0.095 A 
ATOM     18  C   UNL A   1      35.448  15.891  25.320  1.00  0.00     0.067 C 
ATOM     19  C   UNL A   1      34.590  16.858  24.564  1.00  0.00     0.038 A 
ATOM     20  C   UNL A   1      33.780  16.449  23.514  1.00  0.00     0.023 A 
ATOM     21  N   UNL A   1      34.602  18.134  25.004  1.00  0.00    -0.252 NA
ATOM     22  C   UNL A   1      32.958  17.389  22.898  1.00  0.00     0.004 A 
ATOM     23  C   UNL A   1      32.945  18.702  23.361  1.00  0.00     0.030 A 
ENDBRANCH  16  17
ENDBRANCH  10  16
ENDBRANCH   8   9
ENDBRANCH   7   8
ENDBRANCH   4   7
ENDBRANCH   2   3
ENDBRANCH   1   2
BRANCH   1  24
ATOM     24  C   UNL A   1      33.754  28.326  25.608  1.00  0.00     0.023 C 
BRANCH  24  25
ATOM     25  C   UNL A   1      33.554  28.495  27.110  1.00  0.00     0.116 C 
BRANCH  25  26
ATOM     26  N   UNL A   1      33.449  29.886  27.524  1.00  0.00    -0.352 N 
ATOM     27  C   UNL A   1      34.385  30.678  28.146  1.00  0.00     0.251 C 
ATOM     28  H   UNL A   1      32.586  30.320  27.333  1.00  0.00     0.163 HD
ATOM     29  O   UNL A   1      34.083  31.810  28.515  1.00  0.00    -0.269 OA
BRANCH  27  30
ATOM     30  C   UNL A   1      35.743  30.151  28.403  1.00  0.00     0.039 A 
ATOM     31  C   UNL A   1      36.684  30.176  27.370  1.00  0.00     0.014 A 
ATOM     32  C   UNL A   1      36.095  29.656  29.662  1.00  0.00     0.014 A 
ATOM     33  C   UNL A   1      38.001  29.782  27.620  1.00  0.00     0.010 A 
ATOM     34  C   UNL A   1      37.420  29.321  29.926  1.00  0.00     0.010 A 
ATOM     35  C   UNL A   1      38.389  29.390  28.911  1.00  0.00    -0.014 A 
BRANCH  35  36
ATOM     36  C   UNL A   1      39.801  29.067  29.240  1.00  0.00     0.031 A 
ATOM     37  C   UNL A   1      40.709  30.136  29.777  1.00  0.00     0.074 A 
ATOM     38  C   UNL A   1      40.290  27.844  28.953  1.00  0.00     0.049 A 
ATOM     39  N   UNL A   1      42.001  30.101  29.977  1.00  0.00    -0.248 NA
ATOM     40  C   UNL A   1      40.085  31.428  30.102  1.00  0.00     0.031 C 
ATOM     41  C   UNL A   1      39.519  26.736  28.386  1.00  0.00     0.029 A 
ATOM     42  N   UNL A   1      41.561  27.338  29.070  1.00  0.00    -0.354 N 
ATOM     43  C   UNL A   1      42.349  31.368  30.427  1.00  0.00     0.074 A 
ATOM     44  C   UNL A   1      41.138  32.161  30.432  1.00  0.00     0.031 C 
ATOM     45  C   UNL A   1      40.333  25.685  28.200  1.00  0.00     0.029 A 
ATOM     46  C   UNL A   1      41.688  26.054  28.596  1.00  0.00     0.049 A 
ATOM     47  H   UNL A   1      42.310  27.847  29.457  1.00  0.00     0.167 HD
ATOM     48  C   UNL A   1      43.565  31.824  30.814  1.00  0.00     0.037 A 
ATOM     49  C   UNL A   1      42.777  25.270  28.471  1.00  0.00     0.037 A 
ATOM     50  C   UNL A   1      44.760  31.023  30.829  1.00  0.00     0.049 A 
ATOM     51  C   UNL A   1      44.114  25.790  28.918  1.00  0.00     0.074 A 
ATOM     52  C   UNL A   1      46.028  31.375  31.257  1.00  0.00     0.029 A 
ATOM     53  N   UNL A   1      44.836  29.708  30.392  1.00  0.00    -0.354 N 
ATOM     54  N   UNL A   1      44.417  26.974  29.395  1.00  0.00    -0.248 NA
ATOM     55  C   UNL A   1      45.257  24.871  28.814  1.00  0.00     0.031 C 
ATOM     56  C   UNL A   1      46.878  30.284  31.049  1.00  0.00     0.029 A 
ATOM     57  C   UNL A   1      46.133  29.238  30.528  1.00  0.00     0.049 A 
ATOM     58  H   UNL A   1      44.080  29.186  30.037  1.00  0.00     0.167 HD
ATOM     59  C   UNL A   1      45.779  26.936  29.671  1.00  0.00     0.074 A 
ATOM     60  C   UNL A   1      46.241  25.610  29.311  1.00  0.00     0.031 C 
ATOM     61  C   UNL A   1      46.574  27.911  30.176  1.00  0.00     0.037 A 
BRANCH  48  62
ATOM     62  C   UNL A   1      43.654  33.261  31.249  1.00  0.00     0.058 A 
ATOM     63  C   UNL A   1      43.897  34.294  30.330  1.00  0.00     0.135 A 
ATOM     64  C   UNL A   1      43.492  33.612  32.599  1.00  0.00     0.135 A 
ATOM     65  F   UNL A   1      44.073  34.013  29.028  1.00  0.00    -0.206 F 
ATOM     66  C   UNL A   1      44.025  35.617  30.739  1.00  0.00     0.059 A 
ATOM     67  C   UNL A   1      43.587  34.933  33.027  1.00  0.00     0.059 A 
ATOM     68  F   UNL A   1      43.252  32.665  33.520  1.00  0.00    -0.206 F 
ATOM     69  C   UNL A   1      43.877  35.926  32.091  1.00  0.00     0.060 A 
BRANCH  69  70
ATOM     70  S   UNL A   1      44.075  37.642  32.613  1.00  0.00     0.124 S 
ATOM     71  O   UNL A   1      45.453  37.640  33.096  1.00  0.00    -0.237 OA
ATOM     72  O   UNL A   1      43.840  38.378  31.375  1.00  0.00    -0.237 OA
ATOM     73  O   UNL A   1      43.050  37.805  33.639  1.00  0.00    -0.744 OA
ENDBRANCH  69  70
ENDBRANCH  48  62
BRANCH  49  74
ATOM     74  C   UNL A   1      42.633  23.904  27.902  1.00  0.00     0.058 A 
ATOM     75  C   UNL A   1      42.573  22.778  28.736  1.00  0.00     0.135 A 
ATOM     76  C   UNL A   1      42.505  23.701  26.518  1.00  0.00     0.135 A 
ATOM     77  F   UNL A   1      42.698  22.921  30.064  1.00  0.00    -0.206 F 
ATOM     78  C   UNL A   1      42.393  21.499  28.220  1.00  0.00     0.059 A 
ATOM     79  C   UNL A   1      42.303  22.434  25.980  1.00  0.00     0.059 A 
ATOM     80  F   UNL A   1      42.539  24.748  25.681  1.00  0.00    -0.206 F 
ATOM     81  C   UNL A   1      42.253  21.337  26.841  1.00  0.00     0.060 A 
BRANCH  81  82
ATOM     82  S   UNL A   1      41.942  19.681  26.189  1.00  0.00     0.124 S 
ATOM     83  O   UNL A   1      42.417  18.841  27.282  1.00  0.00    -0.237 OA
ATOM     84  O   UNL A   1      40.497  19.699  25.980  1.00  0.00    -0.237 OA
ATOM     85  O   UNL A   1      42.742  19.646  24.969  1.00  0.00    -0.744 OA
ENDBRANCH  81  82
ENDBRANCH  49  74
BRANCH  61  86
ATOM     86  C   UNL A   1      48.021  27.582  30.406  1.00  0.00     0.058 A 
ATOM     87  C   UNL A   1      48.477  27.090  31.638  1.00  0.00     0.135 A 
ATOM     88  C   UNL A   1      48.946  27.677  29.353  1.00  0.00     0.135 A 
ATOM     89  F   UNL A   1      47.634  26.989  32.678  1.00  0.00    -0.206 F 
ATOM     90  C   UNL A   1      49.801  26.707  31.821  1.00  0.00     0.059 A 
ATOM     91  C   UNL A   1      50.270  27.280  29.507  1.00  0.00     0.059 A 
ATOM     92  F   UNL A   1      48.557  28.135  28.152  1.00  0.00    -0.206 F 
ATOM     93  C   UNL A   1      50.690  26.800  30.747  1.00  0.00     0.060 A 
BRANCH  93  94
ATOM     94  S   UNL A   1      52.390  26.235  30.975  1.00  0.00     0.124 S 
ATOM     95  O   UNL A   1      52.877  26.207  29.600  1.00  0.00    -0.237 OA
ATOM     96  O   UNL A   1      52.954  27.277  31.828  1.00  0.00    -0.237 OA
ATOM     97  O   UNL A   1      52.232  24.931  31.613  1.00  0.00    -0.744 OA
ENDBRANCH  93  94
ENDBRANCH  61  86
ENDBRANCH  35  36
ENDBRANCH  27  30
ENDBRANCH  25  26
ENDBRANCH  24  25
ENDBRANCH   1  24
TORSDOF 18
ENDMDL
