MODEL 1
REMARK VINA RESULT:     -13.3      0.000      0.000
REMARK SMILES COc1ccc2c(c1)c(CC(=O)NCCCCNC(=O)c1ccc(-c3c4nc(c(-c5c(F)cc(S(=O)(=O)[O-])cc5F)c5ccc([nH]5)c(-c5c(F)cc(S(=O)(=O)[O-])cc5F)c5nc(c(-c6c(F)cc(S(=O)(=O)[O-])cc6F)c6ccc3[nH]6)C=C5)C=C4)cc1)c(C(F)(F)F)n2C(=O)c1ccc(Cl)cc1
REMARK SMILES IDX 15 1 14 2 13 3 11 4 12 5 10 7 9 8 3 9 4 10 8 11 5 12 7 13
REMARK SMILES IDX 6 14 92 15 87 16 2 17 1 18 93 19 94 20 95 21 96 22 101 23
REMARK SMILES IDX 97 24 100 25 98 26 99 27 88 28 89 29 90 30 91 31 16 32 17 33
REMARK SMILES IDX 18 34 19 35 20 37 21 38 22 39 86 40 23 41 85 42 24 43 25 44
REMARK SMILES IDX 26 45 79 46 27 47 84 48 78 49 80 50 28 51 83 52 77 53 76 54
REMARK SMILES IDX 29 56 63 57 42 58 62 59 43 60 46 61 61 62 81 63 44 64 45 65
REMARK SMILES IDX 60 67 82 68 47 69 30 70 31 71 40 72 32 73 33 74 39 75 41 76
REMARK SMILES IDX 34 77 35 78 36 79 37 80 38 81 64 82 65 83 74 84 66 85 67 86
REMARK SMILES IDX 73 87 75 88 68 89 69 90 70 91 71 92 72 93 48 94 49 95 58 96
REMARK SMILES IDX 50 97 51 98 57 99 59 100 52 101 53 102 54 103 55 104 56 105
REMARK H PARENT 13 6 18 36 80 55 46 66
REMARK Flexibility Score: inf
ROOT
ATOM      1  C   UNL A   1      31.663  28.701  27.521  1.00  0.00     0.023 C 
ENDROOT
BRANCH   1   2
ATOM      2  C   UNL A   1      31.358  27.644  26.462  1.00  0.00     0.116 C 
BRANCH   2   3
ATOM      3  N   UNL A   1      32.324  27.657  25.381  1.00  0.00    -0.356 N 
ATOM      4  C   UNL A   1      33.285  26.731  25.088  1.00  0.00     0.224 C 
ATOM      5  O   UNL A   1      33.975  26.895  24.080  1.00  0.00    -0.275 OA
ATOM      6  H   UNL A   1      32.281  28.435  24.779  1.00  0.00     0.163 HD
BRANCH   4   7
ATOM      7  C   UNL A   1      33.444  25.499  25.968  1.00  0.00     0.138 C 
BRANCH   7   8
ATOM      8  C   UNL A   1      33.751  24.247  25.192  1.00  0.00     0.000 A 
ATOM      9  C   UNL A   1      37.327  22.953  25.563  1.00  0.00     0.119 A 
ATOM     10  C   UNL A   1      37.197  21.903  24.665  1.00  0.00     0.048 A 
ATOM     11  C   UNL A   1      36.228  23.771  25.829  1.00  0.00     0.057 A 
ATOM     12  C   UNL A   1      35.978  21.652  24.024  1.00  0.00     0.031 A 
ATOM     13  C   UNL A   1      34.990  23.547  25.186  1.00  0.00     0.008 A 
ATOM     14  C   UNL A   1      34.861  22.459  24.315  1.00  0.00     0.057 A 
ATOM     15  N   UNL A   1      33.514  22.383  23.942  1.00  0.00    -0.271 N 
ATOM     16  C   UNL A   1      32.921  23.600  24.281  1.00  0.00     0.135 A 
BRANCH   9  17
ATOM     17  O   UNL A   1      38.465  23.278  26.248  1.00  0.00    -0.497 OA
ATOM     18  C   UNL A   1      39.433  22.244  26.381  1.00  0.00     0.278 C 
ENDBRANCH   9  17
BRANCH  15  19
ATOM     19  C   UNL A   1      32.843  21.276  23.351  1.00  0.00     0.262 C 
ATOM     20  O   UNL A   1      32.330  21.432  22.254  1.00  0.00    -0.268 OA
BRANCH  19  21
ATOM     21  C   UNL A   1      32.708  19.944  23.965  1.00  0.00     0.040 A 
ATOM     22  C   UNL A   1      32.758  19.784  25.354  1.00  0.00     0.015 A 
ATOM     23  C   UNL A   1      32.564  18.841  23.117  1.00  0.00     0.015 A 
ATOM     24  C   UNL A   1      32.738  18.494  25.892  1.00  0.00     0.021 A 
ATOM     25  C   UNL A   1      32.538  17.558  23.662  1.00  0.00     0.021 A 
ATOM     26  C   UNL A   1      32.642  17.388  25.044  1.00  0.00     0.041 A 
ATOM     27  Cl  UNL A   1      32.673  15.798  25.697  1.00  0.00    -0.084 Cl
ENDBRANCH  19  21
ENDBRANCH  15  19
BRANCH  16  28
ATOM     28  C   UNL A   1      31.597  24.023  23.744  1.00  0.00     0.432 C 
ATOM     29  F   UNL A   1      31.701  24.667  22.558  1.00  0.00    -0.165 F 
ATOM     30  F   UNL A   1      30.812  22.933  23.507  1.00  0.00    -0.165 F 
ATOM     31  F   UNL A   1      30.880  24.787  24.602  1.00  0.00    -0.165 F 
ENDBRANCH  16  28
ENDBRANCH   7   8
ENDBRANCH   4   7
ENDBRANCH   2   3
ENDBRANCH   1   2
BRANCH   1  32
ATOM     32  C   UNL A   1      32.014  30.087  26.963  1.00  0.00     0.023 C 
BRANCH  32  33
ATOM     33  C   UNL A   1      33.483  30.493  27.112  1.00  0.00     0.116 C 
BRANCH  33  34
ATOM     34  N   UNL A   1      33.710  31.471  28.158  1.00  0.00    -0.352 N 
ATOM     35  C   UNL A   1      34.775  31.825  28.938  1.00  0.00     0.251 C 
ATOM     36  H   UNL A   1      32.907  32.006  28.351  1.00  0.00     0.163 HD
ATOM     37  O   UNL A   1      34.596  32.802  29.671  1.00  0.00    -0.269 OA
BRANCH  35  38
ATOM     38  C   UNL A   1      36.089  31.126  28.978  1.00  0.00     0.039 A 
ATOM     39  C   UNL A   1      36.274  29.745  28.918  1.00  0.00     0.014 A 
ATOM     40  C   UNL A   1      37.226  31.944  29.132  1.00  0.00     0.014 A 
ATOM     41  C   UNL A   1      37.546  29.193  29.049  1.00  0.00     0.010 A 
ATOM     42  C   UNL A   1      38.502  31.397  29.255  1.00  0.00     0.010 A 
ATOM     43  C   UNL A   1      38.657  30.015  29.241  1.00  0.00    -0.014 A 
BRANCH  43  44
ATOM     44  C   UNL A   1      39.957  29.359  29.379  1.00  0.00     0.031 A 
ATOM     45  C   UNL A   1      40.431  29.126  30.772  1.00  0.00     0.074 A 
ATOM     46  C   UNL A   1      40.681  28.898  28.341  1.00  0.00     0.049 A 
ATOM     47  N   UNL A   1      41.478  29.615  31.355  1.00  0.00    -0.248 NA
ATOM     48  C   UNL A   1      39.594  28.289  31.644  1.00  0.00     0.031 C 
ATOM     49  C   UNL A   1      40.242  28.757  26.950  1.00  0.00     0.029 A 
ATOM     50  N   UNL A   1      41.938  28.359  28.333  1.00  0.00    -0.354 N 
ATOM     51  C   UNL A   1      41.543  28.996  32.601  1.00  0.00     0.074 A 
ATOM     52  C   UNL A   1      40.300  28.290  32.776  1.00  0.00     0.031 C 
ATOM     53  C   UNL A   1      41.123  27.975  26.289  1.00  0.00     0.029 A 
ATOM     54  C   UNL A   1      42.249  27.686  27.162  1.00  0.00     0.049 A 
ATOM     55  H   UNL A   1      42.565  28.442  29.088  1.00  0.00     0.167 HD
ATOM     56  C   UNL A   1      42.701  28.923  33.313  1.00  0.00     0.037 A 
ATOM     57  C   UNL A   1      43.321  26.889  26.940  1.00  0.00     0.037 A 
ATOM     58  C   UNL A   1      43.717  29.798  32.799  1.00  0.00     0.049 A 
ATOM     59  C   UNL A   1      44.410  27.301  27.861  1.00  0.00     0.074 A 
ATOM     60  C   UNL A   1      44.004  31.144  32.848  1.00  0.00     0.029 A 
ATOM     61  N   UNL A   1      44.506  29.249  31.827  1.00  0.00    -0.354 N 
ATOM     62  N   UNL A   1      45.002  28.464  27.819  1.00  0.00    -0.248 NA
ATOM     63  C   UNL A   1      44.717  26.492  29.037  1.00  0.00     0.031 C 
ATOM     64  C   UNL A   1      44.836  31.415  31.722  1.00  0.00     0.029 A 
ATOM     65  C   UNL A   1      45.027  30.227  31.020  1.00  0.00     0.049 A 
ATOM     66  H   UNL A   1      44.677  28.284  31.723  1.00  0.00     0.167 HD
ATOM     67  C   UNL A   1      45.405  28.694  29.120  1.00  0.00     0.074 A 
ATOM     68  C   UNL A   1      45.378  27.392  29.767  1.00  0.00     0.031 C 
ATOM     69  C   UNL A   1      45.397  29.949  29.647  1.00  0.00     0.037 A 
BRANCH  56  70
ATOM     70  C   UNL A   1      43.065  27.777  34.227  1.00  0.00     0.058 A 
ATOM     71  C   UNL A   1      43.216  27.998  35.612  1.00  0.00     0.135 A 
ATOM     72  C   UNL A   1      43.561  26.546  33.745  1.00  0.00     0.135 A 
ATOM     73  F   UNL A   1      42.803  29.150  36.167  1.00  0.00    -0.206 F 
ATOM     74  C   UNL A   1      43.847  27.077  36.449  1.00  0.00     0.059 A 
ATOM     75  C   UNL A   1      44.149  25.593  34.571  1.00  0.00     0.059 A 
ATOM     76  F   UNL A   1      43.584  26.264  32.436  1.00  0.00    -0.206 F 
ATOM     77  C   UNL A   1      44.321  25.881  35.916  1.00  0.00     0.060 A 
BRANCH  77  78
ATOM     78  S   UNL A   1      45.217  24.729  36.976  1.00  0.00     0.124 S 
ATOM     79  O   UNL A   1      46.602  25.083  36.688  1.00  0.00    -0.237 OA
ATOM     80  O   UNL A   1      44.726  25.091  38.302  1.00  0.00    -0.237 OA
ATOM     81  O   UNL A   1      44.783  23.422  36.492  1.00  0.00    -0.744 OA
ENDBRANCH  77  78
ENDBRANCH  56  70
BRANCH  57  82
ATOM     82  C   UNL A   1      43.347  25.602  26.198  1.00  0.00     0.058 A 
ATOM     83  C   UNL A   1      44.347  25.351  25.239  1.00  0.00     0.135 A 
ATOM     84  C   UNL A   1      42.594  24.487  26.620  1.00  0.00     0.135 A 
ATOM     85  F   UNL A   1      45.112  26.354  24.782  1.00  0.00    -0.206 F 
ATOM     86  C   UNL A   1      44.646  24.060  24.800  1.00  0.00     0.059 A 
ATOM     87  C   UNL A   1      42.860  23.194  26.178  1.00  0.00     0.059 A 
ATOM     88  F   UNL A   1      41.640  24.601  27.554  1.00  0.00    -0.206 F 
ATOM     89  C   UNL A   1      43.917  22.984  25.301  1.00  0.00     0.060 A 
BRANCH  89  90
ATOM     90  S   UNL A   1      44.452  21.301  24.920  1.00  0.00     0.124 S 
ATOM     91  O   UNL A   1      43.370  20.506  25.488  1.00  0.00    -0.237 OA
ATOM     92  O   UNL A   1      44.528  21.329  23.464  1.00  0.00    -0.237 OA
ATOM     93  O   UNL A   1      45.737  21.191  25.607  1.00  0.00    -0.744 OA
ENDBRANCH  89  90
ENDBRANCH  57  82
BRANCH  69  94
ATOM     94  C   UNL A   1      45.576  31.102  28.704  1.00  0.00     0.058 A 
ATOM     95  C   UNL A   1      46.815  31.567  28.235  1.00  0.00     0.135 A 
ATOM     96  C   UNL A   1      44.422  31.726  28.203  1.00  0.00     0.135 A 
ATOM     97  F   UNL A   1      47.958  30.968  28.597  1.00  0.00    -0.206 F 
ATOM     98  C   UNL A   1      46.902  32.635  27.341  1.00  0.00     0.059 A 
ATOM     99  C   UNL A   1      44.485  32.771  27.286  1.00  0.00     0.059 A 
ATOM    100  F   UNL A   1      43.207  31.293  28.577  1.00  0.00    -0.206 F 
ATOM    101  C   UNL A   1      45.732  33.231  26.871  1.00  0.00     0.060 A 
BRANCH 101 102
ATOM    102  S   UNL A   1      45.850  34.568  25.663  1.00  0.00     0.124 S 
ATOM    103  O   UNL A   1      45.378  35.717  26.428  1.00  0.00    -0.237 OA
ATOM    104  O   UNL A   1      47.273  34.570  25.331  1.00  0.00    -0.237 OA
ATOM    105  O   UNL A   1      44.969  34.132  24.582  1.00  0.00    -0.744 OA
ENDBRANCH 101 102
ENDBRANCH  69  94
ENDBRANCH  43  44
ENDBRANCH  35  38
ENDBRANCH  33  34
ENDBRANCH  32  33
ENDBRANCH   1  32
TORSDOF 19
ENDMDL
MODEL 2
REMARK VINA RESULT:     -13.1      1.425      2.292
REMARK SMILES COc1ccc2c(c1)c(CC(=O)NCCCCNC(=O)c1ccc(-c3c4nc(c(-c5c(F)cc(S(=O)(=O)[O-])cc5F)c5ccc([nH]5)c(-c5c(F)cc(S(=O)(=O)[O-])cc5F)c5nc(c(-c6c(F)cc(S(=O)(=O)[O-])cc6F)c6ccc3[nH]6)C=C5)C=C4)cc1)c(C(F)(F)F)n2C(=O)c1ccc(Cl)cc1
REMARK SMILES IDX 15 1 14 2 13 3 11 4 12 5 10 7 9 8 3 9 4 10 8 11 5 12 7 13
REMARK SMILES IDX 6 14 92 15 87 16 2 17 1 18 93 19 94 20 95 21 96 22 101 23
REMARK SMILES IDX 97 24 100 25 98 26 99 27 88 28 89 29 90 30 91 31 16 32 17 33
REMARK SMILES IDX 18 34 19 35 20 37 21 38 22 39 86 40 23 41 85 42 24 43 25 44
REMARK SMILES IDX 26 45 79 46 27 47 84 48 78 49 80 50 28 51 83 52 77 53 76 54
REMARK SMILES IDX 29 56 63 57 42 58 62 59 43 60 46 61 61 62 81 63 44 64 45 65
REMARK SMILES IDX 60 67 82 68 47 69 30 70 31 71 40 72 32 73 33 74 39 75 41 76
REMARK SMILES IDX 34 77 35 78 36 79 37 80 38 81 64 82 65 83 74 84 66 85 67 86
REMARK SMILES IDX 73 87 75 88 68 89 69 90 70 91 71 92 72 93 48 94 49 95 58 96
REMARK SMILES IDX 50 97 51 98 57 99 59 100 52 101 53 102 54 103 55 104 56 105
REMARK H PARENT 13 6 18 36 80 55 46 66
REMARK Flexibility Score: inf
ROOT
ATOM      1  C   UNL A   1      32.126  28.318  27.560  1.00  0.00     0.023 C 
ENDROOT
BRANCH   1   2
ATOM      2  C   UNL A   1      32.240  27.322  26.408  1.00  0.00     0.116 C 
BRANCH   2   3
ATOM      3  N   UNL A   1      31.629  27.819  25.192  1.00  0.00    -0.356 N 
ATOM      4  C   UNL A   1      30.671  27.228  24.418  1.00  0.00     0.224 C 
ATOM      5  O   UNL A   1      30.233  27.845  23.446  1.00  0.00    -0.275 OA
ATOM      6  H   UNL A   1      31.947  28.698  24.882  1.00  0.00     0.163 HD
BRANCH   4   7
ATOM      7  C   UNL A   1      30.125  25.859  24.801  1.00  0.00     0.138 C 
BRANCH   7   8
ATOM      8  C   UNL A   1      31.074  24.732  24.501  1.00  0.00     0.000 A 
ATOM      9  C   UNL A   1      32.832  24.958  21.116  1.00  0.00     0.119 A 
ATOM     10  C   UNL A   1      33.499  23.745  21.216  1.00  0.00     0.048 A 
ATOM     11  C   UNL A   1      32.025  25.388  22.171  1.00  0.00     0.057 A 
ATOM     12  C   UNL A   1      33.377  22.949  22.361  1.00  0.00     0.031 A 
ATOM     13  C   UNL A   1      31.874  24.598  23.332  1.00  0.00     0.008 A 
ATOM     14  C   UNL A   1      32.586  23.398  23.437  1.00  0.00     0.057 A 
ATOM     15  N   UNL A   1      32.373  22.900  24.729  1.00  0.00    -0.271 N 
ATOM     16  C   UNL A   1      31.277  23.582  25.259  1.00  0.00     0.135 A 
BRANCH   9  17
ATOM     17  O   UNL A   1      32.892  25.814  20.051  1.00  0.00    -0.497 OA
ATOM     18  C   UNL A   1      32.115  25.454  18.915  1.00  0.00     0.278 C 
ENDBRANCH   9  17
BRANCH  15  19
ATOM     19  C   UNL A   1      33.132  21.906  25.407  1.00  0.00     0.262 C 
ATOM     20  O   UNL A   1      33.648  22.202  26.473  1.00  0.00    -0.268 OA
BRANCH  19  21
ATOM     21  C   UNL A   1      33.356  20.535  24.917  1.00  0.00     0.040 A 
ATOM     22  C   UNL A   1      32.292  19.752  24.457  1.00  0.00     0.015 A 
ATOM     23  C   UNL A   1      34.659  20.027  24.958  1.00  0.00     0.015 A 
ATOM     24  C   UNL A   1      32.528  18.420  24.105  1.00  0.00     0.021 A 
ATOM     25  C   UNL A   1      34.888  18.699  24.599  1.00  0.00     0.021 A 
ATOM     26  C   UNL A   1      33.821  17.896  24.191  1.00  0.00     0.041 A 
ATOM     27  Cl  UNL A   1      34.106  16.243  23.813  1.00  0.00    -0.084 Cl
ENDBRANCH  19  21
ENDBRANCH  15  19
BRANCH  16  28
ATOM     28  C   UNL A   1      30.546  23.105  26.467  1.00  0.00     0.432 C 
ATOM     29  F   UNL A   1      29.479  23.883  26.767  1.00  0.00    -0.165 F 
ATOM     30  F   UNL A   1      30.045  21.854  26.253  1.00  0.00    -0.165 F 
ATOM     31  F   UNL A   1      31.329  22.984  27.565  1.00  0.00    -0.165 F 
ENDBRANCH  16  28
ENDBRANCH   7   8
ENDBRANCH   4   7
ENDBRANCH   2   3
ENDBRANCH   1   2
BRANCH   1  32
ATOM     32  C   UNL A   1      32.120  29.793  27.136  1.00  0.00     0.023 C 
BRANCH  32  33
ATOM     33  C   UNL A   1      33.501  30.453  27.065  1.00  0.00     0.116 C 
BRANCH  33  34
ATOM     34  N   UNL A   1      33.726  31.438  28.105  1.00  0.00    -0.352 N 
ATOM     35  C   UNL A   1      34.789  31.796  28.885  1.00  0.00     0.251 C 
ATOM     36  H   UNL A   1      32.922  31.975  28.292  1.00  0.00     0.163 HD
ATOM     37  O   UNL A   1      34.608  32.779  29.611  1.00  0.00    -0.269 OA
BRANCH  35  38
ATOM     38  C   UNL A   1      36.101  31.096  28.934  1.00  0.00     0.039 A 
ATOM     39  C   UNL A   1      36.284  29.713  28.906  1.00  0.00     0.014 A 
ATOM     40  C   UNL A   1      37.241  31.915  29.063  1.00  0.00     0.014 A 
ATOM     41  C   UNL A   1      37.555  29.162  29.042  1.00  0.00     0.010 A 
ATOM     42  C   UNL A   1      38.517  31.369  29.191  1.00  0.00     0.010 A 
ATOM     43  C   UNL A   1      38.669  29.987  29.209  1.00  0.00    -0.014 A 
BRANCH  43  44
ATOM     44  C   UNL A   1      39.969  29.332  29.355  1.00  0.00     0.031 A 
ATOM     45  C   UNL A   1      40.432  29.094  30.750  1.00  0.00     0.074 A 
ATOM     46  C   UNL A   1      40.702  28.876  28.321  1.00  0.00     0.049 A 
ATOM     47  N   UNL A   1      41.473  29.583  31.343  1.00  0.00    -0.248 NA
ATOM     48  C   UNL A   1      39.589  28.253  31.612  1.00  0.00     0.031 C 
ATOM     49  C   UNL A   1      40.274  28.739  26.926  1.00  0.00     0.029 A 
ATOM     50  N   UNL A   1      41.960  28.339  28.320  1.00  0.00    -0.354 N 
ATOM     51  C   UNL A   1      41.530  28.959  32.587  1.00  0.00     0.074 A 
ATOM     52  C   UNL A   1      40.286  28.251  32.750  1.00  0.00     0.031 C 
ATOM     53  C   UNL A   1      41.161  27.960  26.269  1.00  0.00     0.029 A 
ATOM     54  C   UNL A   1      42.280  27.669  27.149  1.00  0.00     0.049 A 
ATOM     55  H   UNL A   1      42.580  28.420  29.081  1.00  0.00     0.167 HD
ATOM     56  C   UNL A   1      42.682  28.886  33.309  1.00  0.00     0.037 A 
ATOM     57  C   UNL A   1      43.355  26.875  26.933  1.00  0.00     0.037 A 
ATOM     58  C   UNL A   1      43.701  29.763  32.806  1.00  0.00     0.049 A 
ATOM     59  C   UNL A   1      44.437  27.285  27.864  1.00  0.00     0.074 A 
ATOM     60  C   UNL A   1      43.986  31.109  32.862  1.00  0.00     0.029 A 
ATOM     61  N   UNL A   1      44.499  29.219  31.838  1.00  0.00    -0.354 N 
ATOM     62  N   UNL A   1      45.027  28.449  27.832  1.00  0.00    -0.248 NA
ATOM     63  C   UNL A   1      44.735  26.472  29.040  1.00  0.00     0.031 C 
ATOM     64  C   UNL A   1      44.826  31.386  31.743  1.00  0.00     0.029 A 
ATOM     65  C   UNL A   1      45.024  30.200  31.039  1.00  0.00     0.049 A 
ATOM     66  H   UNL A   1      44.672  28.254  31.732  1.00  0.00     0.167 HD
ATOM     67  C   UNL A   1      45.420  28.674  29.136  1.00  0.00     0.074 A 
ATOM     68  C   UNL A   1      45.389  27.370  29.778  1.00  0.00     0.031 C 
ATOM     69  C   UNL A   1      45.406  29.928  29.668  1.00  0.00     0.037 A 
BRANCH  56  70
ATOM     70  C   UNL A   1      43.040  27.736  34.221  1.00  0.00     0.058 A 
ATOM     71  C   UNL A   1      43.178  27.952  35.608  1.00  0.00     0.135 A 
ATOM     72  C   UNL A   1      43.544  26.508  33.739  1.00  0.00     0.135 A 
ATOM     73  F   UNL A   1      42.758  29.100  36.164  1.00  0.00    -0.206 F 
ATOM     74  C   UNL A   1      43.804  27.029  36.448  1.00  0.00     0.059 A 
ATOM     75  C   UNL A   1      44.126  25.553  34.566  1.00  0.00     0.059 A 
ATOM     76  F   UNL A   1      43.580  26.231  32.429  1.00  0.00    -0.206 F 
ATOM     77  C   UNL A   1      44.285  25.836  35.914  1.00  0.00     0.060 A 
BRANCH  77  78
ATOM     78  S   UNL A   1      45.174  24.683  36.978  1.00  0.00     0.124 S 
ATOM     79  O   UNL A   1      44.856  23.404  36.353  1.00  0.00    -0.237 OA
ATOM     80  O   UNL A   1      46.554  25.138  36.837  1.00  0.00    -0.237 OA
ATOM     81  O   UNL A   1      44.578  24.911  38.291  1.00  0.00    -0.744 OA
ENDBRANCH  77  78
ENDBRANCH  56  70
BRANCH  57  82
ATOM     82  C   UNL A   1      43.389  25.590  26.186  1.00  0.00     0.058 A 
ATOM     83  C   UNL A   1      44.398  25.344  25.237  1.00  0.00     0.135 A 
ATOM     84  C   UNL A   1      42.633  24.474  26.597  1.00  0.00     0.135 A 
ATOM     85  F   UNL A   1      45.167  26.348  24.791  1.00  0.00    -0.206 F 
ATOM     86  C   UNL A   1      44.702  24.055  24.796  1.00  0.00     0.059 A 
ATOM     87  C   UNL A   1      42.903  23.183  26.153  1.00  0.00     0.059 A 
ATOM     88  F   UNL A   1      41.669  24.584  27.522  1.00  0.00    -0.206 F 
ATOM     89  C   UNL A   1      43.968  22.976  25.285  1.00  0.00     0.060 A 
BRANCH  89  90
ATOM     90  S   UNL A   1      44.508  21.295  24.904  1.00  0.00     0.124 S 
ATOM     91  O   UNL A   1      43.444  20.495  25.502  1.00  0.00    -0.237 OA
ATOM     92  O   UNL A   1      44.550  21.314  23.446  1.00  0.00    -0.237 OA
ATOM     93  O   UNL A   1      45.808  21.199  25.563  1.00  0.00    -0.744 OA
ENDBRANCH  89  90
ENDBRANCH  57  82
BRANCH  69  94
ATOM     94  C   UNL A   1      45.591  31.085  28.731  1.00  0.00     0.058 A 
ATOM     95  C   UNL A   1      46.834  31.587  28.315  1.00  0.00     0.135 A 
ATOM     96  C   UNL A   1      44.442  31.671  28.177  1.00  0.00     0.135 A 
ATOM     97  F   UNL A   1      47.978  31.024  28.729  1.00  0.00    -0.206 F 
ATOM     98  C   UNL A   1      46.928  32.656  27.423  1.00  0.00     0.059 A 
ATOM     99  C   UNL A   1      44.512  32.717  27.261  1.00  0.00     0.059 A 
ATOM    100  F   UNL A   1      43.225  31.202  28.499  1.00  0.00    -0.206 F 
ATOM    101  C   UNL A   1      45.762  33.215  26.900  1.00  0.00     0.060 A 
BRANCH 101 102
ATOM    102  S   UNL A   1      45.892  34.553  25.695  1.00  0.00     0.124 S 
ATOM    103  O   UNL A   1      44.965  34.122  24.654  1.00  0.00    -0.237 OA
ATOM    104  O   UNL A   1      45.475  35.719  26.470  1.00  0.00    -0.237 OA
ATOM    105  O   UNL A   1      47.304  34.539  25.318  1.00  0.00    -0.744 OA
ENDBRANCH 101 102
ENDBRANCH  69  94
ENDBRANCH  43  44
ENDBRANCH  35  38
ENDBRANCH  33  34
ENDBRANCH  32  33
ENDBRANCH   1  32
TORSDOF 19
ENDMDL
MODEL 3
REMARK VINA RESULT:     -12.8      1.898      3.050
REMARK SMILES COc1ccc2c(c1)c(CC(=O)NCCCCNC(=O)c1ccc(-c3c4nc(c(-c5c(F)cc(S(=O)(=O)[O-])cc5F)c5ccc([nH]5)c(-c5c(F)cc(S(=O)(=O)[O-])cc5F)c5nc(c(-c6c(F)cc(S(=O)(=O)[O-])cc6F)c6ccc3[nH]6)C=C5)C=C4)cc1)c(C(F)(F)F)n2C(=O)c1ccc(Cl)cc1
REMARK SMILES IDX 15 1 14 2 13 3 11 4 12 5 10 7 9 8 3 9 4 10 8 11 5 12 7 13
REMARK SMILES IDX 6 14 92 15 87 16 2 17 1 18 93 19 94 20 95 21 96 22 101 23
REMARK SMILES IDX 97 24 100 25 98 26 99 27 88 28 89 29 90 30 91 31 16 32 17 33
REMARK SMILES IDX 18 34 19 35 20 37 21 38 22 39 86 40 23 41 85 42 24 43 25 44
REMARK SMILES IDX 26 45 79 46 27 47 84 48 78 49 80 50 28 51 83 52 77 53 76 54
REMARK SMILES IDX 29 56 63 57 42 58 62 59 43 60 46 61 61 62 81 63 44 64 45 65
REMARK SMILES IDX 60 67 82 68 47 69 30 70 31 71 40 72 32 73 33 74 39 75 41 76
REMARK SMILES IDX 34 77 35 78 36 79 37 80 38 81 64 82 65 83 74 84 66 85 67 86
REMARK SMILES IDX 73 87 75 88 68 89 69 90 70 91 71 92 72 93 48 94 49 95 58 96
REMARK SMILES IDX 50 97 51 98 57 99 59 100 52 101 53 102 54 103 55 104 56 105
REMARK H PARENT 13 6 18 36 80 55 46 66
REMARK Flexibility Score: inf
ROOT
ATOM      1  C   UNL A   1      31.994  28.622  27.459  1.00  0.00     0.023 C 
ENDROOT
BRANCH   1   2
ATOM      2  C   UNL A   1      31.397  27.761  26.348  1.00  0.00     0.116 C 
BRANCH   2   3
ATOM      3  N   UNL A   1      31.310  28.475  25.089  1.00  0.00    -0.356 N 
ATOM      4  C   UNL A   1      30.839  28.026  23.888  1.00  0.00     0.224 C 
ATOM      5  O   UNL A   1      30.792  28.813  22.941  1.00  0.00    -0.275 OA
ATOM      6  H   UNL A   1      31.634  29.404  25.102  1.00  0.00     0.163 HD
BRANCH   4   7
ATOM      7  C   UNL A   1      30.330  26.597  23.758  1.00  0.00     0.138 C 
BRANCH   7   8
ATOM      8  C   UNL A   1      31.364  25.561  24.107  1.00  0.00     0.000 A 
ATOM      9  C   UNL A   1      30.413  23.236  26.986  1.00  0.00     0.119 A 
ATOM     10  C   UNL A   1      31.616  22.546  27.020  1.00  0.00     0.048 A 
ATOM     11  C   UNL A   1      30.222  24.237  26.032  1.00  0.00     0.057 A 
ATOM     12  C   UNL A   1      32.639  22.837  26.110  1.00  0.00     0.031 A 
ATOM     13  C   UNL A   1      31.242  24.560  25.110  1.00  0.00     0.008 A 
ATOM     14  C   UNL A   1      32.433  23.827  25.128  1.00  0.00     0.057 A 
ATOM     15  N   UNL A   1      33.196  24.246  24.031  1.00  0.00    -0.271 N 
ATOM     16  C   UNL A   1      32.648  25.447  23.581  1.00  0.00     0.135 A 
BRANCH   9  17
ATOM     17  O   UNL A   1      29.350  23.024  27.819  1.00  0.00    -0.497 OA
ATOM     18  C   UNL A   1      28.399  22.058  27.387  1.00  0.00     0.278 C 
ENDBRANCH   9  17
BRANCH  15  19
ATOM     19  C   UNL A   1      34.309  23.578  23.448  1.00  0.00     0.262 C 
ATOM     20  O   UNL A   1      34.211  23.197  22.292  1.00  0.00    -0.268 OA
BRANCH  19  21
ATOM     21  C   UNL A   1      35.581  23.298  24.135  1.00  0.00     0.040 A 
ATOM     22  C   UNL A   1      36.348  22.177  23.802  1.00  0.00     0.015 A 
ATOM     23  C   UNL A   1      35.982  24.168  25.155  1.00  0.00     0.015 A 
ATOM     24  C   UNL A   1      37.491  21.885  24.551  1.00  0.00     0.021 A 
ATOM     25  C   UNL A   1      37.127  23.874  25.894  1.00  0.00     0.021 A 
ATOM     26  C   UNL A   1      37.867  22.727  25.602  1.00  0.00     0.041 A 
ATOM     27  Cl  UNL A   1      39.240  22.342  26.562  1.00  0.00    -0.084 Cl
ENDBRANCH  19  21
ENDBRANCH  15  19
BRANCH  16  28
ATOM     28  C   UNL A   1      33.374  26.362  22.656  1.00  0.00     0.432 C 
ATOM     29  F   UNL A   1      33.779  27.501  23.266  1.00  0.00    -0.165 F 
ATOM     30  F   UNL A   1      34.510  25.764  22.195  1.00  0.00    -0.165 F 
ATOM     31  F   UNL A   1      32.672  26.681  21.543  1.00  0.00    -0.165 F 
ENDBRANCH  16  28
ENDBRANCH   7   8
ENDBRANCH   4   7
ENDBRANCH   2   3
ENDBRANCH   1   2
BRANCH   1  32
ATOM     32  C   UNL A   1      33.510  28.837  27.361  1.00  0.00     0.023 C 
BRANCH  32  33
ATOM     33  C   UNL A   1      33.940  30.253  26.965  1.00  0.00     0.116 C 
BRANCH  33  34
ATOM     34  N   UNL A   1      33.923  31.193  28.070  1.00  0.00    -0.352 N 
ATOM     35  C   UNL A   1      34.834  31.611  28.999  1.00  0.00     0.251 C 
ATOM     36  H   UNL A   1      33.048  31.632  28.175  1.00  0.00     0.163 HD
ATOM     37  O   UNL A   1      34.456  32.525  29.739  1.00  0.00    -0.269 OA
BRANCH  35  38
ATOM     38  C   UNL A   1      36.199  31.049  29.187  1.00  0.00     0.039 A 
ATOM     39  C   UNL A   1      37.390  31.772  29.117  1.00  0.00     0.014 A 
ATOM     40  C   UNL A   1      36.276  29.660  29.413  1.00  0.00     0.014 A 
ATOM     41  C   UNL A   1      38.619  31.127  29.226  1.00  0.00     0.010 A 
ATOM     42  C   UNL A   1      37.503  29.011  29.532  1.00  0.00     0.010 A 
ATOM     43  C   UNL A   1      38.679  29.744  29.410  1.00  0.00    -0.014 A 
BRANCH  43  44
ATOM     44  C   UNL A   1      40.007  29.141  29.506  1.00  0.00     0.031 A 
ATOM     45  C   UNL A   1      40.557  28.979  30.880  1.00  0.00     0.074 A 
ATOM     46  C   UNL A   1      40.696  28.667  28.450  1.00  0.00     0.049 A 
ATOM     47  N   UNL A   1      41.613  29.526  31.391  1.00  0.00    -0.248 NA
ATOM     48  C   UNL A   1      39.796  28.146  31.823  1.00  0.00     0.031 C 
ATOM     49  C   UNL A   1      40.195  28.457  27.089  1.00  0.00     0.029 A 
ATOM     50  N   UNL A   1      41.971  28.173  28.398  1.00  0.00    -0.354 N 
ATOM     51  C   UNL A   1      41.762  28.958  32.654  1.00  0.00     0.074 A 
ATOM     52  C   UNL A   1      40.557  28.216  32.918  1.00  0.00     0.031 C 
ATOM     53  C   UNL A   1      41.070  27.682  26.413  1.00  0.00     0.029 A 
ATOM     54  C   UNL A   1      42.248  27.466  27.237  1.00  0.00     0.049 A 
ATOM     55  H   UNL A   1      42.630  28.307  29.117  1.00  0.00     0.167 HD
ATOM     56  C   UNL A   1      42.956  28.954  33.309  1.00  0.00     0.037 A 
ATOM     57  C   UNL A   1      43.337  26.700  26.991  1.00  0.00     0.037 A 
ATOM     58  C   UNL A   1      43.912  29.844  32.713  1.00  0.00     0.049 A 
ATOM     59  C   UNL A   1      44.454  27.186  27.840  1.00  0.00     0.074 A 
ATOM     60  C   UNL A   1      44.151  31.200  32.698  1.00  0.00     0.029 A 
ATOM     61  N   UNL A   1      44.672  29.286  31.723  1.00  0.00    -0.354 N 
ATOM     62  N   UNL A   1      44.999  28.366  27.726  1.00  0.00    -0.248 NA
ATOM     63  C   UNL A   1      44.848  26.433  29.028  1.00  0.00     0.031 C 
ATOM     64  C   UNL A   1      44.915  31.457  31.522  1.00  0.00     0.029 A 
ATOM     65  C   UNL A   1      45.116  30.250  30.855  1.00  0.00     0.049 A 
ATOM     66  H   UNL A   1      44.874  28.325  31.645  1.00  0.00     0.167 HD
ATOM     67  C   UNL A   1      45.457  28.660  28.995  1.00  0.00     0.074 A 
ATOM     68  C   UNL A   1      45.511  27.384  29.690  1.00  0.00     0.031 C 
ATOM     69  C   UNL A   1      45.429  29.934  29.476  1.00  0.00     0.037 A 
BRANCH  56  70
ATOM     70  C   UNL A   1      43.407  27.858  34.245  1.00  0.00     0.058 A 
ATOM     71  C   UNL A   1      43.698  28.154  35.593  1.00  0.00     0.135 A 
ATOM     72  C   UNL A   1      43.849  26.597  33.785  1.00  0.00     0.135 A 
ATOM     73  F   UNL A   1      43.347  29.338  36.121  1.00  0.00    -0.206 F 
ATOM     74  C   UNL A   1      44.408  27.275  36.413  1.00  0.00     0.059 A 
ATOM     75  C   UNL A   1      44.514  25.686  34.599  1.00  0.00     0.059 A 
ATOM     76  F   UNL A   1      43.738  26.242  32.498  1.00  0.00    -0.206 F 
ATOM     77  C   UNL A   1      44.822  26.048  35.902  1.00  0.00     0.060 A 
BRANCH  77  78
ATOM     78  S   UNL A   1      45.817  24.949  36.930  1.00  0.00     0.124 S 
ATOM     79  O   UNL A   1      47.024  24.807  36.124  1.00  0.00    -0.237 OA
ATOM     80  O   UNL A   1      45.956  25.724  38.159  1.00  0.00    -0.237 OA
ATOM     81  O   UNL A   1      44.987  23.754  37.044  1.00  0.00    -0.744 OA
ENDBRANCH  77  78
ENDBRANCH  56  70
BRANCH  57  82
ATOM     82  C   UNL A   1      43.375  25.387  26.296  1.00  0.00     0.058 A 
ATOM     83  C   UNL A   1      44.295  25.156  25.257  1.00  0.00     0.135 A 
ATOM     84  C   UNL A   1      42.735  24.249  26.826  1.00  0.00     0.135 A 
ATOM     85  F   UNL A   1      44.952  26.182  24.694  1.00  0.00    -0.206 F 
ATOM     86  C   UNL A   1      44.633  23.868  24.837  1.00  0.00     0.059 A 
ATOM     87  C   UNL A   1      43.039  22.956  26.408  1.00  0.00     0.059 A 
ATOM     88  F   UNL A   1      41.865  24.345  27.842  1.00  0.00    -0.206 F 
ATOM     89  C   UNL A   1      44.021  22.772  25.443  1.00  0.00     0.060 A 
BRANCH  89  90
ATOM     90  S   UNL A   1      44.623  21.110  25.074  1.00  0.00     0.124 S 
ATOM     91  O   UNL A   1      43.639  20.276  25.755  1.00  0.00    -0.237 OA
ATOM     92  O   UNL A   1      44.579  21.088  23.616  1.00  0.00    -0.237 OA
ATOM     93  O   UNL A   1      45.963  21.098  25.656  1.00  0.00    -0.744 OA
ENDBRANCH  89  90
ENDBRANCH  57  82
BRANCH  69  94
ATOM     94  C   UNL A   1      45.517  31.055  28.484  1.00  0.00     0.058 A 
ATOM     95  C   UNL A   1      44.420  31.619  27.814  1.00  0.00     0.135 A 
ATOM     96  C   UNL A   1      46.778  31.628  28.251  1.00  0.00     0.135 A 
ATOM     97  F   UNL A   1      43.173  31.187  28.048  1.00  0.00    -0.206 F 
ATOM     98  C   UNL A   1      44.577  32.676  26.916  1.00  0.00     0.059 A 
ATOM     99  C   UNL A   1      46.953  32.704  27.385  1.00  0.00     0.059 A 
ATOM    100  F   UNL A   1      47.858  31.164  28.901  1.00  0.00    -0.206 F 
ATOM    101  C   UNL A   1      45.848  33.213  26.709  1.00  0.00     0.060 A 
BRANCH 101 102
ATOM    102  S   UNL A   1      46.035  34.624  25.598  1.00  0.00     0.124 S 
ATOM    103  O   UNL A   1      45.636  35.741  26.448  1.00  0.00    -0.237 OA
ATOM    104  O   UNL A   1      47.453  34.569  25.250  1.00  0.00    -0.237 OA
ATOM    105  O   UNL A   1      45.122  34.319  24.499  1.00  0.00    -0.744 OA
ENDBRANCH 101 102
ENDBRANCH  69  94
ENDBRANCH  43  44
ENDBRANCH  35  38
ENDBRANCH  33  34
ENDBRANCH  32  33
ENDBRANCH   1  32
TORSDOF 19
ENDMDL
