MODEL 1
REMARK VINA RESULT:     -13.2      0.000      0.000
REMARK SMILES O=C(NCCCCNC(=O)c1nnn(-c2ccc(C(F)(F)F)cc2)c1-c1cccc(Cl)c1)c1ccc(-c2c3nc(c(-c4c(F)cc(S(=O)(=O)[O-])cc4F)c4ccc([nH]4)c(-c4c(F)cc(S(=O)(=O)[O-])cc4F)c4nc(c(-c5c(F)cc(S(=O)(=O)[O-])cc5F)c5ccc2[nH]5)C=C4)C=C3)cc1
REMARK SMILES IDX 5 1 4 2 3 3 1 4 2 5 33 7 34 8 98 9 35 10 97 11 36 12 37 13
REMARK SMILES IDX 38 14 91 15 39 16 96 17 90 18 92 19 40 20 95 21 89 22 88 23
REMARK SMILES IDX 41 25 75 26 54 27 74 28 55 29 58 30 73 31 93 32 56 33 57 34
REMARK SMILES IDX 72 36 94 37 59 38 42 39 43 40 52 41 44 42 45 43 51 44 53 45
REMARK SMILES IDX 46 46 47 47 48 48 49 49 50 50 76 51 77 52 86 53 78 54 79 55
REMARK SMILES IDX 85 56 87 57 80 58 81 59 82 60 83 61 84 62 60 63 61 64 70 65
REMARK SMILES IDX 62 66 63 67 69 68 71 69 64 70 65 71 66 72 67 73 68 74 6 75
REMARK SMILES IDX 7 76 8 77 9 78 10 80 11 81 12 82 25 83 13 84 14 85 26 86
REMARK SMILES IDX 27 87 32 88 28 89 30 90 29 91 31 92 15 93 16 94 24 95 17 96
REMARK SMILES IDX 23 97 18 98 19 99 20 100 21 101 22 102
REMARK H PARENT 3 6 92 24 58 35 8 79
REMARK Flexibility Score: inf
ROOT
ATOM      1  C   UNL A   1      31.826  28.961  27.227  1.00  0.00     0.023 C 
ENDROOT
BRANCH   1   2
ATOM      2  C   UNL A   1      33.193  29.637  27.089  1.00  0.00     0.116 C 
BRANCH   2   3
ATOM      3  N   UNL A   1      33.381  30.856  27.850  1.00  0.00    -0.352 N 
ATOM      4  O   UNL A   1      34.257  32.689  28.712  1.00  0.00    -0.269 OA
ATOM      5  C   UNL A   1      34.474  31.544  28.308  1.00  0.00     0.251 C 
ATOM      6  H   UNL A   1      32.531  31.289  28.091  1.00  0.00     0.163 HD
BRANCH   5   7
ATOM      7  C   UNL A   1      35.852  30.989  28.418  1.00  0.00     0.039 A 
ATOM      8  C   UNL A   1      36.205  29.656  28.210  1.00  0.00     0.014 A 
ATOM      9  C   UNL A   1      36.857  31.892  28.814  1.00  0.00     0.014 A 
ATOM     10  C   UNL A   1      37.489  29.208  28.507  1.00  0.00     0.010 A 
ATOM     11  C   UNL A   1      38.153  31.457  29.078  1.00  0.00     0.010 A 
ATOM     12  C   UNL A   1      38.455  30.102  28.964  1.00  0.00    -0.014 A 
BRANCH  12  13
ATOM     13  C   UNL A   1      39.810  29.594  29.174  1.00  0.00     0.031 A 
ATOM     14  C   UNL A   1      40.232  29.485  30.601  1.00  0.00     0.074 A 
ATOM     15  C   UNL A   1      40.583  29.099  28.188  1.00  0.00     0.049 A 
ATOM     16  N   UNL A   1      41.235  30.044  31.197  1.00  0.00    -0.248 NA
ATOM     17  C   UNL A   1      39.357  28.718  31.502  1.00  0.00     0.031 C 
ATOM     18  C   UNL A   1      40.197  28.848  26.799  1.00  0.00     0.029 A 
ATOM     19  N   UNL A   1      41.851  28.597  28.256  1.00  0.00    -0.354 N 
ATOM     20  C   UNL A   1      41.244  29.531  32.494  1.00  0.00     0.074 A 
ATOM     21  C   UNL A   1      39.986  28.856  32.668  1.00  0.00     0.031 C 
ATOM     22  C   UNL A   1      41.116  28.041  26.225  1.00  0.00     0.029 A 
ATOM     23  C   UNL A   1      42.206  27.818  27.161  1.00  0.00     0.049 A 
ATOM     24  H   UNL A   1      42.458  28.771  29.010  1.00  0.00     0.167 HD
ATOM     25  C   UNL A   1      42.377  29.499  33.251  1.00  0.00     0.037 A 
ATOM     26  C   UNL A   1      43.269  26.981  27.066  1.00  0.00     0.037 A 
ATOM     27  C   UNL A   1      43.363  30.433  32.767  1.00  0.00     0.049 A 
ATOM     28  C   UNL A   1      44.260  27.386  28.094  1.00  0.00     0.074 A 
ATOM     29  C   UNL A   1      43.396  31.796  32.543  1.00  0.00     0.029 A 
ATOM     30  N   UNL A   1      44.472  29.930  32.131  1.00  0.00    -0.354 N 
ATOM     31  N   UNL A   1      44.937  28.502  28.069  1.00  0.00    -0.248 NA
ATOM     32  C   UNL A   1      44.233  26.707  29.381  1.00  0.00     0.031 C 
ATOM     33  C   UNL A   1      44.236  31.970  31.405  1.00  0.00     0.029 A 
ATOM     34  C   UNL A   1      44.690  30.707  31.025  1.00  0.00     0.049 A 
ATOM     35  H   UNL A   1      45.010  29.158  32.417  1.00  0.00     0.167 HD
ATOM     36  C   UNL A   1      45.059  28.874  29.399  1.00  0.00     0.074 A 
ATOM     37  C   UNL A   1      44.714  27.678  30.160  1.00  0.00     0.031 C 
ATOM     38  C   UNL A   1      45.158  30.187  29.760  1.00  0.00     0.037 A 
BRANCH  25  39
ATOM     39  C   UNL A   1      42.749  28.356  34.180  1.00  0.00     0.058 A 
ATOM     40  C   UNL A   1      43.004  28.635  35.542  1.00  0.00     0.135 A 
ATOM     41  C   UNL A   1      43.182  27.085  33.736  1.00  0.00     0.135 A 
ATOM     42  F   UNL A   1      42.611  29.798  36.087  1.00  0.00    -0.206 F 
ATOM     43  C   UNL A   1      43.757  27.786  36.354  1.00  0.00     0.059 A 
ATOM     44  C   UNL A   1      43.885  26.200  34.546  1.00  0.00     0.059 A 
ATOM     45  F   UNL A   1      43.039  26.674  32.472  1.00  0.00    -0.206 F 
ATOM     46  C   UNL A   1      44.223  26.586  35.831  1.00  0.00     0.060 A 
BRANCH  46  47
ATOM     47  S   UNL A   1      45.349  25.571  36.803  1.00  0.00     0.124 S 
ATOM     48  O   UNL A   1      44.709  24.264  36.702  1.00  0.00    -0.237 OA
ATOM     49  O   UNL A   1      46.605  25.728  36.077  1.00  0.00    -0.237 OA
ATOM     50  O   UNL A   1      45.309  26.197  38.121  1.00  0.00    -0.744 OA
ENDBRANCH  46  47
ENDBRANCH  25  39
BRANCH  26  51
ATOM     51  C   UNL A   1      43.343  25.674  26.358  1.00  0.00     0.058 A 
ATOM     52  C   UNL A   1      44.296  25.441  25.351  1.00  0.00     0.135 A 
ATOM     53  C   UNL A   1      42.657  24.538  26.835  1.00  0.00     0.135 A 
ATOM     54  F   UNL A   1      45.015  26.459  24.853  1.00  0.00    -0.206 F 
ATOM     55  C   UNL A   1      44.582  24.156  24.876  1.00  0.00     0.059 A 
ATOM     56  C   UNL A   1      42.912  23.252  26.366  1.00  0.00     0.059 A 
ATOM     57  F   UNL A   1      41.779  24.628  27.845  1.00  0.00    -0.206 F 
ATOM     58  C   UNL A   1      43.895  23.064  25.404  1.00  0.00     0.060 A 
BRANCH  58  59
ATOM     59  S   UNL A   1      44.373  21.387  24.922  1.00  0.00     0.124 S 
ATOM     60  O   UNL A   1      45.603  21.194  25.684  1.00  0.00    -0.237 OA
ATOM     61  O   UNL A   1      43.223  20.601  25.356  1.00  0.00    -0.237 OA
ATOM     62  O   UNL A   1      44.546  21.487  23.475  1.00  0.00    -0.744 OA
ENDBRANCH  58  59
ENDBRANCH  26  51
BRANCH  38  63
ATOM     63  C   UNL A   1      45.519  31.197  28.707  1.00  0.00     0.058 A 
ATOM     64  C   UNL A   1      44.602  31.769  27.809  1.00  0.00     0.135 A 
ATOM     65  C   UNL A   1      46.823  31.716  28.713  1.00  0.00     0.135 A 
ATOM     66  F   UNL A   1      43.311  31.406  27.814  1.00  0.00    -0.206 F 
ATOM     67  C   UNL A   1      44.977  32.786  26.929  1.00  0.00     0.059 A 
ATOM     68  C   UNL A   1      47.210  32.751  27.868  1.00  0.00     0.059 A 
ATOM     69  F   UNL A   1      47.728  31.252  29.592  1.00  0.00    -0.206 F 
ATOM     70  C   UNL A   1      46.284  33.273  26.969  1.00  0.00     0.060 A 
BRANCH  70  71
ATOM     71  S   UNL A   1      46.736  34.656  25.899  1.00  0.00     0.124 S 
ATOM     72  O   UNL A   1      48.080  34.284  25.470  1.00  0.00    -0.237 OA
ATOM     73  O   UNL A   1      45.704  34.610  24.867  1.00  0.00    -0.237 OA
ATOM     74  O   UNL A   1      46.663  35.813  26.788  1.00  0.00    -0.744 OA
ENDBRANCH  70  71
ENDBRANCH  38  63
ENDBRANCH  12  13
ENDBRANCH   5   7
ENDBRANCH   2   3
ENDBRANCH   1   2
BRANCH   1  75
ATOM     75  C   UNL A   1      31.696  27.559  26.635  1.00  0.00     0.023 C 
BRANCH  75  76
ATOM     76  C   UNL A   1      32.984  26.938  26.120  1.00  0.00     0.116 C 
BRANCH  76  77
ATOM     77  N   UNL A   1      33.313  27.313  24.759  1.00  0.00    -0.351 N 
ATOM     78  C   UNL A   1      33.191  26.570  23.601  1.00  0.00     0.274 C 
ATOM     79  H   UNL A   1      33.672  28.223  24.644  1.00  0.00     0.163 HD
ATOM     80  O   UNL A   1      33.557  27.065  22.545  1.00  0.00    -0.267 OA
BRANCH  78  81
ATOM     81  C   UNL A   1      32.626  25.227  23.668  1.00  0.00     0.178 A 
ATOM     82  N   UNL A   1      31.294  24.995  23.419  1.00  0.00    -0.124 NA
ATOM     83  C   UNL A   1      33.255  24.019  23.938  1.00  0.00     0.108 A 
ATOM     84  N   UNL A   1      31.085  23.687  23.441  1.00  0.00    -0.061 NA
ATOM     85  N   UNL A   1      32.218  23.095  23.869  1.00  0.00    -0.212 N 
BRANCH  83  86
ATOM     86  C   UNL A   1      34.669  23.670  24.076  1.00  0.00     0.004 A 
ATOM     87  C   UNL A   1      35.311  22.964  23.040  1.00  0.00     0.010 A 
ATOM     88  C   UNL A   1      35.404  24.047  25.202  1.00  0.00     0.031 A 
ATOM     89  C   UNL A   1      36.660  22.629  23.132  1.00  0.00     0.002 A 
ATOM     90  C   UNL A   1      36.754  23.702  25.290  1.00  0.00     0.041 A 
ATOM     91  C   UNL A   1      37.383  22.997  24.262  1.00  0.00     0.020 A 
ATOM     92  Cl  UNL A   1      37.657  24.148  26.685  1.00  0.00    -0.084 Cl
ENDBRANCH  83  86
BRANCH  85  93
ATOM     93  C   UNL A   1      32.290  21.702  24.105  1.00  0.00     0.067 A 
ATOM     94  C   UNL A   1      32.149  20.813  23.037  1.00  0.00     0.029 A 
ATOM     95  C   UNL A   1      32.621  21.230  25.382  1.00  0.00     0.029 A 
ATOM     96  C   UNL A   1      32.455  19.462  23.231  1.00  0.00     0.015 A 
ATOM     97  C   UNL A   1      32.896  19.879  25.575  1.00  0.00     0.015 A 
ATOM     98  C   UNL A   1      32.852  18.987  24.494  1.00  0.00     0.056 A 
BRANCH  98  99
ATOM     99  C   UNL A   1      33.266  17.547  24.673  1.00  0.00     0.416 C 
ATOM    100  F   UNL A   1      32.703  16.968  25.768  1.00  0.00    -0.166 F 
ATOM    101  F   UNL A   1      32.909  16.771  23.612  1.00  0.00    -0.166 F 
ATOM    102  F   UNL A   1      34.612  17.382  24.815  1.00  0.00    -0.166 F 
ENDBRANCH  98  99
ENDBRANCH  85  93
ENDBRANCH  78  81
ENDBRANCH  76  77
ENDBRANCH  75  76
ENDBRANCH   1  75
TORSDOF 17
ENDMDL
MODEL 2
REMARK VINA RESULT:     -13.0      1.476      2.419
REMARK SMILES O=C(NCCCCNC(=O)c1nnn(-c2ccc(C(F)(F)F)cc2)c1-c1cccc(Cl)c1)c1ccc(-c2c3nc(c(-c4c(F)cc(S(=O)(=O)[O-])cc4F)c4ccc([nH]4)c(-c4c(F)cc(S(=O)(=O)[O-])cc4F)c4nc(c(-c5c(F)cc(S(=O)(=O)[O-])cc5F)c5ccc2[nH]5)C=C4)C=C3)cc1
REMARK SMILES IDX 5 1 4 2 3 3 1 4 2 5 33 7 34 8 98 9 35 10 97 11 36 12 37 13
REMARK SMILES IDX 38 14 91 15 39 16 96 17 90 18 92 19 40 20 95 21 89 22 88 23
REMARK SMILES IDX 41 25 75 26 54 27 74 28 55 29 58 30 73 31 93 32 56 33 57 34
REMARK SMILES IDX 72 36 94 37 59 38 42 39 43 40 52 41 44 42 45 43 51 44 53 45
REMARK SMILES IDX 46 46 47 47 48 48 49 49 50 50 76 51 77 52 86 53 78 54 79 55
REMARK SMILES IDX 85 56 87 57 80 58 81 59 82 60 83 61 84 62 60 63 61 64 70 65
REMARK SMILES IDX 62 66 63 67 69 68 71 69 64 70 65 71 66 72 67 73 68 74 6 75
REMARK SMILES IDX 7 76 8 77 9 78 10 80 11 81 12 82 25 83 13 84 14 85 26 86
REMARK SMILES IDX 27 87 32 88 28 89 30 90 29 91 31 92 15 93 16 94 24 95 17 96
REMARK SMILES IDX 23 97 18 98 19 99 20 100 21 101 22 102
REMARK H PARENT 3 6 92 24 58 35 8 79
REMARK Flexibility Score: inf
ROOT
ATOM      1  C   UNL A   1      33.034  29.503  25.101  1.00  0.00     0.023 C 
ENDROOT
BRANCH   1   2
ATOM      2  C   UNL A   1      33.090  29.385  26.627  1.00  0.00     0.116 C 
BRANCH   2   3
ATOM      3  N   UNL A   1      33.172  30.633  27.359  1.00  0.00    -0.352 N 
ATOM      4  O   UNL A   1      33.901  32.533  28.212  1.00  0.00    -0.269 OA
ATOM      5  C   UNL A   1      34.199  31.390  27.856  1.00  0.00     0.251 C 
ATOM      6  H   UNL A   1      32.288  31.027  27.540  1.00  0.00     0.163 HD
BRANCH   5   7
ATOM      7  C   UNL A   1      35.596  30.912  28.059  1.00  0.00     0.039 A 
ATOM      8  C   UNL A   1      36.043  29.609  27.843  1.00  0.00     0.014 A 
ATOM      9  C   UNL A   1      36.512  31.859  28.558  1.00  0.00     0.014 A 
ATOM     10  C   UNL A   1      37.325  29.226  28.228  1.00  0.00     0.010 A 
ATOM     11  C   UNL A   1      37.807  31.490  28.911  1.00  0.00     0.010 A 
ATOM     12  C   UNL A   1      38.198  30.160  28.784  1.00  0.00    -0.014 A 
BRANCH  12  13
ATOM     13  C   UNL A   1      39.560  29.724  29.086  1.00  0.00     0.031 A 
ATOM     14  C   UNL A   1      39.874  29.586  30.538  1.00  0.00     0.074 A 
ATOM     15  C   UNL A   1      40.438  29.313  28.150  1.00  0.00     0.049 A 
ATOM     16  N   UNL A   1      40.791  30.180  31.231  1.00  0.00    -0.248 NA
ATOM     17  C   UNL A   1      38.980  28.736  31.339  1.00  0.00     0.031 C 
ATOM     18  C   UNL A   1      40.178  29.092  26.727  1.00  0.00     0.029 A 
ATOM     19  N   UNL A   1      41.725  28.884  28.303  1.00  0.00    -0.354 N 
ATOM     20  C   UNL A   1      40.730  29.620  32.507  1.00  0.00     0.074 A 
ATOM     21  C   UNL A   1      39.505  28.866  32.557  1.00  0.00     0.031 C 
ATOM     22  C   UNL A   1      41.187  28.363  26.202  1.00  0.00     0.029 A 
ATOM     23  C   UNL A   1      42.211  28.169  27.215  1.00  0.00     0.049 A 
ATOM     24  H   UNL A   1      42.259  29.064  29.110  1.00  0.00     0.167 HD
ATOM     25  C   UNL A   1      41.800  29.626  33.352  1.00  0.00     0.037 A 
ATOM     26  C   UNL A   1      43.328  27.399  27.180  1.00  0.00     0.037 A 
ATOM     27  C   UNL A   1      42.762  30.633  32.980  1.00  0.00     0.049 A 
ATOM     28  C   UNL A   1      44.209  27.823  28.297  1.00  0.00     0.074 A 
ATOM     29  C   UNL A   1      42.728  32.004  32.805  1.00  0.00     0.029 A 
ATOM     30  N   UNL A   1      43.946  30.221  32.420  1.00  0.00    -0.354 N 
ATOM     31  N   UNL A   1      44.816  28.976  28.363  1.00  0.00    -0.248 NA
ATOM     32  C   UNL A   1      44.122  27.095  29.555  1.00  0.00     0.031 C 
ATOM     33  C   UNL A   1      43.644  32.269  31.744  1.00  0.00     0.029 A 
ATOM     34  C   UNL A   1      44.203  31.049  31.361  1.00  0.00     0.049 A 
ATOM     35  H   UNL A   1      44.506  29.470  32.723  1.00  0.00     0.167 HD
ATOM     36  C   UNL A   1      44.809  29.304  29.711  1.00  0.00     0.074 A 
ATOM     37  C   UNL A   1      44.480  28.062  30.401  1.00  0.00     0.031 C 
ATOM     38  C   UNL A   1      44.799  30.607  30.121  1.00  0.00     0.037 A 
BRANCH  25  39
ATOM     39  C   UNL A   1      42.167  28.472  34.270  1.00  0.00     0.058 A 
ATOM     40  C   UNL A   1      42.322  28.719  35.652  1.00  0.00     0.135 A 
ATOM     41  C   UNL A   1      42.686  27.237  33.818  1.00  0.00     0.135 A 
ATOM     42  F   UNL A   1      41.842  29.846  36.205  1.00  0.00    -0.206 F 
ATOM     43  C   UNL A   1      43.063  27.880  36.486  1.00  0.00     0.059 A 
ATOM     44  C   UNL A   1      43.378  26.359  34.645  1.00  0.00     0.059 A 
ATOM     45  F   UNL A   1      42.641  26.860  32.537  1.00  0.00    -0.206 F 
ATOM     46  C   UNL A   1      43.617  26.719  35.960  1.00  0.00     0.060 A 
BRANCH  46  47
ATOM     47  S   UNL A   1      44.727  25.726  36.973  1.00  0.00     0.124 S 
ATOM     48  O   UNL A   1      45.786  26.689  37.257  1.00  0.00    -0.237 OA
ATOM     49  O   UNL A   1      43.870  25.365  38.097  1.00  0.00    -0.237 OA
ATOM     50  O   UNL A   1      45.091  24.625  36.087  1.00  0.00    -0.744 OA
ENDBRANCH  46  47
ENDBRANCH  25  39
BRANCH  26  51
ATOM     51  C   UNL A   1      43.537  26.127  26.437  1.00  0.00     0.058 A 
ATOM     52  C   UNL A   1      44.580  25.988  25.504  1.00  0.00     0.135 A 
ATOM     53  C   UNL A   1      42.887  24.936  26.818  1.00  0.00     0.135 A 
ATOM     54  F   UNL A   1      45.273  27.064  25.101  1.00  0.00    -0.206 F 
ATOM     55  C   UNL A   1      44.981  24.740  25.012  1.00  0.00     0.059 A 
ATOM     56  C   UNL A   1      43.256  23.685  26.329  1.00  0.00     0.059 A 
ATOM     57  F   UNL A   1      41.927  24.936  27.756  1.00  0.00    -0.206 F 
ATOM     58  C   UNL A   1      44.321  23.591  25.446  1.00  0.00     0.060 A 
BRANCH  58  59
ATOM     59  S   UNL A   1      44.937  21.964  24.949  1.00  0.00     0.124 S 
ATOM     60  O   UNL A   1      44.106  21.070  25.750  1.00  0.00    -0.237 OA
ATOM     61  O   UNL A   1      44.679  21.961  23.514  1.00  0.00    -0.237 OA
ATOM     62  O   UNL A   1      46.348  22.007  25.326  1.00  0.00    -0.744 OA
ENDBRANCH  58  59
ENDBRANCH  26  51
BRANCH  38  63
ATOM     63  C   UNL A   1      45.180  31.674  29.135  1.00  0.00     0.058 A 
ATOM     64  C   UNL A   1      46.491  32.137  28.933  1.00  0.00     0.135 A 
ATOM     65  C   UNL A   1      44.191  32.137  28.252  1.00  0.00     0.135 A 
ATOM     66  F   UNL A   1      47.512  31.662  29.662  1.00  0.00    -0.206 F 
ATOM     67  C   UNL A   1      46.797  33.049  27.922  1.00  0.00     0.059 A 
ATOM     68  C   UNL A   1      44.479  33.021  27.218  1.00  0.00     0.059 A 
ATOM     69  F   UNL A   1      42.930  31.683  28.357  1.00  0.00    -0.206 F 
ATOM     70  C   UNL A   1      45.784  33.483  27.066  1.00  0.00     0.060 A 
BRANCH  70  71
ATOM     71  S   UNL A   1      46.204  34.585  25.699  1.00  0.00     0.124 S 
ATOM     72  O   UNL A   1      45.988  35.902  26.289  1.00  0.00    -0.237 OA
ATOM     73  O   UNL A   1      47.594  34.234  25.422  1.00  0.00    -0.237 OA
ATOM     74  O   UNL A   1      45.256  34.207  24.653  1.00  0.00    -0.744 OA
ENDBRANCH  70  71
ENDBRANCH  38  63
ENDBRANCH  12  13
ENDBRANCH   5   7
ENDBRANCH   2   3
ENDBRANCH   1   2
BRANCH   1  75
ATOM     75  C   UNL A   1      34.008  28.628  24.314  1.00  0.00     0.023 C 
BRANCH  75  76
ATOM     76  C   UNL A   1      33.748  28.529  22.820  1.00  0.00     0.116 C 
BRANCH  76  77
ATOM     77  N   UNL A   1      32.342  28.523  22.468  1.00  0.00    -0.351 N 
ATOM     78  C   UNL A   1      31.553  27.463  22.068  1.00  0.00     0.274 C 
ATOM     79  H   UNL A   1      31.887  29.394  22.522  1.00  0.00     0.163 HD
ATOM     80  O   UNL A   1      30.383  27.676  21.784  1.00  0.00    -0.267 OA
BRANCH  78  81
ATOM     81  C   UNL A   1      32.130  26.125  22.002  1.00  0.00     0.178 A 
ATOM     82  N   UNL A   1      32.912  25.731  20.941  1.00  0.00    -0.124 NA
ATOM     83  C   UNL A   1      32.046  25.082  22.916  1.00  0.00     0.108 A 
ATOM     84  N   UNL A   1      33.385  24.520  21.197  1.00  0.00    -0.061 NA
ATOM     85  N   UNL A   1      32.782  24.067  22.314  1.00  0.00    -0.212 N 
BRANCH  83  86
ATOM     86  C   UNL A   1      31.515  25.026  24.278  1.00  0.00     0.004 A 
ATOM     87  C   UNL A   1      31.585  26.171  25.095  1.00  0.00     0.010 A 
ATOM     88  C   UNL A   1      30.914  23.868  24.777  1.00  0.00     0.031 A 
ATOM     89  C   UNL A   1      31.076  26.157  26.392  1.00  0.00     0.002 A 
ATOM     90  C   UNL A   1      30.411  23.860  26.079  1.00  0.00     0.041 A 
ATOM     91  C   UNL A   1      30.489  24.996  26.886  1.00  0.00     0.020 A 
ATOM     92  Cl  UNL A   1      29.689  22.428  26.702  1.00  0.00    -0.084 Cl
ENDBRANCH  83  86
BRANCH  85  93
ATOM     93  C   UNL A   1      32.992  22.754  22.797  1.00  0.00     0.067 A 
ATOM     94  C   UNL A   1      33.952  22.528  23.787  1.00  0.00     0.029 A 
ATOM     95  C   UNL A   1      32.156  21.715  22.369  1.00  0.00     0.029 A 
ATOM     96  C   UNL A   1      33.990  21.285  24.425  1.00  0.00     0.015 A 
ATOM     97  C   UNL A   1      32.219  20.470  22.989  1.00  0.00     0.015 A 
ATOM     98  C   UNL A   1      33.111  20.252  24.048  1.00  0.00     0.056 A 
BRANCH  98  99
ATOM     99  C   UNL A   1      33.100  18.946  24.803  1.00  0.00     0.416 C 
ATOM    100  F   UNL A   1      32.128  18.097  24.372  1.00  0.00    -0.166 F 
ATOM    101  F   UNL A   1      34.274  18.267  24.679  1.00  0.00    -0.166 F 
ATOM    102  F   UNL A   1      32.898  19.094  26.143  1.00  0.00    -0.166 F 
ENDBRANCH  98  99
ENDBRANCH  85  93
ENDBRANCH  78  81
ENDBRANCH  76  77
ENDBRANCH  75  76
ENDBRANCH   1  75
TORSDOF 17
ENDMDL
MODEL 3
REMARK VINA RESULT:     -12.4      4.912      8.959
REMARK SMILES O=C(NCCCCNC(=O)c1nnn(-c2ccc(C(F)(F)F)cc2)c1-c1cccc(Cl)c1)c1ccc(-c2c3nc(c(-c4c(F)cc(S(=O)(=O)[O-])cc4F)c4ccc([nH]4)c(-c4c(F)cc(S(=O)(=O)[O-])cc4F)c4nc(c(-c5c(F)cc(S(=O)(=O)[O-])cc5F)c5ccc2[nH]5)C=C4)C=C3)cc1
REMARK SMILES IDX 5 1 4 2 3 3 1 4 2 5 33 7 34 8 98 9 35 10 97 11 36 12 37 13
REMARK SMILES IDX 38 14 91 15 39 16 96 17 90 18 92 19 40 20 95 21 89 22 88 23
REMARK SMILES IDX 41 25 75 26 54 27 74 28 55 29 58 30 73 31 93 32 56 33 57 34
REMARK SMILES IDX 72 36 94 37 59 38 42 39 43 40 52 41 44 42 45 43 51 44 53 45
REMARK SMILES IDX 46 46 47 47 48 48 49 49 50 50 76 51 77 52 86 53 78 54 79 55
REMARK SMILES IDX 85 56 87 57 80 58 81 59 82 60 83 61 84 62 60 63 61 64 70 65
REMARK SMILES IDX 62 66 63 67 69 68 71 69 64 70 65 71 66 72 67 73 68 74 6 75
REMARK SMILES IDX 7 76 8 77 9 78 10 80 11 81 12 82 25 83 13 84 14 85 26 86
REMARK SMILES IDX 27 87 32 88 28 89 30 90 29 91 31 92 15 93 16 94 24 95 17 96
REMARK SMILES IDX 23 97 18 98 19 99 20 100 21 101 22 102
REMARK H PARENT 3 6 92 24 58 35 8 79
REMARK Flexibility Score: inf
ROOT
ATOM      1  C   UNL A   1      33.912  34.161  30.625  1.00  0.00     0.023 C 
ENDROOT
BRANCH   1   2
ATOM      2  C   UNL A   1      34.663  33.993  29.301  1.00  0.00     0.116 C 
BRANCH   2   3
ATOM      3  N   UNL A   1      34.234  32.893  28.461  1.00  0.00    -0.352 N 
ATOM      4  O   UNL A   1      33.916  30.872  27.633  1.00  0.00    -0.269 OA
ATOM      5  C   UNL A   1      34.688  31.619  28.239  1.00  0.00     0.251 C 
ATOM      6  H   UNL A   1      33.434  33.109  27.929  1.00  0.00     0.163 HD
BRANCH   5   7
ATOM      7  C   UNL A   1      36.041  31.116  28.605  1.00  0.00     0.039 A 
ATOM      8  C   UNL A   1      37.122  31.910  28.988  1.00  0.00     0.014 A 
ATOM      9  C   UNL A   1      36.238  29.725  28.499  1.00  0.00     0.014 A 
ATOM     10  C   UNL A   1      38.390  31.356  29.140  1.00  0.00     0.010 A 
ATOM     11  C   UNL A   1      37.497  29.160  28.686  1.00  0.00     0.010 A 
ATOM     12  C   UNL A   1      38.582  29.986  28.965  1.00  0.00    -0.014 A 
BRANCH  12  13
ATOM     13  C   UNL A   1      39.916  29.446  29.225  1.00  0.00     0.031 A 
ATOM     14  C   UNL A   1      40.260  29.274  30.667  1.00  0.00     0.074 A 
ATOM     15  C   UNL A   1      40.733  28.978  28.262  1.00  0.00     0.049 A 
ATOM     16  N   UNL A   1      41.238  29.792  31.336  1.00  0.00    -0.248 NA
ATOM     17  C   UNL A   1      39.327  28.488  31.489  1.00  0.00     0.031 C 
ATOM     18  C   UNL A   1      40.417  28.787  26.846  1.00  0.00     0.029 A 
ATOM     19  N   UNL A   1      41.988  28.451  28.376  1.00  0.00    -0.354 N 
ATOM     20  C   UNL A   1      41.171  29.229  32.611  1.00  0.00     0.074 A 
ATOM     21  C   UNL A   1      39.895  28.569  32.691  1.00  0.00     0.031 C 
ATOM     22  C   UNL A   1      41.353  27.988  26.289  1.00  0.00     0.029 A 
ATOM     23  C   UNL A   1      42.388  27.710  27.271  1.00  0.00     0.049 A 
ATOM     24  H   UNL A   1      42.556  28.584  29.168  1.00  0.00     0.167 HD
ATOM     25  C   UNL A   1      42.261  29.148  33.424  1.00  0.00     0.037 A 
ATOM     26  C   UNL A   1      43.442  26.858  27.199  1.00  0.00     0.037 A 
ATOM     27  C   UNL A   1      43.286  30.082  33.030  1.00  0.00     0.049 A 
ATOM     28  C   UNL A   1      44.383  27.206  28.293  1.00  0.00     0.074 A 
ATOM     29  C   UNL A   1      43.351  31.453  32.863  1.00  0.00     0.029 A 
ATOM     30  N   UNL A   1      44.419  29.586  32.434  1.00  0.00    -0.354 N 
ATOM     31  N   UNL A   1      45.077  28.309  28.348  1.00  0.00    -0.248 NA
ATOM     32  C   UNL A   1      44.277  26.477  29.549  1.00  0.00     0.031 C 
ATOM     33  C   UNL A   1      44.254  31.656  31.778  1.00  0.00     0.029 A 
ATOM     34  C   UNL A   1      44.708  30.401  31.373  1.00  0.00     0.049 A 
ATOM     35  H   UNL A   1      44.929  28.793  32.717  1.00  0.00     0.167 HD
ATOM     36  C   UNL A   1      45.134  28.627  29.696  1.00  0.00     0.074 A 
ATOM     37  C   UNL A   1      44.731  27.409  30.389  1.00  0.00     0.031 C 
ATOM     38  C   UNL A   1      45.234  29.923  30.114  1.00  0.00     0.037 A 
BRANCH  25  39
ATOM     39  C   UNL A   1      42.566  27.962  34.325  1.00  0.00     0.058 A 
ATOM     40  C   UNL A   1      42.652  28.168  35.721  1.00  0.00     0.135 A 
ATOM     41  C   UNL A   1      43.093  26.734  33.864  1.00  0.00     0.135 A 
ATOM     42  F   UNL A   1      42.157  29.284  36.281  1.00  0.00    -0.206 F 
ATOM     43  C   UNL A   1      43.337  27.294  36.566  1.00  0.00     0.059 A 
ATOM     44  C   UNL A   1      43.730  25.823  34.699  1.00  0.00     0.059 A 
ATOM     45  F   UNL A   1      43.110  26.395  32.572  1.00  0.00    -0.206 F 
ATOM     46  C   UNL A   1      43.904  26.142  36.035  1.00  0.00     0.060 A 
BRANCH  46  47
ATOM     47  S   UNL A   1      44.948  25.104  37.074  1.00  0.00     0.124 S 
ATOM     48  O   UNL A   1      44.374  25.357  38.391  1.00  0.00    -0.237 OA
ATOM     49  O   UNL A   1      44.711  23.778  36.514  1.00  0.00    -0.237 OA
ATOM     50  O   UNL A   1      46.284  25.646  36.849  1.00  0.00    -0.744 OA
ENDBRANCH  46  47
ENDBRANCH  25  39
BRANCH  26  51
ATOM     51  C   UNL A   1      43.533  25.579  26.443  1.00  0.00     0.058 A 
ATOM     52  C   UNL A   1      44.458  25.412  25.398  1.00  0.00     0.135 A 
ATOM     53  C   UNL A   1      42.902  24.406  26.904  1.00  0.00     0.135 A 
ATOM     54  F   UNL A   1      45.126  26.470  24.912  1.00  0.00    -0.206 F 
ATOM     55  C   UNL A   1      44.769  24.154  24.870  1.00  0.00     0.059 A 
ATOM     56  C   UNL A   1      43.181  23.145  26.382  1.00  0.00     0.059 A 
ATOM     57  F   UNL A   1      42.056  24.432  27.945  1.00  0.00    -0.206 F 
ATOM     58  C   UNL A   1      44.136  23.022  25.383  1.00  0.00     0.060 A 
BRANCH  58  59
ATOM     59  S   UNL A   1      44.651  21.379  24.827  1.00  0.00     0.124 S 
ATOM     60  O   UNL A   1      45.952  21.237  25.473  1.00  0.00    -0.237 OA
ATOM     61  O   UNL A   1      43.584  20.530  25.345  1.00  0.00    -0.237 OA
ATOM     62  O   UNL A   1      44.689  21.510  23.372  1.00  0.00    -0.744 OA
ENDBRANCH  58  59
ENDBRANCH  26  51
BRANCH  38  63
ATOM     63  C   UNL A   1      45.666  30.967  29.123  1.00  0.00     0.058 A 
ATOM     64  C   UNL A   1      44.832  31.513  28.132  1.00  0.00     0.135 A 
ATOM     65  C   UNL A   1      46.934  31.545  29.287  1.00  0.00     0.135 A 
ATOM     66  F   UNL A   1      43.568  31.090  27.982  1.00  0.00    -0.206 F 
ATOM     67  C   UNL A   1      45.258  32.561  27.314  1.00  0.00     0.059 A 
ATOM     68  C   UNL A   1      47.367  32.611  28.505  1.00  0.00     0.059 A 
ATOM     69  F   UNL A   1      47.753  31.108  30.259  1.00  0.00    -0.206 F 
ATOM     70  C   UNL A   1      46.526  33.107  27.511  1.00  0.00     0.060 A 
BRANCH  70  71
ATOM     71  S   UNL A   1      47.034  34.527  26.518  1.00  0.00     0.124 S 
ATOM     72  O   UNL A   1      47.624  35.407  27.521  1.00  0.00    -0.237 OA
ATOM     73  O   UNL A   1      47.968  33.932  25.567  1.00  0.00    -0.237 OA
ATOM     74  O   UNL A   1      45.780  34.999  25.933  1.00  0.00    -0.744 OA
ENDBRANCH  70  71
ENDBRANCH  38  63
ENDBRANCH  12  13
ENDBRANCH   5   7
ENDBRANCH   2   3
ENDBRANCH   1   2
BRANCH   1  75
ATOM     75  C   UNL A   1      34.743  34.605  31.827  1.00  0.00     0.023 C 
BRANCH  75  76
ATOM     76  C   UNL A   1      34.893  33.582  32.941  1.00  0.00     0.116 C 
BRANCH  76  77
ATOM     77  N   UNL A   1      35.291  32.266  32.479  1.00  0.00    -0.351 N 
ATOM     78  C   UNL A   1      36.442  31.559  32.763  1.00  0.00     0.274 C 
ATOM     79  H   UNL A   1      34.652  31.815  31.880  1.00  0.00     0.163 HD
ATOM     80  O   UNL A   1      36.603  30.465  32.242  1.00  0.00    -0.267 OA
BRANCH  78  81
ATOM     81  C   UNL A   1      37.426  32.129  33.676  1.00  0.00     0.178 A 
ATOM     82  N   UNL A   1      37.455  31.784  35.007  1.00  0.00    -0.124 NA
ATOM     83  C   UNL A   1      38.456  33.025  33.416  1.00  0.00     0.108 A 
ATOM     84  N   UNL A   1      38.509  32.362  35.566  1.00  0.00    -0.061 NA
ATOM     85  N   UNL A   1      39.048  33.203  34.661  1.00  0.00    -0.212 N 
BRANCH  83  86
ATOM     86  C   UNL A   1      38.990  33.552  32.160  1.00  0.00     0.004 A 
ATOM     87  C   UNL A   1      38.247  34.506  31.439  1.00  0.00     0.010 A 
ATOM     88  C   UNL A   1      40.237  33.149  31.675  1.00  0.00     0.031 A 
ATOM     89  C   UNL A   1      38.734  35.041  30.248  1.00  0.00     0.002 A 
ATOM     90  C   UNL A   1      40.715  33.684  30.478  1.00  0.00     0.041 A 
ATOM     91  C   UNL A   1      39.971  34.626  29.765  1.00  0.00     0.020 A 
ATOM     92  Cl  UNL A   1      42.241  33.174  29.868  1.00  0.00    -0.084 Cl
ENDBRANCH  83  86
BRANCH  85  93
ATOM     93  C   UNL A   1      40.130  34.055  34.985  1.00  0.00     0.067 A 
ATOM     94  C   UNL A   1      41.427  33.538  35.026  1.00  0.00     0.029 A 
ATOM     95  C   UNL A   1      39.909  35.429  35.143  1.00  0.00     0.029 A 
ATOM     96  C   UNL A   1      42.509  34.421  35.110  1.00  0.00     0.015 A 
ATOM     97  C   UNL A   1      40.989  36.300  35.256  1.00  0.00     0.015 A 
ATOM     98  C   UNL A   1      42.301  35.809  35.204  1.00  0.00     0.056 A 
BRANCH  98  99
ATOM     99  C   UNL A   1      43.474  36.758  35.204  1.00  0.00     0.416 C 
ATOM    100  F   UNL A   1      44.363  36.497  34.208  1.00  0.00    -0.166 F 
ATOM    101  F   UNL A   1      43.091  38.054  35.036  1.00  0.00    -0.166 F 
ATOM    102  F   UNL A   1      44.194  36.731  36.362  1.00  0.00    -0.166 F 
ENDBRANCH  98  99
ENDBRANCH  85  93
ENDBRANCH  78  81
ENDBRANCH  76  77
ENDBRANCH  75  76
ENDBRANCH   1  75
TORSDOF 17
ENDMDL
