MODEL 1
REMARK VINA RESULT:     -10.9      0.000      0.000
REMARK SMILES CCc1cc2c(C)cc(=O)oc2cc1O[C@H](C)C(=O)NCCCCNC(=O)c1ccc(-c2c3nc(c(-c4c(F)cc(S(=O)(=O)[O-])cc4F)c4ccc([nH]4)c(-c4c(F)cc(S(=O)(=O)[O-])cc4F)c4nc(c(-c5c(F)cc(S(=O)(=O)[O-])cc5F)c5ccc2[nH]5)C=C4)C=C3)cc1
REMARK SMILES IDX 22 1 21 2 20 3 18 4 19 5 16 7 17 8 15 9 14 10 3 11 4 12 5 13
REMARK SMILES IDX 13 14 6 15 12 16 7 17 8 18 11 19 9 20 10 21 2 22 1 23 23 24
REMARK SMILES IDX 24 25 25 26 26 27 27 29 28 30 29 31 93 32 30 33 92 34 31 35
REMARK SMILES IDX 32 36 33 37 86 38 34 39 91 40 85 41 87 42 35 43 90 44 84 45
REMARK SMILES IDX 83 46 36 48 70 49 49 50 69 51 50 52 53 53 68 54 88 55 51 56
REMARK SMILES IDX 52 57 67 59 89 60 54 61 37 62 38 63 47 64 39 65 40 66 46 67
REMARK SMILES IDX 48 68 41 69 42 70 43 71 44 72 45 73 71 74 72 75 81 76 73 77
REMARK SMILES IDX 74 78 80 79 82 80 75 81 76 82 77 83 78 84 79 85 55 86 56 87
REMARK SMILES IDX 65 88 57 89 58 90 64 91 66 92 59 93 60 94 61 95 62 96 63 97
REMARK H PARENT 20 6 25 28 87 47 53 58
REMARK Flexibility Score: inf
ROOT
ATOM      1  C   UNL A   1      32.064  27.862  26.007  1.00  0.00     0.023 C 
ENDROOT
BRANCH   1   2
ATOM      2  C   UNL A   1      31.062  26.752  26.329  1.00  0.00     0.116 C 
BRANCH   2   3
ATOM      3  N   UNL A   1      30.592  26.116  25.116  1.00  0.00    -0.353 N 
ATOM      4  C   UNL A   1      30.709  24.817  24.720  1.00  0.00     0.260 C 
ATOM      5  O   UNL A   1      30.308  24.517  23.591  1.00  0.00    -0.271 OA
ATOM      6  H   UNL A   1      30.119  26.707  24.486  1.00  0.00     0.163 HD
BRANCH   4   7
ATOM      7  C   UNL A   1      31.286  23.744  25.657  1.00  0.00     0.258 C 
ATOM      8  C   UNL A   1      30.304  23.282  26.732  1.00  0.00     0.064 C 
BRANCH   7   9
ATOM      9  O   UNL A   1      31.752  22.618  24.906  1.00  0.00    -0.480 OA
BRANCH   9  10
ATOM     10  C   UNL A   1      33.100  22.358  24.877  1.00  0.00     0.127 A 
ATOM     11  C   UNL A   1      33.495  21.072  24.454  1.00  0.00    -0.005 A 
ATOM     12  C   UNL A   1      34.860  20.705  24.530  1.00  0.00     0.019 A 
ATOM     13  C   UNL A   1      35.833  21.585  25.018  1.00  0.00     0.021 A 
ATOM     14  C   UNL A   1      34.084  23.267  25.270  1.00  0.00     0.094 A 
ATOM     15  C   UNL A   1      37.246  21.234  25.208  1.00  0.00    -0.033 A 
ATOM     16  C   UNL A   1      35.417  22.869  25.351  1.00  0.00     0.142 A 
ATOM     17  C   UNL A   1      37.727  19.847  24.908  1.00  0.00     0.045 C 
ATOM     18  C   UNL A   1      38.077  22.172  25.686  1.00  0.00     0.098 A 
ATOM     19  O   UNL A   1      36.320  23.843  25.822  1.00  0.00    -0.423 OA
ATOM     20  C   UNL A   1      37.651  23.539  26.025  1.00  0.00     0.336 A 
ATOM     21  O   UNL A   1      38.452  24.350  26.477  1.00  0.00    -0.246 OA
BRANCH  11  22
ATOM     22  C   UNL A   1      32.513  20.084  23.854  1.00  0.00     0.036 C 
ATOM     23  C   UNL A   1      32.751  18.643  24.286  1.00  0.00     0.009 C 
ENDBRANCH  11  22
ENDBRANCH   9  10
ENDBRANCH   7   9
ENDBRANCH   4   7
ENDBRANCH   2   3
ENDBRANCH   1   2
BRANCH   1  24
ATOM     24  C   UNL A   1      33.514  27.383  25.889  1.00  0.00     0.023 C 
BRANCH  24  25
ATOM     25  C   UNL A   1      34.566  28.480  26.012  1.00  0.00     0.116 C 
BRANCH  25  26
ATOM     26  N   UNL A   1      33.992  29.765  26.380  1.00  0.00    -0.352 N 
ATOM     27  C   UNL A   1      34.386  30.642  27.359  1.00  0.00     0.251 C 
ATOM     28  H   UNL A   1      33.211  30.044  25.851  1.00  0.00     0.163 HD
ATOM     29  O   UNL A   1      33.674  31.608  27.629  1.00  0.00    -0.269 OA
BRANCH  27  30
ATOM     30  C   UNL A   1      35.641  30.408  28.104  1.00  0.00     0.039 A 
ATOM     31  C   UNL A   1      35.626  29.525  29.185  1.00  0.00     0.014 A 
ATOM     32  C   UNL A   1      36.828  31.050  27.738  1.00  0.00     0.014 A 
ATOM     33  C   UNL A   1      36.813  29.243  29.862  1.00  0.00     0.010 A 
ATOM     34  C   UNL A   1      38.025  30.703  28.360  1.00  0.00     0.010 A 
ATOM     35  C   UNL A   1      38.031  29.801  29.433  1.00  0.00    -0.014 A 
BRANCH  35  36
ATOM     36  C   UNL A   1      39.309  29.430  30.095  1.00  0.00     0.031 A 
ATOM     37  C   UNL A   1      39.778  30.162  31.323  1.00  0.00     0.074 A 
ATOM     38  C   UNL A   1      40.070  28.454  29.558  1.00  0.00     0.049 A 
ATOM     39  N   UNL A   1      40.858  29.969  32.036  1.00  0.00    -0.248 NA
ATOM     40  C   UNL A   1      38.938  31.272  31.801  1.00  0.00     0.031 C 
ATOM     41  C   UNL A   1      39.758  27.718  28.331  1.00  0.00     0.029 A 
ATOM     42  N   UNL A   1      41.261  27.913  29.974  1.00  0.00    -0.354 N 
ATOM     43  C   UNL A   1      40.832  30.933  33.037  1.00  0.00     0.074 A 
ATOM     44  C   UNL A   1      39.660  31.748  32.804  1.00  0.00     0.031 C 
ATOM     45  C   UNL A   1      40.712  26.799  28.113  1.00  0.00     0.029 A 
ATOM     46  C   UNL A   1      41.723  26.905  29.160  1.00  0.00     0.049 A 
ATOM     47  H   UNL A   1      41.739  28.218  30.779  1.00  0.00     0.167 HD
ATOM     48  C   UNL A   1      41.693  31.108  34.069  1.00  0.00     0.037 A 
ATOM     49  C   UNL A   1      42.835  26.150  29.247  1.00  0.00     0.037 A 
ATOM     50  C   UNL A   1      42.850  30.282  34.301  1.00  0.00     0.049 A 
ATOM     51  C   UNL A   1      43.769  26.354  30.408  1.00  0.00     0.074 A 
ATOM     52  C   UNL A   1      43.747  30.334  35.354  1.00  0.00     0.029 A 
ATOM     53  N   UNL A   1      43.279  29.262  33.464  1.00  0.00    -0.354 N 
ATOM     54  N   UNL A   1      43.682  27.215  31.394  1.00  0.00    -0.248 NA
ATOM     55  C   UNL A   1      44.944  25.477  30.476  1.00  0.00     0.031 C 
ATOM     56  C   UNL A   1      44.748  29.385  35.124  1.00  0.00     0.029 A 
ATOM     57  C   UNL A   1      44.443  28.697  33.961  1.00  0.00     0.049 A 
ATOM     58  H   UNL A   1      42.823  28.980  32.638  1.00  0.00     0.167 HD
ATOM     59  C   UNL A   1      44.780  26.969  32.212  1.00  0.00     0.074 A 
ATOM     60  C   UNL A   1      45.500  25.861  31.616  1.00  0.00     0.031 C 
ATOM     61  C   UNL A   1      45.158  27.601  33.352  1.00  0.00     0.037 A 
BRANCH  48  62
ATOM     62  C   UNL A   1      41.414  32.238  35.027  1.00  0.00     0.058 A 
ATOM     63  C   UNL A   1      42.057  33.481  34.915  1.00  0.00     0.135 A 
ATOM     64  C   UNL A   1      40.465  32.086  36.051  1.00  0.00     0.135 A 
ATOM     65  F   UNL A   1      42.984  33.680  33.964  1.00  0.00    -0.206 F 
ATOM     66  C   UNL A   1      41.796  34.520  35.803  1.00  0.00     0.059 A 
ATOM     67  C   UNL A   1      40.164  33.123  36.931  1.00  0.00     0.059 A 
ATOM     68  F   UNL A   1      39.817  30.920  36.207  1.00  0.00    -0.206 F 
ATOM     69  C   UNL A   1      40.847  34.331  36.808  1.00  0.00     0.060 A 
BRANCH  69  70
ATOM     70  S   UNL A   1      40.520  35.691  37.949  1.00  0.00     0.124 S 
ATOM     71  O   UNL A   1      41.871  36.052  38.366  1.00  0.00    -0.237 OA
ATOM     72  O   UNL A   1      39.842  36.659  37.094  1.00  0.00    -0.237 OA
ATOM     73  O   UNL A   1      39.689  35.079  38.980  1.00  0.00    -0.744 OA
ENDBRANCH  69  70
ENDBRANCH  48  62
BRANCH  49  74
ATOM     74  C   UNL A   1      43.109  25.115  28.212  1.00  0.00     0.058 A 
ATOM     75  C   UNL A   1      43.816  25.429  27.042  1.00  0.00     0.135 A 
ATOM     76  C   UNL A   1      42.689  23.788  28.385  1.00  0.00     0.135 A 
ATOM     77  F   UNL A   1      44.235  26.685  26.828  1.00  0.00    -0.206 F 
ATOM     78  C   UNL A   1      44.086  24.468  26.073  1.00  0.00     0.059 A 
ATOM     79  C   UNL A   1      42.970  22.803  27.443  1.00  0.00     0.059 A 
ATOM     80  F   UNL A   1      42.024  23.431  29.495  1.00  0.00    -0.206 F 
ATOM     81  C   UNL A   1      43.662  23.156  26.285  1.00  0.00     0.060 A 
BRANCH  81  82
ATOM     82  S   UNL A   1      44.068  21.904  25.048  1.00  0.00     0.124 S 
ATOM     83  O   UNL A   1      43.845  22.634  23.805  1.00  0.00    -0.237 OA
ATOM     84  O   UNL A   1      45.458  21.598  25.368  1.00  0.00    -0.237 OA
ATOM     85  O   UNL A   1      43.118  20.832  25.330  1.00  0.00    -0.744 OA
ENDBRANCH  81  82
ENDBRANCH  49  74
BRANCH  61  86
ATOM     86  C   UNL A   1      46.396  27.091  34.041  1.00  0.00     0.058 A 
ATOM     87  C   UNL A   1      47.670  27.612  33.758  1.00  0.00     0.135 A 
ATOM     88  C   UNL A   1      46.304  26.080  35.012  1.00  0.00     0.135 A 
ATOM     89  F   UNL A   1      47.816  28.578  32.837  1.00  0.00    -0.206 F 
ATOM     90  C   UNL A   1      48.812  27.116  34.378  1.00  0.00     0.059 A 
ATOM     91  C   UNL A   1      47.431  25.594  35.669  1.00  0.00     0.059 A 
ATOM     92  F   UNL A   1      45.112  25.556  35.334  1.00  0.00    -0.206 F 
ATOM     93  C   UNL A   1      48.683  26.104  35.329  1.00  0.00     0.060 A 
BRANCH  93  94
ATOM     94  S   UNL A   1      50.173  25.466  36.124  1.00  0.00     0.124 S 
ATOM     95  O   UNL A   1      50.766  24.681  35.046  1.00  0.00    -0.237 OA
ATOM     96  O   UNL A   1      50.883  26.690  36.483  1.00  0.00    -0.237 OA
ATOM     97  O   UNL A   1      49.656  24.696  37.250  1.00  0.00    -0.744 OA
ENDBRANCH  93  94
ENDBRANCH  61  86
ENDBRANCH  35  36
ENDBRANCH  27  30
ENDBRANCH  25  26
ENDBRANCH  24  25
ENDBRANCH   1  24
TORSDOF 17
ENDMDL
MODEL 2
REMARK VINA RESULT:     -10.5      0.665      8.272
REMARK SMILES CCc1cc2c(C)cc(=O)oc2cc1O[C@H](C)C(=O)NCCCCNC(=O)c1ccc(-c2c3nc(c(-c4c(F)cc(S(=O)(=O)[O-])cc4F)c4ccc([nH]4)c(-c4c(F)cc(S(=O)(=O)[O-])cc4F)c4nc(c(-c5c(F)cc(S(=O)(=O)[O-])cc5F)c5ccc2[nH]5)C=C4)C=C3)cc1
REMARK SMILES IDX 22 1 21 2 20 3 18 4 19 5 16 7 17 8 15 9 14 10 3 11 4 12 5 13
REMARK SMILES IDX 13 14 6 15 12 16 7 17 8 18 11 19 9 20 10 21 2 22 1 23 23 24
REMARK SMILES IDX 24 25 25 26 26 27 27 29 28 30 29 31 93 32 30 33 92 34 31 35
REMARK SMILES IDX 32 36 33 37 86 38 34 39 91 40 85 41 87 42 35 43 90 44 84 45
REMARK SMILES IDX 83 46 36 48 70 49 49 50 69 51 50 52 53 53 68 54 88 55 51 56
REMARK SMILES IDX 52 57 67 59 89 60 54 61 37 62 38 63 47 64 39 65 40 66 46 67
REMARK SMILES IDX 48 68 41 69 42 70 43 71 44 72 45 73 71 74 72 75 81 76 73 77
REMARK SMILES IDX 74 78 80 79 82 80 75 81 76 82 77 83 78 84 79 85 55 86 56 87
REMARK SMILES IDX 65 88 57 89 58 90 64 91 66 92 59 93 60 94 61 95 62 96 63 97
REMARK H PARENT 20 6 25 28 87 47 53 58
REMARK Flexibility Score: inf
ROOT
ATOM      1  C   UNL A   1      31.854  27.994  26.552  1.00  0.00     0.023 C 
ENDROOT
BRANCH   1   2
ATOM      2  C   UNL A   1      30.931  26.790  26.739  1.00  0.00     0.116 C 
BRANCH   2   3
ATOM      3  N   UNL A   1      30.476  26.286  25.460  1.00  0.00    -0.353 N 
ATOM      4  C   UNL A   1      30.671  25.062  24.893  1.00  0.00     0.260 C 
ATOM      5  O   UNL A   1      30.264  24.886  23.741  1.00  0.00    -0.271 OA
ATOM      6  H   UNL A   1      29.949  26.920  24.921  1.00  0.00     0.163 HD
BRANCH   4   7
ATOM      7  C   UNL A   1      31.341  23.918  25.671  1.00  0.00     0.258 C 
ATOM      8  C   UNL A   1      30.452  23.318  26.759  1.00  0.00     0.064 C 
BRANCH   7   9
ATOM      9  O   UNL A   1      31.779  22.890  24.777  1.00  0.00    -0.480 OA
BRANCH   9  10
ATOM     10  C   UNL A   1      33.108  22.546  24.771  1.00  0.00     0.127 A 
ATOM     11  C   UNL A   1      33.423  21.219  24.409  1.00  0.00    -0.005 A 
ATOM     12  C   UNL A   1      34.762  20.771  24.514  1.00  0.00     0.019 A 
ATOM     13  C   UNL A   1      35.785  21.610  24.969  1.00  0.00     0.021 A 
ATOM     14  C   UNL A   1      34.146  23.408  25.129  1.00  0.00     0.094 A 
ATOM     15  C   UNL A   1      37.173  21.179  25.186  1.00  0.00    -0.033 A 
ATOM     16  C   UNL A   1      35.450  22.930  25.240  1.00  0.00     0.142 A 
ATOM     17  C   UNL A   1      37.567  19.753  24.953  1.00  0.00     0.045 C 
ATOM     18  C   UNL A   1      38.059  22.085  25.627  1.00  0.00     0.098 A 
ATOM     19  O   UNL A   1      36.410  23.867  25.673  1.00  0.00    -0.423 OA
ATOM     20  C   UNL A   1      37.718  23.489  25.900  1.00  0.00     0.336 A 
ATOM     21  O   UNL A   1      38.567  24.268  26.322  1.00  0.00    -0.246 OA
BRANCH  11  22
ATOM     22  C   UNL A   1      32.384  20.268  23.847  1.00  0.00     0.036 C 
ATOM     23  C   UNL A   1      32.891  18.844  23.663  1.00  0.00     0.009 C 
ENDBRANCH  11  22
ENDBRANCH   9  10
ENDBRANCH   7   9
ENDBRANCH   4   7
ENDBRANCH   2   3
ENDBRANCH   1   2
BRANCH   1  24
ATOM     24  C   UNL A   1      33.317  27.627  26.286  1.00  0.00     0.023 C 
BRANCH  24  25
ATOM     25  C   UNL A   1      34.200  28.787  25.840  1.00  0.00     0.116 C 
BRANCH  25  26
ATOM     26  N   UNL A   1      33.758  30.064  26.377  1.00  0.00    -0.352 N 
ATOM     27  C   UNL A   1      34.284  30.800  27.409  1.00  0.00     0.251 C 
ATOM     28  H   UNL A   1      32.969  30.456  25.938  1.00  0.00     0.163 HD
ATOM     29  O   UNL A   1      33.673  31.782  27.827  1.00  0.00    -0.269 OA
BRANCH  27  30
ATOM     30  C   UNL A   1      35.562  30.396  28.032  1.00  0.00     0.039 A 
ATOM     31  C   UNL A   1      36.742  31.001  27.596  1.00  0.00     0.014 A 
ATOM     32  C   UNL A   1      35.600  29.431  29.043  1.00  0.00     0.014 A 
ATOM     33  C   UNL A   1      37.952  30.680  28.215  1.00  0.00     0.010 A 
ATOM     34  C   UNL A   1      36.793  29.176  29.715  1.00  0.00     0.010 A 
ATOM     35  C   UNL A   1      37.983  29.792  29.305  1.00  0.00    -0.014 A 
BRANCH  35  36
ATOM     36  C   UNL A   1      39.255  29.519  30.023  1.00  0.00     0.031 A 
ATOM     37  C   UNL A   1      40.192  28.443  29.544  1.00  0.00     0.074 A 
ATOM     38  C   UNL A   1      39.546  30.220  31.139  1.00  0.00     0.049 A 
ATOM     39  N   UNL A   1      41.346  28.074  30.039  1.00  0.00    -0.248 NA
ATOM     40  C   UNL A   1      39.769  27.662  28.371  1.00  0.00     0.031 C 
ATOM     41  C   UNL A   1      38.686  31.240  31.743  1.00  0.00     0.029 A 
ATOM     42  N   UNL A   1      40.642  30.182  31.964  1.00  0.00    -0.354 N 
ATOM     43  C   UNL A   1      41.781  27.018  29.247  1.00  0.00     0.074 A 
ATOM     44  C   UNL A   1      40.739  26.765  28.276  1.00  0.00     0.031 C 
ATOM     45  C   UNL A   1      39.301  31.755  32.819  1.00  0.00     0.029 A 
ATOM     46  C   UNL A   1      40.580  31.078  33.005  1.00  0.00     0.049 A 
ATOM     47  H   UNL A   1      41.401  29.571  31.822  1.00  0.00     0.167 HD
ATOM     48  C   UNL A   1      42.951  26.337  29.308  1.00  0.00     0.037 A 
ATOM     49  C   UNL A   1      41.454  31.326  34.000  1.00  0.00     0.037 A 
ATOM     50  C   UNL A   1      43.989  26.605  30.270  1.00  0.00     0.049 A 
ATOM     51  C   UNL A   1      42.752  30.566  34.039  1.00  0.00     0.074 A 
ATOM     52  C   UNL A   1      45.238  26.018  30.374  1.00  0.00     0.029 A 
ATOM     53  N   UNL A   1      43.897  27.529  31.302  1.00  0.00    -0.354 N 
ATOM     54  N   UNL A   1      43.184  29.629  33.229  1.00  0.00    -0.248 NA
ATOM     55  C   UNL A   1      43.686  30.906  35.120  1.00  0.00     0.031 C 
ATOM     56  C   UNL A   1      45.878  26.545  31.501  1.00  0.00     0.029 A 
ATOM     57  C   UNL A   1      45.055  27.507  32.064  1.00  0.00     0.049 A 
ATOM     58  H   UNL A   1      43.124  28.115  31.468  1.00  0.00     0.167 HD
ATOM     59  C   UNL A   1      44.450  29.282  33.689  1.00  0.00     0.074 A 
ATOM     60  C   UNL A   1      44.721  30.129  34.834  1.00  0.00     0.031 C 
ATOM     61  C   UNL A   1      45.309  28.348  33.209  1.00  0.00     0.037 A 
BRANCH  48  62
ATOM     62  C   UNL A   1      43.171  25.235  28.304  1.00  0.00     0.058 A 
ATOM     63  C   UNL A   1      42.928  23.887  28.618  1.00  0.00     0.135 A 
ATOM     64  C   UNL A   1      43.598  25.533  27.000  1.00  0.00     0.135 A 
ATOM     65  F   UNL A   1      42.533  23.540  29.853  1.00  0.00    -0.206 F 
ATOM     66  C   UNL A   1      43.134  22.873  27.687  1.00  0.00     0.059 A 
ATOM     67  C   UNL A   1      43.778  24.537  26.042  1.00  0.00     0.059 A 
ATOM     68  F   UNL A   1      43.844  26.803  26.642  1.00  0.00    -0.206 F 
ATOM     69  C   UNL A   1      43.559  23.209  26.401  1.00  0.00     0.060 A 
BRANCH  69  70
ATOM     70  S   UNL A   1      43.818  21.880  25.206  1.00  0.00     0.124 S 
ATOM     71  O   UNL A   1      45.141  21.399  25.589  1.00  0.00    -0.237 OA
ATOM     72  O   UNL A   1      42.707  20.979  25.497  1.00  0.00    -0.237 OA
ATOM     73  O   UNL A   1      43.748  22.562  23.918  1.00  0.00    -0.744 OA
ENDBRANCH  69  70
ENDBRANCH  48  62
BRANCH  49  74
ATOM     74  C   UNL A   1      41.137  32.359  35.023  1.00  0.00     0.058 A 
ATOM     75  C   UNL A   1      40.304  32.068  36.113  1.00  0.00     0.135 A 
ATOM     76  C   UNL A   1      41.677  33.651  34.942  1.00  0.00     0.135 A 
ATOM     77  F   UNL A   1      39.757  30.848  36.233  1.00  0.00    -0.206 F 
ATOM     78  C   UNL A   1      40.007  33.023  37.080  1.00  0.00     0.059 A 
ATOM     79  C   UNL A   1      41.419  34.615  35.911  1.00  0.00     0.059 A 
ATOM     80  F   UNL A   1      42.495  33.977  33.929  1.00  0.00    -0.206 F 
ATOM     81  C   UNL A   1      40.574  34.293  36.973  1.00  0.00     0.060 A 
BRANCH  81  82
ATOM     82  S   UNL A   1      40.229  35.507  38.265  1.00  0.00     0.124 S 
ATOM     83  O   UNL A   1      39.300  34.774  39.118  1.00  0.00    -0.237 OA
ATOM     84  O   UNL A   1      41.556  35.745  38.822  1.00  0.00    -0.237 OA
ATOM     85  O   UNL A   1      39.656  36.629  37.527  1.00  0.00    -0.744 OA
ENDBRANCH  81  82
ENDBRANCH  49  74
BRANCH  61  86
ATOM     86  C   UNL A   1      46.636  28.211  33.909  1.00  0.00     0.058 A 
ATOM     87  C   UNL A   1      47.754  28.973  33.535  1.00  0.00     0.135 A 
ATOM     88  C   UNL A   1      46.784  27.315  34.981  1.00  0.00     0.135 A 
ATOM     89  F   UNL A   1      47.669  29.842  32.515  1.00  0.00    -0.206 F 
ATOM     90  C   UNL A   1      48.983  28.819  34.167  1.00  0.00     0.059 A 
ATOM     91  C   UNL A   1      47.996  27.171  35.651  1.00  0.00     0.059 A 
ATOM     92  F   UNL A   1      45.745  26.572  35.392  1.00  0.00    -0.206 F 
ATOM     93  C   UNL A   1      49.095  27.912  35.222  1.00  0.00     0.060 A 
BRANCH  93  94
ATOM     94  S   UNL A   1      50.697  27.720  36.032  1.00  0.00     0.124 S 
ATOM     95  O   UNL A   1      50.796  28.966  36.784  1.00  0.00    -0.237 OA
ATOM     96  O   UNL A   1      50.502  26.511  36.827  1.00  0.00    -0.237 OA
ATOM     97  O   UNL A   1      51.629  27.585  34.916  1.00  0.00    -0.744 OA
ENDBRANCH  93  94
ENDBRANCH  61  86
ENDBRANCH  35  36
ENDBRANCH  27  30
ENDBRANCH  25  26
ENDBRANCH  24  25
ENDBRANCH   1  24
TORSDOF 17
ENDMDL
MODEL 3
REMARK VINA RESULT:     -10.4      9.391     14.320
REMARK SMILES CCc1cc2c(C)cc(=O)oc2cc1O[C@H](C)C(=O)NCCCCNC(=O)c1ccc(-c2c3nc(c(-c4c(F)cc(S(=O)(=O)[O-])cc4F)c4ccc([nH]4)c(-c4c(F)cc(S(=O)(=O)[O-])cc4F)c4nc(c(-c5c(F)cc(S(=O)(=O)[O-])cc5F)c5ccc2[nH]5)C=C4)C=C3)cc1
REMARK SMILES IDX 22 1 21 2 20 3 18 4 19 5 16 7 17 8 15 9 14 10 3 11 4 12 5 13
REMARK SMILES IDX 13 14 6 15 12 16 7 17 8 18 11 19 9 20 10 21 2 22 1 23 23 24
REMARK SMILES IDX 24 25 25 26 26 27 27 29 28 30 29 31 93 32 30 33 92 34 31 35
REMARK SMILES IDX 32 36 33 37 86 38 34 39 91 40 85 41 87 42 35 43 90 44 84 45
REMARK SMILES IDX 83 46 36 48 70 49 49 50 69 51 50 52 53 53 68 54 88 55 51 56
REMARK SMILES IDX 52 57 67 59 89 60 54 61 37 62 38 63 47 64 39 65 40 66 46 67
REMARK SMILES IDX 48 68 41 69 42 70 43 71 44 72 45 73 71 74 72 75 81 76 73 77
REMARK SMILES IDX 74 78 80 79 82 80 75 81 76 82 77 83 78 84 79 85 55 86 56 87
REMARK SMILES IDX 65 88 57 89 58 90 64 91 66 92 59 93 60 94 61 95 62 96 63 97
REMARK H PARENT 20 6 25 28 87 47 53 58
REMARK Flexibility Score: inf
ROOT
ATOM      1  C   UNL A   1      45.583  40.237  26.779  1.00  0.00     0.023 C 
ENDROOT
BRANCH   1   2
ATOM      2  C   UNL A   1      45.386  40.824  25.381  1.00  0.00     0.116 C 
BRANCH   2   3
ATOM      3  N   UNL A   1      44.786  42.140  25.454  1.00  0.00    -0.353 N 
ATOM      4  C   UNL A   1      44.877  43.181  24.580  1.00  0.00     0.260 C 
ATOM      5  O   UNL A   1      44.350  44.251  24.897  1.00  0.00    -0.271 OA
ATOM      6  H   UNL A   1      44.231  42.306  26.250  1.00  0.00     0.163 HD
BRANCH   4   7
ATOM      7  C   UNL A   1      45.579  43.026  23.221  1.00  0.00     0.258 C 
ATOM      8  C   UNL A   1      46.920  42.300  23.306  1.00  0.00     0.064 C 
BRANCH   7   9
ATOM      9  O   UNL A   1      44.723  42.361  22.286  1.00  0.00    -0.480 OA
BRANCH   9  10
ATOM     10  C   UNL A   1      44.119  43.106  21.302  1.00  0.00     0.127 A 
ATOM     11  C   UNL A   1      42.742  42.886  21.089  1.00  0.00    -0.005 A 
ATOM     12  C   UNL A   1      42.098  43.527  20.004  1.00  0.00     0.019 A 
ATOM     13  C   UNL A   1      42.791  44.373  19.131  1.00  0.00     0.021 A 
ATOM     14  C   UNL A   1      44.785  44.026  20.491  1.00  0.00     0.094 A 
ATOM     15  C   UNL A   1      42.202  44.992  17.936  1.00  0.00    -0.033 A 
ATOM     16  C   UNL A   1      44.126  44.626  19.420  1.00  0.00     0.142 A 
ATOM     17  C   UNL A   1      40.780  44.708  17.561  1.00  0.00     0.045 C 
ATOM     18  C   UNL A   1      42.978  45.784  17.182  1.00  0.00     0.098 A 
ATOM     19  O   UNL A   1      44.908  45.487  18.625  1.00  0.00    -0.423 OA
ATOM     20  C   UNL A   1      44.388  46.072  17.488  1.00  0.00     0.336 A 
ATOM     21  O   UNL A   1      45.054  46.789  16.749  1.00  0.00    -0.246 OA
BRANCH  11  22
ATOM     22  C   UNL A   1      41.907  42.035  22.026  1.00  0.00     0.036 C 
ATOM     23  C   UNL A   1      41.285  42.816  23.176  1.00  0.00     0.009 C 
ENDBRANCH  11  22
ENDBRANCH   9  10
ENDBRANCH   7   9
ENDBRANCH   4   7
ENDBRANCH   2   3
ENDBRANCH   1   2
BRANCH   1  24
ATOM     24  C   UNL A   1      45.293  38.736  26.877  1.00  0.00     0.023 C 
BRANCH  24  25
ATOM     25  C   UNL A   1      45.804  38.064  28.146  1.00  0.00     0.116 C 
BRANCH  25  26
ATOM     26  N   UNL A   1      47.255  37.966  28.180  1.00  0.00    -0.352 N 
ATOM     27  C   UNL A   1      48.046  36.852  28.298  1.00  0.00     0.251 C 
ATOM     28  H   UNL A   1      47.737  38.821  28.110  1.00  0.00     0.163 HD
ATOM     29  O   UNL A   1      49.257  36.983  28.473  1.00  0.00    -0.269 OA
BRANCH  27  30
ATOM     30  C   UNL A   1      47.442  35.503  28.245  1.00  0.00     0.039 A 
ATOM     31  C   UNL A   1      46.946  35.037  27.026  1.00  0.00     0.014 A 
ATOM     32  C   UNL A   1      47.368  34.699  29.386  1.00  0.00     0.014 A 
ATOM     33  C   UNL A   1      46.429  33.744  26.940  1.00  0.00     0.010 A 
ATOM     34  C   UNL A   1      46.931  33.381  29.279  1.00  0.00     0.010 A 
ATOM     35  C   UNL A   1      46.451  32.890  28.057  1.00  0.00    -0.014 A 
BRANCH  35  36
ATOM     36  C   UNL A   1      45.986  31.483  27.945  1.00  0.00     0.031 A 
ATOM     37  C   UNL A   1      44.574  31.110  28.307  1.00  0.00     0.074 A 
ATOM     38  C   UNL A   1      46.856  30.531  27.553  1.00  0.00     0.049 A 
ATOM     39  N   UNL A   1      43.993  29.938  28.262  1.00  0.00    -0.248 NA
ATOM     40  C   UNL A   1      43.706  32.187  28.809  1.00  0.00     0.031 C 
ATOM     41  C   UNL A   1      48.270  30.755  27.240  1.00  0.00     0.029 A 
ATOM     42  N   UNL A   1      46.684  29.184  27.349  1.00  0.00    -0.354 N 
ATOM     43  C   UNL A   1      42.700  30.134  28.735  1.00  0.00     0.074 A 
ATOM     44  C   UNL A   1      42.600  31.525  29.118  1.00  0.00     0.031 C 
ATOM     45  C   UNL A   1      48.825  29.597  26.852  1.00  0.00     0.029 A 
ATOM     46  C   UNL A   1      47.821  28.540  26.923  1.00  0.00     0.049 A 
ATOM     47  H   UNL A   1      45.825  28.724  27.494  1.00  0.00     0.167 HD
ATOM     48  C   UNL A   1      41.683  29.243  28.819  1.00  0.00     0.037 A 
ATOM     49  C   UNL A   1      48.034  27.244  26.623  1.00  0.00     0.037 A 
ATOM     50  C   UNL A   1      41.789  27.862  28.422  1.00  0.00     0.049 A 
ATOM     51  C   UNL A   1      46.886  26.275  26.713  1.00  0.00     0.074 A 
ATOM     52  C   UNL A   1      40.799  26.894  28.405  1.00  0.00     0.029 A 
ATOM     53  N   UNL A   1      42.953  27.247  27.982  1.00  0.00    -0.354 N 
ATOM     54  N   UNL A   1      45.646  26.497  27.080  1.00  0.00    -0.248 NA
ATOM     55  C   UNL A   1      47.163  24.884  26.335  1.00  0.00     0.031 C 
ATOM     56  C   UNL A   1      41.378  25.683  28.011  1.00  0.00     0.029 A 
ATOM     57  C   UNL A   1      42.713  25.907  27.720  1.00  0.00     0.049 A 
ATOM     58  H   UNL A   1      43.821  27.697  27.872  1.00  0.00     0.167 HD
ATOM     59  C   UNL A   1      44.989  25.277  26.958  1.00  0.00     0.074 A 
ATOM     60  C   UNL A   1      45.965  24.330  26.457  1.00  0.00     0.031 C 
ATOM     61  C   UNL A   1      43.697  24.970  27.233  1.00  0.00     0.037 A 
BRANCH  48  62
ATOM     62  C   UNL A   1      40.367  29.734  29.363  1.00  0.00     0.058 A 
ATOM     63  C   UNL A   1      40.190  30.030  30.725  1.00  0.00     0.135 A 
ATOM     64  C   UNL A   1      39.275  29.945  28.504  1.00  0.00     0.135 A 
ATOM     65  F   UNL A   1      41.194  29.834  31.595  1.00  0.00    -0.206 F 
ATOM     66  C   UNL A   1      38.972  30.483  31.221  1.00  0.00     0.059 A 
ATOM     67  C   UNL A   1      38.056  30.429  28.974  1.00  0.00     0.059 A 
ATOM     68  F   UNL A   1      39.385  29.681  27.193  1.00  0.00    -0.206 F 
ATOM     69  C   UNL A   1      37.910  30.679  30.337  1.00  0.00     0.060 A 
BRANCH  69  70
ATOM     70  S   UNL A   1      36.338  31.270  30.999  1.00  0.00     0.124 S 
ATOM     71  O   UNL A   1      36.751  32.491  31.684  1.00  0.00    -0.237 OA
ATOM     72  O   UNL A   1      35.543  31.461  29.791  1.00  0.00    -0.237 OA
ATOM     73  O   UNL A   1      35.903  30.181  31.868  1.00  0.00    -0.744 OA
ENDBRANCH  69  70
ENDBRANCH  48  62
BRANCH  49  74
ATOM     74  C   UNL A   1      49.385  26.797  26.187  1.00  0.00     0.058 A 
ATOM     75  C   UNL A   1      49.821  26.989  24.868  1.00  0.00     0.135 A 
ATOM     76  C   UNL A   1      50.273  26.189  27.086  1.00  0.00     0.135 A 
ATOM     77  F   UNL A   1      49.007  27.561  23.968  1.00  0.00    -0.206 F 
ATOM     78  C   UNL A   1      51.085  26.584  24.452  1.00  0.00     0.059 A 
ATOM     79  C   UNL A   1      51.553  25.800  26.702  1.00  0.00     0.059 A 
ATOM     80  F   UNL A   1      49.912  25.998  28.365  1.00  0.00    -0.206 F 
ATOM     81  C   UNL A   1      51.946  25.994  25.378  1.00  0.00     0.060 A 
BRANCH  81  82
ATOM     82  S   UNL A   1      53.605  25.524  24.841  1.00  0.00     0.124 S 
ATOM     83  O   UNL A   1      53.528  25.760  23.404  1.00  0.00    -0.237 OA
ATOM     84  O   UNL A   1      54.443  26.450  25.596  1.00  0.00    -0.237 OA
ATOM     85  O   UNL A   1      53.706  24.125  25.247  1.00  0.00    -0.744 OA
ENDBRANCH  81  82
ENDBRANCH  49  74
BRANCH  61  86
ATOM     86  C   UNL A   1      43.258  23.552  26.976  1.00  0.00     0.058 A 
ATOM     87  C   UNL A   1      43.026  22.647  28.024  1.00  0.00     0.135 A 
ATOM     88  C   UNL A   1      43.052  23.099  25.663  1.00  0.00     0.135 A 
ATOM     89  F   UNL A   1      43.210  23.026  29.299  1.00  0.00    -0.206 F 
ATOM     90  C   UNL A   1      42.649  21.330  27.778  1.00  0.00     0.059 A 
ATOM     91  C   UNL A   1      42.642  21.795  25.396  1.00  0.00     0.059 A 
ATOM     92  F   UNL A   1      43.244  23.924  24.623  1.00  0.00    -0.206 F 
ATOM     93  C   UNL A   1      42.464  20.913  26.460  1.00  0.00     0.060 A 
BRANCH  93  94
ATOM     94  S   UNL A   1      41.979  19.201  26.153  1.00  0.00     0.124 S 
ATOM     95  O   UNL A   1      42.344  18.564  27.414  1.00  0.00    -0.237 OA
ATOM     96  O   UNL A   1      40.547  19.324  25.895  1.00  0.00    -0.237 OA
ATOM     97  O   UNL A   1      42.787  18.820  25.000  1.00  0.00    -0.744 OA
ENDBRANCH  93  94
ENDBRANCH  61  86
ENDBRANCH  35  36
ENDBRANCH  27  30
ENDBRANCH  25  26
ENDBRANCH  24  25
ENDBRANCH   1  24
TORSDOF 17
ENDMDL
