MODEL 1
REMARK VINA RESULT:     -12.0      0.000      0.000
REMARK SMILES O=C(Cc1ccc(S(=O)(=O)N2CCNC(=O)C2)cc1)NCCCCNC(=O)c1ccc(-c2c3nc(c(-c4c(F)cc(S(=O)(=O)[O-])cc4F)c4ccc([nH]4)c(-c4c(F)cc(S(=O)(=O)[O-])cc4F)c4nc(c(-c5c(F)cc(S(=O)(=O)[O-])cc5F)c5ccc2[nH]5)C=C4)C=C3)cc1
REMARK SMILES IDX 22 1 21 2 20 3 1 4 2 5 3 7 4 8 5 9 19 10 6 11 18 12 7 13
REMARK SMILES IDX 8 14 9 15 10 16 11 17 12 18 17 19 13 20 15 21 14 22 16 23
REMARK SMILES IDX 23 25 24 26 25 27 26 28 27 30 28 31 29 32 93 33 30 34 92 35
REMARK SMILES IDX 31 36 32 37 33 38 86 39 34 40 91 41 85 42 87 43 35 44 90 45
REMARK SMILES IDX 84 46 83 47 36 49 70 50 49 51 69 52 50 53 53 54 68 55 88 56
REMARK SMILES IDX 51 57 52 58 67 60 89 61 54 62 37 63 38 64 47 65 39 66 40 67
REMARK SMILES IDX 46 68 48 69 41 70 42 71 43 72 44 73 45 74 71 75 72 76 81 77
REMARK SMILES IDX 73 78 74 79 80 80 82 81 75 82 76 83 77 84 78 85 79 86 55 87
REMARK SMILES IDX 56 88 65 89 57 90 58 91 64 92 66 93 59 94 60 95 61 96 62 97
REMARK SMILES IDX 63 98
REMARK H PARENT 20 6 14 24 25 29 87 48 53 59
REMARK Flexibility Score: inf
ROOT
ATOM      1  C   UNL A   1      35.685  32.349  27.757  1.00  0.00     0.023 C 
ENDROOT
BRANCH   1   2
ATOM      2  C   UNL A   1      34.481  31.456  28.061  1.00  0.00     0.116 C 
BRANCH   2   3
ATOM      3  N   UNL A   1      34.120  30.669  26.904  1.00  0.00    -0.356 N 
ATOM      4  O   UNL A   1      31.833  30.917  26.997  1.00  0.00    -0.275 OA
ATOM      5  C   UNL A   1      32.836  30.468  26.454  1.00  0.00     0.224 C 
ATOM      6  H   UNL A   1      34.850  30.244  26.400  1.00  0.00     0.163 HD
BRANCH   5   7
ATOM      7  C   UNL A   1      32.784  29.609  25.196  1.00  0.00     0.135 C 
BRANCH   7   8
ATOM      8  C   UNL A   1      32.488  28.161  25.524  1.00  0.00    -0.039 A 
ATOM      9  C   UNL A   1      33.512  27.203  25.538  1.00  0.00     0.005 A 
ATOM     10  C   UNL A   1      31.166  27.738  25.704  1.00  0.00     0.005 A 
ATOM     11  C   UNL A   1      33.217  25.854  25.736  1.00  0.00     0.022 A 
ATOM     12  C   UNL A   1      30.866  26.380  25.867  1.00  0.00     0.022 A 
ATOM     13  C   UNL A   1      31.894  25.440  25.924  1.00  0.00     0.082 A 
BRANCH  13  14
ATOM     14  S   UNL A   1      31.596  23.695  26.162  1.00  0.00     0.243 S 
ATOM     15  O   UNL A   1      31.327  23.516  27.570  1.00  0.00    -0.207 OA
ATOM     16  O   UNL A   1      30.620  23.321  25.157  1.00  0.00    -0.207 OA
BRANCH  14  17
ATOM     17  N   UNL A   1      32.987  22.848  25.768  1.00  0.00    -0.187 NA
ATOM     18  C   UNL A   1      34.127  22.728  26.690  1.00  0.00     0.124 C 
ATOM     19  C   UNL A   1      32.932  21.754  24.785  1.00  0.00     0.202 C 
ATOM     20  C   UNL A   1      34.079  21.376  27.423  1.00  0.00     0.132 C 
ATOM     21  C   UNL A   1      32.795  20.417  25.481  1.00  0.00     0.235 C 
ATOM     22  N   UNL A   1      33.452  20.282  26.682  1.00  0.00    -0.354 N 
ATOM     23  O   UNL A   1      32.176  19.469  25.006  1.00  0.00    -0.274 OA
ATOM     24  H   UNL A   1      33.506  19.380  27.073  1.00  0.00     0.163 HD
ENDBRANCH  14  17
ENDBRANCH  13  14
ENDBRANCH   7   8
ENDBRANCH   5   7
ENDBRANCH   2   3
ENDBRANCH   1   2
BRANCH   1  25
ATOM     25  C   UNL A   1      35.895  33.508  28.741  1.00  0.00     0.023 C 
BRANCH  25  26
ATOM     26  C   UNL A   1      36.898  33.239  29.861  1.00  0.00     0.116 C 
BRANCH  26  27
ATOM     27  N   UNL A   1      36.363  32.322  30.851  1.00  0.00    -0.352 N 
ATOM     28  C   UNL A   1      36.772  31.051  31.173  1.00  0.00     0.251 C 
ATOM     29  H   UNL A   1      35.597  32.662  31.368  1.00  0.00     0.163 HD
ATOM     30  O   UNL A   1      36.044  30.335  31.855  1.00  0.00    -0.269 OA
BRANCH  28  31
ATOM     31  C   UNL A   1      38.075  30.539  30.689  1.00  0.00     0.039 A 
ATOM     32  C   UNL A   1      38.266  30.374  29.316  1.00  0.00     0.014 A 
ATOM     33  C   UNL A   1      39.091  30.192  31.584  1.00  0.00     0.014 A 
ATOM     34  C   UNL A   1      39.497  29.914  28.836  1.00  0.00     0.010 A 
ATOM     35  C   UNL A   1      40.341  29.803  31.101  1.00  0.00     0.010 A 
ATOM     36  C   UNL A   1      40.557  29.657  29.722  1.00  0.00    -0.014 A 
BRANCH  36  37
ATOM     37  C   UNL A   1      41.893  29.239  29.220  1.00  0.00     0.031 A 
ATOM     38  C   UNL A   1      43.015  30.237  29.111  1.00  0.00     0.074 A 
ATOM     39  C   UNL A   1      42.082  27.968  28.810  1.00  0.00     0.049 A 
ATOM     40  N   UNL A   1      44.226  30.072  28.645  1.00  0.00    -0.248 NA
ATOM     41  C   UNL A   1      42.730  31.608  29.563  1.00  0.00     0.031 C 
ATOM     42  C   UNL A   1      41.063  26.916  28.825  1.00  0.00     0.029 A 
ATOM     43  N   UNL A   1      43.192  27.346  28.293  1.00  0.00    -0.354 N 
ATOM     44  C   UNL A   1      44.844  31.313  28.740  1.00  0.00     0.074 A 
ATOM     45  C   UNL A   1      43.856  32.236  29.253  1.00  0.00     0.031 C 
ATOM     46  C   UNL A   1      41.599  25.778  28.359  1.00  0.00     0.029 A 
ATOM     47  C   UNL A   1      42.986  26.025  27.972  1.00  0.00     0.049 A 
ATOM     48  H   UNL A   1      44.054  27.803  28.164  1.00  0.00     0.167 HD
ATOM     49  C   UNL A   1      46.125  31.649  28.449  1.00  0.00     0.037 A 
ATOM     50  C   UNL A   1      43.811  25.116  27.415  1.00  0.00     0.037 A 
ATOM     51  C   UNL A   1      47.107  30.722  27.947  1.00  0.00     0.049 A 
ATOM     52  C   UNL A   1      45.223  25.516  27.081  1.00  0.00     0.074 A 
ATOM     53  C   UNL A   1      48.443  30.953  27.666  1.00  0.00     0.029 A 
ATOM     54  N   UNL A   1      46.862  29.391  27.644  1.00  0.00    -0.354 N 
ATOM     55  N   UNL A   1      45.808  26.681  27.236  1.00  0.00    -0.248 NA
ATOM     56  C   UNL A   1      46.090  24.480  26.503  1.00  0.00     0.031 C 
ATOM     57  C   UNL A   1      48.990  29.778  27.141  1.00  0.00     0.029 A 
ATOM     58  C   UNL A   1      48.014  28.795  27.155  1.00  0.00     0.049 A 
ATOM     59  H   UNL A   1      45.997  28.935  27.760  1.00  0.00     0.167 HD
ATOM     60  C   UNL A   1      47.119  26.508  26.802  1.00  0.00     0.074 A 
ATOM     61  C   UNL A   1      47.242  25.125  26.391  1.00  0.00     0.031 C 
ATOM     62  C   UNL A   1      48.126  27.414  26.751  1.00  0.00     0.037 A 
BRANCH  49  63
ATOM     63  C   UNL A   1      46.538  33.082  28.664  1.00  0.00     0.058 A 
ATOM     64  C   UNL A   1      47.058  33.524  29.891  1.00  0.00     0.135 A 
ATOM     65  C   UNL A   1      46.447  34.018  27.620  1.00  0.00     0.135 A 
ATOM     66  F   UNL A   1      47.157  32.677  30.929  1.00  0.00    -0.206 F 
ATOM     67  C   UNL A   1      47.440  34.847  30.088  1.00  0.00     0.059 A 
ATOM     68  C   UNL A   1      46.853  35.339  27.785  1.00  0.00     0.059 A 
ATOM     69  F   UNL A   1      45.961  33.651  26.424  1.00  0.00    -0.206 F 
ATOM     70  C   UNL A   1      47.334  35.748  29.027  1.00  0.00     0.060 A 
BRANCH  70  71
ATOM     71  S   UNL A   1      47.837  37.461  29.300  1.00  0.00     0.124 S 
ATOM     72  O   UNL A   1      46.686  37.990  30.025  1.00  0.00    -0.237 OA
ATOM     73  O   UNL A   1      49.060  37.305  30.080  1.00  0.00    -0.237 OA
ATOM     74  O   UNL A   1      48.020  37.981  27.948  1.00  0.00    -0.744 OA
ENDBRANCH  70  71
ENDBRANCH  49  63
BRANCH  50  75
ATOM     75  C   UNL A   1      43.323  23.735  27.151  1.00  0.00     0.058 A 
ATOM     76  C   UNL A   1      43.053  23.298  25.845  1.00  0.00     0.135 A 
ATOM     77  C   UNL A   1      43.135  22.819  28.197  1.00  0.00     0.135 A 
ATOM     78  F   UNL A   1      43.208  24.139  24.810  1.00  0.00    -0.206 F 
ATOM     79  C   UNL A   1      42.601  22.008  25.586  1.00  0.00     0.059 A 
ATOM     80  C   UNL A   1      42.713  21.514  27.961  1.00  0.00     0.059 A 
ATOM     81  F   UNL A   1      43.396  23.179  29.463  1.00  0.00    -0.206 F 
ATOM     82  C   UNL A   1      42.439  21.121  26.652  1.00  0.00     0.060 A 
BRANCH  82  83
ATOM     83  S   UNL A   1      41.905  19.432  26.300  1.00  0.00     0.124 S 
ATOM     84  O   UNL A   1      42.440  18.710  27.449  1.00  0.00    -0.237 OA
ATOM     85  O   UNL A   1      40.454  19.575  26.253  1.00  0.00    -0.237 OA
ATOM     86  O   UNL A   1      42.541  19.140  25.019  1.00  0.00    -0.744 OA
ENDBRANCH  82  83
ENDBRANCH  50  75
BRANCH  62  87
ATOM     87  C   UNL A   1      49.470  26.934  26.266  1.00  0.00     0.058 A 
ATOM     88  C   UNL A   1      50.372  26.276  27.116  1.00  0.00     0.135 A 
ATOM     89  C   UNL A   1      49.835  27.091  24.919  1.00  0.00     0.135 A 
ATOM     90  F   UNL A   1      50.077  26.103  28.414  1.00  0.00    -0.206 F 
ATOM     91  C   UNL A   1      51.599  25.811  26.652  1.00  0.00     0.059 A 
ATOM     92  C   UNL A   1      51.044  26.607  24.427  1.00  0.00     0.059 A 
ATOM     93  F   UNL A   1      49.006  27.706  24.061  1.00  0.00    -0.206 F 
ATOM     94  C   UNL A   1      51.925  25.979  25.305  1.00  0.00     0.060 A 
BRANCH  94  95
ATOM     95  S   UNL A   1      53.506  25.341  24.711  1.00  0.00     0.124 S 
ATOM     96  O   UNL A   1      53.390  25.561  23.273  1.00  0.00    -0.237 OA
ATOM     97  O   UNL A   1      54.466  26.192  25.406  1.00  0.00    -0.237 OA
ATOM     98  O   UNL A   1      53.492  23.945  25.136  1.00  0.00    -0.744 OA
ENDBRANCH  94  95
ENDBRANCH  62  87
ENDBRANCH  36  37
ENDBRANCH  28  31
ENDBRANCH  26  27
ENDBRANCH  25  26
ENDBRANCH   1  25
TORSDOF 17
ENDMDL
MODEL 2
REMARK VINA RESULT:     -11.9      6.304     12.094
REMARK SMILES O=C(Cc1ccc(S(=O)(=O)N2CCNC(=O)C2)cc1)NCCCCNC(=O)c1ccc(-c2c3nc(c(-c4c(F)cc(S(=O)(=O)[O-])cc4F)c4ccc([nH]4)c(-c4c(F)cc(S(=O)(=O)[O-])cc4F)c4nc(c(-c5c(F)cc(S(=O)(=O)[O-])cc5F)c5ccc2[nH]5)C=C4)C=C3)cc1
REMARK SMILES IDX 22 1 21 2 20 3 1 4 2 5 3 7 4 8 5 9 19 10 6 11 18 12 7 13
REMARK SMILES IDX 8 14 9 15 10 16 11 17 12 18 17 19 13 20 15 21 14 22 16 23
REMARK SMILES IDX 23 25 24 26 25 27 26 28 27 30 28 31 29 32 93 33 30 34 92 35
REMARK SMILES IDX 31 36 32 37 33 38 86 39 34 40 91 41 85 42 87 43 35 44 90 45
REMARK SMILES IDX 84 46 83 47 36 49 70 50 49 51 69 52 50 53 53 54 68 55 88 56
REMARK SMILES IDX 51 57 52 58 67 60 89 61 54 62 37 63 38 64 47 65 39 66 40 67
REMARK SMILES IDX 46 68 48 69 41 70 42 71 43 72 44 73 45 74 71 75 72 76 81 77
REMARK SMILES IDX 73 78 74 79 80 80 82 81 75 82 76 83 77 84 78 85 79 86 55 87
REMARK SMILES IDX 56 88 65 89 57 90 58 91 64 92 66 93 59 94 60 95 61 96 62 97
REMARK SMILES IDX 63 98
REMARK H PARENT 20 6 14 24 25 29 87 48 53 59
REMARK Flexibility Score: inf
ROOT
ATOM      1  C   UNL A   1      39.698  22.736  26.769  1.00  0.00     0.023 C 
ENDROOT
BRANCH   1   2
ATOM      2  C   UNL A   1      38.769  21.753  26.055  1.00  0.00     0.116 C 
BRANCH   2   3
ATOM      3  N   UNL A   1      38.060  22.406  24.978  1.00  0.00    -0.356 N 
ATOM      4  O   UNL A   1      36.107  21.190  25.041  1.00  0.00    -0.275 OA
ATOM      5  C   UNL A   1      36.789  22.088  24.561  1.00  0.00     0.224 C 
ATOM      6  H   UNL A   1      38.524  23.135  24.507  1.00  0.00     0.163 HD
BRANCH   5   7
ATOM      7  C   UNL A   1      36.309  22.973  23.417  1.00  0.00     0.135 C 
BRANCH   7   8
ATOM      8  C   UNL A   1      35.210  23.912  23.864  1.00  0.00    -0.039 A 
ATOM      9  C   UNL A   1      35.154  24.377  25.186  1.00  0.00     0.005 A 
ATOM     10  C   UNL A   1      34.166  24.237  22.989  1.00  0.00     0.005 A 
ATOM     11  C   UNL A   1      34.080  25.156  25.618  1.00  0.00     0.022 A 
ATOM     12  C   UNL A   1      33.070  24.989  23.433  1.00  0.00     0.022 A 
ATOM     13  C   UNL A   1      33.044  25.484  24.736  1.00  0.00     0.082 A 
BRANCH  13  14
ATOM     14  S   UNL A   1      31.701  26.477  25.366  1.00  0.00     0.243 S 
ATOM     15  O   UNL A   1      30.501  25.997  24.722  1.00  0.00    -0.207 OA
ATOM     16  O   UNL A   1      31.838  26.455  26.810  1.00  0.00    -0.207 OA
BRANCH  14  17
ATOM     17  N   UNL A   1      31.950  28.073  24.921  1.00  0.00    -0.187 NA
ATOM     18  C   UNL A   1      33.290  28.620  24.659  1.00  0.00     0.124 C 
ATOM     19  C   UNL A   1      30.884  28.826  24.239  1.00  0.00     0.202 C 
ATOM     20  C   UNL A   1      33.565  28.650  23.145  1.00  0.00     0.132 C 
ATOM     21  C   UNL A   1      31.084  28.794  22.740  1.00  0.00     0.235 C 
ATOM     22  N   UNL A   1      32.386  28.815  22.296  1.00  0.00    -0.354 N 
ATOM     23  O   UNL A   1      30.157  28.796  21.935  1.00  0.00    -0.274 OA
ATOM     24  H   UNL A   1      32.536  28.952  21.332  1.00  0.00     0.163 HD
ENDBRANCH  14  17
ENDBRANCH  13  14
ENDBRANCH   7   8
ENDBRANCH   5   7
ENDBRANCH   2   3
ENDBRANCH   1   2
BRANCH   1  25
ATOM     25  C   UNL A   1      40.942  22.102  27.409  1.00  0.00     0.023 C 
BRANCH  25  26
ATOM     26  C   UNL A   1      42.152  23.024  27.532  1.00  0.00     0.116 C 
BRANCH  26  27
ATOM     27  N   UNL A   1      42.309  23.864  26.359  1.00  0.00    -0.352 N 
ATOM     28  C   UNL A   1      42.072  25.209  26.212  1.00  0.00     0.251 C 
ATOM     29  H   UNL A   1      42.634  23.403  25.552  1.00  0.00     0.163 HD
ATOM     30  O   UNL A   1      42.015  25.695  25.085  1.00  0.00    -0.269 OA
BRANCH  28  31
ATOM     31  C   UNL A   1      41.868  26.067  27.401  1.00  0.00     0.039 A 
ATOM     32  C   UNL A   1      42.847  27.007  27.731  1.00  0.00     0.014 A 
ATOM     33  C   UNL A   1      40.735  25.926  28.208  1.00  0.00     0.014 A 
ATOM     34  C   UNL A   1      42.663  27.843  28.836  1.00  0.00     0.010 A 
ATOM     35  C   UNL A   1      40.518  26.809  29.265  1.00  0.00     0.010 A 
ATOM     36  C   UNL A   1      41.481  27.775  29.594  1.00  0.00    -0.014 A 
BRANCH  36  37
ATOM     37  C   UNL A   1      41.240  28.710  30.726  1.00  0.00     0.031 A 
ATOM     38  C   UNL A   1      42.057  28.611  31.987  1.00  0.00     0.074 A 
ATOM     39  C   UNL A   1      40.245  29.616  30.639  1.00  0.00     0.049 A 
ATOM     40  N   UNL A   1      41.952  29.297  33.095  1.00  0.00    -0.248 NA
ATOM     41  C   UNL A   1      43.114  27.588  32.014  1.00  0.00     0.031 C 
ATOM     42  C   UNL A   1      39.354  29.785  29.489  1.00  0.00     0.029 A 
ATOM     43  N   UNL A   1      39.808  30.560  31.536  1.00  0.00    -0.354 N 
ATOM     44  C   UNL A   1      42.921  28.789  33.952  1.00  0.00     0.074 A 
ATOM     45  C   UNL A   1      43.564  27.695  33.256  1.00  0.00     0.031 C 
ATOM     46  C   UNL A   1      38.493  30.782  29.741  1.00  0.00     0.029 A 
ATOM     47  C   UNL A   1      38.738  31.297  31.086  1.00  0.00     0.049 A 
ATOM     48  H   UNL A   1      40.222  30.696  32.419  1.00  0.00     0.167 HD
ATOM     49  C   UNL A   1      43.262  29.208  35.195  1.00  0.00     0.037 A 
ATOM     50  C   UNL A   1      38.023  32.268  31.688  1.00  0.00     0.037 A 
ATOM     51  C   UNL A   1      42.623  30.305  35.879  1.00  0.00     0.049 A 
ATOM     52  C   UNL A   1      38.405  32.705  33.077  1.00  0.00     0.074 A 
ATOM     53  C   UNL A   1      42.925  30.837  37.120  1.00  0.00     0.029 A 
ATOM     54  N   UNL A   1      41.550  31.032  35.385  1.00  0.00    -0.354 N 
ATOM     55  N   UNL A   1      39.366  32.252  33.848  1.00  0.00    -0.248 NA
ATOM     56  C   UNL A   1      37.613  33.787  33.676  1.00  0.00     0.031 C 
ATOM     57  C   UNL A   1      42.001  31.849  37.401  1.00  0.00     0.029 A 
ATOM     58  C   UNL A   1      41.162  31.992  36.307  1.00  0.00     0.049 A 
ATOM     59  H   UNL A   1      41.126  30.890  34.507  1.00  0.00     0.167 HD
ATOM     60  C   UNL A   1      39.311  33.014  35.010  1.00  0.00     0.074 A 
ATOM     61  C   UNL A   1      38.231  33.963  34.835  1.00  0.00     0.031 C 
ATOM     62  C   UNL A   1      40.085  32.935  36.120  1.00  0.00     0.037 A 
BRANCH  49  63
ATOM     63  C   UNL A   1      44.374  28.477  35.900  1.00  0.00     0.058 A 
ATOM     64  C   UNL A   1      45.719  28.849  35.740  1.00  0.00     0.135 A 
ATOM     65  C   UNL A   1      44.092  27.415  36.775  1.00  0.00     0.135 A 
ATOM     66  F   UNL A   1      46.051  29.849  34.907  1.00  0.00    -0.206 F 
ATOM     67  C   UNL A   1      46.746  28.173  36.392  1.00  0.00     0.059 A 
ATOM     68  C   UNL A   1      45.100  26.746  37.463  1.00  0.00     0.059 A 
ATOM     69  F   UNL A   1      42.825  27.019  36.970  1.00  0.00    -0.206 F 
ATOM     70  C   UNL A   1      46.426  27.122  37.253  1.00  0.00     0.060 A 
BRANCH  70  71
ATOM     71  S   UNL A   1      47.770  26.259  38.093  1.00  0.00     0.124 S 
ATOM     72  O   UNL A   1      48.547  25.759  36.963  1.00  0.00    -0.237 OA
ATOM     73  O   UNL A   1      48.393  27.329  38.865  1.00  0.00    -0.237 OA
ATOM     74  O   UNL A   1      47.082  25.240  38.880  1.00  0.00    -0.744 OA
ENDBRANCH  70  71
ENDBRANCH  49  63
BRANCH  50  75
ATOM     75  C   UNL A   1      36.881  32.900  30.973  1.00  0.00     0.058 A 
ATOM     76  C   UNL A   1      37.093  33.875  29.986  1.00  0.00     0.135 A 
ATOM     77  C   UNL A   1      35.556  32.529  31.248  1.00  0.00     0.135 A 
ATOM     78  F   UNL A   1      38.341  34.271  29.691  1.00  0.00    -0.206 F 
ATOM     79  C   UNL A   1      36.034  34.470  29.308  1.00  0.00     0.059 A 
ATOM     80  C   UNL A   1      34.481  33.087  30.563  1.00  0.00     0.059 A 
ATOM     81  F   UNL A   1      35.298  31.588  32.171  1.00  0.00    -0.206 F 
ATOM     82  C   UNL A   1      34.730  34.064  29.601  1.00  0.00     0.060 A 
BRANCH  82  83
ATOM     83  S   UNL A   1      33.365  34.801  28.676  1.00  0.00     0.124 S 
ATOM     84  O   UNL A   1      34.017  35.949  28.056  1.00  0.00    -0.237 OA
ATOM     85  O   UNL A   1      32.986  33.717  27.776  1.00  0.00    -0.237 OA
ATOM     86  O   UNL A   1      32.389  35.116  29.715  1.00  0.00    -0.744 OA
ENDBRANCH  82  83
ENDBRANCH  50  75
BRANCH  62  87
ATOM     87  C   UNL A   1      39.823  33.924  37.226  1.00  0.00     0.058 A 
ATOM     88  C   UNL A   1      39.027  33.602  38.336  1.00  0.00     0.135 A 
ATOM     89  C   UNL A   1      40.420  35.195  37.196  1.00  0.00     0.135 A 
ATOM     90  F   UNL A   1      38.427  32.403  38.413  1.00  0.00    -0.206 F 
ATOM     91  C   UNL A   1      38.814  34.513  39.366  1.00  0.00     0.059 A 
ATOM     92  C   UNL A   1      40.245  36.111  38.229  1.00  0.00     0.059 A 
ATOM     93  F   UNL A   1      41.197  35.553  36.161  1.00  0.00    -0.206 F 
ATOM     94  C   UNL A   1      39.429  35.764  39.305  1.00  0.00     0.060 A 
BRANCH  94  95
ATOM     95  S   UNL A   1      39.170  36.923  40.664  1.00  0.00     0.124 S 
ATOM     96  O   UNL A   1      38.366  37.957  40.020  1.00  0.00    -0.237 OA
ATOM     97  O   UNL A   1      38.473  36.099  41.647  1.00  0.00    -0.237 OA
ATOM     98  O   UNL A   1      40.524  37.321  41.036  1.00  0.00    -0.744 OA
ENDBRANCH  94  95
ENDBRANCH  62  87
ENDBRANCH  36  37
ENDBRANCH  28  31
ENDBRANCH  26  27
ENDBRANCH  25  26
ENDBRANCH   1  25
TORSDOF 17
ENDMDL
MODEL 3
REMARK VINA RESULT:     -11.8      6.195     12.081
REMARK SMILES O=C(Cc1ccc(S(=O)(=O)N2CCNC(=O)C2)cc1)NCCCCNC(=O)c1ccc(-c2c3nc(c(-c4c(F)cc(S(=O)(=O)[O-])cc4F)c4ccc([nH]4)c(-c4c(F)cc(S(=O)(=O)[O-])cc4F)c4nc(c(-c5c(F)cc(S(=O)(=O)[O-])cc5F)c5ccc2[nH]5)C=C4)C=C3)cc1
REMARK SMILES IDX 22 1 21 2 20 3 1 4 2 5 3 7 4 8 5 9 19 10 6 11 18 12 7 13
REMARK SMILES IDX 8 14 9 15 10 16 11 17 12 18 17 19 13 20 15 21 14 22 16 23
REMARK SMILES IDX 23 25 24 26 25 27 26 28 27 30 28 31 29 32 93 33 30 34 92 35
REMARK SMILES IDX 31 36 32 37 33 38 86 39 34 40 91 41 85 42 87 43 35 44 90 45
REMARK SMILES IDX 84 46 83 47 36 49 70 50 49 51 69 52 50 53 53 54 68 55 88 56
REMARK SMILES IDX 51 57 52 58 67 60 89 61 54 62 37 63 38 64 47 65 39 66 40 67
REMARK SMILES IDX 46 68 48 69 41 70 42 71 43 72 44 73 45 74 71 75 72 76 81 77
REMARK SMILES IDX 73 78 74 79 80 80 82 81 75 82 76 83 77 84 78 85 79 86 55 87
REMARK SMILES IDX 56 88 65 89 57 90 58 91 64 92 66 93 59 94 60 95 61 96 62 97
REMARK SMILES IDX 63 98
REMARK H PARENT 20 6 14 24 25 29 87 48 53 59
REMARK Flexibility Score: inf
ROOT
ATOM      1  C   UNL A   1      42.553  21.557  26.245  1.00  0.00     0.023 C 
ENDROOT
BRANCH   1   2
ATOM      2  C   UNL A   1      41.345  21.473  27.179  1.00  0.00     0.116 C 
BRANCH   2   3
ATOM      3  N   UNL A   1      40.154  21.108  26.448  1.00  0.00    -0.356 N 
ATOM      4  O   UNL A   1      39.136  23.171  26.361  1.00  0.00    -0.275 OA
ATOM      5  C   UNL A   1      39.151  21.976  26.085  1.00  0.00     0.224 C 
ATOM      6  H   UNL A   1      40.053  20.164  26.189  1.00  0.00     0.163 HD
BRANCH   5   7
ATOM      7  C   UNL A   1      38.038  21.292  25.301  1.00  0.00     0.135 C 
BRANCH   7   8
ATOM      8  C   UNL A   1      36.920  22.256  24.966  1.00  0.00    -0.039 A 
ATOM      9  C   UNL A   1      36.072  22.750  25.967  1.00  0.00     0.005 A 
ATOM     10  C   UNL A   1      36.648  22.578  23.631  1.00  0.00     0.005 A 
ATOM     11  C   UNL A   1      34.980  23.553  25.637  1.00  0.00     0.022 A 
ATOM     12  C   UNL A   1      35.531  23.354  23.297  1.00  0.00     0.022 A 
ATOM     13  C   UNL A   1      34.718  23.877  24.301  1.00  0.00     0.082 A 
BRANCH  13  14
ATOM     14  S   UNL A   1      33.297  24.903  23.958  1.00  0.00     0.243 S 
ATOM     15  O   UNL A   1      33.275  25.923  24.980  1.00  0.00    -0.207 OA
ATOM     16  O   UNL A   1      33.390  25.249  22.553  1.00  0.00    -0.207 OA
BRANCH  14  17
ATOM     17  N   UNL A   1      31.909  23.973  24.095  1.00  0.00    -0.187 NA
ATOM     18  C   UNL A   1      31.791  22.638  23.490  1.00  0.00     0.124 C 
ATOM     19  C   UNL A   1      31.002  24.163  25.238  1.00  0.00     0.202 C 
ATOM     20  C   UNL A   1      32.054  21.550  24.546  1.00  0.00     0.132 C 
ATOM     21  C   UNL A   1      31.301  23.160  26.330  1.00  0.00     0.235 C 
ATOM     22  N   UNL A   1      31.699  21.909  25.918  1.00  0.00    -0.354 N 
ATOM     23  O   UNL A   1      31.163  23.401  27.526  1.00  0.00    -0.274 OA
ATOM     24  H   UNL A   1      31.748  21.199  26.600  1.00  0.00     0.163 HD
ENDBRANCH  14  17
ENDBRANCH  13  14
ENDBRANCH   7   8
ENDBRANCH   5   7
ENDBRANCH   2   3
ENDBRANCH   1   2
BRANCH   1  25
ATOM     25  C   UNL A   1      43.769  22.293  26.824  1.00  0.00     0.023 C 
BRANCH  25  26
ATOM     26  C   UNL A   1      43.602  23.803  26.983  1.00  0.00     0.116 C 
BRANCH  26  27
ATOM     27  N   UNL A   1      42.828  24.374  25.896  1.00  0.00    -0.352 N 
ATOM     28  C   UNL A   1      41.879  25.366  25.930  1.00  0.00     0.251 C 
ATOM     29  H   UNL A   1      43.012  23.997  25.005  1.00  0.00     0.163 HD
ATOM     30  O   UNL A   1      41.149  25.540  24.957  1.00  0.00    -0.269 OA
BRANCH  28  31
ATOM     31  C   UNL A   1      41.721  26.210  27.136  1.00  0.00     0.039 A 
ATOM     32  C   UNL A   1      42.540  27.331  27.287  1.00  0.00     0.014 A 
ATOM     33  C   UNL A   1      40.794  25.883  28.130  1.00  0.00     0.014 A 
ATOM     34  C   UNL A   1      42.391  28.155  28.407  1.00  0.00     0.010 A 
ATOM     35  C   UNL A   1      40.597  26.744  29.209  1.00  0.00     0.010 A 
ATOM     36  C   UNL A   1      41.395  27.888  29.361  1.00  0.00    -0.014 A 
BRANCH  36  37
ATOM     37  C   UNL A   1      41.176  28.798  30.518  1.00  0.00     0.031 A 
ATOM     38  C   UNL A   1      42.015  28.670  31.761  1.00  0.00     0.074 A 
ATOM     39  C   UNL A   1      40.182  29.708  30.468  1.00  0.00     0.049 A 
ATOM     40  N   UNL A   1      41.932  29.332  32.886  1.00  0.00    -0.248 NA
ATOM     41  C   UNL A   1      43.071  27.645  31.746  1.00  0.00     0.031 C 
ATOM     42  C   UNL A   1      39.271  29.903  29.338  1.00  0.00     0.029 A 
ATOM     43  N   UNL A   1      39.763  30.633  31.394  1.00  0.00    -0.354 N 
ATOM     44  C   UNL A   1      42.915  28.803  33.713  1.00  0.00     0.074 A 
ATOM     45  C   UNL A   1      43.543  27.724  32.983  1.00  0.00     0.031 C 
ATOM     46  C   UNL A   1      38.416  30.896  29.628  1.00  0.00     0.029 A 
ATOM     47  C   UNL A   1      38.687  31.382  30.979  1.00  0.00     0.049 A 
ATOM     48  H   UNL A   1      40.193  30.748  32.271  1.00  0.00     0.167 HD
ATOM     49  C   UNL A   1      43.279  29.194  34.959  1.00  0.00     0.037 A 
ATOM     50  C   UNL A   1      37.986  32.340  31.615  1.00  0.00     0.037 A 
ATOM     51  C   UNL A   1      42.655  30.277  35.678  1.00  0.00     0.049 A 
ATOM     52  C   UNL A   1      38.394  32.746  33.007  1.00  0.00     0.074 A 
ATOM     53  C   UNL A   1      42.981  30.781  36.925  1.00  0.00     0.029 A 
ATOM     54  N   UNL A   1      41.575  31.017  35.220  1.00  0.00    -0.354 N 
ATOM     55  N   UNL A   1      39.367  32.275  33.750  1.00  0.00    -0.248 NA
ATOM     56  C   UNL A   1      37.614  33.816  33.643  1.00  0.00     0.031 C 
ATOM     57  C   UNL A   1      42.064  31.788  37.245  1.00  0.00     0.029 A 
ATOM     58  C   UNL A   1      41.206  31.957  36.170  1.00  0.00     0.049 A 
ATOM     59  H   UNL A   1      41.136  30.895  34.347  1.00  0.00     0.167 HD
ATOM     60  C   UNL A   1      39.334  33.011  34.930  1.00  0.00     0.074 A 
ATOM     61  C   UNL A   1      38.254  33.966  34.795  1.00  0.00     0.031 C 
ATOM     62  C   UNL A   1      40.129  32.906  36.023  1.00  0.00     0.037 A 
BRANCH  49  63
ATOM     63  C   UNL A   1      44.402  28.446  35.628  1.00  0.00     0.058 A 
ATOM     64  C   UNL A   1      44.165  27.307  36.415  1.00  0.00     0.135 A 
ATOM     65  C   UNL A   1      45.737  28.848  35.451  1.00  0.00     0.135 A 
ATOM     66  F   UNL A   1      42.909  26.882  36.630  1.00  0.00    -0.206 F 
ATOM     67  C   UNL A   1      45.203  26.616  37.032  1.00  0.00     0.059 A 
ATOM     68  C   UNL A   1      46.794  28.153  36.031  1.00  0.00     0.059 A 
ATOM     69  F   UNL A   1      46.024  29.926  34.705  1.00  0.00    -0.206 F 
ATOM     70  C   UNL A   1      46.516  27.047  36.833  1.00  0.00     0.060 A 
BRANCH  70  71
ATOM     71  S   UNL A   1      47.851  26.137  37.638  1.00  0.00     0.124 S 
ATOM     72  O   UNL A   1      47.687  24.807  37.059  1.00  0.00    -0.237 OA
ATOM     73  O   UNL A   1      49.034  26.873  37.205  1.00  0.00    -0.237 OA
ATOM     74  O   UNL A   1      47.531  26.248  39.058  1.00  0.00    -0.744 OA
ENDBRANCH  70  71
ENDBRANCH  49  63
BRANCH  50  75
ATOM     75  C   UNL A   1      36.832  32.991  30.935  1.00  0.00     0.058 A 
ATOM     76  C   UNL A   1      35.512  32.684  31.293  1.00  0.00     0.135 A 
ATOM     77  C   UNL A   1      37.029  33.946  29.926  1.00  0.00     0.135 A 
ATOM     78  F   UNL A   1      35.269  31.771  32.247  1.00  0.00    -0.206 F 
ATOM     79  C   UNL A   1      34.426  33.289  30.667  1.00  0.00     0.059 A 
ATOM     80  C   UNL A   1      35.962  34.587  29.305  1.00  0.00     0.059 A 
ATOM     81  F   UNL A   1      38.273  34.289  29.556  1.00  0.00    -0.206 F 
ATOM     82  C   UNL A   1      34.662  34.244  29.677  1.00  0.00     0.060 A 
BRANCH  82  83
ATOM     83  S   UNL A   1      33.248  35.065  28.909  1.00  0.00     0.124 S 
ATOM     84  O   UNL A   1      33.888  36.200  28.254  1.00  0.00    -0.237 OA
ATOM     85  O   UNL A   1      32.734  34.023  28.026  1.00  0.00    -0.237 OA
ATOM     86  O   UNL A   1      32.393  35.392  30.046  1.00  0.00    -0.744 OA
ENDBRANCH  82  83
ENDBRANCH  50  75
BRANCH  62  87
ATOM     87  C   UNL A   1      39.889  33.871  37.154  1.00  0.00     0.058 A 
ATOM     88  C   UNL A   1      40.414  35.172  37.143  1.00  0.00     0.135 A 
ATOM     89  C   UNL A   1      39.078  33.503  38.240  1.00  0.00     0.135 A 
ATOM     90  F   UNL A   1      41.201  35.575  36.132  1.00  0.00    -0.206 F 
ATOM     91  C   UNL A   1      40.163  36.067  38.179  1.00  0.00     0.059 A 
ATOM     92  C   UNL A   1      38.788  34.391  39.272  1.00  0.00     0.059 A 
ATOM     93  F   UNL A   1      38.542  32.273  38.299  1.00  0.00    -0.206 F 
ATOM     94  C   UNL A   1      39.347  35.668  39.238  1.00  0.00     0.060 A 
BRANCH  94  95
ATOM     95  S   UNL A   1      39.003  36.850  40.558  1.00  0.00     0.124 S 
ATOM     96  O   UNL A   1      38.049  36.108  41.376  1.00  0.00    -0.237 OA
ATOM     97  O   UNL A   1      40.323  37.049  41.150  1.00  0.00    -0.237 OA
ATOM     98  O   UNL A   1      38.459  38.004  39.850  1.00  0.00    -0.744 OA
ENDBRANCH  94  95
ENDBRANCH  62  87
ENDBRANCH  36  37
ENDBRANCH  28  31
ENDBRANCH  26  27
ENDBRANCH  25  26
ENDBRANCH   1  25
TORSDOF 17
ENDMDL
