MODEL 1
REMARK VINA RESULT:     -11.8      0.000      0.000
REMARK SMILES O=C(C[C@@H](C(=O)N(c1ccccc1)c1ccccc1)[NH+]1CCOCC1)NCCCCNC(=O)c1ccc(-c2c3nc(c(-c4c(F)cc(S(=O)(=O)[O-])cc4F)c4ccc([nH]4)c(-c4c(F)cc(S(=O)(=O)[O-])cc4F)c4nc(c(-c5c(F)cc(S(=O)(=O)[O-])cc5F)c5ccc2[nH]5)C=C4)C=C3)cc1
REMARK SMILES IDX 28 1 27 2 26 3 1 4 2 5 3 7 4 8 5 9 6 10 7 11 8 12 9 13 13 14
REMARK SMILES IDX 10 15 12 16 11 17 14 18 15 19 19 20 16 21 18 22 17 23 20 24
REMARK SMILES IDX 21 25 25 26 22 28 24 29 23 30 29 31 30 32 31 33 32 34 33 36
REMARK SMILES IDX 34 37 35 38 99 39 36 40 98 41 37 42 38 43 39 44 92 45 40 46
REMARK SMILES IDX 97 47 91 48 93 49 41 50 96 51 90 52 89 53 42 55 76 56 55 57
REMARK SMILES IDX 75 58 56 59 59 60 74 61 94 62 57 63 58 64 73 66 95 67 60 68
REMARK SMILES IDX 43 69 44 70 53 71 45 72 46 73 52 74 54 75 47 76 48 77 49 78
REMARK SMILES IDX 50 79 51 80 77 81 78 82 87 83 79 84 80 85 86 86 88 87 81 88
REMARK SMILES IDX 82 89 83 90 84 91 85 92 61 93 62 94 71 95 63 96 64 97 70 98
REMARK SMILES IDX 72 99 65 100 66 101 67 102 68 103 69 104
REMARK H PARENT 26 6 20 27 31 35 93 54 59 65
REMARK Flexibility Score: inf
ROOT
ATOM      1  C   UNL A   1      32.635  29.624  27.252  1.00  0.00     0.023 C 
ENDROOT
BRANCH   1   2
ATOM      2  C   UNL A   1      31.474  28.627  27.321  1.00  0.00     0.116 C 
BRANCH   2   3
ATOM      3  N   UNL A   1      31.266  27.850  26.106  1.00  0.00    -0.356 N 
ATOM      4  O   UNL A   1      31.298  25.787  27.134  1.00  0.00    -0.275 OA
ATOM      5  C   UNL A   1      31.112  26.478  26.134  1.00  0.00     0.226 C 
ATOM      6  H   UNL A   1      31.234  28.316  25.240  1.00  0.00     0.163 HD
BRANCH   5   7
ATOM      7  C   UNL A   1      30.661  25.848  24.832  1.00  0.00     0.175 C 
BRANCH   7   8
ATOM      8  C   UNL A   1      31.836  25.505  23.894  1.00  0.00     0.284 C 
BRANCH   8   9
ATOM      9  C   UNL A   1      31.807  23.980  23.618  1.00  0.00     0.290 C 
ATOM     10  O   UNL A   1      30.671  23.487  23.448  1.00  0.00    -0.267 OA
ATOM     11  N   UNL A   1      32.930  23.128  23.646  1.00  0.00    -0.276 N 
BRANCH  11  12
ATOM     12  C   UNL A   1      34.328  23.341  24.010  1.00  0.00     0.049 A 
ATOM     13  C   UNL A   1      35.365  22.949  23.127  1.00  0.00     0.027 A 
ATOM     14  C   UNL A   1      34.775  23.855  25.231  1.00  0.00     0.027 A 
ATOM     15  C   UNL A   1      36.719  22.919  23.501  1.00  0.00     0.002 A 
ATOM     16  C   UNL A   1      36.126  23.810  25.625  1.00  0.00     0.002 A 
ATOM     17  C   UNL A   1      37.096  23.315  24.772  1.00  0.00     0.000 A 
ENDBRANCH  11  12
BRANCH  11  18
ATOM     18  C   UNL A   1      32.554  21.749  23.503  1.00  0.00     0.049 A 
ATOM     19  C   UNL A   1      32.281  21.258  22.219  1.00  0.00     0.027 A 
ATOM     20  C   UNL A   1      32.660  20.859  24.576  1.00  0.00     0.027 A 
ATOM     21  C   UNL A   1      32.093  19.898  22.009  1.00  0.00     0.002 A 
ATOM     22  C   UNL A   1      32.460  19.493  24.361  1.00  0.00     0.002 A 
ATOM     23  C   UNL A   1      32.172  19.015  23.081  1.00  0.00     0.000 A 
ENDBRANCH  11  18
ENDBRANCH   8   9
BRANCH   8  24
ATOM     24  N   UNL A   1      31.829  26.178  22.558  1.00  0.00    -0.320 N 
ATOM     25  C   UNL A   1      33.137  26.443  21.952  1.00  0.00     0.291 C 
ATOM     26  C   UNL A   1      30.926  27.325  22.360  1.00  0.00     0.291 C 
ATOM     27  H   UNL A   1      31.400  25.413  22.037  1.00  0.00     0.348 HD
ATOM     28  C   UNL A   1      33.723  27.793  22.371  1.00  0.00     0.221 C 
ATOM     29  C   UNL A   1      31.560  28.697  22.664  1.00  0.00     0.221 C 
ATOM     30  O   UNL A   1      32.836  28.864  22.031  1.00  0.00    -0.370 OA
ENDBRANCH   8  24
ENDBRANCH   7   8
ENDBRANCH   5   7
ENDBRANCH   2   3
ENDBRANCH   1   2
BRANCH   1  31
ATOM     31  C   UNL A   1      32.259  31.082  26.959  1.00  0.00     0.023 C 
BRANCH  31  32
ATOM     32  C   UNL A   1      33.324  32.141  27.263  1.00  0.00     0.116 C 
BRANCH  32  33
ATOM     33  N   UNL A   1      32.797  33.438  27.645  1.00  0.00    -0.352 N 
ATOM     34  C   UNL A   1      33.273  34.323  28.588  1.00  0.00     0.251 C 
ATOM     35  H   UNL A   1      31.987  33.725  27.165  1.00  0.00     0.163 HD
ATOM     36  O   UNL A   1      32.688  35.391  28.772  1.00  0.00    -0.269 OA
BRANCH  34  37
ATOM     37  C   UNL A   1      34.452  33.984  29.423  1.00  0.00     0.039 A 
ATOM     38  C   UNL A   1      34.252  33.270  30.606  1.00  0.00     0.014 A 
ATOM     39  C   UNL A   1      35.747  34.356  29.058  1.00  0.00     0.014 A 
ATOM     40  C   UNL A   1      35.351  32.853  31.372  1.00  0.00     0.010 A 
ATOM     41  C   UNL A   1      36.845  33.885  29.795  1.00  0.00     0.010 A 
ATOM     42  C   UNL A   1      36.670  33.104  30.948  1.00  0.00    -0.014 A 
BRANCH  42  43
ATOM     43  C   UNL A   1      37.838  32.498  31.667  1.00  0.00     0.031 A 
ATOM     44  C   UNL A   1      38.293  32.993  33.021  1.00  0.00     0.074 A 
ATOM     45  C   UNL A   1      38.552  31.515  31.074  1.00  0.00     0.049 A 
ATOM     46  N   UNL A   1      39.289  32.570  33.764  1.00  0.00    -0.248 NA
ATOM     47  C   UNL A   1      37.561  34.127  33.604  1.00  0.00     0.031 C 
ATOM     48  C   UNL A   1      38.309  30.985  29.730  1.00  0.00     0.029 A 
ATOM     49  N   UNL A   1      39.628  30.782  31.522  1.00  0.00    -0.354 N 
ATOM     50  C   UNL A   1      39.321  33.399  34.880  1.00  0.00     0.074 A 
ATOM     51  C   UNL A   1      38.270  34.379  34.696  1.00  0.00     0.031 C 
ATOM     52  C   UNL A   1      39.170  29.984  29.485  1.00  0.00     0.029 A 
ATOM     53  C   UNL A   1      40.054  29.819  30.635  1.00  0.00     0.049 A 
ATOM     54  H   UNL A   1      40.053  30.933  32.397  1.00  0.00     0.167 HD
ATOM     55  C   UNL A   1      40.126  33.340  35.972  1.00  0.00     0.037 A 
ATOM     56  C   UNL A   1      41.033  28.896  30.728  1.00  0.00     0.037 A 
ATOM     57  C   UNL A   1      41.133  32.333  36.199  1.00  0.00     0.049 A 
ATOM     58  C   UNL A   1      41.869  28.806  31.976  1.00  0.00     0.074 A 
ATOM     59  C   UNL A   1      41.914  32.140  37.328  1.00  0.00     0.029 A 
ATOM     60  N   UNL A   1      41.500  31.350  35.294  1.00  0.00    -0.354 N 
ATOM     61  N   UNL A   1      41.813  29.540  33.060  1.00  0.00    -0.248 NA
ATOM     62  C   UNL A   1      42.896  27.753  32.015  1.00  0.00     0.031 C 
ATOM     63  C   UNL A   1      42.775  31.064  37.093  1.00  0.00     0.029 A 
ATOM     64  C   UNL A   1      42.504  30.559  35.833  1.00  0.00     0.049 A 
ATOM     65  H   UNL A   1      41.106  31.231  34.399  1.00  0.00     0.167 HD
ATOM     66  C   UNL A   1      42.778  29.022  33.919  1.00  0.00     0.074 A 
ATOM     67  C   UNL A   1      43.395  27.905  33.235  1.00  0.00     0.031 C 
ATOM     68  C   UNL A   1      43.115  29.439  35.163  1.00  0.00     0.037 A 
BRANCH  55  69
ATOM     69  C   UNL A   1      39.941  34.388  37.037  1.00  0.00     0.058 A 
ATOM     70  C   UNL A   1      40.569  35.640  36.954  1.00  0.00     0.135 A 
ATOM     71  C   UNL A   1      39.072  34.163  38.118  1.00  0.00     0.135 A 
ATOM     72  F   UNL A   1      41.412  35.908  35.944  1.00  0.00    -0.206 F 
ATOM     73  C   UNL A   1      40.373  36.618  37.923  1.00  0.00     0.059 A 
ATOM     74  C   UNL A   1      38.838  35.138  39.084  1.00  0.00     0.059 A 
ATOM     75  F   UNL A   1      38.435  32.987  38.241  1.00  0.00    -0.206 F 
ATOM     76  C   UNL A   1      39.508  36.357  38.986  1.00  0.00     0.060 A 
BRANCH  76  77
ATOM     77  S   UNL A   1      39.261  37.639  40.234  1.00  0.00     0.124 S 
ATOM     78  O   UNL A   1      40.578  38.269  40.265  1.00  0.00    -0.237 OA
ATOM     79  O   UNL A   1      38.189  38.441  39.653  1.00  0.00    -0.237 OA
ATOM     80  O   UNL A   1      38.898  36.884  41.429  1.00  0.00    -0.744 OA
ENDBRANCH  76  77
ENDBRANCH  55  69
BRANCH  56  81
ATOM     81  C   UNL A   1      41.254  27.937  29.613  1.00  0.00     0.058 A 
ATOM     82  C   UNL A   1      40.369  26.870  29.400  1.00  0.00     0.135 A 
ATOM     83  C   UNL A   1      42.344  28.069  28.740  1.00  0.00     0.135 A 
ATOM     84  F   UNL A   1      39.317  26.699  30.215  1.00  0.00    -0.206 F 
ATOM     85  C   UNL A   1      40.563  25.956  28.371  1.00  0.00     0.059 A 
ATOM     86  C   UNL A   1      42.547  27.181  27.689  1.00  0.00     0.059 A 
ATOM     87  F   UNL A   1      43.210  29.083  28.893  1.00  0.00    -0.206 F 
ATOM     88  C   UNL A   1      41.657  26.121  27.519  1.00  0.00     0.060 A 
BRANCH  88  89
ATOM     89  S   UNL A   1      41.873  24.959  26.153  1.00  0.00     0.124 S 
ATOM     90  O   UNL A   1      42.024  25.857  25.021  1.00  0.00    -0.237 OA
ATOM     91  O   UNL A   1      43.073  24.229  26.559  1.00  0.00    -0.237 OA
ATOM     92  O   UNL A   1      40.638  24.176  26.185  1.00  0.00    -0.744 OA
ENDBRANCH  88  89
ENDBRANCH  56  81
BRANCH  68  93
ATOM     93  C   UNL A   1      44.179  28.667  35.895  1.00  0.00     0.058 A 
ATOM     94  C   UNL A   1      43.862  27.604  36.755  1.00  0.00     0.135 A 
ATOM     95  C   UNL A   1      45.537  28.966  35.698  1.00  0.00     0.135 A 
ATOM     96  F   UNL A   1      42.581  27.280  36.985  1.00  0.00    -0.206 F 
ATOM     97  C   UNL A   1      44.854  26.877  37.409  1.00  0.00     0.059 A 
ATOM     98  C   UNL A   1      46.546  28.238  36.323  1.00  0.00     0.059 A 
ATOM     99  F   UNL A   1      45.897  29.968  34.881  1.00  0.00    -0.206 F 
ATOM    100  C   UNL A   1      46.193  27.201  37.187  1.00  0.00     0.060 A 
BRANCH 100 101
ATOM    101  S   UNL A   1      47.472  26.229  38.014  1.00  0.00     0.124 S 
ATOM    102  O   UNL A   1      48.529  26.217  37.008  1.00  0.00    -0.237 OA
ATOM    103  O   UNL A   1      47.744  27.020  39.210  1.00  0.00    -0.237 OA
ATOM    104  O   UNL A   1      46.819  24.946  38.255  1.00  0.00    -0.744 OA
ENDBRANCH 100 101
ENDBRANCH  68  93
ENDBRANCH  42  43
ENDBRANCH  34  37
ENDBRANCH  32  33
ENDBRANCH  31  32
ENDBRANCH   1  31
TORSDOF 19
ENDMDL
MODEL 2
REMARK VINA RESULT:     -11.8      5.784      8.098
REMARK SMILES O=C(C[C@@H](C(=O)N(c1ccccc1)c1ccccc1)[NH+]1CCOCC1)NCCCCNC(=O)c1ccc(-c2c3nc(c(-c4c(F)cc(S(=O)(=O)[O-])cc4F)c4ccc([nH]4)c(-c4c(F)cc(S(=O)(=O)[O-])cc4F)c4nc(c(-c5c(F)cc(S(=O)(=O)[O-])cc5F)c5ccc2[nH]5)C=C4)C=C3)cc1
REMARK SMILES IDX 28 1 27 2 26 3 1 4 2 5 3 7 4 8 5 9 6 10 7 11 8 12 9 13 13 14
REMARK SMILES IDX 10 15 12 16 11 17 14 18 15 19 19 20 16 21 18 22 17 23 20 24
REMARK SMILES IDX 21 25 25 26 22 28 24 29 23 30 29 31 30 32 31 33 32 34 33 36
REMARK SMILES IDX 34 37 35 38 99 39 36 40 98 41 37 42 38 43 39 44 92 45 40 46
REMARK SMILES IDX 97 47 91 48 93 49 41 50 96 51 90 52 89 53 42 55 76 56 55 57
REMARK SMILES IDX 75 58 56 59 59 60 74 61 94 62 57 63 58 64 73 66 95 67 60 68
REMARK SMILES IDX 43 69 44 70 53 71 45 72 46 73 52 74 54 75 47 76 48 77 49 78
REMARK SMILES IDX 50 79 51 80 77 81 78 82 87 83 79 84 80 85 86 86 88 87 81 88
REMARK SMILES IDX 82 89 83 90 84 91 85 92 61 93 62 94 71 95 63 96 64 97 70 98
REMARK SMILES IDX 72 99 65 100 66 101 67 102 68 103 69 104
REMARK H PARENT 26 6 20 27 31 35 93 54 59 65
REMARK Flexibility Score: inf
ROOT
ATOM      1  C   UNL A   1      34.320  29.282  26.766  1.00  0.00     0.023 C 
ENDROOT
BRANCH   1   2
ATOM      2  C   UNL A   1      33.042  28.536  27.160  1.00  0.00     0.116 C 
BRANCH   2   3
ATOM      3  N   UNL A   1      32.588  27.550  26.188  1.00  0.00    -0.356 N 
ATOM      4  O   UNL A   1      30.625  27.027  27.277  1.00  0.00    -0.275 OA
ATOM      5  C   UNL A   1      31.357  26.933  26.294  1.00  0.00     0.226 C 
ATOM      6  H   UNL A   1      33.174  27.318  25.434  1.00  0.00     0.163 HD
BRANCH   5   7
ATOM      7  C   UNL A   1      30.930  26.123  25.086  1.00  0.00     0.175 C 
BRANCH   7   8
ATOM      8  C   UNL A   1      32.116  25.704  24.196  1.00  0.00     0.284 C 
BRANCH   8   9
ATOM      9  C   UNL A   1      32.017  24.177  23.944  1.00  0.00     0.290 C 
ATOM     10  O   UNL A   1      30.857  23.726  23.831  1.00  0.00    -0.267 OA
ATOM     11  N   UNL A   1      33.108  23.284  23.935  1.00  0.00    -0.276 N 
BRANCH  11  12
ATOM     12  C   UNL A   1      34.527  23.448  24.234  1.00  0.00     0.049 A 
ATOM     13  C   UNL A   1      35.507  23.063  23.285  1.00  0.00     0.027 A 
ATOM     14  C   UNL A   1      35.050  23.906  25.448  1.00  0.00     0.027 A 
ATOM     15  C   UNL A   1      36.877  22.986  23.587  1.00  0.00     0.002 A 
ATOM     16  C   UNL A   1      36.417  23.813  25.769  1.00  0.00     0.002 A 
ATOM     17  C   UNL A   1      37.329  23.326  24.850  1.00  0.00     0.000 A 
ENDBRANCH  11  12
BRANCH  11  18
ATOM     18  C   UNL A   1      32.674  21.918  23.829  1.00  0.00     0.049 A 
ATOM     19  C   UNL A   1      32.337  21.417  22.565  1.00  0.00     0.027 A 
ATOM     20  C   UNL A   1      32.784  21.043  24.914  1.00  0.00     0.027 A 
ATOM     21  C   UNL A   1      32.089  20.062  22.386  1.00  0.00     0.002 A 
ATOM     22  C   UNL A   1      32.524  19.682  24.730  1.00  0.00     0.002 A 
ATOM     23  C   UNL A   1      32.173  19.195  23.469  1.00  0.00     0.000 A 
ENDBRANCH  11  18
ENDBRANCH   8   9
BRANCH   8  24
ATOM     24  N   UNL A   1      32.187  26.352  22.848  1.00  0.00    -0.320 N 
ATOM     25  C   UNL A   1      33.479  26.933  22.470  1.00  0.00     0.291 C 
ATOM     26  C   UNL A   1      31.083  27.238  22.442  1.00  0.00     0.291 C 
ATOM     27  H   UNL A   1      32.061  25.503  22.297  1.00  0.00     0.348 HD
ATOM     28  C   UNL A   1      33.632  28.387  22.923  1.00  0.00     0.221 C 
ATOM     29  C   UNL A   1      31.297  28.725  22.788  1.00  0.00     0.221 C 
ATOM     30  O   UNL A   1      32.587  29.203  22.381  1.00  0.00    -0.370 OA
ENDBRANCH   8  24
ENDBRANCH   7   8
ENDBRANCH   5   7
ENDBRANCH   2   3
ENDBRANCH   1   2
BRANCH   1  31
ATOM     31  C   UNL A   1      34.941  30.179  27.845  1.00  0.00     0.023 C 
BRANCH  31  32
ATOM     32  C   UNL A   1      35.784  29.481  28.917  1.00  0.00     0.116 C 
BRANCH  32  33
ATOM     33  N   UNL A   1      35.787  30.141  30.210  1.00  0.00    -0.352 N 
ATOM     34  C   UNL A   1      36.856  30.622  30.933  1.00  0.00     0.251 C 
ATOM     35  H   UNL A   1      34.904  30.261  30.627  1.00  0.00     0.163 HD
ATOM     36  O   UNL A   1      36.660  31.163  32.023  1.00  0.00    -0.269 OA
BRANCH  34  37
ATOM     37  C   UNL A   1      38.246  30.451  30.444  1.00  0.00     0.039 A 
ATOM     38  C   UNL A   1      39.222  30.006  31.339  1.00  0.00     0.014 A 
ATOM     39  C   UNL A   1      38.601  30.719  29.121  1.00  0.00     0.014 A 
ATOM     40  C   UNL A   1      40.524  29.745  30.888  1.00  0.00     0.010 A 
ATOM     41  C   UNL A   1      39.889  30.400  28.663  1.00  0.00     0.010 A 
ATOM     42  C   UNL A   1      40.865  29.882  29.530  1.00  0.00    -0.014 A 
BRANCH  42  43
ATOM     43  C   UNL A   1      42.200  29.425  29.021  1.00  0.00     0.031 A 
ATOM     44  C   UNL A   1      43.388  30.356  28.934  1.00  0.00     0.074 A 
ATOM     45  C   UNL A   1      42.345  28.159  28.568  1.00  0.00     0.049 A 
ATOM     46  N   UNL A   1      44.605  30.105  28.512  1.00  0.00    -0.248 NA
ATOM     47  C   UNL A   1      43.180  31.753  29.340  1.00  0.00     0.031 C 
ATOM     48  C   UNL A   1      41.278  27.159  28.491  1.00  0.00     0.029 A 
ATOM     49  N   UNL A   1      43.450  27.492  28.088  1.00  0.00    -0.354 N 
ATOM     50  C   UNL A   1      45.295  31.310  28.574  1.00  0.00     0.074 A 
ATOM     51  C   UNL A   1      44.346  32.304  29.034  1.00  0.00     0.031 C 
ATOM     52  C   UNL A   1      41.787  25.999  28.046  1.00  0.00     0.029 A 
ATOM     53  C   UNL A   1      43.210  26.175  27.769  1.00  0.00     0.049 A 
ATOM     54  H   UNL A   1      44.331  27.918  27.984  1.00  0.00     0.167 HD
ATOM     55  C   UNL A   1      46.600  31.569  28.302  1.00  0.00     0.037 A 
ATOM     56  C   UNL A   1      44.031  25.206  27.315  1.00  0.00     0.037 A 
ATOM     57  C   UNL A   1      47.570  30.580  27.906  1.00  0.00     0.049 A 
ATOM     58  C   UNL A   1      45.490  25.499  27.086  1.00  0.00     0.074 A 
ATOM     59  C   UNL A   1      48.935  30.743  27.719  1.00  0.00     0.029 A 
ATOM     60  N   UNL A   1      47.292  29.250  27.636  1.00  0.00    -0.354 N 
ATOM     61  N   UNL A   1      46.138  26.626  27.247  1.00  0.00    -0.248 NA
ATOM     62  C   UNL A   1      46.328  24.383  26.621  1.00  0.00     0.031 C 
ATOM     63  C   UNL A   1      49.474  29.521  27.305  1.00  0.00     0.029 A 
ATOM     64  C   UNL A   1      48.455  28.585  27.273  1.00  0.00     0.049 A 
ATOM     65  H   UNL A   1      46.401  28.836  27.695  1.00  0.00     0.167 HD
ATOM     66  C   UNL A   1      47.464  26.348  26.929  1.00  0.00     0.074 A 
ATOM     67  C   UNL A   1      47.529  24.946  26.578  1.00  0.00     0.031 C 
ATOM     68  C   UNL A   1      48.529  27.187  26.933  1.00  0.00     0.037 A 
BRANCH  55  69
ATOM     69  C   UNL A   1      47.077  32.990  28.449  1.00  0.00     0.058 A 
ATOM     70  C   UNL A   1      47.634  33.458  29.650  1.00  0.00     0.135 A 
ATOM     71  C   UNL A   1      47.040  33.874  27.358  1.00  0.00     0.135 A 
ATOM     72  F   UNL A   1      47.692  32.657  30.726  1.00  0.00    -0.206 F 
ATOM     73  C   UNL A   1      48.103  34.762  29.775  1.00  0.00     0.059 A 
ATOM     74  C   UNL A   1      47.530  35.174  27.452  1.00  0.00     0.059 A 
ATOM     75  F   UNL A   1      46.529  33.476  26.182  1.00  0.00    -0.206 F 
ATOM     76  C   UNL A   1      48.044  35.613  28.671  1.00  0.00     0.060 A 
BRANCH  76  77
ATOM     77  S   UNL A   1      48.660  37.301  28.849  1.00  0.00     0.124 S 
ATOM     78  O   UNL A   1      48.086  37.684  30.136  1.00  0.00    -0.237 OA
ATOM     79  O   UNL A   1      50.107  37.112  28.832  1.00  0.00    -0.237 OA
ATOM     80  O   UNL A   1      48.108  37.988  27.687  1.00  0.00    -0.744 OA
ENDBRANCH  76  77
ENDBRANCH  55  69
BRANCH  56  81
ATOM     81  C   UNL A   1      43.502  23.835  27.086  1.00  0.00     0.058 A 
ATOM     82  C   UNL A   1      43.138  23.414  25.799  1.00  0.00     0.135 A 
ATOM     83  C   UNL A   1      43.355  22.922  28.142  1.00  0.00     0.135 A 
ATOM     84  F   UNL A   1      43.252  24.255  24.761  1.00  0.00    -0.206 F 
ATOM     85  C   UNL A   1      42.631  22.140  25.566  1.00  0.00     0.059 A 
ATOM     86  C   UNL A   1      42.872  21.635  27.929  1.00  0.00     0.059 A 
ATOM     87  F   UNL A   1      43.705  23.274  29.388  1.00  0.00    -0.206 F 
ATOM     88  C   UNL A   1      42.503  21.257  26.639  1.00  0.00     0.060 A 
BRANCH  88  89
ATOM     89  S   UNL A   1      41.891  19.588  26.318  1.00  0.00     0.124 S 
ATOM     90  O   UNL A   1      40.469  19.824  26.139  1.00  0.00    -0.237 OA
ATOM     91  O   UNL A   1      42.636  19.214  25.118  1.00  0.00    -0.237 OA
ATOM     92  O   UNL A   1      42.268  18.858  27.528  1.00  0.00    -0.744 OA
ENDBRANCH  88  89
ENDBRANCH  56  81
BRANCH  68  93
ATOM     93  C   UNL A   1      49.874  26.612  26.580  1.00  0.00     0.058 A 
ATOM     94  C   UNL A   1      50.741  26.104  27.560  1.00  0.00     0.135 A 
ATOM     95  C   UNL A   1      50.280  26.525  25.238  1.00  0.00     0.135 A 
ATOM     96  F   UNL A   1      50.406  26.168  28.857  1.00  0.00    -0.206 F 
ATOM     97  C   UNL A   1      51.973  25.549  27.223  1.00  0.00     0.059 A 
ATOM     98  C   UNL A   1      51.497  25.953  24.877  1.00  0.00     0.059 A 
ATOM     99  F   UNL A   1      49.487  26.988  24.260  1.00  0.00    -0.206 F 
ATOM    100  C   UNL A   1      52.343  25.478  25.879  1.00  0.00     0.060 A 
BRANCH 100 101
ATOM    101  S   UNL A   1      53.929  24.725  25.452  1.00  0.00     0.124 S 
ATOM    102  O   UNL A   1      54.659  24.844  26.710  1.00  0.00    -0.237 OA
ATOM    103  O   UNL A   1      53.541  23.371  25.070  1.00  0.00    -0.237 OA
ATOM    104  O   UNL A   1      54.418  25.562  24.361  1.00  0.00    -0.744 OA
ENDBRANCH 100 101
ENDBRANCH  68  93
ENDBRANCH  42  43
ENDBRANCH  34  37
ENDBRANCH  32  33
ENDBRANCH  31  32
ENDBRANCH   1  31
TORSDOF 19
ENDMDL
MODEL 3
REMARK VINA RESULT:     -11.3      2.307      3.356
REMARK SMILES O=C(C[C@@H](C(=O)N(c1ccccc1)c1ccccc1)[NH+]1CCOCC1)NCCCCNC(=O)c1ccc(-c2c3nc(c(-c4c(F)cc(S(=O)(=O)[O-])cc4F)c4ccc([nH]4)c(-c4c(F)cc(S(=O)(=O)[O-])cc4F)c4nc(c(-c5c(F)cc(S(=O)(=O)[O-])cc5F)c5ccc2[nH]5)C=C4)C=C3)cc1
REMARK SMILES IDX 28 1 27 2 26 3 1 4 2 5 3 7 4 8 5 9 6 10 7 11 8 12 9 13 13 14
REMARK SMILES IDX 10 15 12 16 11 17 14 18 15 19 19 20 16 21 18 22 17 23 20 24
REMARK SMILES IDX 21 25 25 26 22 28 24 29 23 30 29 31 30 32 31 33 32 34 33 36
REMARK SMILES IDX 34 37 35 38 99 39 36 40 98 41 37 42 38 43 39 44 92 45 40 46
REMARK SMILES IDX 97 47 91 48 93 49 41 50 96 51 90 52 89 53 42 55 76 56 55 57
REMARK SMILES IDX 75 58 56 59 59 60 74 61 94 62 57 63 58 64 73 66 95 67 60 68
REMARK SMILES IDX 43 69 44 70 53 71 45 72 46 73 52 74 54 75 47 76 48 77 49 78
REMARK SMILES IDX 50 79 51 80 77 81 78 82 87 83 79 84 80 85 86 86 88 87 81 88
REMARK SMILES IDX 82 89 83 90 84 91 85 92 61 93 62 94 71 95 63 96 64 97 70 98
REMARK SMILES IDX 72 99 65 100 66 101 67 102 68 103 69 104
REMARK H PARENT 26 6 20 27 31 35 93 54 59 65
REMARK Flexibility Score: inf
ROOT
ATOM      1  C   UNL A   1      31.922  28.596  27.412  1.00  0.00     0.023 C 
ENDROOT
BRANCH   1   2
ATOM      2  C   UNL A   1      31.041  27.344  27.462  1.00  0.00     0.116 C 
BRANCH   2   3
ATOM      3  N   UNL A   1      31.222  26.427  26.345  1.00  0.00    -0.356 N 
ATOM      4  O   UNL A   1      29.233  25.299  26.639  1.00  0.00    -0.275 OA
ATOM      5  C   UNL A   1      30.245  25.523  25.977  1.00  0.00     0.226 C 
ATOM      6  H   UNL A   1      32.064  26.452  25.838  1.00  0.00     0.163 HD
BRANCH   5   7
ATOM      7  C   UNL A   1      30.478  24.816  24.657  1.00  0.00     0.175 C 
BRANCH   7   8
ATOM      8  C   UNL A   1      31.943  24.379  24.462  1.00  0.00     0.284 C 
BRANCH   8   9
ATOM      9  C   UNL A   1      31.985  22.830  24.408  1.00  0.00     0.290 C 
ATOM     10  O   UNL A   1      30.871  22.264  24.388  1.00  0.00    -0.267 OA
ATOM     11  N   UNL A   1      33.155  22.047  24.478  1.00  0.00    -0.276 N 
BRANCH  11  12
ATOM     12  C   UNL A   1      34.557  22.377  24.710  1.00  0.00     0.049 A 
ATOM     13  C   UNL A   1      34.958  22.983  25.928  1.00  0.00     0.027 A 
ATOM     14  C   UNL A   1      35.591  22.213  23.782  1.00  0.00     0.027 A 
ATOM     15  C   UNL A   1      36.238  23.525  26.128  1.00  0.00     0.002 A 
ATOM     16  C   UNL A   1      36.870  22.770  23.963  1.00  0.00     0.002 A 
ATOM     17  C   UNL A   1      37.187  23.453  25.125  1.00  0.00     0.000 A 
ENDBRANCH  11  12
BRANCH  11  18
ATOM     18  C   UNL A   1      32.850  20.645  24.558  1.00  0.00     0.049 A 
ATOM     19  C   UNL A   1      32.567  19.951  23.374  1.00  0.00     0.027 A 
ATOM     20  C   UNL A   1      33.036  19.935  25.748  1.00  0.00     0.027 A 
ATOM     21  C   UNL A   1      32.447  18.567  23.378  1.00  0.00     0.002 A 
ATOM     22  C   UNL A   1      32.905  18.544  25.749  1.00  0.00     0.002 A 
ATOM     23  C   UNL A   1      32.606  17.863  24.567  1.00  0.00     0.000 A 
ENDBRANCH  11  18
ENDBRANCH   8   9
BRANCH   8  24
ATOM     24  N   UNL A   1      32.613  24.865  23.215  1.00  0.00    -0.320 N 
ATOM     25  C   UNL A   1      33.804  25.700  23.396  1.00  0.00     0.291 C 
ATOM     26  C   UNL A   1      31.768  25.398  22.133  1.00  0.00     0.291 C 
ATOM     27  H   UNL A   1      32.927  23.954  22.881  1.00  0.00     0.348 HD
ATOM     28  C   UNL A   1      33.473  27.189  23.523  1.00  0.00     0.221 C 
ATOM     29  C   UNL A   1      31.540  26.921  22.192  1.00  0.00     0.221 C 
ATOM     30  O   UNL A   1      32.760  27.654  22.372  1.00  0.00    -0.370 OA
ENDBRANCH   8  24
ENDBRANCH   7   8
ENDBRANCH   5   7
ENDBRANCH   2   3
ENDBRANCH   1   2
BRANCH   1  31
ATOM     31  C   UNL A   1      33.358  28.395  26.911  1.00  0.00     0.023 C 
BRANCH  31  32
ATOM     32  C   UNL A   1      34.016  29.590  26.213  1.00  0.00     0.116 C 
BRANCH  32  33
ATOM     33  N   UNL A   1      33.804  30.867  26.870  1.00  0.00    -0.352 N 
ATOM     34  C   UNL A   1      34.594  31.503  27.802  1.00  0.00     0.251 C 
ATOM     35  H   UNL A   1      32.981  31.344  26.614  1.00  0.00     0.163 HD
ATOM     36  O   UNL A   1      34.249  32.599  28.248  1.00  0.00    -0.269 OA
BRANCH  34  37
ATOM     37  C   UNL A   1      35.830  30.864  28.316  1.00  0.00     0.039 A 
ATOM     38  C   UNL A   1      37.065  31.402  27.951  1.00  0.00     0.014 A 
ATOM     39  C   UNL A   1      35.790  29.747  29.152  1.00  0.00     0.014 A 
ATOM     40  C   UNL A   1      38.250  30.880  28.493  1.00  0.00     0.010 A 
ATOM     41  C   UNL A   1      36.973  29.267  29.737  1.00  0.00     0.010 A 
ATOM     42  C   UNL A   1      38.219  29.841  29.441  1.00  0.00    -0.014 A 
BRANCH  42  43
ATOM     43  C   UNL A   1      39.467  29.413  30.155  1.00  0.00     0.031 A 
ATOM     44  C   UNL A   1      39.920  30.066  31.441  1.00  0.00     0.074 A 
ATOM     45  C   UNL A   1      40.252  28.455  29.613  1.00  0.00     0.049 A 
ATOM     46  N   UNL A   1      40.979  29.805  32.171  1.00  0.00    -0.248 NA
ATOM     47  C   UNL A   1      39.102  31.171  31.959  1.00  0.00     0.031 C 
ATOM     48  C   UNL A   1      40.014  27.789  28.331  1.00  0.00     0.029 A 
ATOM     49  N   UNL A   1      41.410  27.869  30.072  1.00  0.00    -0.354 N 
ATOM     50  C   UNL A   1      40.970  30.727  33.212  1.00  0.00     0.074 A 
ATOM     51  C   UNL A   1      39.822  31.583  32.994  1.00  0.00     0.031 C 
ATOM     52  C   UNL A   1      40.960  26.857  28.131  1.00  0.00     0.029 A 
ATOM     53  C   UNL A   1      41.896  26.877  29.251  1.00  0.00     0.049 A 
ATOM     54  H   UNL A   1      41.851  28.135  30.912  1.00  0.00     0.167 HD
ATOM     55  C   UNL A   1      41.816  30.840  34.268  1.00  0.00     0.037 A 
ATOM     56  C   UNL A   1      42.964  26.063  29.376  1.00  0.00     0.037 A 
ATOM     57  C   UNL A   1      42.925  29.957  34.533  1.00  0.00     0.049 A 
ATOM     58  C   UNL A   1      43.850  26.161  30.589  1.00  0.00     0.074 A 
ATOM     59  C   UNL A   1      43.761  29.938  35.638  1.00  0.00     0.029 A 
ATOM     60  N   UNL A   1      43.354  28.938  33.697  1.00  0.00    -0.354 N 
ATOM     61  N   UNL A   1      43.762  26.978  31.609  1.00  0.00    -0.248 NA
ATOM     62  C   UNL A   1      44.976  25.218  30.669  1.00  0.00     0.031 C 
ATOM     63  C   UNL A   1      44.715  28.932  35.455  1.00  0.00     0.029 A 
ATOM     64  C   UNL A   1      44.449  28.296  34.255  1.00  0.00     0.049 A 
ATOM     65  H   UNL A   1      42.941  28.705  32.834  1.00  0.00     0.167 HD
ATOM     66  C   UNL A   1      44.803  26.631  32.464  1.00  0.00     0.074 A 
ATOM     67  C   UNL A   1      45.502  25.523  31.849  1.00  0.00     0.031 C 
ATOM     68  C   UNL A   1      45.143  27.185  33.653  1.00  0.00     0.037 A 
BRANCH  55  69
ATOM     69  C   UNL A   1      41.567  31.954  35.249  1.00  0.00     0.058 A 
ATOM     70  C   UNL A   1      42.307  33.147  35.211  1.00  0.00     0.135 A 
ATOM     71  C   UNL A   1      40.533  31.856  36.196  1.00  0.00     0.135 A 
ATOM     72  F   UNL A   1      43.308  33.294  34.329  1.00  0.00    -0.206 F 
ATOM     73  C   UNL A   1      42.055  34.188  36.099  1.00  0.00     0.059 A 
ATOM     74  C   UNL A   1      40.245  32.896  37.076  1.00  0.00     0.059 A 
ATOM     75  F   UNL A   1      39.787  30.742  36.270  1.00  0.00    -0.206 F 
ATOM     76  C   UNL A   1      41.024  34.052  37.030  1.00  0.00     0.060 A 
BRANCH  76  77
ATOM     77  S   UNL A   1      40.709  35.413  38.173  1.00  0.00     0.124 S 
ATOM     78  O   UNL A   1      39.929  34.744  39.210  1.00  0.00    -0.237 OA
ATOM     79  O   UNL A   1      42.056  35.820  38.558  1.00  0.00    -0.237 OA
ATOM     80  O   UNL A   1      39.975  36.377  37.360  1.00  0.00    -0.744 OA
ENDBRANCH  76  77
ENDBRANCH  55  69
BRANCH  56  81
ATOM     81  C   UNL A   1      43.238  25.036  28.336  1.00  0.00     0.058 A 
ATOM     82  C   UNL A   1      42.686  23.751  28.436  1.00  0.00     0.135 A 
ATOM     83  C   UNL A   1      44.047  25.318  27.224  1.00  0.00     0.135 A 
ATOM     84  F   UNL A   1      41.914  23.433  29.486  1.00  0.00    -0.206 F 
ATOM     85  C   UNL A   1      42.939  22.773  27.481  1.00  0.00     0.059 A 
ATOM     86  C   UNL A   1      44.295  24.363  26.244  1.00  0.00     0.059 A 
ATOM     87  F   UNL A   1      44.585  26.538  27.076  1.00  0.00    -0.206 F 
ATOM     88  C   UNL A   1      43.745  23.090  26.386  1.00  0.00     0.060 A 
BRANCH  88  89
ATOM     89  S   UNL A   1      44.026  21.829  25.123  1.00  0.00     0.124 S 
ATOM     90  O   UNL A   1      43.021  20.838  25.467  1.00  0.00    -0.237 OA
ATOM     91  O   UNL A   1      43.796  22.576  23.888  1.00  0.00    -0.237 OA
ATOM     92  O   UNL A   1      45.415  21.433  25.353  1.00  0.00    -0.744 OA
ENDBRANCH  88  89
ENDBRANCH  56  81
BRANCH  68  93
ATOM     93  C   UNL A   1      46.304  26.584  34.399  1.00  0.00     0.058 A 
ATOM     94  C   UNL A   1      47.614  27.058  34.233  1.00  0.00     0.135 A 
ATOM     95  C   UNL A   1      46.095  25.549  35.326  1.00  0.00     0.135 A 
ATOM     96  F   UNL A   1      47.871  28.040  33.356  1.00  0.00    -0.206 F 
ATOM     97  C   UNL A   1      48.680  26.515  34.946  1.00  0.00     0.059 A 
ATOM     98  C   UNL A   1      47.142  25.007  36.066  1.00  0.00     0.059 A 
ATOM     99  F   UNL A   1      44.861  25.062  35.529  1.00  0.00    -0.206 F 
ATOM    100  C   UNL A   1      48.434  25.489  35.860  1.00  0.00     0.060 A 
BRANCH 100 101
ATOM    101  S   UNL A   1      49.820  24.815  36.804  1.00  0.00     0.124 S 
ATOM    102  O   UNL A   1      49.819  25.676  37.983  1.00  0.00    -0.237 OA
ATOM    103  O   UNL A   1      49.405  23.434  37.028  1.00  0.00    -0.237 OA
ATOM    104  O   UNL A   1      50.957  24.984  35.904  1.00  0.00    -0.744 OA
ENDBRANCH 100 101
ENDBRANCH  68  93
ENDBRANCH  42  43
ENDBRANCH  34  37
ENDBRANCH  32  33
ENDBRANCH  31  32
ENDBRANCH   1  31
TORSDOF 19
ENDMDL
