MODEL 1
REMARK VINA RESULT:     -11.8      0.000      0.000
REMARK SMILES C[C@H]1[C@@H](C(=O)NCCCCNC(=O)c2ccc(-c3c4nc(c(-c5c(F)cc(S(=O)(=O)[O-])cc5F)c5ccc([nH]5)c(-c5c(F)cc(S(=O)(=O)[O-])cc5F)c5nc(c(-c6c(F)cc(S(=O)(=O)[O-])cc6F)c6ccc3[nH]6)C=C5)C=C4)cc2)CCN1S(=O)(=O)Cc1cccc(C#N)c1
REMARK SMILES IDX 8 1 7 2 6 3 4 4 5 5 3 7 1 8 2 9 82 10 80 11 81 12 83 13
REMARK SMILES IDX 84 14 85 15 86 16 87 17 88 18 94 19 89 20 91 21 90 22 92 23
REMARK SMILES IDX 93 24 9 25 10 26 11 27 12 28 13 30 14 31 15 32 79 33 16 34
REMARK SMILES IDX 78 35 17 36 18 37 19 38 72 39 20 40 77 41 71 42 73 43 21 44
REMARK SMILES IDX 76 45 70 46 69 47 22 49 56 50 35 51 55 52 36 53 39 54 54 55
REMARK SMILES IDX 74 56 37 57 38 58 53 60 75 61 40 62 23 63 24 64 33 65 25 66
REMARK SMILES IDX 26 67 32 68 34 69 27 70 28 71 29 72 30 73 31 74 57 75 58 76
REMARK SMILES IDX 67 77 59 78 60 79 66 80 68 81 61 82 62 83 63 84 64 85 65 86
REMARK SMILES IDX 41 87 42 88 51 89 43 90 44 91 50 92 52 93 45 94 46 95 47 96
REMARK SMILES IDX 48 97 49 98
REMARK H PARENT 6 6 11 29 73 48 39 59
REMARK Flexibility Score: inf
ROOT
ATOM      1  C   UNL A   1      38.864  23.314  26.492  1.00  0.00     0.023 C 
ENDROOT
BRANCH   1   2
ATOM      2  C   UNL A   1      37.595  22.586  26.019  1.00  0.00     0.116 C 
BRANCH   2   3
ATOM      3  N   UNL A   1      37.415  22.743  24.587  1.00  0.00    -0.356 N 
ATOM      4  C   UNL A   1      36.357  23.111  23.814  1.00  0.00     0.224 C 
ATOM      5  O   UNL A   1      36.537  23.005  22.597  1.00  0.00    -0.275 OA
ATOM      6  H   UNL A   1      38.226  22.540  24.068  1.00  0.00     0.163 HD
BRANCH   4   7
ATOM      7  C   UNL A   1      35.073  23.764  24.366  1.00  0.00     0.098 C 
ATOM      8  C   UNL A   1      34.126  21.441  25.042  1.00  0.00     0.026 C 
ATOM      9  C   UNL A   1      33.976  22.938  25.073  1.00  0.00     0.082 C 
ATOM     10  N   UNL A   1      32.715  23.114  24.332  1.00  0.00    -0.198 NA
ATOM     11  C   UNL A   1      34.287  24.504  23.261  1.00  0.00     0.032 C 
ATOM     12  C   UNL A   1      33.060  23.643  23.004  1.00  0.00     0.103 C 
BRANCH  10  13
ATOM     13  S   UNL A   1      31.305  23.578  25.093  1.00  0.00     0.218 S 
ATOM     14  O   UNL A   1      30.535  24.292  24.091  1.00  0.00    -0.212 OA
ATOM     15  O   UNL A   1      30.742  22.396  25.713  1.00  0.00    -0.212 OA
BRANCH  13  16
ATOM     16  C   UNL A   1      31.738  24.797  26.379  1.00  0.00     0.189 C 
BRANCH  16  17
ATOM     17  C   UNL A   1      32.183  26.156  25.883  1.00  0.00    -0.030 A 
ATOM     18  C   UNL A   1      33.508  26.590  26.007  1.00  0.00     0.005 A 
ATOM     19  C   UNL A   1      31.244  27.066  25.357  1.00  0.00     0.024 A 
ATOM     20  C   UNL A   1      33.896  27.858  25.557  1.00  0.00     0.002 A 
ATOM     21  C   UNL A   1      31.641  28.308  24.836  1.00  0.00     0.052 A 
ATOM     22  C   UNL A   1      32.971  28.708  24.950  1.00  0.00     0.019 A 
BRANCH  21  23
ATOM     23  C   UNL A   1      30.698  29.127  24.135  1.00  0.00     0.099 C 
ATOM     24  N   UNL A   1      29.896  29.760  23.582  1.00  0.00    -0.192 NA
ENDBRANCH  21  23
ENDBRANCH  16  17
ENDBRANCH  13  16
ENDBRANCH  10  13
ENDBRANCH   4   7
ENDBRANCH   2   3
ENDBRANCH   1   2
BRANCH   1  25
ATOM     25  C   UNL A   1      40.033  22.459  26.921  1.00  0.00     0.023 C 
BRANCH  25  26
ATOM     26  C   UNL A   1      41.308  23.243  27.093  1.00  0.00     0.116 C 
BRANCH  26  27
ATOM     27  N   UNL A   1      41.610  24.133  25.976  1.00  0.00    -0.352 N 
ATOM     28  C   UNL A   1      41.790  25.497  26.013  1.00  0.00     0.251 C 
ATOM     29  H   UNL A   1      41.694  23.709  25.092  1.00  0.00     0.163 HD
ATOM     30  O   UNL A   1      41.976  26.143  24.989  1.00  0.00    -0.269 OA
BRANCH  28  31
ATOM     31  C   UNL A   1      41.706  26.157  27.326  1.00  0.00     0.039 A 
ATOM     32  C   UNL A   1      42.740  26.998  27.731  1.00  0.00     0.014 A 
ATOM     33  C   UNL A   1      40.517  26.071  28.053  1.00  0.00     0.014 A 
ATOM     34  C   UNL A   1      42.546  27.815  28.843  1.00  0.00     0.010 A 
ATOM     35  C   UNL A   1      40.276  26.989  29.060  1.00  0.00     0.010 A 
ATOM     36  C   UNL A   1      41.296  27.852  29.485  1.00  0.00    -0.014 A 
BRANCH  36  37
ATOM     37  C   UNL A   1      41.039  28.754  30.632  1.00  0.00     0.031 A 
ATOM     38  C   UNL A   1      41.878  28.619  31.875  1.00  0.00     0.074 A 
ATOM     39  C   UNL A   1      40.028  29.644  30.578  1.00  0.00     0.049 A 
ATOM     40  N   UNL A   1      41.785  29.265  33.007  1.00  0.00    -0.248 NA
ATOM     41  C   UNL A   1      42.937  27.594  31.860  1.00  0.00     0.031 C 
ATOM     42  C   UNL A   1      39.110  29.820  29.450  1.00  0.00     0.029 A 
ATOM     43  N   UNL A   1      39.600  30.568  31.497  1.00  0.00    -0.354 N 
ATOM     44  C   UNL A   1      42.759  28.717  33.833  1.00  0.00     0.074 A 
ATOM     45  C   UNL A   1      43.374  27.632  33.108  1.00  0.00     0.031 C 
ATOM     46  C   UNL A   1      38.257  30.820  29.727  1.00  0.00     0.029 A 
ATOM     47  C   UNL A   1      38.534  31.323  31.069  1.00  0.00     0.049 A 
ATOM     48  H   UNL A   1      40.018  30.680  32.382  1.00  0.00     0.167 HD
ATOM     49  C   UNL A   1      43.134  29.109  35.071  1.00  0.00     0.037 A 
ATOM     50  C   UNL A   1      37.854  32.306  31.692  1.00  0.00     0.037 A 
ATOM     51  C   UNL A   1      42.533  30.211  35.772  1.00  0.00     0.049 A 
ATOM     52  C   UNL A   1      38.282  32.717  33.076  1.00  0.00     0.074 A 
ATOM     53  C   UNL A   1      42.873  30.732  37.006  1.00  0.00     0.029 A 
ATOM     54  N   UNL A   1      41.463  30.960  35.301  1.00  0.00    -0.354 N 
ATOM     55  N   UNL A   1      39.256  32.239  33.814  1.00  0.00    -0.248 NA
ATOM     56  C   UNL A   1      37.525  33.804  33.709  1.00  0.00     0.031 C 
ATOM     57  C   UNL A   1      41.968  31.753  37.311  1.00  0.00     0.029 A 
ATOM     58  C   UNL A   1      41.111  31.918  36.235  1.00  0.00     0.049 A 
ATOM     59  H   UNL A   1      41.021  30.828  34.431  1.00  0.00     0.167 HD
ATOM     60  C   UNL A   1      39.248  32.988  34.986  1.00  0.00     0.074 A 
ATOM     61  C   UNL A   1      38.183  33.960  34.850  1.00  0.00     0.031 C 
ATOM     62  C   UNL A   1      40.050  32.883  36.075  1.00  0.00     0.037 A 
BRANCH  49  63
ATOM     63  C   UNL A   1      44.244  28.345  35.741  1.00  0.00     0.058 A 
ATOM     64  C   UNL A   1      45.596  28.682  35.550  1.00  0.00     0.135 A 
ATOM     65  C   UNL A   1      43.954  27.279  36.605  1.00  0.00     0.135 A 
ATOM     66  F   UNL A   1      45.935  29.678  34.716  1.00  0.00    -0.206 F 
ATOM     67  C   UNL A   1      46.618  27.970  36.170  1.00  0.00     0.059 A 
ATOM     68  C   UNL A   1      44.959  26.576  37.264  1.00  0.00     0.059 A 
ATOM     69  F   UNL A   1      42.681  26.908  36.818  1.00  0.00    -0.206 F 
ATOM     70  C   UNL A   1      46.288  26.921  37.029  1.00  0.00     0.060 A 
BRANCH  70  71
ATOM     71  S   UNL A   1      47.627  26.021  37.837  1.00  0.00     0.124 S 
ATOM     72  O   UNL A   1      48.437  27.115  38.364  1.00  0.00    -0.237 OA
ATOM     73  O   UNL A   1      46.912  25.227  38.830  1.00  0.00    -0.237 OA
ATOM     74  O   UNL A   1      48.233  25.261  36.747  1.00  0.00    -0.744 OA
ENDBRANCH  70  71
ENDBRANCH  49  63
BRANCH  50  75
ATOM     75  C   UNL A   1      36.715  32.979  31.007  1.00  0.00     0.058 A 
ATOM     76  C   UNL A   1      36.931  33.858  29.935  1.00  0.00     0.135 A 
ATOM     77  C   UNL A   1      35.388  32.751  31.405  1.00  0.00     0.135 A 
ATOM     78  F   UNL A   1      38.180  34.114  29.518  1.00  0.00    -0.206 F 
ATOM     79  C   UNL A   1      35.876  34.504  29.297  1.00  0.00     0.059 A 
ATOM     80  C   UNL A   1      34.315  33.360  30.762  1.00  0.00     0.059 A 
ATOM     81  F   UNL A   1      35.124  31.906  32.413  1.00  0.00    -0.206 F 
ATOM     82  C   UNL A   1      34.570  34.246  29.717  1.00  0.00     0.060 A 
BRANCH  82  83
ATOM     83  S   UNL A   1      33.208  35.059  28.854  1.00  0.00     0.124 S 
ATOM     84  O   UNL A   1      33.891  36.177  28.214  1.00  0.00    -0.237 OA
ATOM     85  O   UNL A   1      32.736  34.003  27.965  1.00  0.00    -0.237 OA
ATOM     86  O   UNL A   1      32.292  35.415  29.935  1.00  0.00    -0.744 OA
ENDBRANCH  82  83
ENDBRANCH  50  75
BRANCH  62  87
ATOM     87  C   UNL A   1      39.835  33.867  37.193  1.00  0.00     0.058 A 
ATOM     88  C   UNL A   1      38.998  33.582  38.282  1.00  0.00     0.135 A 
ATOM     89  C   UNL A   1      40.526  35.089  37.201  1.00  0.00     0.135 A 
ATOM     90  F   UNL A   1      38.309  32.430  38.324  1.00  0.00    -0.206 F 
ATOM     91  C   UNL A   1      38.831  34.485  39.326  1.00  0.00     0.059 A 
ATOM     92  C   UNL A   1      40.404  35.992  38.251  1.00  0.00     0.059 A 
ATOM     93  F   UNL A   1      41.351  35.407  36.189  1.00  0.00    -0.206 F 
ATOM     94  C   UNL A   1      39.543  35.687  39.303  1.00  0.00     0.060 A 
BRANCH  94  95
ATOM     95  S   UNL A   1      39.344  36.834  40.682  1.00  0.00     0.124 S 
ATOM     96  O   UNL A   1      38.615  36.015  41.644  1.00  0.00    -0.237 OA
ATOM     97  O   UNL A   1      40.727  37.142  41.031  1.00  0.00    -0.237 OA
ATOM     98  O   UNL A   1      38.590  37.940  40.099  1.00  0.00    -0.744 OA
ENDBRANCH  94  95
ENDBRANCH  62  87
ENDBRANCH  36  37
ENDBRANCH  28  31
ENDBRANCH  26  27
ENDBRANCH  25  26
ENDBRANCH   1  25
TORSDOF 18
ENDMDL
MODEL 2
REMARK VINA RESULT:     -11.7      1.282      2.366
REMARK SMILES C[C@H]1[C@@H](C(=O)NCCCCNC(=O)c2ccc(-c3c4nc(c(-c5c(F)cc(S(=O)(=O)[O-])cc5F)c5ccc([nH]5)c(-c5c(F)cc(S(=O)(=O)[O-])cc5F)c5nc(c(-c6c(F)cc(S(=O)(=O)[O-])cc6F)c6ccc3[nH]6)C=C5)C=C4)cc2)CCN1S(=O)(=O)Cc1cccc(C#N)c1
REMARK SMILES IDX 8 1 7 2 6 3 4 4 5 5 3 7 1 8 2 9 82 10 80 11 81 12 83 13
REMARK SMILES IDX 84 14 85 15 86 16 87 17 88 18 94 19 89 20 91 21 90 22 92 23
REMARK SMILES IDX 93 24 9 25 10 26 11 27 12 28 13 30 14 31 15 32 79 33 16 34
REMARK SMILES IDX 78 35 17 36 18 37 19 38 72 39 20 40 77 41 71 42 73 43 21 44
REMARK SMILES IDX 76 45 70 46 69 47 22 49 56 50 35 51 55 52 36 53 39 54 54 55
REMARK SMILES IDX 74 56 37 57 38 58 53 60 75 61 40 62 23 63 24 64 33 65 25 66
REMARK SMILES IDX 26 67 32 68 34 69 27 70 28 71 29 72 30 73 31 74 57 75 58 76
REMARK SMILES IDX 67 77 59 78 60 79 66 80 68 81 61 82 62 83 63 84 64 85 65 86
REMARK SMILES IDX 41 87 42 88 51 89 43 90 44 91 50 92 52 93 45 94 46 95 47 96
REMARK SMILES IDX 48 97 49 98
REMARK H PARENT 6 6 11 29 73 48 39 59
REMARK Flexibility Score: inf
ROOT
ATOM      1  C   UNL A   1      37.369  23.306  25.606  1.00  0.00     0.023 C 
ENDROOT
BRANCH   1   2
ATOM      2  C   UNL A   1      37.082  22.217  24.559  1.00  0.00     0.116 C 
BRANCH   2   3
ATOM      3  N   UNL A   1      35.764  21.643  24.760  1.00  0.00    -0.356 N 
ATOM      4  C   UNL A   1      34.519  21.993  24.336  1.00  0.00     0.224 C 
ATOM      5  O   UNL A   1      33.597  21.331  24.822  1.00  0.00    -0.275 OA
ATOM      6  H   UNL A   1      35.773  20.833  25.320  1.00  0.00     0.163 HD
BRANCH   4   7
ATOM      7  C   UNL A   1      34.246  23.022  23.220  1.00  0.00     0.098 C 
ATOM      8  C   UNL A   1      34.154  24.951  24.958  1.00  0.00     0.026 C 
ATOM      9  C   UNL A   1      34.151  24.535  23.512  1.00  0.00     0.082 C 
ATOM     10  N   UNL A   1      32.822  25.006  23.083  1.00  0.00    -0.198 NA
ATOM     11  C   UNL A   1      32.920  22.729  22.485  1.00  0.00     0.032 C 
ATOM     12  C   UNL A   1      31.965  23.819  22.942  1.00  0.00     0.103 C 
BRANCH  10  13
ATOM     13  S   UNL A   1      32.639  26.315  22.065  1.00  0.00     0.218 S 
ATOM     14  O   UNL A   1      33.968  26.611  21.564  1.00  0.00    -0.212 OA
ATOM     15  O   UNL A   1      31.583  25.987  21.128  1.00  0.00    -0.212 OA
BRANCH  13  16
ATOM     16  C   UNL A   1      32.136  27.746  23.078  1.00  0.00     0.189 C 
BRANCH  16  17
ATOM     17  C   UNL A   1      30.680  28.151  22.979  1.00  0.00    -0.030 A 
ATOM     18  C   UNL A   1      29.661  27.390  23.565  1.00  0.00     0.005 A 
ATOM     19  C   UNL A   1      30.302  29.269  22.210  1.00  0.00     0.024 A 
ATOM     20  C   UNL A   1      28.319  27.773  23.447  1.00  0.00     0.002 A 
ATOM     21  C   UNL A   1      28.966  29.698  22.152  1.00  0.00     0.052 A 
ATOM     22  C   UNL A   1      27.972  28.937  22.763  1.00  0.00     0.019 A 
BRANCH  21  23
ATOM     23  C   UNL A   1      28.640  30.944  21.524  1.00  0.00     0.099 C 
ATOM     24  N   UNL A   1      28.343  31.963  21.053  1.00  0.00    -0.192 NA
ENDBRANCH  21  23
ENDBRANCH  16  17
ENDBRANCH  13  16
ENDBRANCH  10  13
ENDBRANCH   4   7
ENDBRANCH   2   3
ENDBRANCH   1   2
BRANCH   1  25
ATOM     25  C   UNL A   1      38.600  23.134  26.464  1.00  0.00     0.023 C 
BRANCH  25  26
ATOM     26  C   UNL A   1      39.352  24.420  26.685  1.00  0.00     0.116 C 
BRANCH  26  27
ATOM     27  N   UNL A   1      40.541  24.560  25.850  1.00  0.00    -0.352 N 
ATOM     28  C   UNL A   1      41.649  25.341  26.088  1.00  0.00     0.251 C 
ATOM     29  H   UNL A   1      40.551  24.035  25.017  1.00  0.00     0.163 HD
ATOM     30  O   UNL A   1      42.559  25.422  25.272  1.00  0.00    -0.269 OA
BRANCH  28  31
ATOM     31  C   UNL A   1      41.679  26.111  27.342  1.00  0.00     0.039 A 
ATOM     32  C   UNL A   1      42.421  27.289  27.399  1.00  0.00     0.014 A 
ATOM     33  C   UNL A   1      40.825  25.744  28.384  1.00  0.00     0.014 A 
ATOM     34  C   UNL A   1      42.246  28.143  28.486  1.00  0.00     0.010 A 
ATOM     35  C   UNL A   1      40.545  26.662  29.380  1.00  0.00     0.010 A 
ATOM     36  C   UNL A   1      41.271  27.859  29.458  1.00  0.00    -0.014 A 
BRANCH  36  37
ATOM     37  C   UNL A   1      41.018  28.777  30.594  1.00  0.00     0.031 A 
ATOM     38  C   UNL A   1      41.853  28.651  31.841  1.00  0.00     0.074 A 
ATOM     39  C   UNL A   1      40.014  29.673  30.527  1.00  0.00     0.049 A 
ATOM     40  N   UNL A   1      41.763  29.311  32.964  1.00  0.00    -0.248 NA
ATOM     41  C   UNL A   1      42.905  27.617  31.840  1.00  0.00     0.031 C 
ATOM     42  C   UNL A   1      39.099  29.842  29.395  1.00  0.00     0.029 A 
ATOM     43  N   UNL A   1      39.591  30.611  31.434  1.00  0.00    -0.354 N 
ATOM     44  C   UNL A   1      42.731  28.766  33.799  1.00  0.00     0.074 A 
ATOM     45  C   UNL A   1      43.340  27.667  33.089  1.00  0.00     0.031 C 
ATOM     46  C   UNL A   1      38.253  30.852  29.659  1.00  0.00     0.029 A 
ATOM     47  C   UNL A   1      38.531  31.369  30.995  1.00  0.00     0.049 A 
ATOM     48  H   UNL A   1      40.008  30.731  32.318  1.00  0.00     0.167 HD
ATOM     49  C   UNL A   1      43.107  29.170  35.033  1.00  0.00     0.037 A 
ATOM     50  C   UNL A   1      37.857  32.364  31.604  1.00  0.00     0.037 A 
ATOM     51  C   UNL A   1      42.512  30.285  35.720  1.00  0.00     0.049 A 
ATOM     52  C   UNL A   1      38.285  32.789  32.984  1.00  0.00     0.074 A 
ATOM     53  C   UNL A   1      42.853  30.817  36.948  1.00  0.00     0.029 A 
ATOM     54  N   UNL A   1      41.448  31.035  35.237  1.00  0.00    -0.354 N 
ATOM     55  N   UNL A   1      39.254  32.312  33.730  1.00  0.00    -0.248 NA
ATOM     56  C   UNL A   1      37.534  33.889  33.603  1.00  0.00     0.031 C 
ATOM     57  C   UNL A   1      41.955  31.849  37.238  1.00  0.00     0.029 A 
ATOM     58  C   UNL A   1      41.101  32.007  36.159  1.00  0.00     0.049 A 
ATOM     59  H   UNL A   1      41.007  30.896  34.368  1.00  0.00     0.167 HD
ATOM     60  C   UNL A   1      39.249  33.075  34.893  1.00  0.00     0.074 A 
ATOM     61  C   UNL A   1      38.191  34.053  34.743  1.00  0.00     0.031 C 
ATOM     62  C   UNL A   1      40.047  32.977  35.986  1.00  0.00     0.037 A 
BRANCH  49  63
ATOM     63  C   UNL A   1      44.210  28.406  35.714  1.00  0.00     0.058 A 
ATOM     64  C   UNL A   1      43.943  27.328  36.576  1.00  0.00     0.135 A 
ATOM     65  C   UNL A   1      45.553  28.738  35.482  1.00  0.00     0.135 A 
ATOM     66  F   UNL A   1      42.677  26.980  36.854  1.00  0.00    -0.206 F 
ATOM     67  C   UNL A   1      44.967  26.627  37.204  1.00  0.00     0.059 A 
ATOM     68  C   UNL A   1      46.596  28.028  36.071  1.00  0.00     0.059 A 
ATOM     69  F   UNL A   1      45.867  29.764  34.675  1.00  0.00    -0.206 F 
ATOM     70  C   UNL A   1      46.291  26.983  36.941  1.00  0.00     0.060 A 
BRANCH  70  71
ATOM     71  S   UNL A   1      47.606  26.051  37.752  1.00  0.00     0.124 S 
ATOM     72  O   UNL A   1      48.113  25.240  36.649  1.00  0.00    -0.237 OA
ATOM     73  O   UNL A   1      48.494  27.110  38.221  1.00  0.00    -0.237 OA
ATOM     74  O   UNL A   1      46.905  25.314  38.800  1.00  0.00    -0.744 OA
ENDBRANCH  70  71
ENDBRANCH  49  63
BRANCH  50  75
ATOM     75  C   UNL A   1      36.724  33.037  30.909  1.00  0.00     0.058 A 
ATOM     76  C   UNL A   1      35.394  32.785  31.279  1.00  0.00     0.135 A 
ATOM     77  C   UNL A   1      36.948  33.950  29.868  1.00  0.00     0.135 A 
ATOM     78  F   UNL A   1      35.124  31.917  32.266  1.00  0.00    -0.206 F 
ATOM     79  C   UNL A   1      34.327  33.396  30.627  1.00  0.00     0.059 A 
ATOM     80  C   UNL A   1      35.899  34.598  29.222  1.00  0.00     0.059 A 
ATOM     81  F   UNL A   1      38.201  34.241  29.485  1.00  0.00    -0.206 F 
ATOM     82  C   UNL A   1      34.591  34.305  29.601  1.00  0.00     0.060 A 
BRANCH  82  83
ATOM     83  S   UNL A   1      33.199  35.121  28.791  1.00  0.00     0.124 S 
ATOM     84  O   UNL A   1      32.318  35.393  29.920  1.00  0.00    -0.237 OA
ATOM     85  O   UNL A   1      33.839  36.284  28.183  1.00  0.00    -0.237 OA
ATOM     86  O   UNL A   1      32.722  34.114  27.847  1.00  0.00    -0.744 OA
ENDBRANCH  82  83
ENDBRANCH  50  75
BRANCH  62  87
ATOM     87  C   UNL A   1      39.837  33.976  37.091  1.00  0.00     0.058 A 
ATOM     88  C   UNL A   1      38.998  33.709  38.183  1.00  0.00     0.135 A 
ATOM     89  C   UNL A   1      40.536  35.195  37.084  1.00  0.00     0.135 A 
ATOM     90  F   UNL A   1      38.303  32.562  38.238  1.00  0.00    -0.206 F 
ATOM     91  C   UNL A   1      38.836  34.627  39.215  1.00  0.00     0.059 A 
ATOM     92  C   UNL A   1      40.418  36.111  38.123  1.00  0.00     0.059 A 
ATOM     93  F   UNL A   1      41.363  35.495  36.069  1.00  0.00    -0.206 F 
ATOM     94  C   UNL A   1      39.555  35.824  39.178  1.00  0.00     0.060 A 
BRANCH  94  95
ATOM     95  S   UNL A   1      39.361  36.989  40.543  1.00  0.00     0.124 S 
ATOM     96  O   UNL A   1      38.646  38.084  39.895  1.00  0.00    -0.237 OA
ATOM     97  O   UNL A   1      38.590  36.211  41.507  1.00  0.00    -0.237 OA
ATOM     98  O   UNL A   1      40.735  37.283  40.938  1.00  0.00    -0.744 OA
ENDBRANCH  94  95
ENDBRANCH  62  87
ENDBRANCH  36  37
ENDBRANCH  28  31
ENDBRANCH  26  27
ENDBRANCH  25  26
ENDBRANCH   1  25
TORSDOF 18
ENDMDL
MODEL 3
REMARK VINA RESULT:     -11.5      1.215      2.377
REMARK SMILES C[C@H]1[C@@H](C(=O)NCCCCNC(=O)c2ccc(-c3c4nc(c(-c5c(F)cc(S(=O)(=O)[O-])cc5F)c5ccc([nH]5)c(-c5c(F)cc(S(=O)(=O)[O-])cc5F)c5nc(c(-c6c(F)cc(S(=O)(=O)[O-])cc6F)c6ccc3[nH]6)C=C5)C=C4)cc2)CCN1S(=O)(=O)Cc1cccc(C#N)c1
REMARK SMILES IDX 8 1 7 2 6 3 4 4 5 5 3 7 1 8 2 9 82 10 80 11 81 12 83 13
REMARK SMILES IDX 84 14 85 15 86 16 87 17 88 18 94 19 89 20 91 21 90 22 92 23
REMARK SMILES IDX 93 24 9 25 10 26 11 27 12 28 13 30 14 31 15 32 79 33 16 34
REMARK SMILES IDX 78 35 17 36 18 37 19 38 72 39 20 40 77 41 71 42 73 43 21 44
REMARK SMILES IDX 76 45 70 46 69 47 22 49 56 50 35 51 55 52 36 53 39 54 54 55
REMARK SMILES IDX 74 56 37 57 38 58 53 60 75 61 40 62 23 63 24 64 33 65 25 66
REMARK SMILES IDX 26 67 32 68 34 69 27 70 28 71 29 72 30 73 31 74 57 75 58 76
REMARK SMILES IDX 67 77 59 78 60 79 66 80 68 81 61 82 62 83 63 84 64 85 65 86
REMARK SMILES IDX 41 87 42 88 51 89 43 90 44 91 50 92 52 93 45 94 46 95 47 96
REMARK SMILES IDX 48 97 49 98
REMARK H PARENT 6 6 11 29 73 48 39 59
REMARK Flexibility Score: inf
ROOT
ATOM      1  C   UNL A   1      37.571  22.984  25.736  1.00  0.00     0.023 C 
ENDROOT
BRANCH   1   2
ATOM      2  C   UNL A   1      36.987  21.667  25.197  1.00  0.00     0.116 C 
BRANCH   2   3
ATOM      3  N   UNL A   1      35.697  21.391  25.802  1.00  0.00    -0.356 N 
ATOM      4  C   UNL A   1      34.432  21.819  25.540  1.00  0.00     0.224 C 
ATOM      5  O   UNL A   1      33.580  21.468  26.362  1.00  0.00    -0.275 OA
ATOM      6  H   UNL A   1      35.748  20.765  26.561  1.00  0.00     0.163 HD
BRANCH   4   7
ATOM      7  C   UNL A   1      34.022  22.553  24.246  1.00  0.00     0.098 C 
ATOM      8  C   UNL A   1      34.732  24.837  25.261  1.00  0.00     0.026 C 
ATOM      9  C   UNL A   1      34.254  24.067  24.059  1.00  0.00     0.082 C 
ATOM     10  N   UNL A   1      32.951  24.708  23.810  1.00  0.00    -0.198 NA
ATOM     11  C   UNL A   1      32.513  22.398  23.955  1.00  0.00     0.032 C 
ATOM     12  C   UNL A   1      31.911  23.763  24.246  1.00  0.00     0.103 C 
BRANCH  10  13
ATOM     13  S   UNL A   1      32.697  25.707  22.499  1.00  0.00     0.218 S 
ATOM     14  O   UNL A   1      33.806  25.459  21.596  1.00  0.00    -0.212 OA
ATOM     15  O   UNL A   1      31.342  25.480  22.040  1.00  0.00    -0.212 OA
BRANCH  13  16
ATOM     16  C   UNL A   1      32.870  27.432  23.068  1.00  0.00     0.189 C 
BRANCH  16  17
ATOM     17  C   UNL A   1      32.652  27.668  24.548  1.00  0.00    -0.030 A 
ATOM     18  C   UNL A   1      31.465  27.292  25.189  1.00  0.00     0.005 A 
ATOM     19  C   UNL A   1      33.615  28.359  25.309  1.00  0.00     0.024 A 
ATOM     20  C   UNL A   1      31.277  27.534  26.555  1.00  0.00     0.002 A 
ATOM     21  C   UNL A   1      33.463  28.537  26.694  1.00  0.00     0.052 A 
ATOM     22  C   UNL A   1      32.282  28.133  27.314  1.00  0.00     0.019 A 
BRANCH  21  23
ATOM     23  C   UNL A   1      34.542  29.069  27.472  1.00  0.00     0.099 C 
ATOM     24  N   UNL A   1      35.438  29.456  28.101  1.00  0.00    -0.192 NA
ENDBRANCH  21  23
ENDBRANCH  16  17
ENDBRANCH  13  16
ENDBRANCH  10  13
ENDBRANCH   4   7
ENDBRANCH   2   3
ENDBRANCH   1   2
BRANCH   1  25
ATOM     25  C   UNL A   1      38.860  22.900  26.519  1.00  0.00     0.023 C 
BRANCH  25  26
ATOM     26  C   UNL A   1      39.461  24.249  26.817  1.00  0.00     0.116 C 
BRANCH  26  27
ATOM     27  N   UNL A   1      40.429  24.698  25.820  1.00  0.00    -0.352 N 
ATOM     28  C   UNL A   1      41.343  25.720  25.937  1.00  0.00     0.251 C 
ATOM     29  H   UNL A   1      40.427  24.213  24.964  1.00  0.00     0.163 HD
ATOM     30  O   UNL A   1      42.061  26.043  24.999  1.00  0.00    -0.269 OA
BRANCH  28  31
ATOM     31  C   UNL A   1      41.394  26.441  27.219  1.00  0.00     0.039 A 
ATOM     32  C   UNL A   1      42.212  27.563  27.336  1.00  0.00     0.014 A 
ATOM     33  C   UNL A   1      40.492  26.096  28.228  1.00  0.00     0.014 A 
ATOM     34  C   UNL A   1      42.069  28.387  28.450  1.00  0.00     0.010 A 
ATOM     35  C   UNL A   1      40.251  26.995  29.251  1.00  0.00     0.010 A 
ATOM     36  C   UNL A   1      41.054  28.137  29.390  1.00  0.00    -0.014 A 
BRANCH  36  37
ATOM     37  C   UNL A   1      40.836  29.028  30.553  1.00  0.00     0.031 A 
ATOM     38  C   UNL A   1      41.690  28.856  31.781  1.00  0.00     0.074 A 
ATOM     39  C   UNL A   1      39.846  29.942  30.527  1.00  0.00     0.049 A 
ATOM     40  N   UNL A   1      41.630  29.488  32.922  1.00  0.00    -0.248 NA
ATOM     41  C   UNL A   1      42.724  27.806  31.735  1.00  0.00     0.031 C 
ATOM     42  C   UNL A   1      38.915  30.156  29.415  1.00  0.00     0.029 A 
ATOM     43  N   UNL A   1      39.454  30.863  31.465  1.00  0.00    -0.354 N 
ATOM     44  C   UNL A   1      42.603  28.906  33.726  1.00  0.00     0.074 A 
ATOM     45  C   UNL A   1      43.181  27.816  32.977  1.00  0.00     0.031 C 
ATOM     46  C   UNL A   1      38.090  31.172  29.720  1.00  0.00     0.029 A 
ATOM     47  C   UNL A   1      38.399  31.649  31.064  1.00  0.00     0.049 A 
ATOM     48  H   UNL A   1      39.888  30.953  32.344  1.00  0.00     0.167 HD
ATOM     49  C   UNL A   1      43.006  29.271  34.963  1.00  0.00     0.037 A 
ATOM     50  C   UNL A   1      37.753  32.639  31.711  1.00  0.00     0.037 A 
ATOM     51  C   UNL A   1      42.443  30.377  35.688  1.00  0.00     0.049 A 
ATOM     52  C   UNL A   1      38.211  33.021  33.093  1.00  0.00     0.074 A 
ATOM     53  C   UNL A   1      42.814  30.872  36.924  1.00  0.00     0.029 A 
ATOM     54  N   UNL A   1      41.383  31.157  35.244  1.00  0.00    -0.354 N 
ATOM     55  N   UNL A   1      39.185  32.509  33.809  1.00  0.00    -0.248 NA
ATOM     56  C   UNL A   1      37.490  34.116  33.753  1.00  0.00     0.031 C 
ATOM     57  C   UNL A   1      41.938  31.910  37.257  1.00  0.00     0.029 A 
ATOM     58  C   UNL A   1      41.068  32.111  36.197  1.00  0.00     0.049 A 
ATOM     59  H   UNL A   1      40.925  31.049  34.380  1.00  0.00     0.167 HD
ATOM     60  C   UNL A   1      39.213  33.241  34.991  1.00  0.00     0.074 A 
ATOM     61  C   UNL A   1      38.169  34.240  34.885  1.00  0.00     0.031 C 
ATOM     62  C   UNL A   1      40.028  33.102  36.067  1.00  0.00     0.037 A 
BRANCH  49  63
ATOM     63  C   UNL A   1      44.108  28.472  35.605  1.00  0.00     0.058 A 
ATOM     64  C   UNL A   1      43.838  27.376  36.443  1.00  0.00     0.135 A 
ATOM     65  C   UNL A   1      45.453  28.788  35.358  1.00  0.00     0.135 A 
ATOM     66  F   UNL A   1      42.571  27.041  36.733  1.00  0.00    -0.206 F 
ATOM     67  C   UNL A   1      44.861  26.643  37.035  1.00  0.00     0.059 A 
ATOM     68  C   UNL A   1      46.493  28.046  35.911  1.00  0.00     0.059 A 
ATOM     69  F   UNL A   1      45.770  29.830  34.573  1.00  0.00    -0.206 F 
ATOM     70  C   UNL A   1      46.186  26.984  36.758  1.00  0.00     0.060 A 
BRANCH  70  71
ATOM     71  S   UNL A   1      47.499  26.009  37.522  1.00  0.00     0.124 S 
ATOM     72  O   UNL A   1      48.681  26.528  36.841  1.00  0.00    -0.237 OA
ATOM     73  O   UNL A   1      47.370  26.366  38.931  1.00  0.00    -0.237 OA
ATOM     74  O   UNL A   1      47.138  24.633  37.191  1.00  0.00    -0.744 OA
ENDBRANCH  70  71
ENDBRANCH  49  63
BRANCH  50  75
ATOM     75  C   UNL A   1      36.620  33.348  31.053  1.00  0.00     0.058 A 
ATOM     76  C   UNL A   1      35.297  33.152  31.478  1.00  0.00     0.135 A 
ATOM     77  C   UNL A   1      36.837  34.241  29.992  1.00  0.00     0.135 A 
ATOM     78  F   UNL A   1      35.034  32.306  32.485  1.00  0.00    -0.206 F 
ATOM     79  C   UNL A   1      34.229  33.797  30.862  1.00  0.00     0.059 A 
ATOM     80  C   UNL A   1      35.789  34.923  29.381  1.00  0.00     0.059 A 
ATOM     81  F   UNL A   1      38.084  34.479  29.557  1.00  0.00    -0.206 F 
ATOM     82  C   UNL A   1      34.486  34.685  29.815  1.00  0.00     0.060 A 
BRANCH  82  83
ATOM     83  S   UNL A   1      33.095  35.546  29.051  1.00  0.00     0.124 S 
ATOM     84  O   UNL A   1      32.487  34.482  28.262  1.00  0.00    -0.237 OA
ATOM     85  O   UNL A   1      32.337  35.994  30.216  1.00  0.00    -0.237 OA
ATOM     86  O   UNL A   1      33.740  36.610  28.286  1.00  0.00    -0.744 OA
ENDBRANCH  82  83
ENDBRANCH  50  75
BRANCH  62  87
ATOM     87  C   UNL A   1      39.854  34.075  37.201  1.00  0.00     0.058 A 
ATOM     88  C   UNL A   1      40.450  35.345  37.187  1.00  0.00     0.135 A 
ATOM     89  C   UNL A   1      39.028  33.751  38.290  1.00  0.00     0.135 A 
ATOM     90  F   UNL A   1      41.253  35.705  36.174  1.00  0.00    -0.206 F 
ATOM     91  C   UNL A   1      40.257  36.249  38.226  1.00  0.00     0.059 A 
ATOM     92  C   UNL A   1      38.790  34.652  39.322  1.00  0.00     0.059 A 
ATOM     93  F   UNL A   1      38.422  32.554  38.347  1.00  0.00    -0.206 F 
ATOM     94  C   UNL A   1      39.420  35.895  39.288  1.00  0.00     0.060 A 
BRANCH  94  95
ATOM     95  S   UNL A   1      39.151  37.092  40.611  1.00  0.00     0.124 S 
ATOM     96  O   UNL A   1      40.509  37.564  40.861  1.00  0.00    -0.237 OA
ATOM     97  O   UNL A   1      38.251  38.052  39.981  1.00  0.00    -0.237 OA
ATOM     98  O   UNL A   1      38.557  36.292  41.678  1.00  0.00    -0.744 OA
ENDBRANCH  94  95
ENDBRANCH  62  87
ENDBRANCH  36  37
ENDBRANCH  28  31
ENDBRANCH  26  27
ENDBRANCH  25  26
ENDBRANCH   1  25
TORSDOF 18
ENDMDL
