MODEL 1
REMARK VINA RESULT:     -11.8      0.000      0.000
REMARK SMILES C[C@@](CC(=O)N[C@@H]1CCS(=O)(=O)C1)(C(=O)NCCCCNC(=O)c1ccc(-c2c3nc(c(-c4c(F)cc(S(=O)(=O)[O-])cc4F)c4ccc([nH]4)c(-c4c(F)cc(S(=O)(=O)[O-])cc4F)c4nc(c(-c5c(F)cc(S(=O)(=O)[O-])cc5F)c5ccc2[nH]5)C=C4)C=C3)cc1)c1ccccc1
REMARK SMILES IDX 18 1 17 2 16 3 14 4 15 5 2 7 1 8 3 9 4 10 5 11 6 12 7 14
REMARK SMILES IDX 8 15 13 16 9 17 10 18 11 19 12 20 90 21 91 22 95 23 92 24
REMARK SMILES IDX 94 25 93 26 19 27 20 28 21 29 22 30 23 32 24 33 25 34 89 35
REMARK SMILES IDX 26 36 88 37 27 38 28 39 29 40 82 41 30 42 87 43 81 44 83 45
REMARK SMILES IDX 31 46 86 47 80 48 79 49 32 51 66 52 45 53 65 54 46 55 49 56
REMARK SMILES IDX 64 57 84 58 47 59 48 60 63 62 85 63 50 64 33 65 34 66 43 67
REMARK SMILES IDX 35 68 36 69 42 70 44 71 37 72 38 73 39 74 40 75 41 76 67 77
REMARK SMILES IDX 68 78 77 79 69 80 70 81 76 82 78 83 71 84 72 85 73 86 74 87
REMARK SMILES IDX 75 88 51 89 52 90 61 91 53 92 54 93 60 94 62 95 55 96 56 97
REMARK SMILES IDX 57 98 58 99 59 100
REMARK H PARENT 16 6 6 13 21 31 83 50 49 61
REMARK Flexibility Score: inf
ROOT
ATOM      1  C   UNL A   1      31.946  27.805  27.160  1.00  0.00     0.023 C 
ENDROOT
BRANCH   1   2
ATOM      2  C   UNL A   1      31.122  26.778  26.385  1.00  0.00     0.116 C 
BRANCH   2   3
ATOM      3  N   UNL A   1      31.139  25.422  26.889  1.00  0.00    -0.355 N 
ATOM      4  C   UNL A   1      31.771  24.297  26.414  1.00  0.00     0.230 C 
ATOM      5  O   UNL A   1      31.957  23.400  27.242  1.00  0.00    -0.274 OA
ATOM      6  H   UNL A   1      30.609  25.280  27.707  1.00  0.00     0.163 HD
BRANCH   4   7
ATOM      7  C   UNL A   1      32.139  24.113  24.902  1.00  0.00     0.080 C 
ATOM      8  C   UNL A   1      30.821  23.977  24.148  1.00  0.00     0.027 C 
BRANCH   7   9
ATOM      9  C   UNL A   1      33.038  25.240  24.301  1.00  0.00     0.121 C 
BRANCH   9  10
ATOM     10  C   UNL A   1      32.907  25.756  22.880  1.00  0.00     0.221 C 
ATOM     11  O   UNL A   1      33.406  25.091  21.960  1.00  0.00    -0.275 OA
ATOM     12  N   UNL A   1      32.255  26.869  22.474  1.00  0.00    -0.352 N 
ATOM     13  H   UNL A   1      32.461  27.057  21.530  1.00  0.00     0.163 HD
BRANCH  12  14
ATOM     14  C   UNL A   1      31.333  27.889  23.002  1.00  0.00     0.098 C 
ATOM     15  C   UNL A   1      29.938  27.343  23.377  1.00  0.00     0.042 C 
ATOM     16  C   UNL A   1      31.264  29.244  22.316  1.00  0.00     0.161 C 
ATOM     17  C   UNL A   1      28.840  28.221  22.800  1.00  0.00     0.139 C 
ATOM     18  S   UNL A   1      29.582  29.799  22.465  1.00  0.00     0.152 S 
ATOM     19  O   UNL A   1      29.124  30.267  21.173  1.00  0.00    -0.229 OA
ATOM     20  O   UNL A   1      29.472  30.611  23.658  1.00  0.00    -0.229 OA
ENDBRANCH  12  14
ENDBRANCH   9  10
ENDBRANCH   7   9
BRANCH   7  21
ATOM     21  C   UNL A   1      32.923  22.751  24.707  1.00  0.00    -0.032 A 
ATOM     22  C   UNL A   1      32.250  21.552  24.390  1.00  0.00     0.005 A 
ATOM     23  C   UNL A   1      34.309  22.654  24.945  1.00  0.00     0.005 A 
ATOM     24  C   UNL A   1      32.889  20.312  24.487  1.00  0.00     0.000 A 
ATOM     25  C   UNL A   1      34.949  21.414  25.036  1.00  0.00     0.000 A 
ATOM     26  C   UNL A   1      34.230  20.241  24.844  1.00  0.00     0.000 A 
ENDBRANCH   7  21
ENDBRANCH   4   7
ENDBRANCH   2   3
ENDBRANCH   1   2
BRANCH   1  27
ATOM     27  C   UNL A   1      33.445  27.786  26.907  1.00  0.00     0.023 C 
BRANCH  27  28
ATOM     28  C   UNL A   1      33.970  28.901  26.018  1.00  0.00     0.116 C 
BRANCH  28  29
ATOM     29  N   UNL A   1      33.751  30.247  26.532  1.00  0.00    -0.352 N 
ATOM     30  C   UNL A   1      34.527  30.901  27.469  1.00  0.00     0.251 C 
ATOM     31  H   UNL A   1      32.974  30.738  26.177  1.00  0.00     0.163 HD
ATOM     32  O   UNL A   1      34.211  32.001  27.905  1.00  0.00    -0.269 OA
BRANCH  30  33
ATOM     33  C   UNL A   1      35.727  30.196  27.966  1.00  0.00     0.039 A 
ATOM     34  C   UNL A   1      36.924  30.305  27.258  1.00  0.00     0.014 A 
ATOM     35  C   UNL A   1      35.690  29.588  29.223  1.00  0.00     0.014 A 
ATOM     36  C   UNL A   1      38.109  29.876  27.857  1.00  0.00     0.010 A 
ATOM     37  C   UNL A   1      36.882  29.261  29.855  1.00  0.00     0.010 A 
ATOM     38  C   UNL A   1      38.105  29.399  29.180  1.00  0.00    -0.014 A 
BRANCH  38  39
ATOM     39  C   UNL A   1      39.364  29.031  29.876  1.00  0.00     0.031 A 
ATOM     40  C   UNL A   1      39.788  29.796  31.102  1.00  0.00     0.074 A 
ATOM     41  C   UNL A   1      40.157  28.063  29.372  1.00  0.00     0.049 A 
ATOM     42  N   UNL A   1      40.876  29.675  31.814  1.00  0.00    -0.248 NA
ATOM     43  C   UNL A   1      38.883  30.861  31.566  1.00  0.00     0.031 C 
ATOM     44  C   UNL A   1      39.887  27.294  28.153  1.00  0.00     0.029 A 
ATOM     45  N   UNL A   1      41.356  27.565  29.815  1.00  0.00    -0.354 N 
ATOM     46  C   UNL A   1      40.792  30.654  32.799  1.00  0.00     0.074 A 
ATOM     47  C   UNL A   1      39.584  31.406  32.548  1.00  0.00     0.031 C 
ATOM     48  C   UNL A   1      40.875  26.402  27.967  1.00  0.00     0.029 A 
ATOM     49  C   UNL A   1      41.867  26.560  29.026  1.00  0.00     0.049 A 
ATOM     50  H   UNL A   1      41.810  27.895  30.624  1.00  0.00     0.167 HD
ATOM     51  C   UNL A   1      41.628  30.884  33.837  1.00  0.00     0.037 A 
ATOM     52  C   UNL A   1      43.006  25.849  29.141  1.00  0.00     0.037 A 
ATOM     53  C   UNL A   1      42.814  30.113  34.098  1.00  0.00     0.049 A 
ATOM     54  C   UNL A   1      43.921  26.122  30.306  1.00  0.00     0.074 A 
ATOM     55  C   UNL A   1      43.697  30.224  35.156  1.00  0.00     0.029 A 
ATOM     56  N   UNL A   1      43.284  29.088  33.288  1.00  0.00    -0.354 N 
ATOM     57  N   UNL A   1      43.787  27.002  31.270  1.00  0.00    -0.248 NA
ATOM     58  C   UNL A   1      45.136  25.302  30.405  1.00  0.00     0.031 C 
ATOM     59  C   UNL A   1      44.729  29.299  34.961  1.00  0.00     0.029 A 
ATOM     60  C   UNL A   1      44.457  28.572  33.813  1.00  0.00     0.049 A 
ATOM     61  H   UNL A   1      42.848  28.773  32.464  1.00  0.00     0.167 HD
ATOM     62  C   UNL A   1      44.884  26.821  32.106  1.00  0.00     0.074 A 
ATOM     63  C   UNL A   1      45.664  25.739  31.540  1.00  0.00     0.031 C 
ATOM     64  C   UNL A   1      45.216  27.488  33.239  1.00  0.00     0.037 A 
BRANCH  51  65
ATOM     65  C   UNL A   1      41.280  32.009  34.774  1.00  0.00     0.058 A 
ATOM     66  C   UNL A   1      41.802  33.302  34.602  1.00  0.00     0.135 A 
ATOM     67  C   UNL A   1      40.394  31.800  35.844  1.00  0.00     0.135 A 
ATOM     68  F   UNL A   1      42.668  33.555  33.606  1.00  0.00    -0.206 F 
ATOM     69  C   UNL A   1      41.485  34.338  35.472  1.00  0.00     0.059 A 
ATOM     70  C   UNL A   1      40.038  32.831  36.709  1.00  0.00     0.059 A 
ATOM     71  F   UNL A   1      39.868  30.584  36.059  1.00  0.00    -0.206 F 
ATOM     72  C   UNL A   1      40.600  34.093  36.524  1.00  0.00     0.060 A 
BRANCH  72  73
ATOM     73  S   UNL A   1      40.192  35.452  37.638  1.00  0.00     0.124 S 
ATOM     74  O   UNL A   1      41.443  35.610  38.374  1.00  0.00    -0.237 OA
ATOM     75  O   UNL A   1      39.864  36.529  36.709  1.00  0.00    -0.237 OA
ATOM     76  O   UNL A   1      39.070  34.933  38.412  1.00  0.00    -0.744 OA
ENDBRANCH  72  73
ENDBRANCH  51  65
BRANCH  52  77
ATOM     77  C   UNL A   1      43.335  24.795  28.141  1.00  0.00     0.058 A 
ATOM     78  C   UNL A   1      42.961  23.458  28.350  1.00  0.00     0.135 A 
ATOM     79  C   UNL A   1      44.022  25.101  26.956  1.00  0.00     0.135 A 
ATOM     80  F   UNL A   1      42.308  23.113  29.470  1.00  0.00    -0.206 F 
ATOM     81  C   UNL A   1      43.271  22.460  27.431  1.00  0.00     0.059 A 
ATOM     82  C   UNL A   1      44.318  24.126  26.009  1.00  0.00     0.059 A 
ATOM     83  F   UNL A   1      44.388  26.366  26.699  1.00  0.00    -0.206 F 
ATOM     84  C   UNL A   1      43.948  22.806  26.260  1.00  0.00     0.060 A 
BRANCH  84  85
ATOM     85  S   UNL A   1      44.301  21.511  25.051  1.00  0.00     0.124 S 
ATOM     86  O   UNL A   1      43.230  20.558  25.319  1.00  0.00    -0.237 OA
ATOM     87  O   UNL A   1      44.208  22.240  23.789  1.00  0.00    -0.237 OA
ATOM     88  O   UNL A   1      45.645  21.072  25.414  1.00  0.00    -0.744 OA
ENDBRANCH  84  85
ENDBRANCH  52  77
BRANCH  64  89
ATOM     89  C   UNL A   1      46.455  27.046  33.969  1.00  0.00     0.058 A 
ATOM     90  C   UNL A   1      46.418  26.045  34.951  1.00  0.00     0.135 A 
ATOM     91  C   UNL A   1      47.706  27.593  33.636  1.00  0.00     0.135 A 
ATOM     92  F   UNL A   1      45.249  25.493  35.311  1.00  0.00    -0.206 F 
ATOM     93  C   UNL A   1      47.575  25.617  35.595  1.00  0.00     0.059 A 
ATOM     94  C   UNL A   1      48.879  27.158  34.244  1.00  0.00     0.059 A 
ATOM     95  F   UNL A   1      47.798  28.546  32.694  1.00  0.00    -0.206 F 
ATOM     96  C   UNL A   1      48.801  26.177  35.232  1.00  0.00     0.060 A 
BRANCH  96  97
ATOM     97  S   UNL A   1      50.298  25.587  36.049  1.00  0.00     0.124 S 
ATOM     98  O   UNL A   1      49.797  25.264  37.382  1.00  0.00    -0.237 OA
ATOM     99  O   UNL A   1      50.676  24.447  35.220  1.00  0.00    -0.237 OA
ATOM    100  O   UNL A   1      51.198  26.732  35.980  1.00  0.00    -0.744 OA
ENDBRANCH  96  97
ENDBRANCH  64  89
ENDBRANCH  38  39
ENDBRANCH  30  33
ENDBRANCH  28  29
ENDBRANCH  27  28
ENDBRANCH   1  27
TORSDOF 18
ENDMDL
MODEL 2
REMARK VINA RESULT:     -11.7      4.711      5.686
REMARK SMILES C[C@@](CC(=O)N[C@@H]1CCS(=O)(=O)C1)(C(=O)NCCCCNC(=O)c1ccc(-c2c3nc(c(-c4c(F)cc(S(=O)(=O)[O-])cc4F)c4ccc([nH]4)c(-c4c(F)cc(S(=O)(=O)[O-])cc4F)c4nc(c(-c5c(F)cc(S(=O)(=O)[O-])cc5F)c5ccc2[nH]5)C=C4)C=C3)cc1)c1ccccc1
REMARK SMILES IDX 18 1 17 2 16 3 14 4 15 5 2 7 1 8 3 9 4 10 5 11 6 12 7 14
REMARK SMILES IDX 8 15 13 16 9 17 10 18 11 19 12 20 90 21 91 22 95 23 92 24
REMARK SMILES IDX 94 25 93 26 19 27 20 28 21 29 22 30 23 32 24 33 25 34 89 35
REMARK SMILES IDX 26 36 88 37 27 38 28 39 29 40 82 41 30 42 87 43 81 44 83 45
REMARK SMILES IDX 31 46 86 47 80 48 79 49 32 51 66 52 45 53 65 54 46 55 49 56
REMARK SMILES IDX 64 57 84 58 47 59 48 60 63 62 85 63 50 64 33 65 34 66 43 67
REMARK SMILES IDX 35 68 36 69 42 70 44 71 37 72 38 73 39 74 40 75 41 76 67 77
REMARK SMILES IDX 68 78 77 79 69 80 70 81 76 82 78 83 71 84 72 85 73 86 74 87
REMARK SMILES IDX 75 88 51 89 52 90 61 91 53 92 54 93 60 94 62 95 55 96 56 97
REMARK SMILES IDX 57 98 58 99 59 100
REMARK H PARENT 16 6 6 13 21 31 83 50 49 61
REMARK Flexibility Score: inf
ROOT
ATOM      1  C   UNL A   1      32.713  28.942  27.275  1.00  0.00     0.023 C 
ENDROOT
BRANCH   1   2
ATOM      2  C   UNL A   1      31.859  28.169  26.272  1.00  0.00     0.116 C 
BRANCH   2   3
ATOM      3  N   UNL A   1      31.494  26.818  26.640  1.00  0.00    -0.355 N 
ATOM      4  C   UNL A   1      31.968  25.608  26.193  1.00  0.00     0.230 C 
ATOM      5  O   UNL A   1      31.789  24.651  26.954  1.00  0.00    -0.274 OA
ATOM      6  H   UNL A   1      30.787  26.754  27.324  1.00  0.00     0.163 HD
BRANCH   4   7
ATOM      7  C   UNL A   1      32.598  25.423  24.771  1.00  0.00     0.080 C 
ATOM      8  C   UNL A   1      31.533  24.757  23.907  1.00  0.00     0.027 C 
BRANCH   7   9
ATOM      9  C   UNL A   1      33.141  26.733  24.115  1.00  0.00     0.121 C 
BRANCH   9  10
ATOM     10  C   UNL A   1      32.864  27.135  22.678  1.00  0.00     0.221 C 
ATOM     11  O   UNL A   1      33.510  26.584  21.775  1.00  0.00    -0.275 OA
ATOM     12  N   UNL A   1      31.939  28.021  22.243  1.00  0.00    -0.352 N 
ATOM     13  H   UNL A   1      32.079  28.215  21.288  1.00  0.00     0.163 HD
BRANCH  12  14
ATOM     14  C   UNL A   1      30.788  28.786  22.750  1.00  0.00     0.098 C 
ATOM     15  C   UNL A   1      29.651  27.910  23.319  1.00  0.00     0.042 C 
ATOM     16  C   UNL A   1      30.269  29.960  21.936  1.00  0.00     0.161 C 
ATOM     17  C   UNL A   1      28.304  28.345  22.765  1.00  0.00     0.139 C 
ATOM     18  S   UNL A   1      28.511  30.014  22.193  1.00  0.00     0.152 S 
ATOM     19  O   UNL A   1      27.851  30.155  20.911  1.00  0.00    -0.229 OA
ATOM     20  O   UNL A   1      28.238  30.906  23.298  1.00  0.00    -0.229 OA
ENDBRANCH  12  14
ENDBRANCH   9  10
ENDBRANCH   7   9
BRANCH   7  21
ATOM     21  C   UNL A   1      33.817  24.416  24.855  1.00  0.00    -0.032 A 
ATOM     22  C   UNL A   1      34.918  24.661  25.703  1.00  0.00     0.005 A 
ATOM     23  C   UNL A   1      33.906  23.290  24.013  1.00  0.00     0.005 A 
ATOM     24  C   UNL A   1      36.106  23.932  25.581  1.00  0.00     0.000 A 
ATOM     25  C   UNL A   1      35.092  22.558  23.895  1.00  0.00     0.000 A 
ATOM     26  C   UNL A   1      36.204  22.903  24.653  1.00  0.00     0.000 A 
ENDBRANCH   7  21
ENDBRANCH   4   7
ENDBRANCH   2   3
ENDBRANCH   1   2
BRANCH   1  27
ATOM     27  C   UNL A   1      34.197  28.609  27.285  1.00  0.00     0.023 C 
BRANCH  27  28
ATOM     28  C   UNL A   1      35.131  29.800  27.426  1.00  0.00     0.116 C 
BRANCH  28  29
ATOM     29  N   UNL A   1      35.131  30.424  28.743  1.00  0.00    -0.352 N 
ATOM     30  C   UNL A   1      36.157  30.383  29.668  1.00  0.00     0.251 C 
ATOM     31  H   UNL A   1      34.322  30.922  28.999  1.00  0.00     0.163 HD
ATOM     32  O   UNL A   1      36.028  30.865  30.786  1.00  0.00    -0.269 OA
BRANCH  30  33
ATOM     33  C   UNL A   1      37.399  29.686  29.272  1.00  0.00     0.039 A 
ATOM     34  C   UNL A   1      37.857  29.801  27.959  1.00  0.00     0.014 A 
ATOM     35  C   UNL A   1      38.184  29.080  30.255  1.00  0.00     0.014 A 
ATOM     36  C   UNL A   1      39.151  29.380  27.652  1.00  0.00     0.010 A 
ATOM     37  C   UNL A   1      39.505  28.761  29.969  1.00  0.00     0.010 A 
ATOM     38  C   UNL A   1      40.004  28.906  28.666  1.00  0.00    -0.014 A 
BRANCH  38  39
ATOM     39  C   UNL A   1      41.417  28.546  28.385  1.00  0.00     0.031 A 
ATOM     40  C   UNL A   1      42.475  29.617  28.407  1.00  0.00     0.074 A 
ATOM     41  C   UNL A   1      41.738  27.281  28.044  1.00  0.00     0.049 A 
ATOM     42  N   UNL A   1      43.749  29.524  28.130  1.00  0.00    -0.248 NA
ATOM     43  C   UNL A   1      42.036  30.978  28.753  1.00  0.00     0.031 C 
ATOM     44  C   UNL A   1      40.791  26.168  27.923  1.00  0.00     0.029 A 
ATOM     45  N   UNL A   1      42.948  26.717  27.727  1.00  0.00    -0.354 N 
ATOM     46  C   UNL A   1      44.257  30.812  28.255  1.00  0.00     0.074 A 
ATOM     47  C   UNL A   1      43.142  31.680  28.562  1.00  0.00     0.031 C 
ATOM     48  C   UNL A   1      41.461  25.052  27.591  1.00  0.00     0.029 A 
ATOM     49  C   UNL A   1      42.876  25.374  27.435  1.00  0.00     0.049 A 
ATOM     50  H   UNL A   1      43.790  27.226  27.709  1.00  0.00     0.167 HD
ATOM     51  C   UNL A   1      45.539  31.230  28.157  1.00  0.00     0.037 A 
ATOM     52  C   UNL A   1      43.841  24.503  27.079  1.00  0.00     0.037 A 
ATOM     53  C   UNL A   1      46.648  30.356  27.881  1.00  0.00     0.049 A 
ATOM     54  C   UNL A   1      45.263  24.990  26.979  1.00  0.00     0.074 A 
ATOM     55  C   UNL A   1      47.994  30.667  27.821  1.00  0.00     0.029 A 
ATOM     56  N   UNL A   1      46.537  28.998  27.615  1.00  0.00    -0.354 N 
ATOM     57  N   UNL A   1      45.735  26.198  27.175  1.00  0.00    -0.248 NA
ATOM     58  C   UNL A   1      46.283  23.997  26.616  1.00  0.00     0.031 C 
ATOM     59  C   UNL A   1      48.693  29.508  27.470  1.00  0.00     0.029 A 
ATOM     60  C   UNL A   1      47.790  28.461  27.369  1.00  0.00     0.049 A 
ATOM     61  H   UNL A   1      45.694  28.492  27.604  1.00  0.00     0.167 HD
ATOM     62  C   UNL A   1      47.111  26.104  26.989  1.00  0.00     0.074 A 
ATOM     63  C   UNL A   1      47.394  24.718  26.678  1.00  0.00     0.031 C 
ATOM     64  C   UNL A   1      48.054  27.076  27.070  1.00  0.00     0.037 A 
BRANCH  51  65
ATOM     65  C   UNL A   1      45.811  32.696  28.363  1.00  0.00     0.058 A 
ATOM     66  C   UNL A   1      45.770  33.611  27.297  1.00  0.00     0.135 A 
ATOM     67  C   UNL A   1      46.091  33.198  29.644  1.00  0.00     0.135 A 
ATOM     68  F   UNL A   1      45.525  33.184  26.048  1.00  0.00    -0.206 F 
ATOM     69  C   UNL A   1      46.029  34.964  27.488  1.00  0.00     0.059 A 
ATOM     70  C   UNL A   1      46.321  34.554  29.863  1.00  0.00     0.059 A 
ATOM     71  F   UNL A   1      46.146  32.369  30.698  1.00  0.00    -0.206 F 
ATOM     72  C   UNL A   1      46.302  35.426  28.776  1.00  0.00     0.060 A 
BRANCH  72  73
ATOM     73  S   UNL A   1      46.626  37.186  29.006  1.00  0.00     0.124 S 
ATOM     74  O   UNL A   1      47.141  37.561  27.692  1.00  0.00    -0.237 OA
ATOM     75  O   UNL A   1      45.303  37.706  29.339  1.00  0.00    -0.237 OA
ATOM     76  O   UNL A   1      47.599  37.215  30.093  1.00  0.00    -0.744 OA
ENDBRANCH  72  73
ENDBRANCH  51  65
BRANCH  52  77
ATOM     77  C   UNL A   1      43.502  23.077  26.818  1.00  0.00     0.058 A 
ATOM     78  C   UNL A   1      43.159  22.210  27.868  1.00  0.00     0.135 A 
ATOM     79  C   UNL A   1      43.506  22.551  25.516  1.00  0.00     0.135 A 
ATOM     80  F   UNL A   1      43.146  22.661  29.131  1.00  0.00    -0.206 F 
ATOM     81  C   UNL A   1      42.850  20.872  27.640  1.00  0.00     0.059 A 
ATOM     82  C   UNL A   1      43.174  21.224  25.260  1.00  0.00     0.059 A 
ATOM     83  F   UNL A   1      43.811  23.340  24.474  1.00  0.00    -0.206 F 
ATOM     84  C   UNL A   1      42.857  20.389  26.330  1.00  0.00     0.060 A 
BRANCH  84  85
ATOM     85  S   UNL A   1      42.408  18.664  26.041  1.00  0.00     0.124 S 
ATOM     86  O   UNL A   1      41.001  18.784  25.676  1.00  0.00    -0.237 OA
ATOM     87  O   UNL A   1      43.318  18.288  24.964  1.00  0.00    -0.237 OA
ATOM     88  O   UNL A   1      42.676  18.028  27.327  1.00  0.00    -0.744 OA
ENDBRANCH  84  85
ENDBRANCH  52  77
BRANCH  64  89
ATOM     89  C   UNL A   1      49.488  26.673  26.857  1.00  0.00     0.058 A 
ATOM     90  C   UNL A   1      50.311  26.281  27.923  1.00  0.00     0.135 A 
ATOM     91  C   UNL A   1      50.024  26.622  25.559  1.00  0.00     0.135 A 
ATOM     92  F   UNL A   1      49.850  26.315  29.183  1.00  0.00    -0.206 F 
ATOM     93  C   UNL A   1      51.626  25.875  27.713  1.00  0.00     0.059 A 
ATOM     94  C   UNL A   1      51.325  26.190  25.323  1.00  0.00     0.059 A 
ATOM     95  F   UNL A   1      49.274  26.976  24.503  1.00  0.00    -0.206 F 
ATOM     96  C   UNL A   1      52.122  25.829  26.408  1.00  0.00     0.060 A 
BRANCH  96  97
ATOM     97  S   UNL A   1      53.816  25.266  26.147  1.00  0.00     0.124 S 
ATOM     98  O   UNL A   1      53.600  23.935  25.588  1.00  0.00    -0.237 OA
ATOM     99  O   UNL A   1      54.338  26.267  25.222  1.00  0.00    -0.237 OA
ATOM    100  O   UNL A   1      54.395  25.296  27.486  1.00  0.00    -0.744 OA
ENDBRANCH  96  97
ENDBRANCH  64  89
ENDBRANCH  38  39
ENDBRANCH  30  33
ENDBRANCH  28  29
ENDBRANCH  27  28
ENDBRANCH   1  27
TORSDOF 18
ENDMDL
MODEL 3
REMARK VINA RESULT:     -11.6      3.382      9.698
REMARK SMILES C[C@@](CC(=O)N[C@@H]1CCS(=O)(=O)C1)(C(=O)NCCCCNC(=O)c1ccc(-c2c3nc(c(-c4c(F)cc(S(=O)(=O)[O-])cc4F)c4ccc([nH]4)c(-c4c(F)cc(S(=O)(=O)[O-])cc4F)c4nc(c(-c5c(F)cc(S(=O)(=O)[O-])cc5F)c5ccc2[nH]5)C=C4)C=C3)cc1)c1ccccc1
REMARK SMILES IDX 18 1 17 2 16 3 14 4 15 5 2 7 1 8 3 9 4 10 5 11 6 12 7 14
REMARK SMILES IDX 8 15 13 16 9 17 10 18 11 19 12 20 90 21 91 22 95 23 92 24
REMARK SMILES IDX 94 25 93 26 19 27 20 28 21 29 22 30 23 32 24 33 25 34 89 35
REMARK SMILES IDX 26 36 88 37 27 38 28 39 29 40 82 41 30 42 87 43 81 44 83 45
REMARK SMILES IDX 31 46 86 47 80 48 79 49 32 51 66 52 45 53 65 54 46 55 49 56
REMARK SMILES IDX 64 57 84 58 47 59 48 60 63 62 85 63 50 64 33 65 34 66 43 67
REMARK SMILES IDX 35 68 36 69 42 70 44 71 37 72 38 73 39 74 40 75 41 76 67 77
REMARK SMILES IDX 68 78 77 79 69 80 70 81 76 82 78 83 71 84 72 85 73 86 74 87
REMARK SMILES IDX 75 88 51 89 52 90 61 91 53 92 54 93 60 94 62 95 55 96 56 97
REMARK SMILES IDX 57 98 58 99 59 100
REMARK H PARENT 16 6 6 13 21 31 83 50 49 61
REMARK Flexibility Score: inf
ROOT
ATOM      1  C   UNL A   1      36.396  22.814  26.183  1.00  0.00     0.023 C 
ENDROOT
BRANCH   1   2
ATOM      2  C   UNL A   1      35.218  23.765  25.978  1.00  0.00     0.116 C 
BRANCH   2   3
ATOM      3  N   UNL A   1      34.814  24.007  24.609  1.00  0.00    -0.355 N 
ATOM      4  C   UNL A   1      33.838  24.827  24.095  1.00  0.00     0.230 C 
ATOM      5  O   UNL A   1      33.985  25.154  22.913  1.00  0.00    -0.274 OA
ATOM      6  H   UNL A   1      35.322  23.500  23.934  1.00  0.00     0.163 HD
BRANCH   4   7
ATOM      7  C   UNL A   1      32.567  25.239  24.912  1.00  0.00     0.080 C 
ATOM      8  C   UNL A   1      31.362  24.893  24.043  1.00  0.00     0.027 C 
BRANCH   7   9
ATOM      9  C   UNL A   1      32.460  24.599  26.333  1.00  0.00     0.121 C 
BRANCH   9  10
ATOM     10  C   UNL A   1      31.528  23.451  26.674  1.00  0.00     0.221 C 
ATOM     11  O   UNL A   1      30.460  23.707  27.247  1.00  0.00    -0.275 OA
ATOM     12  N   UNL A   1      31.706  22.143  26.382  1.00  0.00    -0.352 N 
ATOM     13  H   UNL A   1      31.037  21.596  26.855  1.00  0.00     0.163 HD
BRANCH  12  14
ATOM     14  C   UNL A   1      32.586  21.278  25.579  1.00  0.00     0.098 C 
ATOM     15  C   UNL A   1      32.318  21.343  24.060  1.00  0.00     0.042 C 
ATOM     16  C   UNL A   1      32.868  19.864  26.061  1.00  0.00     0.161 C 
ATOM     17  C   UNL A   1      32.225  19.947  23.466  1.00  0.00     0.139 C 
ATOM     18  S   UNL A   1      33.048  18.861  24.605  1.00  0.00     0.152 S 
ATOM     19  O   UNL A   1      32.255  17.658  24.760  1.00  0.00    -0.229 OA
ATOM     20  O   UNL A   1      34.450  18.815  24.251  1.00  0.00    -0.229 OA
ENDBRANCH  12  14
ENDBRANCH   9  10
ENDBRANCH   7   9
BRANCH   7  21
ATOM     21  C   UNL A   1      32.550  26.809  25.116  1.00  0.00    -0.032 A 
ATOM     22  C   UNL A   1      33.414  27.442  26.034  1.00  0.00     0.005 A 
ATOM     23  C   UNL A   1      31.603  27.629  24.471  1.00  0.00     0.005 A 
ATOM     24  C   UNL A   1      33.219  28.773  26.418  1.00  0.00     0.000 A 
ATOM     25  C   UNL A   1      31.412  28.961  24.850  1.00  0.00     0.000 A 
ATOM     26  C   UNL A   1      32.196  29.523  25.850  1.00  0.00     0.000 A 
ENDBRANCH   7  21
ENDBRANCH   4   7
ENDBRANCH   2   3
ENDBRANCH   1   2
BRANCH   1  27
ATOM     27  C   UNL A   1      37.721  23.252  25.579  1.00  0.00     0.023 C 
BRANCH  27  28
ATOM     28  C   UNL A   1      38.635  24.032  26.508  1.00  0.00     0.116 C 
BRANCH  28  29
ATOM     29  N   UNL A   1      40.059  23.895  26.224  1.00  0.00    -0.352 N 
ATOM     30  C   UNL A   1      41.064  24.740  26.652  1.00  0.00     0.251 C 
ATOM     31  H   UNL A   1      40.329  23.125  25.673  1.00  0.00     0.163 HD
ATOM     32  O   UNL A   1      42.223  24.590  26.286  1.00  0.00    -0.269 OA
BRANCH  30  33
ATOM     33  C   UNL A   1      40.676  25.866  27.527  1.00  0.00     0.039 A 
ATOM     34  C   UNL A   1      39.678  25.675  28.484  1.00  0.00     0.014 A 
ATOM     35  C   UNL A   1      41.433  27.039  27.506  1.00  0.00     0.014 A 
ATOM     36  C   UNL A   1      39.500  26.634  29.481  1.00  0.00     0.010 A 
ATOM     37  C   UNL A   1      41.325  27.938  28.559  1.00  0.00     0.010 A 
ATOM     38  C   UNL A   1      40.357  27.748  29.557  1.00  0.00    -0.014 A 
BRANCH  38  39
ATOM     39  C   UNL A   1      40.254  28.731  30.666  1.00  0.00     0.031 A 
ATOM     40  C   UNL A   1      41.123  28.570  31.885  1.00  0.00     0.074 A 
ATOM     41  C   UNL A   1      39.339  29.720  30.609  1.00  0.00     0.049 A 
ATOM     42  N   UNL A   1      41.143  29.278  32.983  1.00  0.00    -0.248 NA
ATOM     43  C   UNL A   1      42.070  27.443  31.882  1.00  0.00     0.031 C 
ATOM     44  C   UNL A   1      38.394  29.940  29.511  1.00  0.00     0.029 A 
ATOM     45  N   UNL A   1      39.044  30.721  31.501  1.00  0.00    -0.354 N 
ATOM     46  C   UNL A   1      42.091  28.676  33.802  1.00  0.00     0.074 A 
ATOM     47  C   UNL A   1      42.571  27.504  33.106  1.00  0.00     0.031 C 
ATOM     48  C   UNL A   1      37.650  31.027  29.779  1.00  0.00     0.029 A 
ATOM     49  C   UNL A   1      38.034  31.556  31.084  1.00  0.00     0.049 A 
ATOM     50  H   UNL A   1      39.513  30.832  32.359  1.00  0.00     0.167 HD
ATOM     51  C   UNL A   1      42.545  29.080  35.011  1.00  0.00     0.037 A 
ATOM     52  C   UNL A   1      37.478  32.627  31.686  1.00  0.00     0.037 A 
ATOM     53  C   UNL A   1      42.083  30.264  35.685  1.00  0.00     0.049 A 
ATOM     54  C   UNL A   1      38.001  33.060  33.031  1.00  0.00     0.074 A 
ATOM     55  C   UNL A   1      42.521  30.796  36.884  1.00  0.00     0.029 A 
ATOM     56  N   UNL A   1      41.076  31.097  35.219  1.00  0.00    -0.354 N 
ATOM     57  N   UNL A   1      38.951  32.521  33.757  1.00  0.00    -0.248 NA
ATOM     58  C   UNL A   1      37.383  34.248  33.635  1.00  0.00     0.031 C 
ATOM     59  C   UNL A   1      41.744  31.925  37.168  1.00  0.00     0.029 A 
ATOM     60  C   UNL A   1      40.863  32.129  36.118  1.00  0.00     0.049 A 
ATOM     61  H   UNL A   1      40.586  30.974  34.375  1.00  0.00     0.167 HD
ATOM     62  C   UNL A   1      39.066  33.322  34.890  1.00  0.00     0.074 A 
ATOM     63  C   UNL A   1      38.097  34.388  34.743  1.00  0.00     0.031 C 
ATOM     64  C   UNL A   1      39.898  33.188  35.952  1.00  0.00     0.037 A 
BRANCH  51  65
ATOM     65  C   UNL A   1      43.603  28.240  35.673  1.00  0.00     0.058 A 
ATOM     66  C   UNL A   1      44.970  28.430  35.409  1.00  0.00     0.135 A 
ATOM     67  C   UNL A   1      43.250  27.249  36.604  1.00  0.00     0.135 A 
ATOM     68  F   UNL A   1      45.364  29.352  34.515  1.00  0.00    -0.206 F 
ATOM     69  C   UNL A   1      45.946  27.649  36.017  1.00  0.00     0.059 A 
ATOM     70  C   UNL A   1      44.212  26.476  37.248  1.00  0.00     0.059 A 
ATOM     71  F   UNL A   1      41.959  27.021  36.892  1.00  0.00    -0.206 F 
ATOM     72  C   UNL A   1      45.556  26.674  36.937  1.00  0.00     0.060 A 
BRANCH  72  73
ATOM     73  S   UNL A   1      46.837  25.675  37.723  1.00  0.00     0.124 S 
ATOM     74  O   UNL A   1      46.382  25.657  39.110  1.00  0.00    -0.237 OA
ATOM     75  O   UNL A   1      46.731  24.409  37.006  1.00  0.00    -0.237 OA
ATOM     76  O   UNL A   1      48.059  26.433  37.475  1.00  0.00    -0.744 OA
ENDBRANCH  72  73
ENDBRANCH  51  65
BRANCH  52  77
ATOM     77  C   UNL A   1      36.382  33.378  31.014  1.00  0.00     0.058 A 
ATOM     78  C   UNL A   1      35.061  33.307  31.484  1.00  0.00     0.135 A 
ATOM     79  C   UNL A   1      36.631  34.188  29.895  1.00  0.00     0.135 A 
ATOM     80  F   UNL A   1      34.768  32.541  32.546  1.00  0.00    -0.206 F 
ATOM     81  C   UNL A   1      34.025  33.995  30.859  1.00  0.00     0.059 A 
ATOM     82  C   UNL A   1      35.617  34.908  29.271  1.00  0.00     0.059 A 
ATOM     83  F   UNL A   1      37.879  34.305  29.415  1.00  0.00    -0.206 F 
ATOM     84  C   UNL A   1      34.315  34.797  29.754  1.00  0.00     0.060 A 
BRANCH  84  85
ATOM     85  S   UNL A   1      32.971  35.724  28.981  1.00  0.00     0.124 S 
ATOM     86  O   UNL A   1      33.694  36.825  28.357  1.00  0.00    -0.237 OA
ATOM     87  O   UNL A   1      32.402  34.734  28.071  1.00  0.00    -0.237 OA
ATOM     88  O   UNL A   1      32.121  36.085  30.111  1.00  0.00    -0.744 OA
ENDBRANCH  84  85
ENDBRANCH  52  77
BRANCH  64  89
ATOM     89  C   UNL A   1      39.830  34.239  37.026  1.00  0.00     0.058 A 
ATOM     90  C   UNL A   1      40.481  35.474  36.895  1.00  0.00     0.135 A 
ATOM     91  C   UNL A   1      39.050  34.026  38.176  1.00  0.00     0.135 A 
ATOM     92  F   UNL A   1      41.242  35.727  35.819  1.00  0.00    -0.206 F 
ATOM     93  C   UNL A   1      40.382  36.455  37.877  1.00  0.00     0.059 A 
ATOM     94  C   UNL A   1      38.912  35.004  39.155  1.00  0.00     0.059 A 
ATOM     95  F   UNL A   1      38.397  32.865  38.344  1.00  0.00    -0.206 F 
ATOM     96  C   UNL A   1      39.592  36.211  39.003  1.00  0.00     0.060 A 
BRANCH  96  97
ATOM     97  S   UNL A   1      39.443  37.505  40.251  1.00  0.00     0.124 S 
ATOM     98  O   UNL A   1      40.827  37.951  40.379  1.00  0.00    -0.237 OA
ATOM     99  O   UNL A   1      38.528  38.448  39.615  1.00  0.00    -0.237 OA
ATOM    100  O   UNL A   1      38.902  36.801  41.409  1.00  0.00    -0.744 OA
ENDBRANCH  96  97
ENDBRANCH  64  89
ENDBRANCH  38  39
ENDBRANCH  30  33
ENDBRANCH  28  29
ENDBRANCH  27  28
ENDBRANCH   1  27
TORSDOF 18
ENDMDL
