MODEL 1
REMARK VINA RESULT:     -13.1      0.000      0.000
REMARK SMILES O=C(NCCCCNC(=O)c1ccc(-c2c3nc(c(-c4c(F)cc(S(=O)(=O)[O-])cc4F)c4ccc([nH]4)c(-c4c(F)cc(S(=O)(=O)[O-])cc4F)c4nc(c(-c5c(F)cc(S(=O)(=O)[O-])cc5F)c5ccc2[nH]5)C=C4)C=C3)cc1)C1=N[C@@H]2NC=NN2[C@@H]([C@H]2C=NN=C2c2ccc(F)cc2)C1
REMARK SMILES IDX 6 1 5 2 4 3 3 4 1 5 2 6 77 8 78 9 97 10 79 11 84 12 80 13
REMARK SMILES IDX 83 14 81 15 82 17 85 18 86 19 89 20 87 21 88 22 90 23 91 24
REMARK SMILES IDX 96 25 92 26 95 27 93 28 94 29 7 30 8 31 9 32 10 34 11 35
REMARK SMILES IDX 12 36 76 37 13 38 75 39 14 40 15 41 16 42 69 43 17 44 74 45
REMARK SMILES IDX 68 46 70 47 18 48 73 49 67 50 66 51 19 53 53 54 32 55 52 56
REMARK SMILES IDX 33 57 36 58 51 59 71 60 34 61 35 62 50 64 72 65 37 66 20 67
REMARK SMILES IDX 21 68 30 69 22 70 23 71 29 72 31 73 24 74 25 75 26 76 27 77
REMARK SMILES IDX 28 78 54 79 55 80 64 81 56 82 57 83 63 84 65 85 58 86 59 87
REMARK SMILES IDX 60 88 61 89 62 90 38 91 39 92 48 93 40 94 41 95 47 96 49 97
REMARK SMILES IDX 42 98 43 99 44 100 45 101 46 102
REMARK H PARENT 3 7 80 16 8 33 70 52 36 63
REMARK Flexibility Score: inf
ROOT
ATOM      1  C   UNL A   1      33.262  28.399  25.768  1.00  0.00     0.023 C 
ENDROOT
BRANCH   1   2
ATOM      2  C   UNL A   1      31.894  28.386  25.095  1.00  0.00     0.023 C 
BRANCH   2   3
ATOM      3  C   UNL A   1      31.367  27.056  24.563  1.00  0.00     0.116 C 
BRANCH   3   4
ATOM      4  N   UNL A   1      30.224  26.492  25.255  1.00  0.00    -0.351 N 
ATOM      5  O   UNL A   1      29.128  25.191  26.735  1.00  0.00    -0.268 OA
ATOM      6  C   UNL A   1      30.146  25.384  26.074  1.00  0.00     0.265 C 
ATOM      7  H   UNL A   1      29.376  26.973  25.120  1.00  0.00     0.163 HD
BRANCH   6   8
ATOM      8  C   UNL A   1      31.255  24.317  26.128  1.00  0.00     0.106 C 
ATOM      9  N   UNL A   1      31.410  23.706  27.251  1.00  0.00    -0.237 NA
ATOM     10  C   UNL A   1      32.126  24.099  24.927  1.00  0.00     0.090 C 
ATOM     11  C   UNL A   1      32.264  22.551  27.325  1.00  0.00     0.319 C 
ATOM     12  C   UNL A   1      33.168  22.999  25.131  1.00  0.00     0.127 C 
ATOM     13  N   UNL A   1      33.416  22.578  28.180  1.00  0.00    -0.335 N 
ATOM     14  N   UNL A   1      32.761  21.932  26.073  1.00  0.00    -0.249 NA
ATOM     15  C   UNL A   1      34.249  21.650  27.630  1.00  0.00     0.217 C 
ATOM     16  H   UNL A   1      33.569  23.135  28.977  1.00  0.00     0.165 HD
ATOM     17  N   UNL A   1      33.905  21.178  26.458  1.00  0.00    -0.164 NA
BRANCH  12  18
ATOM     18  C   UNL A   1      33.644  22.330  23.828  1.00  0.00     0.109 C 
ATOM     19  C   UNL A   1      32.858  22.737  22.628  1.00  0.00     0.120 C 
ATOM     20  C   UNL A   1      34.971  22.848  23.372  1.00  0.00     0.081 C 
ATOM     21  N   UNL A   1      33.564  23.367  21.746  1.00  0.00    -0.162 NA
ATOM     22  N   UNL A   1      34.908  23.452  22.225  1.00  0.00    -0.155 NA
BRANCH  20  23
ATOM     23  C   UNL A   1      36.171  22.755  24.216  1.00  0.00    -0.001 A 
ATOM     24  C   UNL A   1      36.906  21.565  24.294  1.00  0.00     0.013 A 
ATOM     25  C   UNL A   1      36.499  23.847  25.026  1.00  0.00     0.013 A 
ATOM     26  C   UNL A   1      37.958  21.463  25.205  1.00  0.00     0.040 A 
ATOM     27  C   UNL A   1      37.546  23.736  25.941  1.00  0.00     0.040 A 
ATOM     28  C   UNL A   1      38.261  22.546  26.025  1.00  0.00     0.123 A 
ATOM     29  F   UNL A   1      39.255  22.435  26.916  1.00  0.00    -0.207 F 
ENDBRANCH  20  23
ENDBRANCH  12  18
ENDBRANCH   6   8
ENDBRANCH   3   4
ENDBRANCH   2   3
ENDBRANCH   1   2
BRANCH   1  30
ATOM     30  C   UNL A   1      33.284  28.653  27.272  1.00  0.00     0.116 C 
BRANCH  30  31
ATOM     31  N   UNL A   1      33.381  30.061  27.633  1.00  0.00    -0.352 N 
ATOM     32  C   UNL A   1      34.426  30.785  28.163  1.00  0.00     0.251 C 
ATOM     33  H   UNL A   1      32.562  30.582  27.473  1.00  0.00     0.163 HD
ATOM     34  O   UNL A   1      34.248  31.962  28.474  1.00  0.00    -0.269 OA
BRANCH  32  35
ATOM     35  C   UNL A   1      35.745  30.158  28.406  1.00  0.00     0.039 A 
ATOM     36  C   UNL A   1      36.690  30.158  27.374  1.00  0.00     0.014 A 
ATOM     37  C   UNL A   1      36.064  29.579  29.636  1.00  0.00     0.014 A 
ATOM     38  C   UNL A   1      37.985  29.686  27.613  1.00  0.00     0.010 A 
ATOM     39  C   UNL A   1      37.375  29.186  29.898  1.00  0.00     0.010 A 
ATOM     40  C   UNL A   1      38.357  29.257  28.897  1.00  0.00    -0.014 A 
BRANCH  40  41
ATOM     41  C   UNL A   1      39.773  28.943  29.230  1.00  0.00     0.031 A 
ATOM     42  C   UNL A   1      40.677  29.995  29.812  1.00  0.00     0.074 A 
ATOM     43  C   UNL A   1      40.273  27.730  28.913  1.00  0.00     0.049 A 
ATOM     44  N   UNL A   1      41.961  29.934  30.064  1.00  0.00    -0.248 NA
ATOM     45  C   UNL A   1      40.065  31.295  30.124  1.00  0.00     0.031 C 
ATOM     46  C   UNL A   1      39.515  26.642  28.292  1.00  0.00     0.029 A 
ATOM     47  N   UNL A   1      41.540  27.217  29.042  1.00  0.00    -0.354 N 
ATOM     48  C   UNL A   1      42.312  31.187  30.552  1.00  0.00     0.074 A 
ATOM     49  C   UNL A   1      41.116  32.003  30.510  1.00  0.00     0.031 C 
ATOM     50  C   UNL A   1      40.327  25.591  28.101  1.00  0.00     0.029 A 
ATOM     51  C   UNL A   1      41.675  25.944  28.539  1.00  0.00     0.049 A 
ATOM     52  H   UNL A   1      42.283  27.713  29.457  1.00  0.00     0.167 HD
ATOM     53  C   UNL A   1      43.515  31.613  31.008  1.00  0.00     0.037 A 
ATOM     54  C   UNL A   1      42.760  25.154  28.416  1.00  0.00     0.037 A 
ATOM     55  C   UNL A   1      44.699  30.791  31.051  1.00  0.00     0.049 A 
ATOM     56  C   UNL A   1      44.090  25.649  28.913  1.00  0.00     0.074 A 
ATOM     57  C   UNL A   1      45.947  31.108  31.557  1.00  0.00     0.029 A 
ATOM     58  N   UNL A   1      44.788  29.498  30.554  1.00  0.00    -0.354 N 
ATOM     59  N   UNL A   1      44.386  26.809  29.450  1.00  0.00    -0.248 NA
ATOM     60  C   UNL A   1      45.231  24.732  28.792  1.00  0.00     0.031 C 
ATOM     61  C   UNL A   1      46.806  30.031  31.313  1.00  0.00     0.029 A 
ATOM     62  C   UNL A   1      46.079  29.017  30.709  1.00  0.00     0.049 A 
ATOM     63  H   UNL A   1      44.044  28.996  30.150  1.00  0.00     0.167 HD
ATOM     64  C   UNL A   1      45.743  26.756  29.745  1.00  0.00     0.074 A 
ATOM     65  C   UNL A   1      46.206  25.443  29.343  1.00  0.00     0.031 C 
ATOM     66  C   UNL A   1      46.533  27.711  30.298  1.00  0.00     0.037 A 
BRANCH  53  67
ATOM     67  C   UNL A   1      43.612  33.038  31.488  1.00  0.00     0.058 A 
ATOM     68  C   UNL A   1      43.879  34.100  30.609  1.00  0.00     0.135 A 
ATOM     69  C   UNL A   1      43.420  33.348  32.845  1.00  0.00     0.135 A 
ATOM     70  F   UNL A   1      44.080  33.862  29.302  1.00  0.00    -0.206 F 
ATOM     71  C   UNL A   1      44.000  35.409  31.062  1.00  0.00     0.059 A 
ATOM     72  C   UNL A   1      43.503  34.656  33.316  1.00  0.00     0.059 A 
ATOM     73  F   UNL A   1      43.155  32.375  33.731  1.00  0.00    -0.206 F 
ATOM     74  C   UNL A   1      43.816  35.676  32.420  1.00  0.00     0.060 A 
BRANCH  74  75
ATOM     75  S   UNL A   1      44.004  37.376  32.996  1.00  0.00     0.124 S 
ATOM     76  O   UNL A   1      42.818  37.531  33.834  1.00  0.00    -0.237 OA
ATOM     77  O   UNL A   1      45.278  37.327  33.707  1.00  0.00    -0.237 OA
ATOM     78  O   UNL A   1      44.006  38.156  31.763  1.00  0.00    -0.744 OA
ENDBRANCH  74  75
ENDBRANCH  53  67
BRANCH  54  79
ATOM     79  C   UNL A   1      42.623  23.812  27.787  1.00  0.00     0.058 A 
ATOM     80  C   UNL A   1      42.698  23.650  26.396  1.00  0.00     0.135 A 
ATOM     81  C   UNL A   1      42.462  22.658  28.571  1.00  0.00     0.135 A 
ATOM     82  F   UNL A   1      42.841  24.723  25.603  1.00  0.00    -0.206 F 
ATOM     83  C   UNL A   1      42.616  22.394  25.803  1.00  0.00     0.059 A 
ATOM     84  C   UNL A   1      42.405  21.389  28.004  1.00  0.00     0.059 A 
ATOM     85  F   UNL A   1      42.401  22.756  29.908  1.00  0.00    -0.206 F 
ATOM     86  C   UNL A   1      42.479  21.268  26.617  1.00  0.00     0.060 A 
BRANCH  86  87
ATOM     87  S   UNL A   1      42.455  19.636  25.842  1.00  0.00     0.124 S 
ATOM     88  O   UNL A   1      43.395  19.820  24.742  1.00  0.00    -0.237 OA
ATOM     89  O   UNL A   1      42.904  18.775  26.930  1.00  0.00    -0.237 OA
ATOM     90  O   UNL A   1      41.056  19.468  25.457  1.00  0.00    -0.744 OA
ENDBRANCH  86  87
ENDBRANCH  54  79
BRANCH  66  91
ATOM     91  C   UNL A   1      47.984  27.374  30.517  1.00  0.00     0.058 A 
ATOM     92  C   UNL A   1      48.419  26.712  31.676  1.00  0.00     0.135 A 
ATOM     93  C   UNL A   1      48.939  27.656  29.526  1.00  0.00     0.135 A 
ATOM     94  F   UNL A   1      47.551  26.428  32.659  1.00  0.00    -0.206 F 
ATOM     95  C   UNL A   1      49.753  26.352  31.850  1.00  0.00     0.059 A 
ATOM     96  C   UNL A   1      50.271  27.279  29.667  1.00  0.00     0.059 A 
ATOM     97  F   UNL A   1      48.576  28.281  28.395  1.00  0.00    -0.206 F 
ATOM     98  C   UNL A   1      50.670  26.633  30.836  1.00  0.00     0.060 A 
BRANCH  98  99
ATOM     99  S   UNL A   1      52.385  26.112  31.053  1.00  0.00     0.124 S 
ATOM    100  O   UNL A   1      52.219  24.787  31.641  1.00  0.00    -0.237 OA
ATOM    101  O   UNL A   1      52.893  26.138  29.684  1.00  0.00    -0.237 OA
ATOM    102  O   UNL A   1      52.941  27.127  31.942  1.00  0.00    -0.744 OA
ENDBRANCH  98  99
ENDBRANCH  66  91
ENDBRANCH  40  41
ENDBRANCH  32  35
ENDBRANCH  30  31
ENDBRANCH   1  30
TORSDOF 16
ENDMDL
MODEL 2
REMARK VINA RESULT:     -13.1      4.774     10.479
REMARK SMILES O=C(NCCCCNC(=O)c1ccc(-c2c3nc(c(-c4c(F)cc(S(=O)(=O)[O-])cc4F)c4ccc([nH]4)c(-c4c(F)cc(S(=O)(=O)[O-])cc4F)c4nc(c(-c5c(F)cc(S(=O)(=O)[O-])cc5F)c5ccc2[nH]5)C=C4)C=C3)cc1)C1=N[C@@H]2NC=NN2[C@@H]([C@H]2C=NN=C2c2ccc(F)cc2)C1
REMARK SMILES IDX 6 1 5 2 4 3 3 4 1 5 2 6 77 8 78 9 97 10 79 11 84 12 80 13
REMARK SMILES IDX 83 14 81 15 82 17 85 18 86 19 89 20 87 21 88 22 90 23 91 24
REMARK SMILES IDX 96 25 92 26 95 27 93 28 94 29 7 30 8 31 9 32 10 34 11 35
REMARK SMILES IDX 12 36 76 37 13 38 75 39 14 40 15 41 16 42 69 43 17 44 74 45
REMARK SMILES IDX 68 46 70 47 18 48 73 49 67 50 66 51 19 53 53 54 32 55 52 56
REMARK SMILES IDX 33 57 36 58 51 59 71 60 34 61 35 62 50 64 72 65 37 66 20 67
REMARK SMILES IDX 21 68 30 69 22 70 23 71 29 72 31 73 24 74 25 75 26 76 27 77
REMARK SMILES IDX 28 78 54 79 55 80 64 81 56 82 57 83 63 84 65 85 58 86 59 87
REMARK SMILES IDX 60 88 61 89 62 90 38 91 39 92 48 93 40 94 41 95 47 96 49 97
REMARK SMILES IDX 42 98 43 99 44 100 45 101 46 102
REMARK H PARENT 3 7 80 16 8 33 70 52 36 63
REMARK Flexibility Score: inf
ROOT
ATOM      1  C   UNL A   1      37.672  22.732  25.810  1.00  0.00     0.023 C 
ENDROOT
BRANCH   1   2
ATOM      2  C   UNL A   1      37.022  22.748  24.430  1.00  0.00     0.023 C 
BRANCH   2   3
ATOM      3  C   UNL A   1      35.724  23.530  24.256  1.00  0.00     0.116 C 
BRANCH   3   4
ATOM      4  N   UNL A   1      34.705  22.913  23.429  1.00  0.00    -0.351 N 
ATOM      5  O   UNL A   1      33.089  22.806  21.860  1.00  0.00    -0.268 OA
ATOM      6  C   UNL A   1      33.723  23.496  22.654  1.00  0.00     0.265 C 
ATOM      7  H   UNL A   1      34.716  21.929  23.419  1.00  0.00     0.163 HD
BRANCH   6   8
ATOM      8  C   UNL A   1      33.320  24.975  22.807  1.00  0.00     0.106 C 
ATOM      9  N   UNL A   1      33.672  25.768  21.856  1.00  0.00    -0.237 NA
ATOM     10  C   UNL A   1      32.621  25.421  24.056  1.00  0.00     0.090 C 
ATOM     11  C   UNL A   1      33.150  27.107  21.810  1.00  0.00     0.319 C 
ATOM     12  C   UNL A   1      32.275  26.911  24.052  1.00  0.00     0.127 C 
ATOM     13  N   UNL A   1      34.052  28.220  21.892  1.00  0.00    -0.335 N 
ATOM     14  N   UNL A   1      32.032  27.483  22.708  1.00  0.00    -0.249 NA
ATOM     15  C   UNL A   1      33.272  29.233  22.365  1.00  0.00     0.217 C 
ATOM     16  H   UNL A   1      35.008  28.246  21.660  1.00  0.00     0.165 HD
ATOM     17  N   UNL A   1      32.076  28.904  22.783  1.00  0.00    -0.164 NA
BRANCH  12  18
ATOM     18  C   UNL A   1      31.083  27.285  24.952  1.00  0.00     0.109 C 
ATOM     19  C   UNL A   1      30.204  26.128  25.288  1.00  0.00     0.120 C 
ATOM     20  C   UNL A   1      31.504  27.617  26.349  1.00  0.00     0.081 C 
ATOM     21  N   UNL A   1      30.181  25.856  26.552  1.00  0.00    -0.162 NA
ATOM     22  N   UNL A   1      31.021  26.794  27.229  1.00  0.00    -0.155 NA
BRANCH  20  23
ATOM     23  C   UNL A   1      32.453  28.703  26.635  1.00  0.00    -0.001 A 
ATOM     24  C   UNL A   1      33.792  28.427  26.938  1.00  0.00     0.013 A 
ATOM     25  C   UNL A   1      31.962  30.011  26.706  1.00  0.00     0.013 A 
ATOM     26  C   UNL A   1      34.635  29.465  27.338  1.00  0.00     0.040 A 
ATOM     27  C   UNL A   1      32.807  31.042  27.115  1.00  0.00     0.040 A 
ATOM     28  C   UNL A   1      34.132  30.759  27.431  1.00  0.00     0.123 A 
ATOM     29  F   UNL A   1      34.939  31.747  27.840  1.00  0.00    -0.207 F 
ENDBRANCH  20  23
ENDBRANCH  12  18
ENDBRANCH   6   8
ENDBRANCH   3   4
ENDBRANCH   2   3
ENDBRANCH   1   2
BRANCH   1  30
ATOM     30  C   UNL A   1      38.480  23.964  26.203  1.00  0.00     0.116 C 
BRANCH  30  31
ATOM     31  N   UNL A   1      39.923  23.779  26.112  1.00  0.00    -0.352 N 
ATOM     32  C   UNL A   1      40.960  24.511  26.648  1.00  0.00     0.251 C 
ATOM     33  H   UNL A   1      40.203  23.002  25.578  1.00  0.00     0.163 HD
ATOM     34  O   UNL A   1      42.118  24.213  26.361  1.00  0.00    -0.269 OA
BRANCH  32  35
ATOM     35  C   UNL A   1      40.702  25.675  27.525  1.00  0.00     0.039 A 
ATOM     36  C   UNL A   1      39.733  25.559  28.527  1.00  0.00     0.014 A 
ATOM     37  C   UNL A   1      41.405  26.871  27.377  1.00  0.00     0.014 A 
ATOM     38  C   UNL A   1      39.555  26.596  29.449  1.00  0.00     0.010 A 
ATOM     39  C   UNL A   1      41.286  27.869  28.343  1.00  0.00     0.010 A 
ATOM     40  C   UNL A   1      40.377  27.734  29.404  1.00  0.00    -0.014 A 
BRANCH  40  41
ATOM     41  C   UNL A   1      40.349  28.755  30.486  1.00  0.00     0.031 A 
ATOM     42  C   UNL A   1      41.213  28.604  31.707  1.00  0.00     0.074 A 
ATOM     43  C   UNL A   1      39.465  29.772  30.411  1.00  0.00     0.049 A 
ATOM     44  N   UNL A   1      41.243  29.334  32.794  1.00  0.00    -0.248 NA
ATOM     45  C   UNL A   1      42.146  27.467  31.723  1.00  0.00     0.031 C 
ATOM     46  C   UNL A   1      38.532  29.999  29.306  1.00  0.00     0.029 A 
ATOM     47  N   UNL A   1      39.188  30.790  31.290  1.00  0.00    -0.354 N 
ATOM     48  C   UNL A   1      42.185  28.740  33.626  1.00  0.00     0.074 A 
ATOM     49  C   UNL A   1      42.665  27.560  32.938  1.00  0.00     0.031 C 
ATOM     50  C   UNL A   1      37.791  31.086  29.570  1.00  0.00     0.029 A 
ATOM     51  C   UNL A   1      38.161  31.608  30.882  1.00  0.00     0.049 A 
ATOM     52  H   UNL A   1      39.679  30.923  32.134  1.00  0.00     0.167 HD
ATOM     53  C   UNL A   1      42.622  29.150  34.841  1.00  0.00     0.037 A 
ATOM     54  C   UNL A   1      37.560  32.645  31.500  1.00  0.00     0.037 A 
ATOM     55  C   UNL A   1      42.142  30.330  35.516  1.00  0.00     0.049 A 
ATOM     56  C   UNL A   1      38.048  33.076  32.855  1.00  0.00     0.074 A 
ATOM     57  C   UNL A   1      42.569  30.867  36.718  1.00  0.00     0.029 A 
ATOM     58  N   UNL A   1      41.117  31.147  35.057  1.00  0.00    -0.354 N 
ATOM     59  N   UNL A   1      38.999  32.552  33.591  1.00  0.00    -0.248 NA
ATOM     60  C   UNL A   1      37.386  34.237  33.465  1.00  0.00     0.031 C 
ATOM     61  C   UNL A   1      41.764  31.971  37.015  1.00  0.00     0.029 A 
ATOM     62  C   UNL A   1      40.873  32.161  35.971  1.00  0.00     0.049 A 
ATOM     63  H   UNL A   1      40.633  31.023  34.209  1.00  0.00     0.167 HD
ATOM     64  C   UNL A   1      39.061  33.327  34.742  1.00  0.00     0.074 A 
ATOM     65  C   UNL A   1      38.062  34.368  34.598  1.00  0.00     0.031 C 
ATOM     66  C   UNL A   1      39.871  33.188  35.822  1.00  0.00     0.037 A 
BRANCH  53  67
ATOM     67  C   UNL A   1      43.666  28.306  35.525  1.00  0.00     0.058 A 
ATOM     68  C   UNL A   1      43.321  27.283  36.423  1.00  0.00     0.135 A 
ATOM     69  C   UNL A   1      45.032  28.514  35.268  1.00  0.00     0.135 A 
ATOM     70  F   UNL A   1      42.032  27.044  36.714  1.00  0.00    -0.206 F 
ATOM     71  C   UNL A   1      44.290  26.529  37.078  1.00  0.00     0.059 A 
ATOM     72  C   UNL A   1      46.018  27.749  35.885  1.00  0.00     0.059 A 
ATOM     73  F   UNL A   1      45.421  29.473  34.414  1.00  0.00    -0.206 F 
ATOM     74  C   UNL A   1      45.637  26.774  36.806  1.00  0.00     0.060 A 
BRANCH  74  75
ATOM     75  S   UNL A   1      46.882  25.806  37.684  1.00  0.00     0.124 S 
ATOM     76  O   UNL A   1      46.089  25.225  38.764  1.00  0.00    -0.237 OA
ATOM     77  O   UNL A   1      47.333  24.872  36.657  1.00  0.00    -0.237 OA
ATOM     78  O   UNL A   1      47.864  26.805  38.095  1.00  0.00    -0.744 OA
ENDBRANCH  74  75
ENDBRANCH  53  67
BRANCH  54  79
ATOM     79  C   UNL A   1      36.426  33.339  30.832  1.00  0.00     0.058 A 
ATOM     80  C   UNL A   1      35.118  33.235  31.326  1.00  0.00     0.135 A 
ATOM     81  C   UNL A   1      36.638  34.160  29.712  1.00  0.00     0.135 A 
ATOM     82  F   UNL A   1      34.862  32.456  32.388  1.00  0.00    -0.206 F 
ATOM     83  C   UNL A   1      34.059  33.918  30.735  1.00  0.00     0.059 A 
ATOM     84  C   UNL A   1      35.601  34.873  29.119  1.00  0.00     0.059 A 
ATOM     85  F   UNL A   1      37.873  34.307  29.209  1.00  0.00    -0.206 F 
ATOM     86  C   UNL A   1      34.313  34.742  29.636  1.00  0.00     0.060 A 
BRANCH  86  87
ATOM     87  S   UNL A   1      32.944  35.685  28.926  1.00  0.00     0.124 S 
ATOM     88  O   UNL A   1      32.337  34.699  28.040  1.00  0.00    -0.237 OA
ATOM     89  O   UNL A   1      32.172  36.041  30.112  1.00  0.00    -0.237 OA
ATOM     90  O   UNL A   1      33.614  36.801  28.265  1.00  0.00    -0.744 OA
ENDBRANCH  86  87
ENDBRANCH  54  79
BRANCH  66  91
ATOM     91  C   UNL A   1      39.727  34.192  36.935  1.00  0.00     0.058 A 
ATOM     92  C   UNL A   1      38.907  33.946  38.046  1.00  0.00     0.135 A 
ATOM     93  C   UNL A   1      40.473  35.383  36.921  1.00  0.00     0.135 A 
ATOM     94  F   UNL A   1      38.165  32.830  38.106  1.00  0.00    -0.206 F 
ATOM     95  C   UNL A   1      38.821  34.852  39.101  1.00  0.00     0.059 A 
ATOM     96  C   UNL A   1      40.424  36.287  37.978  1.00  0.00     0.059 A 
ATOM     97  F   UNL A   1      41.279  35.665  35.885  1.00  0.00    -0.206 F 
ATOM     98  C   UNL A   1      39.589  36.016  39.060  1.00  0.00     0.060 A 
BRANCH  98  99
ATOM     99  S   UNL A   1      39.508  37.155  40.459  1.00  0.00     0.124 S 
ATOM    100  O   UNL A   1      40.923  37.383  40.736  1.00  0.00    -0.237 OA
ATOM    101  O   UNL A   1      38.782  38.289  39.895  1.00  0.00    -0.237 OA
ATOM    102  O   UNL A   1      38.785  36.397  41.475  1.00  0.00    -0.744 OA
ENDBRANCH  98  99
ENDBRANCH  66  91
ENDBRANCH  40  41
ENDBRANCH  32  35
ENDBRANCH  30  31
ENDBRANCH   1  30
TORSDOF 16
ENDMDL
MODEL 3
REMARK VINA RESULT:     -13.1      2.458      3.176
REMARK SMILES O=C(NCCCCNC(=O)c1ccc(-c2c3nc(c(-c4c(F)cc(S(=O)(=O)[O-])cc4F)c4ccc([nH]4)c(-c4c(F)cc(S(=O)(=O)[O-])cc4F)c4nc(c(-c5c(F)cc(S(=O)(=O)[O-])cc5F)c5ccc2[nH]5)C=C4)C=C3)cc1)C1=N[C@@H]2NC=NN2[C@@H]([C@H]2C=NN=C2c2ccc(F)cc2)C1
REMARK SMILES IDX 6 1 5 2 4 3 3 4 1 5 2 6 77 8 78 9 97 10 79 11 84 12 80 13
REMARK SMILES IDX 83 14 81 15 82 17 85 18 86 19 89 20 87 21 88 22 90 23 91 24
REMARK SMILES IDX 96 25 92 26 95 27 93 28 94 29 7 30 8 31 9 32 10 34 11 35
REMARK SMILES IDX 12 36 76 37 13 38 75 39 14 40 15 41 16 42 69 43 17 44 74 45
REMARK SMILES IDX 68 46 70 47 18 48 73 49 67 50 66 51 19 53 53 54 32 55 52 56
REMARK SMILES IDX 33 57 36 58 51 59 71 60 34 61 35 62 50 64 72 65 37 66 20 67
REMARK SMILES IDX 21 68 30 69 22 70 23 71 29 72 31 73 24 74 25 75 26 76 27 77
REMARK SMILES IDX 28 78 54 79 55 80 64 81 56 82 57 83 63 84 65 85 58 86 59 87
REMARK SMILES IDX 60 88 61 89 62 90 38 91 39 92 48 93 40 94 41 95 47 96 49 97
REMARK SMILES IDX 42 98 43 99 44 100 45 101 46 102
REMARK H PARENT 3 7 80 16 8 33 70 52 36 63
REMARK Flexibility Score: inf
ROOT
ATOM      1  C   UNL A   1      33.505  29.787  27.063  1.00  0.00     0.023 C 
ENDROOT
BRANCH   1   2
ATOM      2  C   UNL A   1      33.022  28.546  26.319  1.00  0.00     0.023 C 
BRANCH   2   3
ATOM      3  C   UNL A   1      32.154  27.546  27.078  1.00  0.00     0.116 C 
BRANCH   3   4
ATOM      4  N   UNL A   1      30.948  27.100  26.408  1.00  0.00    -0.351 N 
ATOM      5  O   UNL A   1      29.367  25.640  25.732  1.00  0.00    -0.268 OA
ATOM      6  C   UNL A   1      30.520  25.820  26.118  1.00  0.00     0.265 C 
ATOM      7  H   UNL A   1      30.342  27.819  26.117  1.00  0.00     0.163 HD
BRANCH   6   8
ATOM      8  C   UNL A   1      31.462  24.603  26.169  1.00  0.00     0.106 C 
ATOM      9  N   UNL A   1      31.417  23.887  27.238  1.00  0.00    -0.237 NA
ATOM     10  C   UNL A   1      32.413  24.361  25.036  1.00  0.00     0.090 C 
ATOM     11  C   UNL A   1      32.094  22.618  27.278  1.00  0.00     0.319 C 
ATOM     12  C   UNL A   1      33.270  23.108  25.227  1.00  0.00     0.127 C 
ATOM     13  N   UNL A   1      33.146  22.408  28.232  1.00  0.00    -0.335 N 
ATOM     14  N   UNL A   1      32.628  22.038  26.023  1.00  0.00    -0.249 NA
ATOM     15  C   UNL A   1      33.896  21.418  27.673  1.00  0.00     0.217 C 
ATOM     16  H   UNL A   1      33.290  22.871  29.089  1.00  0.00     0.165 HD
ATOM     17  N   UNL A   1      33.613  21.098  26.435  1.00  0.00    -0.164 NA
BRANCH  12  18
ATOM     18  C   UNL A   1      33.781  22.486  23.914  1.00  0.00     0.109 C 
ATOM     19  C   UNL A   1      33.116  23.034  22.697  1.00  0.00     0.120 C 
ATOM     20  C   UNL A   1      35.175  22.918  23.582  1.00  0.00     0.081 C 
ATOM     21  N   UNL A   1      33.931  23.656  21.908  1.00  0.00    -0.162 NA
ATOM     22  N   UNL A   1      35.241  23.597  22.478  1.00  0.00    -0.155 NA
BRANCH  20  23
ATOM     23  C   UNL A   1      36.301  22.670  24.494  1.00  0.00    -0.001 A 
ATOM     24  C   UNL A   1      36.835  23.703  25.275  1.00  0.00     0.013 A 
ATOM     25  C   UNL A   1      36.899  21.406  24.481  1.00  0.00     0.013 A 
ATOM     26  C   UNL A   1      37.987  23.471  26.027  1.00  0.00     0.040 A 
ATOM     27  C   UNL A   1      38.056  21.184  25.227  1.00  0.00     0.040 A 
ATOM     28  C   UNL A   1      38.591  22.218  25.989  1.00  0.00     0.123 A 
ATOM     29  F   UNL A   1      39.711  22.009  26.692  1.00  0.00    -0.207 F 
ENDBRANCH  20  23
ENDBRANCH  12  18
ENDBRANCH   6   8
ENDBRANCH   3   4
ENDBRANCH   2   3
ENDBRANCH   1   2
BRANCH   1  30
ATOM     30  C   UNL A   1      34.901  29.722  27.673  1.00  0.00     0.116 C 
BRANCH  30  31
ATOM     31  N   UNL A   1      35.083  30.589  28.829  1.00  0.00    -0.352 N 
ATOM     32  C   UNL A   1      36.175  30.783  29.646  1.00  0.00     0.251 C 
ATOM     33  H   UNL A   1      34.293  31.127  29.066  1.00  0.00     0.163 HD
ATOM     34  O   UNL A   1      36.069  31.512  30.631  1.00  0.00    -0.269 OA
BRANCH  32  35
ATOM     35  C   UNL A   1      37.458  30.093  29.385  1.00  0.00     0.039 A 
ATOM     36  C   UNL A   1      37.887  29.951  28.061  1.00  0.00     0.014 A 
ATOM     37  C   UNL A   1      38.243  29.592  30.425  1.00  0.00     0.014 A 
ATOM     38  C   UNL A   1      39.151  29.416  27.791  1.00  0.00     0.010 A 
ATOM     39  C   UNL A   1      39.534  29.136  30.161  1.00  0.00     0.010 A 
ATOM     40  C   UNL A   1      40.012  29.064  28.843  1.00  0.00    -0.014 A 
BRANCH  40  41
ATOM     41  C   UNL A   1      41.430  28.686  28.593  1.00  0.00     0.031 A 
ATOM     42  C   UNL A   1      42.510  29.732  28.558  1.00  0.00     0.074 A 
ATOM     43  C   UNL A   1      41.728  27.404  28.296  1.00  0.00     0.049 A 
ATOM     44  N   UNL A   1      43.776  29.603  28.250  1.00  0.00    -0.248 NA
ATOM     45  C   UNL A   1      42.109  31.109  28.883  1.00  0.00     0.031 C 
ATOM     46  C   UNL A   1      40.763  26.304  28.240  1.00  0.00     0.029 A 
ATOM     47  N   UNL A   1      42.921  26.812  27.959  1.00  0.00    -0.354 N 
ATOM     48  C   UNL A   1      44.320  30.879  28.333  1.00  0.00     0.074 A 
ATOM     49  C   UNL A   1      43.233  31.776  28.669  1.00  0.00     0.031 C 
ATOM     50  C   UNL A   1      41.400  25.174  27.897  1.00  0.00     0.029 A 
ATOM     51  C   UNL A   1      42.809  25.474  27.661  1.00  0.00     0.049 A 
ATOM     52  H   UNL A   1      43.776  27.299  27.935  1.00  0.00     0.167 HD
ATOM     53  C   UNL A   1      45.607  31.265  28.162  1.00  0.00     0.037 A 
ATOM     54  C   UNL A   1      43.726  24.588  27.221  1.00  0.00     0.037 A 
ATOM     55  C   UNL A   1      46.684  30.364  27.834  1.00  0.00     0.049 A 
ATOM     56  C   UNL A   1      45.146  25.039  27.022  1.00  0.00     0.074 A 
ATOM     57  C   UNL A   1      48.032  30.646  27.706  1.00  0.00     0.029 A 
ATOM     58  N   UNL A   1      46.533  29.010  27.564  1.00  0.00    -0.354 N 
ATOM     59  N   UNL A   1      45.660  26.235  27.187  1.00  0.00    -0.248 NA
ATOM     60  C   UNL A   1      46.112  24.024  26.581  1.00  0.00     0.031 C 
ATOM     61  C   UNL A   1      48.688  29.479  27.301  1.00  0.00     0.029 A 
ATOM     62  C   UNL A   1      47.759  28.453  27.234  1.00  0.00     0.049 A 
ATOM     63  H   UNL A   1      45.681  28.519  27.600  1.00  0.00     0.167 HD
ATOM     64  C   UNL A   1      47.011  26.114  26.885  1.00  0.00     0.074 A 
ATOM     65  C   UNL A   1      47.239  24.723  26.545  1.00  0.00     0.031 C 
ATOM     66  C   UNL A   1      47.974  27.068  26.888  1.00  0.00     0.037 A 
BRANCH  53  67
ATOM     67  C   UNL A   1      45.920  32.731  28.317  1.00  0.00     0.058 A 
ATOM     68  C   UNL A   1      46.283  33.284  29.557  1.00  0.00     0.135 A 
ATOM     69  C   UNL A   1      45.871  33.593  27.209  1.00  0.00     0.135 A 
ATOM     70  F   UNL A   1      46.338  32.511  30.653  1.00  0.00    -0.206 F 
ATOM     71  C   UNL A   1      46.538  34.644  29.701  1.00  0.00     0.059 A 
ATOM     72  C   UNL A   1      46.155  34.951  27.324  1.00  0.00     0.059 A 
ATOM     73  F   UNL A   1      45.537  33.119  25.998  1.00  0.00    -0.206 F 
ATOM     74  C   UNL A   1      46.465  35.471  28.579  1.00  0.00     0.060 A 
BRANCH  74  75
ATOM     75  S   UNL A   1      46.772  37.237  28.789  1.00  0.00     0.124 S 
ATOM     76  O   UNL A   1      46.054  37.794  27.646  1.00  0.00    -0.237 OA
ATOM     77  O   UNL A   1      46.182  37.503  30.097  1.00  0.00    -0.237 OA
ATOM     78  O   UNL A   1      48.226  37.340  28.727  1.00  0.00    -0.744 OA
ENDBRANCH  74  75
ENDBRANCH  53  67
BRANCH  54  79
ATOM     79  C   UNL A   1      43.314  23.187  26.937  1.00  0.00     0.058 A 
ATOM     80  C   UNL A   1      43.250  22.701  25.623  1.00  0.00     0.135 A 
ATOM     81  C   UNL A   1      43.022  22.293  27.979  1.00  0.00     0.135 A 
ATOM     82  F   UNL A   1      43.511  23.519  24.592  1.00  0.00    -0.206 F 
ATOM     83  C   UNL A   1      42.910  21.379  25.351  1.00  0.00     0.059 A 
ATOM     84  C   UNL A   1      42.705  20.960  27.735  1.00  0.00     0.059 A 
ATOM     85  F   UNL A   1      43.084  22.703  29.256  1.00  0.00    -0.206 F 
ATOM     86  C   UNL A   1      42.648  20.514  26.415  1.00  0.00     0.060 A 
BRANCH  86  87
ATOM     87  S   UNL A   1      42.286  18.781  26.054  1.00  0.00     0.124 S 
ATOM     88  O   UNL A   1      42.604  18.143  27.326  1.00  0.00    -0.237 OA
ATOM     89  O   UNL A   1      40.871  18.832  25.701  1.00  0.00    -0.237 OA
ATOM     90  O   UNL A   1      43.189  18.473  24.948  1.00  0.00    -0.744 OA
ENDBRANCH  86  87
ENDBRANCH  54  79
BRANCH  66  91
ATOM     91  C   UNL A   1      49.374  26.648  26.526  1.00  0.00     0.058 A 
ATOM     92  C   UNL A   1      50.222  26.031  27.458  1.00  0.00     0.135 A 
ATOM     93  C   UNL A   1      49.847  26.804  25.212  1.00  0.00     0.135 A 
ATOM     94  F   UNL A   1      49.825  25.867  28.729  1.00  0.00    -0.206 F 
ATOM     95  C   UNL A   1      51.496  25.593  27.104  1.00  0.00     0.059 A 
ATOM     96  C   UNL A   1      51.105  26.347  24.830  1.00  0.00     0.059 A 
ATOM     97  F   UNL A   1      49.075  27.382  24.279  1.00  0.00    -0.206 F 
ATOM     98  C   UNL A   1      51.925  25.749  25.785  1.00  0.00     0.060 A 
BRANCH  98  99
ATOM     99  S   UNL A   1      53.557  25.128  25.328  1.00  0.00     0.124 S 
ATOM    100  O   UNL A   1      54.405  25.753  26.338  1.00  0.00    -0.237 OA
ATOM    101  O   UNL A   1      53.385  23.683  25.451  1.00  0.00    -0.237 OA
ATOM    102  O   UNL A   1      53.740  25.618  23.965  1.00  0.00    -0.744 OA
ENDBRANCH  98  99
ENDBRANCH  66  91
ENDBRANCH  40  41
ENDBRANCH  32  35
ENDBRANCH  30  31
ENDBRANCH   1  30
TORSDOF 16
ENDMDL
