MODEL 1
REMARK VINA RESULT:     -13.0      0.000      0.000
REMARK SMILES O=C1CC[C@@H](CC(=O)N2CCC(Oc3ccccc3)(C(=O)NCCCCNC(=O)c3ccc(-c4c5nc(c(-c6c(F)cc(S(=O)(=O)[O-])cc6F)c6ccc([nH]6)c(-c6c(F)cc(S(=O)(=O)[O-])cc6F)c6nc(c(-c7c(F)cc(S(=O)(=O)[O-])cc7F)c7ccc4[nH]7)C=C6)C=C5)cc3)CC2)N1
REMARK SMILES IDX 25 1 24 2 23 3 22 4 20 5 21 6 12 8 7 9 8 10 9 11 10 12 97 13
REMARK SMILES IDX 11 14 96 15 6 16 5 17 1 18 2 19 3 20 98 21 4 22 13 24 14 25
REMARK SMILES IDX 15 26 19 27 16 28 18 29 17 30 26 31 27 32 28 33 29 35 30 36
REMARK SMILES IDX 31 37 95 38 32 39 94 40 33 41 34 42 35 43 88 44 36 45 93 46
REMARK SMILES IDX 87 47 89 48 37 49 92 50 86 51 85 52 38 54 72 55 51 56 71 57
REMARK SMILES IDX 52 58 55 59 70 60 90 61 53 62 54 63 69 65 91 66 56 67 39 68
REMARK SMILES IDX 40 69 49 70 41 71 42 72 48 73 50 74 43 75 44 76 45 77 46 78
REMARK SMILES IDX 47 79 73 80 74 81 83 82 75 83 76 84 82 85 84 86 77 87 78 88
REMARK SMILES IDX 79 89 80 90 81 91 57 92 58 93 67 94 59 95 60 96 66 97 68 98
REMARK SMILES IDX 61 99 62 100 63 101 64 102 65 103
REMARK H PARENT 22 7 98 23 27 34 89 53 55 64
REMARK Flexibility Score: inf
ROOT
ATOM      1  C   UNL A   1      37.519  23.703  25.844  1.00  0.00     0.023 C 
ENDROOT
BRANCH   1   2
ATOM      2  C   UNL A   1      37.780  22.270  25.379  1.00  0.00     0.023 C 
BRANCH   2   3
ATOM      3  C   UNL A   1      36.606  21.323  25.603  1.00  0.00     0.116 C 
BRANCH   3   4
ATOM      4  N   UNL A   1      35.769  21.809  26.673  1.00  0.00    -0.353 N 
ATOM      5  C   UNL A   1      34.417  21.896  26.749  1.00  0.00     0.264 C 
ATOM      6  O   UNL A   1      33.973  22.313  27.824  1.00  0.00    -0.270 OA
ATOM      7  H   UNL A   1      36.253  22.125  27.470  1.00  0.00     0.163 HD
BRANCH   5   8
ATOM      8  C   UNL A   1      33.497  21.469  25.566  1.00  0.00     0.190 C 
ATOM      9  C   UNL A   1      32.090  24.634  23.256  1.00  0.00     0.224 C 
ATOM     10  O   UNL A   1      32.333  24.395  22.065  1.00  0.00    -0.275 OA
ATOM     11  N   UNL A   1      32.806  23.987  24.245  1.00  0.00    -0.342 N 
ATOM     12  C   UNL A   1      34.092  23.364  23.943  1.00  0.00     0.124 C 
ATOM     13  C   UNL A   1      32.298  23.675  25.558  1.00  0.00     0.124 C 
ATOM     14  C   UNL A   1      34.048  21.856  24.174  1.00  0.00     0.080 C 
ATOM     15  C   UNL A   1      32.148  22.172  25.765  1.00  0.00     0.080 C 
BRANCH   9  16
ATOM     16  C   UNL A   1      31.162  25.826  23.558  1.00  0.00     0.125 C 
BRANCH  16  17
ATOM     17  C   UNL A   1      31.419  27.314  23.313  1.00  0.00     0.091 C 
ATOM     18  O   UNL A   1      29.837  29.803  21.405  1.00  0.00    -0.275 OA
ATOM     19  C   UNL A   1      30.325  29.124  22.295  1.00  0.00     0.220 C 
ATOM     20  C   UNL A   1      30.382  29.482  23.759  1.00  0.00     0.102 C 
ATOM     21  N   UNL A   1      30.872  27.873  22.114  1.00  0.00    -0.353 N 
ATOM     22  C   UNL A   1      31.008  28.262  24.442  1.00  0.00     0.035 C 
ATOM     23  H   UNL A   1      30.885  27.410  21.246  1.00  0.00     0.163 HD
ENDBRANCH  16  17
ENDBRANCH   9  16
BRANCH   8  24
ATOM     24  O   UNL A   1      33.398  20.040  25.807  1.00  0.00    -0.477 OA
BRANCH  24  25
ATOM     25  C   UNL A   1      33.416  19.201  24.738  1.00  0.00     0.120 A 
ATOM     26  C   UNL A   1      32.352  19.254  23.840  1.00  0.00     0.046 A 
ATOM     27  C   UNL A   1      34.376  18.198  24.623  1.00  0.00     0.046 A 
ATOM     28  C   UNL A   1      32.295  18.353  22.777  1.00  0.00     0.004 A 
ATOM     29  C   UNL A   1      34.333  17.311  23.549  1.00  0.00     0.004 A 
ATOM     30  C   UNL A   1      33.295  17.391  22.622  1.00  0.00     0.000 A 
ENDBRANCH  24  25
ENDBRANCH   8  24
ENDBRANCH   5   8
ENDBRANCH   3   4
ENDBRANCH   2   3
ENDBRANCH   1   2
BRANCH   1  31
ATOM     31  C   UNL A   1      38.595  24.277  26.756  1.00  0.00     0.116 C 
BRANCH  31  32
ATOM     32  N   UNL A   1      39.917  24.227  26.152  1.00  0.00    -0.352 N 
ATOM     33  C   UNL A   1      41.020  24.990  26.442  1.00  0.00     0.251 C 
ATOM     34  H   UNL A   1      40.037  23.557  25.441  1.00  0.00     0.163 HD
ATOM     35  O   UNL A   1      42.013  24.938  25.725  1.00  0.00    -0.269 OA
BRANCH  33  36
ATOM     36  C   UNL A   1      40.976  25.891  27.610  1.00  0.00     0.039 A 
ATOM     37  C   UNL A   1      41.939  26.893  27.727  1.00  0.00     0.014 A 
ATOM     38  C   UNL A   1      39.957  25.768  28.558  1.00  0.00     0.014 A 
ATOM     39  C   UNL A   1      41.845  27.812  28.772  1.00  0.00     0.010 A 
ATOM     40  C   UNL A   1      39.817  26.735  29.546  1.00  0.00     0.010 A 
ATOM     41  C   UNL A   1      40.766  27.761  29.670  1.00  0.00    -0.014 A 
BRANCH  41  42
ATOM     42  C   UNL A   1      40.624  28.756  30.762  1.00  0.00     0.031 A 
ATOM     43  C   UNL A   1      41.473  28.632  31.999  1.00  0.00     0.074 A 
ATOM     44  C   UNL A   1      39.703  29.735  30.661  1.00  0.00     0.049 A 
ATOM     45  N   UNL A   1      41.445  29.347  33.092  1.00  0.00    -0.248 NA
ATOM     46  C   UNL A   1      42.467  27.545  32.020  1.00  0.00     0.031 C 
ATOM     47  C   UNL A   1      38.793  29.932  29.530  1.00  0.00     0.029 A 
ATOM     48  N   UNL A   1      39.372  30.747  31.528  1.00  0.00    -0.354 N 
ATOM     49  C   UNL A   1      42.412  28.799  33.928  1.00  0.00     0.074 A 
ATOM     50  C   UNL A   1      42.960  27.649  33.245  1.00  0.00     0.031 C 
ATOM     51  C   UNL A   1      38.024  31.009  29.763  1.00  0.00     0.029 A 
ATOM     52  C   UNL A   1      38.353  31.554  31.076  1.00  0.00     0.049 A 
ATOM     53  H   UNL A   1      39.820  30.881  32.394  1.00  0.00     0.167 HD
ATOM     54  C   UNL A   1      42.827  29.233  35.140  1.00  0.00     0.037 A 
ATOM     55  C   UNL A   1      37.747  32.606  31.660  1.00  0.00     0.037 A 
ATOM     56  C   UNL A   1      42.294  30.392  35.804  1.00  0.00     0.049 A 
ATOM     57  C   UNL A   1      38.213  33.051  33.024  1.00  0.00     0.074 A 
ATOM     58  C   UNL A   1      42.668  30.933  37.022  1.00  0.00     0.029 A 
ATOM     59  N   UNL A   1      41.279  31.196  35.305  1.00  0.00    -0.354 N 
ATOM     60  N   UNL A   1      39.162  32.547  33.777  1.00  0.00    -0.248 NA
ATOM     61  C   UNL A   1      37.531  34.211  33.614  1.00  0.00     0.031 C 
ATOM     62  C   UNL A   1      41.850  32.037  37.280  1.00  0.00     0.029 A 
ATOM     63  C   UNL A   1      41.006  32.219  36.197  1.00  0.00     0.049 A 
ATOM     64  H   UNL A   1      40.821  31.057  34.445  1.00  0.00     0.167 HD
ATOM     65  C   UNL A   1      39.218  33.356  34.908  1.00  0.00     0.074 A 
ATOM     66  C   UNL A   1      38.217  34.386  34.735  1.00  0.00     0.031 C 
ATOM     67  C   UNL A   1      40.026  33.255  35.993  1.00  0.00     0.037 A 
BRANCH  54  68
ATOM     68  C   UNL A   1      43.932  28.472  35.820  1.00  0.00     0.058 A 
ATOM     69  C   UNL A   1      43.657  27.409  36.695  1.00  0.00     0.135 A 
ATOM     70  C   UNL A   1      45.278  28.758  35.541  1.00  0.00     0.135 A 
ATOM     71  F   UNL A   1      42.388  27.107  37.015  1.00  0.00    -0.206 F 
ATOM     72  C   UNL A   1      44.675  26.662  37.276  1.00  0.00     0.059 A 
ATOM     73  C   UNL A   1      46.313  28.004  36.087  1.00  0.00     0.059 A 
ATOM     74  F   UNL A   1      45.598  29.767  34.716  1.00  0.00    -0.206 F 
ATOM     75  C   UNL A   1      46.001  26.960  36.958  1.00  0.00     0.060 A 
BRANCH  75  76
ATOM     76  S   UNL A   1      47.305  25.947  37.683  1.00  0.00     0.124 S 
ATOM     77  O   UNL A   1      46.857  25.839  39.068  1.00  0.00    -0.237 OA
ATOM     78  O   UNL A   1      47.221  24.723  36.893  1.00  0.00    -0.237 OA
ATOM     79  O   UNL A   1      48.512  26.742  37.475  1.00  0.00    -0.744 OA
ENDBRANCH  75  76
ENDBRANCH  54  68
BRANCH  55  80
ATOM     80  C   UNL A   1      36.636  33.320  30.972  1.00  0.00     0.058 A 
ATOM     81  C   UNL A   1      35.299  33.113  31.346  1.00  0.00     0.135 A 
ATOM     82  C   UNL A   1      36.883  34.187  29.896  1.00  0.00     0.135 A 
ATOM     83  F   UNL A   1      35.009  32.292  32.367  1.00  0.00    -0.206 F 
ATOM     84  C   UNL A   1      34.246  33.700  30.651  1.00  0.00     0.059 A 
ATOM     85  C   UNL A   1      35.848  34.813  29.207  1.00  0.00     0.059 A 
ATOM     86  F   UNL A   1      38.144  34.440  29.509  1.00  0.00    -0.206 F 
ATOM     87  C   UNL A   1      34.532  34.544  29.577  1.00  0.00     0.060 A 
BRANCH  87  88
ATOM     88  S   UNL A   1      33.160  35.293  28.674  1.00  0.00     0.124 S 
ATOM     89  O   UNL A   1      33.855  36.267  27.841  1.00  0.00    -0.237 OA
ATOM     90  O   UNL A   1      32.589  34.145  27.977  1.00  0.00    -0.237 OA
ATOM     91  O   UNL A   1      32.326  35.851  29.736  1.00  0.00    -0.744 OA
ENDBRANCH  87  88
ENDBRANCH  55  80
BRANCH  67  92
ATOM     92  C   UNL A   1      39.907  34.319  37.050  1.00  0.00     0.058 A 
ATOM     93  C   UNL A   1      40.605  35.534  36.964  1.00  0.00     0.135 A 
ATOM     94  C   UNL A   1      39.037  34.138  38.138  1.00  0.00     0.135 A 
ATOM     95  F   UNL A   1      41.453  35.756  35.948  1.00  0.00    -0.206 F 
ATOM     96  C   UNL A   1      40.464  36.520  37.934  1.00  0.00     0.059 A 
ATOM     97  C   UNL A   1      38.855  35.125  39.101  1.00  0.00     0.059 A 
ATOM     98  F   UNL A   1      38.336  32.999  38.262  1.00  0.00    -0.206 F 
ATOM     99  C   UNL A   1      39.584  36.308  38.998  1.00  0.00     0.060 A 
BRANCH  99 100
ATOM    100  S   UNL A   1      39.387  37.612  40.230  1.00  0.00     0.124 S 
ATOM    101  O   UNL A   1      38.307  38.403  39.651  1.00  0.00    -0.237 OA
ATOM    102  O   UNL A   1      39.046  36.855  41.431  1.00  0.00    -0.237 OA
ATOM    103  O   UNL A   1      40.696  38.257  40.255  1.00  0.00    -0.744 OA
ENDBRANCH  99 100
ENDBRANCH  67  92
ENDBRANCH  41  42
ENDBRANCH  33  36
ENDBRANCH  31  32
ENDBRANCH   1  31
TORSDOF 18
ENDMDL
MODEL 2
REMARK VINA RESULT:     -12.8      0.693      7.955
REMARK SMILES O=C1CC[C@@H](CC(=O)N2CCC(Oc3ccccc3)(C(=O)NCCCCNC(=O)c3ccc(-c4c5nc(c(-c6c(F)cc(S(=O)(=O)[O-])cc6F)c6ccc([nH]6)c(-c6c(F)cc(S(=O)(=O)[O-])cc6F)c6nc(c(-c7c(F)cc(S(=O)(=O)[O-])cc7F)c7ccc4[nH]7)C=C6)C=C5)cc3)CC2)N1
REMARK SMILES IDX 25 1 24 2 23 3 22 4 20 5 21 6 12 8 7 9 8 10 9 11 10 12 97 13
REMARK SMILES IDX 11 14 96 15 6 16 5 17 1 18 2 19 3 20 98 21 4 22 13 24 14 25
REMARK SMILES IDX 15 26 19 27 16 28 18 29 17 30 26 31 27 32 28 33 29 35 30 36
REMARK SMILES IDX 31 37 95 38 32 39 94 40 33 41 34 42 35 43 88 44 36 45 93 46
REMARK SMILES IDX 87 47 89 48 37 49 92 50 86 51 85 52 38 54 72 55 51 56 71 57
REMARK SMILES IDX 52 58 55 59 70 60 90 61 53 62 54 63 69 65 91 66 56 67 39 68
REMARK SMILES IDX 40 69 49 70 41 71 42 72 48 73 50 74 43 75 44 76 45 77 46 78
REMARK SMILES IDX 47 79 73 80 74 81 83 82 75 83 76 84 82 85 84 86 77 87 78 88
REMARK SMILES IDX 79 89 80 90 81 91 57 92 58 93 67 94 59 95 60 96 66 97 68 98
REMARK SMILES IDX 61 99 62 100 63 101 64 102 65 103
REMARK H PARENT 22 7 98 23 27 34 89 53 55 64
REMARK Flexibility Score: inf
ROOT
ATOM      1  C   UNL A   1      39.309  22.215  26.571  1.00  0.00     0.023 C 
ENDROOT
BRANCH   1   2
ATOM      2  C   UNL A   1      38.170  22.482  25.586  1.00  0.00     0.023 C 
BRANCH   2   3
ATOM      3  C   UNL A   1      36.970  21.559  25.765  1.00  0.00     0.116 C 
BRANCH   3   4
ATOM      4  N   UNL A   1      35.970  22.192  26.590  1.00  0.00    -0.353 N 
ATOM      5  C   UNL A   1      34.624  22.260  26.429  1.00  0.00     0.264 C 
ATOM      6  O   UNL A   1      34.012  22.835  27.335  1.00  0.00    -0.270 OA
ATOM      7  H   UNL A   1      36.318  22.643  27.393  1.00  0.00     0.163 HD
BRANCH   5   8
ATOM      8  C   UNL A   1      33.910  21.628  25.197  1.00  0.00     0.190 C 
ATOM      9  C   UNL A   1      32.740  24.373  22.294  1.00  0.00     0.224 C 
ATOM     10  O   UNL A   1      33.168  23.995  21.195  1.00  0.00    -0.275 OA
ATOM     11  N   UNL A   1      33.325  23.906  23.455  1.00  0.00    -0.342 N 
ATOM     12  C   UNL A   1      34.666  23.326  23.430  1.00  0.00     0.124 C 
ATOM     13  C   UNL A   1      32.639  23.738  24.712  1.00  0.00     0.124 C 
ATOM     14  C   UNL A   1      34.648  21.862  23.858  1.00  0.00     0.080 C 
ATOM     15  C   UNL A   1      32.520  22.268  25.102  1.00  0.00     0.080 C 
BRANCH   9  16
ATOM     16  C   UNL A   1      31.730  25.536  22.293  1.00  0.00     0.125 C 
BRANCH  16  17
ATOM     17  C   UNL A   1      31.976  27.006  22.641  1.00  0.00     0.091 C 
ATOM     18  O   UNL A   1      30.150  29.975  22.213  1.00  0.00    -0.275 OA
ATOM     19  C   UNL A   1      30.767  29.017  22.652  1.00  0.00     0.220 C 
ATOM     20  C   UNL A   1      31.081  28.749  24.103  1.00  0.00     0.102 C 
ATOM     21  N   UNL A   1      31.246  27.978  21.886  1.00  0.00    -0.353 N 
ATOM     22  C   UNL A   1      31.785  27.388  24.111  1.00  0.00     0.035 C 
ATOM     23  H   UNL A   1      31.101  27.911  20.915  1.00  0.00     0.163 HD
ENDBRANCH  16  17
ENDBRANCH   9  16
BRANCH   8  24
ATOM     24  O   UNL A   1      33.834  20.240  25.617  1.00  0.00    -0.477 OA
BRANCH  24  25
ATOM     25  C   UNL A   1      33.722  19.279  24.660  1.00  0.00     0.120 A 
ATOM     26  C   UNL A   1      32.573  19.265  23.873  1.00  0.00     0.046 A 
ATOM     27  C   UNL A   1      34.642  18.237  24.574  1.00  0.00     0.046 A 
ATOM     28  C   UNL A   1      32.386  18.246  22.938  1.00  0.00     0.004 A 
ATOM     29  C   UNL A   1      34.468  17.231  23.624  1.00  0.00     0.004 A 
ATOM     30  C   UNL A   1      33.342  17.239  22.802  1.00  0.00     0.000 A 
ENDBRANCH  24  25
ENDBRANCH   8  24
ENDBRANCH   5   8
ENDBRANCH   3   4
ENDBRANCH   2   3
ENDBRANCH   1   2
BRANCH   1  31
ATOM     31  C   UNL A   1      40.000  23.469  27.091  1.00  0.00     0.116 C 
BRANCH  31  32
ATOM     32  N   UNL A   1      40.675  24.208  26.036  1.00  0.00    -0.352 N 
ATOM     33  C   UNL A   1      41.104  25.511  26.044  1.00  0.00     0.251 C 
ATOM     34  H   UNL A   1      40.846  23.708  25.206  1.00  0.00     0.163 HD
ATOM     35  O   UNL A   1      41.505  26.036  25.011  1.00  0.00    -0.269 OA
BRANCH  33  36
ATOM     36  C   UNL A   1      41.046  26.273  27.306  1.00  0.00     0.039 A 
ATOM     37  C   UNL A   1      42.045  27.207  27.578  1.00  0.00     0.014 A 
ATOM     38  C   UNL A   1      39.980  26.091  28.191  1.00  0.00     0.014 A 
ATOM     39  C   UNL A   1      41.944  28.004  28.718  1.00  0.00     0.010 A 
ATOM     40  C   UNL A   1      39.837  26.944  29.279  1.00  0.00     0.010 A 
ATOM     41  C   UNL A   1      40.823  27.902  29.560  1.00  0.00    -0.014 A 
BRANCH  41  42
ATOM     42  C   UNL A   1      40.674  28.771  30.754  1.00  0.00     0.031 A 
ATOM     43  C   UNL A   1      39.641  29.865  30.756  1.00  0.00     0.074 A 
ATOM     44  C   UNL A   1      41.497  28.607  31.809  1.00  0.00     0.049 A 
ATOM     45  N   UNL A   1      39.408  30.777  31.664  1.00  0.00    -0.248 NA
ATOM     46  C   UNL A   1      38.771  29.965  29.572  1.00  0.00     0.031 C 
ATOM     47  C   UNL A   1      42.565  27.608  31.906  1.00  0.00     0.029 A 
ATOM     48  N   UNL A   1      41.572  29.283  33.001  1.00  0.00    -0.354 N 
ATOM     49  C   UNL A   1      38.371  31.555  31.161  1.00  0.00     0.074 A 
ATOM     50  C   UNL A   1      38.066  31.053  29.840  1.00  0.00     0.031 C 
ATOM     51  C   UNL A   1      43.171  27.723  33.099  1.00  0.00     0.029 A 
ATOM     52  C   UNL A   1      42.568  28.829  33.835  1.00  0.00     0.049 A 
ATOM     53  H   UNL A   1      40.969  30.024  33.237  1.00  0.00     0.167 HD
ATOM     54  C   UNL A   1      37.711  32.574  31.759  1.00  0.00     0.037 A 
ATOM     55  C   UNL A   1      42.956  29.264  35.050  1.00  0.00     0.037 A 
ATOM     56  C   UNL A   1      38.004  33.053  33.084  1.00  0.00     0.049 A 
ATOM     57  C   UNL A   1      42.220  30.420  35.680  1.00  0.00     0.074 A 
ATOM     58  C   UNL A   1      37.373  34.061  33.791  1.00  0.00     0.029 A 
ATOM     59  N   UNL A   1      39.006  32.555  33.904  1.00  0.00    -0.354 N 
ATOM     60  N   UNL A   1      41.210  31.111  35.208  1.00  0.00    -0.248 NA
ATOM     61  C   UNL A   1      42.671  30.850  37.011  1.00  0.00     0.031 C 
ATOM     62  C   UNL A   1      38.021  34.202  35.022  1.00  0.00     0.029 A 
ATOM     63  C   UNL A   1      39.017  33.243  35.106  1.00  0.00     0.049 A 
ATOM     64  H   UNL A   1      39.617  31.821  33.666  1.00  0.00     0.167 HD
ATOM     65  C   UNL A   1      40.880  32.027  36.202  1.00  0.00     0.074 A 
ATOM     66  C   UNL A   1      41.789  31.794  37.303  1.00  0.00     0.031 C 
ATOM     67  C   UNL A   1      39.911  32.976  36.203  1.00  0.00     0.037 A 
BRANCH  54  68
ATOM     68  C   UNL A   1      36.586  33.225  31.002  1.00  0.00     0.058 A 
ATOM     69  C   UNL A   1      35.246  33.031  31.375  1.00  0.00     0.135 A 
ATOM     70  C   UNL A   1      36.850  34.108  29.943  1.00  0.00     0.135 A 
ATOM     71  F   UNL A   1      34.935  32.181  32.366  1.00  0.00    -0.206 F 
ATOM     72  C   UNL A   1      34.207  33.682  30.719  1.00  0.00     0.059 A 
ATOM     73  C   UNL A   1      35.828  34.794  29.293  1.00  0.00     0.059 A 
ATOM     74  F   UNL A   1      38.113  34.326  29.543  1.00  0.00    -0.206 F 
ATOM     75  C   UNL A   1      34.509  34.570  29.686  1.00  0.00     0.060 A 
BRANCH  75  76
ATOM     76  S   UNL A   1      33.149  35.442  28.881  1.00  0.00     0.124 S 
ATOM     77  O   UNL A   1      32.407  35.949  30.031  1.00  0.00    -0.237 OA
ATOM     78  O   UNL A   1      33.852  36.445  28.088  1.00  0.00    -0.237 OA
ATOM     79  O   UNL A   1      32.479  34.397  28.114  1.00  0.00    -0.744 OA
ENDBRANCH  75  76
ENDBRANCH  54  68
BRANCH  55  80
ATOM     80  C   UNL A   1      44.094  28.616  35.760  1.00  0.00     0.058 A 
ATOM     81  C   UNL A   1      43.883  27.542  36.639  1.00  0.00     0.135 A 
ATOM     82  C   UNL A   1      45.408  29.086  35.612  1.00  0.00     0.135 A 
ATOM     83  F   UNL A   1      42.645  27.056  36.817  1.00  0.00    -0.206 F 
ATOM     84  C   UNL A   1      44.922  26.989  37.380  1.00  0.00     0.059 A 
ATOM     85  C   UNL A   1      46.470  28.527  36.317  1.00  0.00     0.059 A 
ATOM     86  F   UNL A   1      45.672  30.097  34.768  1.00  0.00    -0.206 F 
ATOM     87  C   UNL A   1      46.213  27.494  37.216  1.00  0.00     0.060 A 
BRANCH  87  88
ATOM     88  S   UNL A   1      47.554  26.778  38.190  1.00  0.00     0.124 S 
ATOM     89  O   UNL A   1      46.973  26.771  39.528  1.00  0.00    -0.237 OA
ATOM     90  O   UNL A   1      47.728  25.473  37.560  1.00  0.00    -0.237 OA
ATOM     91  O   UNL A   1      48.654  27.717  37.984  1.00  0.00    -0.744 OA
ENDBRANCH  87  88
ENDBRANCH  55  80
BRANCH  67  92
ATOM     92  C   UNL A   1      39.739  33.793  37.455  1.00  0.00     0.058 A 
ATOM     93  C   UNL A   1      40.394  35.021  37.637  1.00  0.00     0.135 A 
ATOM     94  C   UNL A   1      38.860  33.363  38.462  1.00  0.00     0.135 A 
ATOM     95  F   UNL A   1      41.248  35.476  36.708  1.00  0.00    -0.206 F 
ATOM     96  C   UNL A   1      40.204  35.779  38.788  1.00  0.00     0.059 A 
ATOM     97  C   UNL A   1      38.630  34.121  39.605  1.00  0.00     0.059 A 
ATOM     98  F   UNL A   1      38.199  32.201  38.333  1.00  0.00    -0.206 F 
ATOM     99  C   UNL A   1      39.318  35.323  39.765  1.00  0.00     0.060 A 
BRANCH  99 100
ATOM    100  S   UNL A   1      39.056  36.335  41.237  1.00  0.00     0.124 S 
ATOM    101  O   UNL A   1      37.917  35.665  41.856  1.00  0.00    -0.237 OA
ATOM    102  O   UNL A   1      40.330  36.199  41.937  1.00  0.00    -0.237 OA
ATOM    103  O   UNL A   1      38.786  37.662  40.693  1.00  0.00    -0.744 OA
ENDBRANCH  99 100
ENDBRANCH  67  92
ENDBRANCH  41  42
ENDBRANCH  33  36
ENDBRANCH  31  32
ENDBRANCH   1  31
TORSDOF 18
ENDMDL
MODEL 3
REMARK VINA RESULT:     -12.7      6.409     11.738
REMARK SMILES O=C1CC[C@@H](CC(=O)N2CCC(Oc3ccccc3)(C(=O)NCCCCNC(=O)c3ccc(-c4c5nc(c(-c6c(F)cc(S(=O)(=O)[O-])cc6F)c6ccc([nH]6)c(-c6c(F)cc(S(=O)(=O)[O-])cc6F)c6nc(c(-c7c(F)cc(S(=O)(=O)[O-])cc7F)c7ccc4[nH]7)C=C6)C=C5)cc3)CC2)N1
REMARK SMILES IDX 25 1 24 2 23 3 22 4 20 5 21 6 12 8 7 9 8 10 9 11 10 12 97 13
REMARK SMILES IDX 11 14 96 15 6 16 5 17 1 18 2 19 3 20 98 21 4 22 13 24 14 25
REMARK SMILES IDX 15 26 19 27 16 28 18 29 17 30 26 31 27 32 28 33 29 35 30 36
REMARK SMILES IDX 31 37 95 38 32 39 94 40 33 41 34 42 35 43 88 44 36 45 93 46
REMARK SMILES IDX 87 47 89 48 37 49 92 50 86 51 85 52 38 54 72 55 51 56 71 57
REMARK SMILES IDX 52 58 55 59 70 60 90 61 53 62 54 63 69 65 91 66 56 67 39 68
REMARK SMILES IDX 40 69 49 70 41 71 42 72 48 73 50 74 43 75 44 76 45 77 46 78
REMARK SMILES IDX 47 79 73 80 74 81 83 82 75 83 76 84 82 85 84 86 77 87 78 88
REMARK SMILES IDX 79 89 80 90 81 91 57 92 58 93 67 94 59 95 60 96 66 97 68 98
REMARK SMILES IDX 61 99 62 100 63 101 64 102 65 103
REMARK H PARENT 22 7 98 23 27 34 89 53 55 64
REMARK Flexibility Score: inf
ROOT
ATOM      1  C   UNL A   1      33.858  28.935  27.298  1.00  0.00     0.023 C 
ENDROOT
BRANCH   1   2
ATOM      2  C   UNL A   1      32.910  30.114  27.072  1.00  0.00     0.023 C 
BRANCH   2   3
ATOM      3  C   UNL A   1      32.277  30.140  25.686  1.00  0.00     0.116 C 
BRANCH   3   4
ATOM      4  N   UNL A   1      33.238  29.738  24.689  1.00  0.00    -0.353 N 
ATOM      5  C   UNL A   1      33.090  28.915  23.619  1.00  0.00     0.264 C 
ATOM      6  O   UNL A   1      34.090  28.793  22.904  1.00  0.00    -0.270 OA
ATOM      7  H   UNL A   1      34.139  30.117  24.801  1.00  0.00     0.163 HD
BRANCH   5   8
ATOM      8  C   UNL A   1      31.739  28.204  23.310  1.00  0.00     0.190 C 
ATOM      9  C   UNL A   1      31.563  24.236  24.558  1.00  0.00     0.224 C 
ATOM     10  O   UNL A   1      30.538  24.078  25.235  1.00  0.00    -0.275 OA
ATOM     11  N   UNL A   1      32.083  25.504  24.387  1.00  0.00    -0.342 N 
ATOM     12  C   UNL A   1      31.719  26.585  25.299  1.00  0.00     0.124 C 
ATOM     13  C   UNL A   1      32.823  25.941  23.228  1.00  0.00     0.124 C 
ATOM     14  C   UNL A   1      30.989  27.709  24.569  1.00  0.00     0.080 C 
ATOM     15  C   UNL A   1      32.058  26.989  22.428  1.00  0.00     0.080 C 
BRANCH   9  16
ATOM     16  C   UNL A   1      32.335  22.968  24.145  1.00  0.00     0.125 C 
BRANCH  16  17
ATOM     17  C   UNL A   1      32.937  21.889  25.048  1.00  0.00     0.091 C 
ATOM     18  O   UNL A   1      32.291  18.476  25.570  1.00  0.00    -0.275 OA
ATOM     19  C   UNL A   1      32.788  19.562  25.314  1.00  0.00     0.220 C 
ATOM     20  C   UNL A   1      34.209  19.809  24.870  1.00  0.00     0.102 C 
ATOM     21  N   UNL A   1      32.109  20.759  25.342  1.00  0.00    -0.353 N 
ATOM     22  C   UNL A   1      34.284  21.315  24.601  1.00  0.00     0.035 C 
ATOM     23  H   UNL A   1      31.148  20.831  25.544  1.00  0.00     0.163 HD
ENDBRANCH  16  17
ENDBRANCH   9  16
BRANCH   8  24
ATOM     24  O   UNL A   1      31.055  29.244  22.561  1.00  0.00    -0.477 OA
BRANCH  24  25
ATOM     25  C   UNL A   1      29.792  29.585  22.934  1.00  0.00     0.120 A 
ATOM     26  C   UNL A   1      28.763  28.683  22.676  1.00  0.00     0.046 A 
ATOM     27  C   UNL A   1      29.500  30.862  23.406  1.00  0.00     0.046 A 
ATOM     28  C   UNL A   1      27.444  29.033  22.969  1.00  0.00     0.004 A 
ATOM     29  C   UNL A   1      28.186  31.206  23.722  1.00  0.00     0.004 A 
ATOM     30  C   UNL A   1      27.158  30.289  23.507  1.00  0.00     0.000 A 
ENDBRANCH  24  25
ENDBRANCH   8  24
ENDBRANCH   5   8
ENDBRANCH   3   4
ENDBRANCH   2   3
ENDBRANCH   1   2
BRANCH   1  31
ATOM     31  C   UNL A   1      35.261  29.328  27.739  1.00  0.00     0.116 C 
BRANCH  31  32
ATOM     32  N   UNL A   1      35.253  30.202  28.901  1.00  0.00    -0.352 N 
ATOM     33  C   UNL A   1      36.280  30.488  29.765  1.00  0.00     0.251 C 
ATOM     34  H   UNL A   1      34.396  30.648  29.095  1.00  0.00     0.163 HD
ATOM     35  O   UNL A   1      36.064  31.115  30.796  1.00  0.00    -0.269 OA
BRANCH  33  36
ATOM     36  C   UNL A   1      37.636  30.004  29.444  1.00  0.00     0.039 A 
ATOM     37  C   UNL A   1      38.056  30.001  28.115  1.00  0.00     0.014 A 
ATOM     38  C   UNL A   1      38.500  29.598  30.465  1.00  0.00     0.014 A 
ATOM     39  C   UNL A   1      39.370  29.642  27.813  1.00  0.00     0.010 A 
ATOM     40  C   UNL A   1      39.830  29.325  30.171  1.00  0.00     0.010 A 
ATOM     41  C   UNL A   1      40.277  29.334  28.841  1.00  0.00    -0.014 A 
BRANCH  41  42
ATOM     42  C   UNL A   1      41.691  28.992  28.545  1.00  0.00     0.031 A 
ATOM     43  C   UNL A   1      42.053  27.581  28.168  1.00  0.00     0.074 A 
ATOM     44  C   UNL A   1      42.647  29.935  28.662  1.00  0.00     0.049 A 
ATOM     45  N   UNL A   1      43.234  27.064  27.950  1.00  0.00    -0.248 NA
ATOM     46  C   UNL A   1      40.946  26.617  28.045  1.00  0.00     0.031 C 
ATOM     47  C   UNL A   1      42.422  31.328  29.060  1.00  0.00     0.029 A 
ATOM     48  N   UNL A   1      44.003  29.865  28.465  1.00  0.00    -0.354 N 
ATOM     49  C   UNL A   1      43.013  25.721  27.667  1.00  0.00     0.074 A 
ATOM     50  C   UNL A   1      41.593  25.486  27.808  1.00  0.00     0.031 C 
ATOM     51  C   UNL A   1      43.595  31.982  29.057  1.00  0.00     0.029 A 
ATOM     52  C   UNL A   1      44.660  31.051  28.700  1.00  0.00     0.049 A 
ATOM     53  H   UNL A   1      44.464  29.042  28.183  1.00  0.00     0.167 HD
ATOM     54  C   UNL A   1      43.906  24.777  27.291  1.00  0.00     0.037 A 
ATOM     55  C   UNL A   1      45.973  31.348  28.645  1.00  0.00     0.037 A 
ATOM     56  C   UNL A   1      45.314  25.023  27.128  1.00  0.00     0.049 A 
ATOM     57  C   UNL A   1      46.949  30.269  28.250  1.00  0.00     0.074 A 
ATOM     58  C   UNL A   1      46.299  24.140  26.722  1.00  0.00     0.029 A 
ATOM     59  N   UNL A   1      45.938  26.241  27.356  1.00  0.00    -0.354 N 
ATOM     60  N   UNL A   1      46.713  29.016  27.939  1.00  0.00    -0.248 NA
ATOM     61  C   UNL A   1      48.369  30.644  28.191  1.00  0.00     0.031 C 
ATOM     62  C   UNL A   1      47.525  24.812  26.746  1.00  0.00     0.029 A 
ATOM     63  C   UNL A   1      47.296  26.129  27.110  1.00  0.00     0.049 A 
ATOM     64  H   UNL A   1      45.482  27.062  27.649  1.00  0.00     0.167 HD
ATOM     65  C   UNL A   1      47.949  28.469  27.607  1.00  0.00     0.074 A 
ATOM     66  C   UNL A   1      48.925  29.528  27.743  1.00  0.00     0.031 C 
ATOM     67  C   UNL A   1      48.249  27.203  27.222  1.00  0.00     0.037 A 
BRANCH  54  68
ATOM     68  C   UNL A   1      43.390  23.394  26.999  1.00  0.00     0.058 A 
ATOM     69  C   UNL A   1      43.207  22.945  25.681  1.00  0.00     0.135 A 
ATOM     70  C   UNL A   1      43.145  22.485  28.040  1.00  0.00     0.135 A 
ATOM     71  F   UNL A   1      43.405  23.779  24.648  1.00  0.00    -0.206 F 
ATOM     72  C   UNL A   1      42.792  21.647  25.405  1.00  0.00     0.059 A 
ATOM     73  C   UNL A   1      42.758  21.172  27.787  1.00  0.00     0.059 A 
ATOM     74  F   UNL A   1      43.298  22.864  29.319  1.00  0.00    -0.206 F 
ATOM     75  C   UNL A   1      42.580  20.764  26.465  1.00  0.00     0.060 A 
BRANCH  75  76
ATOM     76  S   UNL A   1      42.090  19.070  26.084  1.00  0.00     0.124 S 
ATOM     77  O   UNL A   1      42.476  18.372  27.306  1.00  0.00    -0.237 OA
ATOM     78  O   UNL A   1      40.655  19.206  25.858  1.00  0.00    -0.237 OA
ATOM     79  O   UNL A   1      42.881  18.744  24.900  1.00  0.00    -0.744 OA
ENDBRANCH  75  76
ENDBRANCH  54  68
BRANCH  55  80
ATOM     80  C   UNL A   1      46.455  32.720  28.969  1.00  0.00     0.058 A 
ATOM     81  C   UNL A   1      46.613  33.689  27.966  1.00  0.00     0.135 A 
ATOM     82  C   UNL A   1      46.812  33.077  30.279  1.00  0.00     0.135 A 
ATOM     83  F   UNL A   1      46.288  33.398  26.697  1.00  0.00    -0.206 F 
ATOM     84  C   UNL A   1      47.151  34.943  28.238  1.00  0.00     0.059 A 
ATOM     85  C   UNL A   1      47.320  34.337  30.583  1.00  0.00     0.059 A 
ATOM     86  F   UNL A   1      46.661  32.197  31.282  1.00  0.00    -0.206 F 
ATOM     87  C   UNL A   1      47.507  35.254  29.551  1.00  0.00     0.060 A 
BRANCH  87  88
ATOM     88  S   UNL A   1      48.215  36.880  29.895  1.00  0.00     0.124 S 
ATOM     89  O   UNL A   1      47.101  37.549  30.557  1.00  0.00    -0.237 OA
ATOM     90  O   UNL A   1      49.356  36.546  30.740  1.00  0.00    -0.237 OA
ATOM     91  O   UNL A   1      48.553  37.384  28.566  1.00  0.00    -0.744 OA
ENDBRANCH  87  88
ENDBRANCH  55  80
BRANCH  67  92
ATOM     92  C   UNL A   1      49.679  26.906  26.861  1.00  0.00     0.058 A 
ATOM     93  C   UNL A   1      50.172  27.097  25.561  1.00  0.00     0.135 A 
ATOM     94  C   UNL A   1      50.580  26.475  27.847  1.00  0.00     0.135 A 
ATOM     95  F   UNL A   1      49.351  27.503  24.579  1.00  0.00    -0.206 F 
ATOM     96  C   UNL A   1      51.503  26.845  25.247  1.00  0.00     0.059 A 
ATOM     97  C   UNL A   1      51.923  26.250  27.563  1.00  0.00     0.059 A 
ATOM     98  F   UNL A   1      50.163  26.288  29.110  1.00  0.00    -0.206 F 
ATOM     99  C   UNL A   1      52.372  26.425  26.255  1.00  0.00     0.060 A 
BRANCH  99 100
ATOM    100  S   UNL A   1      54.104  26.135  25.839  1.00  0.00     0.124 S 
ATOM    101  O   UNL A   1      54.638  27.492  25.838  1.00  0.00    -0.237 OA
ATOM    102  O   UNL A   1      54.548  25.279  26.936  1.00  0.00    -0.237 OA
ATOM    103  O   UNL A   1      54.037  25.485  24.534  1.00  0.00    -0.744 OA
ENDBRANCH  99 100
ENDBRANCH  67  92
ENDBRANCH  41  42
ENDBRANCH  33  36
ENDBRANCH  31  32
ENDBRANCH   1  31
TORSDOF 18
ENDMDL
