MODEL 1
REMARK VINA RESULT:     -10.7      0.000      0.000
REMARK SMILES CCN1CC(=O)N(C[C@@H]([NH3+])C(=O)NCCCCNC(=O)c2ccc(-c3c4nc(c(-c5c(F)cc(S(=O)(=O)[O-])cc5F)c5ccc([nH]5)c(-c5c(F)cc(S(=O)(=O)[O-])cc5F)c5nc(c(-c6c(F)cc(S(=O)(=O)[O-])cc6F)c6ccc3[nH]6)C=C5)C=C4)cc2)CC1=O
REMARK SMILES IDX 15 1 14 2 13 3 11 4 12 5 9 7 8 8 7 9 3 10 4 11 88 12 5 13
REMARK SMILES IDX 87 14 89 15 6 16 2 17 1 18 10 19 16 23 17 24 18 25 19 26
REMARK SMILES IDX 20 28 21 29 22 30 86 31 23 32 85 33 24 34 25 35 26 36 79 37
REMARK SMILES IDX 27 38 84 39 78 40 80 41 28 42 83 43 77 44 76 45 29 47 63 48
REMARK SMILES IDX 42 49 62 50 43 51 46 52 61 53 81 54 44 55 45 56 60 58 82 59
REMARK SMILES IDX 47 60 30 61 31 62 40 63 32 64 33 65 39 66 41 67 34 68 35 69
REMARK SMILES IDX 36 70 37 71 38 72 64 73 65 74 74 75 66 76 67 77 73 78 75 79
REMARK SMILES IDX 68 80 69 81 70 82 71 83 72 84 48 85 49 86 58 87 50 88 51 89
REMARK SMILES IDX 57 90 59 91 52 92 53 93 54 94 55 95 56 96
REMARK H PARENT 13 6 10 20 10 21 10 22 18 27 80 46 46 57
REMARK Flexibility Score: inf
ROOT
ATOM      1  C   UNL A   1      40.089  21.703  26.128  1.00  0.00     0.023 C 
ENDROOT
BRANCH   1   2
ATOM      2  C   UNL A   1      38.658  22.219  25.964  1.00  0.00     0.116 C 
BRANCH   2   3
ATOM      3  N   UNL A   1      37.765  21.154  25.544  1.00  0.00    -0.351 N 
ATOM      4  C   UNL A   1      36.425  21.181  25.286  1.00  0.00     0.280 C 
ATOM      5  O   UNL A   1      35.883  20.131  24.929  1.00  0.00    -0.268 OA
ATOM      6  H   UNL A   1      38.193  20.275  25.425  1.00  0.00     0.163 HD
BRANCH   4   7
ATOM      7  C   UNL A   1      35.615  22.492  25.367  1.00  0.00     0.290 C 
BRANCH   7   8
ATOM      8  C   UNL A   1      34.237  22.323  24.689  1.00  0.00     0.195 C 
BRANCH   8   9
ATOM      9  N   UNL A   1      33.490  23.548  24.399  1.00  0.00    -0.325 N 
ATOM     10  N   UNL A   1      33.131  26.250  23.972  1.00  0.00    -0.332 N 
ATOM     11  C   UNL A   1      32.303  25.611  24.996  1.00  0.00     0.219 C 
ATOM     12  C   UNL A   1      33.515  25.514  22.856  1.00  0.00     0.242 C 
ATOM     13  C   UNL A   1      32.863  24.250  25.418  1.00  0.00     0.242 C 
ATOM     14  C   UNL A   1      33.359  24.005  23.013  1.00  0.00     0.220 C 
ATOM     15  O   UNL A   1      33.840  26.028  21.788  1.00  0.00    -0.273 OA
ATOM     16  O   UNL A   1      32.670  23.789  26.540  1.00  0.00    -0.273 OA
BRANCH  10  17
ATOM     17  C   UNL A   1      33.258  27.700  23.951  1.00  0.00     0.116 C 
ATOM     18  C   UNL A   1      33.263  28.278  25.360  1.00  0.00     0.027 C 
ENDBRANCH  10  17
ENDBRANCH   8   9
ENDBRANCH   7   8
BRANCH   7  19
ATOM     19  N   UNL A   1      35.607  22.964  26.778  1.00  0.00    -0.346 N 
ATOM     20  H   UNL A   1      36.566  23.127  27.087  1.00  0.00     0.345 HD
ATOM     21  H   UNL A   1      35.176  22.256  27.371  1.00  0.00     0.345 HD
ATOM     22  H   UNL A   1      35.076  23.832  26.844  1.00  0.00     0.345 HD
ENDBRANCH   7  19
ENDBRANCH   4   7
ENDBRANCH   2   3
ENDBRANCH   1   2
BRANCH   1  23
ATOM     23  C   UNL A   1      40.750  22.083  27.456  1.00  0.00     0.023 C 
BRANCH  23  24
ATOM     24  C   UNL A   1      41.855  23.128  27.350  1.00  0.00     0.116 C 
BRANCH  24  25
ATOM     25  N   UNL A   1      41.701  23.997  26.194  1.00  0.00    -0.352 N 
ATOM     26  C   UNL A   1      41.371  25.330  26.153  1.00  0.00     0.251 C 
ATOM     27  H   UNL A   1      41.853  23.572  25.320  1.00  0.00     0.163 HD
ATOM     28  O   UNL A   1      41.142  25.869  25.073  1.00  0.00    -0.269 OA
BRANCH  26  29
ATOM     29  C   UNL A   1      41.262  26.102  27.409  1.00  0.00     0.039 A 
ATOM     30  C   UNL A   1      42.258  27.030  27.714  1.00  0.00     0.014 A 
ATOM     31  C   UNL A   1      40.176  25.927  28.273  1.00  0.00     0.014 A 
ATOM     32  C   UNL A   1      42.130  27.832  28.850  1.00  0.00     0.010 A 
ATOM     33  C   UNL A   1      40.011  26.780  29.362  1.00  0.00     0.010 A 
ATOM     34  C   UNL A   1      40.984  27.745  29.660  1.00  0.00    -0.014 A 
BRANCH  34  35
ATOM     35  C   UNL A   1      40.786  28.682  30.796  1.00  0.00     0.031 A 
ATOM     36  C   UNL A   1      41.622  28.570  32.042  1.00  0.00     0.074 A 
ATOM     37  C   UNL A   1      39.814  29.613  30.715  1.00  0.00     0.049 A 
ATOM     38  N   UNL A   1      41.586  29.303  33.126  1.00  0.00    -0.248 NA
ATOM     39  C   UNL A   1      42.610  27.481  32.088  1.00  0.00     0.031 C 
ATOM     40  C   UNL A   1      38.895  29.779  29.587  1.00  0.00     0.029 A 
ATOM     41  N   UNL A   1      39.435  30.595  31.596  1.00  0.00    -0.354 N 
ATOM     42  C   UNL A   1      42.540  28.764  33.981  1.00  0.00     0.074 A 
ATOM     43  C   UNL A   1      43.097  27.607  33.314  1.00  0.00     0.031 C 
ATOM     44  C   UNL A   1      38.084  30.822  29.827  1.00  0.00     0.029 A 
ATOM     45  C   UNL A   1      38.397  31.375  31.140  1.00  0.00     0.049 A 
ATOM     46  H   UNL A   1      39.865  30.729  32.471  1.00  0.00     0.167 HD
ATOM     47  C   UNL A   1      42.934  29.208  35.199  1.00  0.00     0.037 A 
ATOM     48  C   UNL A   1      37.767  32.418  31.714  1.00  0.00     0.037 A 
ATOM     49  C   UNL A   1      42.382  30.369  35.851  1.00  0.00     0.049 A 
ATOM     50  C   UNL A   1      38.224  32.893  33.067  1.00  0.00     0.074 A 
ATOM     51  C   UNL A   1      42.753  30.934  37.060  1.00  0.00     0.029 A 
ATOM     52  N   UNL A   1      41.337  31.137  35.358  1.00  0.00    -0.354 N 
ATOM     53  N   UNL A   1      39.183  32.417  33.827  1.00  0.00    -0.248 NA
ATOM     54  C   UNL A   1      37.521  34.049  33.635  1.00  0.00     0.031 C 
ATOM     55  C   UNL A   1      41.899  32.012  37.321  1.00  0.00     0.029 A 
ATOM     56  C   UNL A   1      41.033  32.155  36.249  1.00  0.00     0.049 A 
ATOM     57  H   UNL A   1      40.880  30.983  34.500  1.00  0.00     0.167 HD
ATOM     58  C   UNL A   1      39.211  33.233  34.954  1.00  0.00     0.074 A 
ATOM     59  C   UNL A   1      38.192  34.244  34.762  1.00  0.00     0.031 C 
ATOM     60  C   UNL A   1      40.007  33.150  36.050  1.00  0.00     0.037 A 
BRANCH  47  61
ATOM     61  C   UNL A   1      44.018  28.438  35.908  1.00  0.00     0.058 A 
ATOM     62  C   UNL A   1      45.378  28.726  35.710  1.00  0.00     0.135 A 
ATOM     63  C   UNL A   1      43.692  27.430  36.830  1.00  0.00     0.135 A 
ATOM     64  F   UNL A   1      45.750  29.670  34.830  1.00  0.00    -0.206 F 
ATOM     65  C   UNL A   1      46.377  28.024  36.378  1.00  0.00     0.059 A 
ATOM     66  C   UNL A   1      44.673  26.736  37.534  1.00  0.00     0.059 A 
ATOM     67  F   UNL A   1      42.408  27.112  37.060  1.00  0.00    -0.206 F 
ATOM     68  C   UNL A   1      46.014  27.031  37.290  1.00  0.00     0.060 A 
BRANCH  68  69
ATOM     69  S   UNL A   1      47.323  26.140  38.158  1.00  0.00     0.124 S 
ATOM     70  O   UNL A   1      46.895  24.755  37.986  1.00  0.00    -0.237 OA
ATOM     71  O   UNL A   1      48.514  26.532  37.411  1.00  0.00    -0.237 OA
ATOM     72  O   UNL A   1      47.241  26.656  39.521  1.00  0.00    -0.744 OA
ENDBRANCH  68  69
ENDBRANCH  47  61
BRANCH  48  73
ATOM     73  C   UNL A   1      36.652  33.098  31.002  1.00  0.00     0.058 A 
ATOM     74  C   UNL A   1      36.897  33.935  29.904  1.00  0.00     0.135 A 
ATOM     75  C   UNL A   1      35.317  32.917  31.399  1.00  0.00     0.135 A 
ATOM     76  F   UNL A   1      38.155  34.145  29.489  1.00  0.00    -0.206 F 
ATOM     77  C   UNL A   1      35.863  34.585  29.236  1.00  0.00     0.059 A 
ATOM     78  C   UNL A   1      34.264  33.531  30.729  1.00  0.00     0.059 A 
ATOM     79  F   UNL A   1      35.026  32.112  32.433  1.00  0.00    -0.206 F 
ATOM     80  C   UNL A   1      34.549  34.373  29.655  1.00  0.00     0.060 A 
BRANCH  80  81
ATOM     81  S   UNL A   1      33.211  35.184  28.752  1.00  0.00     0.124 S 
ATOM     82  O   UNL A   1      32.643  34.068  28.005  1.00  0.00    -0.237 OA
ATOM     83  O   UNL A   1      32.388  35.712  29.835  1.00  0.00    -0.237 OA
ATOM     84  O   UNL A   1      33.907  36.190  27.954  1.00  0.00    -0.744 OA
ENDBRANCH  80  81
ENDBRANCH  48  73
BRANCH  60  85
ATOM     85  C   UNL A   1      39.817  34.197  37.115  1.00  0.00     0.058 A 
ATOM     86  C   UNL A   1      40.467  35.440  37.054  1.00  0.00     0.135 A 
ATOM     87  C   UNL A   1      38.966  33.957  38.207  1.00  0.00     0.135 A 
ATOM     88  F   UNL A   1      41.294  35.721  36.035  1.00  0.00    -0.206 F 
ATOM     89  C   UNL A   1      40.317  36.389  38.061  1.00  0.00     0.059 A 
ATOM     90  C   UNL A   1      38.774  34.905  39.208  1.00  0.00     0.059 A 
ATOM     91  F   UNL A   1      38.308  32.791  38.309  1.00  0.00    -0.206 F 
ATOM     92  C   UNL A   1      39.472  36.110  39.136  1.00  0.00     0.060 A 
BRANCH  92  93
ATOM     93  S   UNL A   1      39.292  37.347  40.439  1.00  0.00     0.124 S 
ATOM     94  O   UNL A   1      38.773  36.541  41.538  1.00  0.00    -0.237 OA
ATOM     95  O   UNL A   1      40.659  37.833  40.599  1.00  0.00    -0.237 OA
ATOM     96  O   UNL A   1      38.354  38.308  39.867  1.00  0.00    -0.744 OA
ENDBRANCH  92  93
ENDBRANCH  60  85
ENDBRANCH  34  35
ENDBRANCH  26  29
ENDBRANCH  24  25
ENDBRANCH  23  24
ENDBRANCH   1  23
TORSDOF 18
ENDMDL
MODEL 2
REMARK VINA RESULT:     -10.7      6.331      8.734
REMARK SMILES CCN1CC(=O)N(C[C@@H]([NH3+])C(=O)NCCCCNC(=O)c2ccc(-c3c4nc(c(-c5c(F)cc(S(=O)(=O)[O-])cc5F)c5ccc([nH]5)c(-c5c(F)cc(S(=O)(=O)[O-])cc5F)c5nc(c(-c6c(F)cc(S(=O)(=O)[O-])cc6F)c6ccc3[nH]6)C=C5)C=C4)cc2)CC1=O
REMARK SMILES IDX 15 1 14 2 13 3 11 4 12 5 9 7 8 8 7 9 3 10 4 11 88 12 5 13
REMARK SMILES IDX 87 14 89 15 6 16 2 17 1 18 10 19 16 23 17 24 18 25 19 26
REMARK SMILES IDX 20 28 21 29 22 30 86 31 23 32 85 33 24 34 25 35 26 36 79 37
REMARK SMILES IDX 27 38 84 39 78 40 80 41 28 42 83 43 77 44 76 45 29 47 63 48
REMARK SMILES IDX 42 49 62 50 43 51 46 52 61 53 81 54 44 55 45 56 60 58 82 59
REMARK SMILES IDX 47 60 30 61 31 62 40 63 32 64 33 65 39 66 41 67 34 68 35 69
REMARK SMILES IDX 36 70 37 71 38 72 64 73 65 74 74 75 66 76 67 77 73 78 75 79
REMARK SMILES IDX 68 80 69 81 70 82 71 83 72 84 48 85 49 86 58 87 50 88 51 89
REMARK SMILES IDX 57 90 59 91 52 92 53 93 54 94 55 95 56 96
REMARK H PARENT 13 6 10 20 10 21 10 22 18 27 80 46 46 57
REMARK Flexibility Score: inf
ROOT
ATOM      1  C   UNL A   1      37.173  21.338  24.773  1.00  0.00     0.023 C 
ENDROOT
BRANCH   1   2
ATOM      2  C   UNL A   1      36.024  21.478  25.774  1.00  0.00     0.116 C 
BRANCH   2   3
ATOM      3  N   UNL A   1      35.034  20.434  25.580  1.00  0.00    -0.351 N 
ATOM      4  C   UNL A   1      33.681  20.524  25.418  1.00  0.00     0.280 C 
ATOM      5  O   UNL A   1      33.046  19.478  25.258  1.00  0.00    -0.268 OA
ATOM      6  H   UNL A   1      35.393  19.517  25.561  1.00  0.00     0.163 HD
BRANCH   4   7
ATOM      7  C   UNL A   1      32.966  21.891  25.362  1.00  0.00     0.290 C 
BRANCH   7   8
ATOM      8  C   UNL A   1      33.019  22.475  23.933  1.00  0.00     0.195 C 
BRANCH   8   9
ATOM      9  N   UNL A   1      33.377  23.889  23.812  1.00  0.00    -0.325 N 
ATOM     10  N   UNL A   1      32.958  26.617  23.852  1.00  0.00    -0.332 N 
ATOM     11  C   UNL A   1      33.541  26.039  22.640  1.00  0.00     0.219 C 
ATOM     12  C   UNL A   1      33.246  26.038  25.083  1.00  0.00     0.242 C 
ATOM     13  C   UNL A   1      33.347  24.522  22.578  1.00  0.00     0.242 C 
ATOM     14  C   UNL A   1      33.822  24.628  24.997  1.00  0.00     0.220 C 
ATOM     15  O   UNL A   1      33.163  26.643  26.150  1.00  0.00    -0.273 OA
ATOM     16  O   UNL A   1      33.279  23.920  21.509  1.00  0.00    -0.273 OA
BRANCH  10  17
ATOM     17  C   UNL A   1      32.380  27.952  23.807  1.00  0.00     0.116 C 
ATOM     18  C   UNL A   1      33.316  28.940  23.125  1.00  0.00     0.027 C 
ENDBRANCH  10  17
ENDBRANCH   8   9
ENDBRANCH   7   8
BRANCH   7  19
ATOM     19  N   UNL A   1      31.616  21.750  25.972  1.00  0.00    -0.346 N 
ATOM     20  H   UNL A   1      31.275  22.668  26.258  1.00  0.00     0.345 HD
ATOM     21  H   UNL A   1      31.674  21.140  26.788  1.00  0.00     0.345 HD
ATOM     22  H   UNL A   1      30.975  21.345  25.290  1.00  0.00     0.345 HD
ENDBRANCH   7  19
ENDBRANCH   4   7
ENDBRANCH   2   3
ENDBRANCH   1   2
BRANCH   1  23
ATOM     23  C   UNL A   1      38.128  20.178  25.065  1.00  0.00     0.023 C 
BRANCH  23  24
ATOM     24  C   UNL A   1      39.365  20.550  25.875  1.00  0.00     0.116 C 
BRANCH  24  25
ATOM     25  N   UNL A   1      40.298  19.443  26.020  1.00  0.00    -0.352 N 
ATOM     26  C   UNL A   1      41.655  19.478  26.226  1.00  0.00     0.251 C 
ATOM     27  H   UNL A   1      39.902  18.544  25.962  1.00  0.00     0.163 HD
ATOM     28  O   UNL A   1      42.307  18.437  26.178  1.00  0.00    -0.269 OA
BRANCH  26  29
ATOM     29  C   UNL A   1      42.331  20.770  26.472  1.00  0.00     0.039 A 
ATOM     30  C   UNL A   1      42.677  21.564  25.377  1.00  0.00     0.014 A 
ATOM     31  C   UNL A   1      42.606  21.206  27.771  1.00  0.00     0.014 A 
ATOM     32  C   UNL A   1      43.235  22.825  25.589  1.00  0.00     0.010 A 
ATOM     33  C   UNL A   1      43.091  22.496  27.983  1.00  0.00     0.010 A 
ATOM     34  C   UNL A   1      43.407  23.321  26.893  1.00  0.00    -0.014 A 
BRANCH  34  35
ATOM     35  C   UNL A   1      43.883  24.710  27.121  1.00  0.00     0.031 A 
ATOM     36  C   UNL A   1      45.332  25.068  26.933  1.00  0.00     0.074 A 
ATOM     37  C   UNL A   1      43.005  25.643  27.541  1.00  0.00     0.049 A 
ATOM     38  N   UNL A   1      45.920  26.228  27.084  1.00  0.00    -0.248 NA
ATOM     39  C   UNL A   1      46.245  23.980  26.549  1.00  0.00     0.031 C 
ATOM     40  C   UNL A   1      41.587  25.403  27.821  1.00  0.00     0.029 A 
ATOM     41  N   UNL A   1      43.172  26.980  27.806  1.00  0.00    -0.354 N 
ATOM     42  C   UNL A   1      47.266  26.010  26.818  1.00  0.00     0.074 A 
ATOM     43  C   UNL A   1      47.419  24.595  26.553  1.00  0.00     0.031 C 
ATOM     44  C   UNL A   1      41.007  26.559  28.183  1.00  0.00     0.029 A 
ATOM     45  C   UNL A   1      42.016  27.613  28.199  1.00  0.00     0.049 A 
ATOM     46  H   UNL A   1      44.036  27.441  27.722  1.00  0.00     0.167 HD
ATOM     47  C   UNL A   1      48.278  26.910  26.772  1.00  0.00     0.037 A 
ATOM     48  C   UNL A   1      41.791  28.898  28.535  1.00  0.00     0.037 A 
ATOM     49  C   UNL A   1      48.115  28.319  27.026  1.00  0.00     0.049 A 
ATOM     50  C   UNL A   1      42.930  29.878  28.475  1.00  0.00     0.074 A 
ATOM     51  C   UNL A   1      49.066  29.323  26.949  1.00  0.00     0.029 A 
ATOM     52  N   UNL A   1      46.929  28.926  27.415  1.00  0.00    -0.354 N 
ATOM     53  N   UNL A   1      44.183  29.667  28.144  1.00  0.00    -0.248 NA
ATOM     54  C   UNL A   1      42.626  31.271  28.825  1.00  0.00     0.031 C 
ATOM     55  C   UNL A   1      48.469  30.526  27.341  1.00  0.00     0.029 A 
ATOM     56  C   UNL A   1      47.130  30.284  27.607  1.00  0.00     0.049 A 
ATOM     57  H   UNL A   1      46.071  28.460  27.536  1.00  0.00     0.167 HD
ATOM     58  C   UNL A   1      44.810  30.907  28.225  1.00  0.00     0.074 A 
ATOM     59  C   UNL A   1      43.792  31.862  28.611  1.00  0.00     0.031 C 
ATOM     60  C   UNL A   1      46.110  31.225  28.003  1.00  0.00     0.037 A 
BRANCH  47  61
ATOM     61  C   UNL A   1      49.654  26.399  26.432  1.00  0.00     0.058 A 
ATOM     62  C   UNL A   1      50.492  25.832  27.406  1.00  0.00     0.135 A 
ATOM     63  C   UNL A   1      50.124  26.436  25.109  1.00  0.00     0.135 A 
ATOM     64  F   UNL A   1      50.102  25.782  28.690  1.00  0.00    -0.206 F 
ATOM     65  C   UNL A   1      51.757  25.346  27.086  1.00  0.00     0.059 A 
ATOM     66  C   UNL A   1      51.372  25.928  24.760  1.00  0.00     0.059 A 
ATOM     67  F   UNL A   1      49.366  26.968  24.137  1.00  0.00    -0.206 F 
ATOM     68  C   UNL A   1      52.188  25.397  25.759  1.00  0.00     0.060 A 
BRANCH  68  69
ATOM     69  S   UNL A   1      53.825  24.751  25.361  1.00  0.00     0.124 S 
ATOM     70  O   UNL A   1      53.515  23.367  25.012  1.00  0.00    -0.237 OA
ATOM     71  O   UNL A   1      54.237  25.606  24.252  1.00  0.00    -0.237 OA
ATOM     72  O   UNL A   1      54.574  24.931  26.601  1.00  0.00    -0.744 OA
ENDBRANCH  68  69
ENDBRANCH  47  61
BRANCH  48  73
ATOM     73  C   UNL A   1      40.426  29.335  28.935  1.00  0.00     0.058 A 
ATOM     74  C   UNL A   1      40.099  29.547  30.283  1.00  0.00     0.135 A 
ATOM     75  C   UNL A   1      39.424  29.559  27.978  1.00  0.00     0.135 A 
ATOM     76  F   UNL A   1      41.020  29.341  31.236  1.00  0.00    -0.206 F 
ATOM     77  C   UNL A   1      38.823  29.946  30.670  1.00  0.00     0.059 A 
ATOM     78  C   UNL A   1      38.150  29.987  28.337  1.00  0.00     0.059 A 
ATOM     79  F   UNL A   1      39.690  29.388  26.673  1.00  0.00    -0.206 F 
ATOM     80  C   UNL A   1      37.856  30.167  29.688  1.00  0.00     0.060 A 
BRANCH  80  81
ATOM     81  S   UNL A   1      36.218  30.729  30.198  1.00  0.00     0.124 S 
ATOM     82  O   UNL A   1      35.906  29.792  31.270  1.00  0.00    -0.237 OA
ATOM     83  O   UNL A   1      36.481  32.105  30.608  1.00  0.00    -0.237 OA
ATOM     84  O   UNL A   1      35.421  30.587  28.982  1.00  0.00    -0.744 OA
ENDBRANCH  80  81
ENDBRANCH  48  73
BRANCH  60  85
ATOM     85  C   UNL A   1      46.497  32.671  28.153  1.00  0.00     0.058 A 
ATOM     86  C   UNL A   1      46.946  33.193  29.377  1.00  0.00     0.135 A 
ATOM     87  C   UNL A   1      46.426  33.546  27.056  1.00  0.00     0.135 A 
ATOM     88  F   UNL A   1      47.030  32.403  30.459  1.00  0.00    -0.206 F 
ATOM     89  C   UNL A   1      47.265  34.540  29.521  1.00  0.00     0.059 A 
ATOM     90  C   UNL A   1      46.773  34.889  27.168  1.00  0.00     0.059 A 
ATOM     91  F   UNL A   1      46.017  33.098  25.859  1.00  0.00    -0.206 F 
ATOM     92  C   UNL A   1      47.171  35.381  28.410  1.00  0.00     0.060 A 
BRANCH  92  93
ATOM     93  S   UNL A   1      47.582  37.128  28.610  1.00  0.00     0.124 S 
ATOM     94  O   UNL A   1      49.033  37.074  28.745  1.00  0.00    -0.237 OA
ATOM     95  O   UNL A   1      47.080  37.711  27.370  1.00  0.00    -0.237 OA
ATOM     96  O   UNL A   1      46.853  37.512  29.815  1.00  0.00    -0.744 OA
ENDBRANCH  92  93
ENDBRANCH  60  85
ENDBRANCH  34  35
ENDBRANCH  26  29
ENDBRANCH  24  25
ENDBRANCH  23  24
ENDBRANCH   1  23
TORSDOF 18
ENDMDL
MODEL 3
REMARK VINA RESULT:     -10.7      3.615      9.613
REMARK SMILES CCN1CC(=O)N(C[C@@H]([NH3+])C(=O)NCCCCNC(=O)c2ccc(-c3c4nc(c(-c5c(F)cc(S(=O)(=O)[O-])cc5F)c5ccc([nH]5)c(-c5c(F)cc(S(=O)(=O)[O-])cc5F)c5nc(c(-c6c(F)cc(S(=O)(=O)[O-])cc6F)c6ccc3[nH]6)C=C5)C=C4)cc2)CC1=O
REMARK SMILES IDX 15 1 14 2 13 3 11 4 12 5 9 7 8 8 7 9 3 10 4 11 88 12 5 13
REMARK SMILES IDX 87 14 89 15 6 16 2 17 1 18 10 19 16 23 17 24 18 25 19 26
REMARK SMILES IDX 20 28 21 29 22 30 86 31 23 32 85 33 24 34 25 35 26 36 79 37
REMARK SMILES IDX 27 38 84 39 78 40 80 41 28 42 83 43 77 44 76 45 29 47 63 48
REMARK SMILES IDX 42 49 62 50 43 51 46 52 61 53 81 54 44 55 45 56 60 58 82 59
REMARK SMILES IDX 47 60 30 61 31 62 40 63 32 64 33 65 39 66 41 67 34 68 35 69
REMARK SMILES IDX 36 70 37 71 38 72 64 73 65 74 74 75 66 76 67 77 73 78 75 79
REMARK SMILES IDX 68 80 69 81 70 82 71 83 72 84 48 85 49 86 58 87 50 88 51 89
REMARK SMILES IDX 57 90 59 91 52 92 53 93 54 94 55 95 56 96
REMARK H PARENT 13 6 10 20 10 21 10 22 18 27 80 46 46 57
REMARK Flexibility Score: inf
ROOT
ATOM      1  C   UNL A   1      31.945  27.365  26.529  1.00  0.00     0.023 C 
ENDROOT
BRANCH   1   2
ATOM      2  C   UNL A   1      31.736  25.851  26.477  1.00  0.00     0.116 C 
BRANCH   2   3
ATOM      3  N   UNL A   1      32.549  25.248  25.435  1.00  0.00    -0.351 N 
ATOM      4  C   UNL A   1      32.206  24.837  24.180  1.00  0.00     0.280 C 
ATOM      5  O   UNL A   1      33.091  24.356  23.466  1.00  0.00    -0.268 OA
ATOM      6  H   UNL A   1      33.496  25.116  25.671  1.00  0.00     0.163 HD
BRANCH   4   7
ATOM      7  C   UNL A   1      30.776  25.028  23.632  1.00  0.00     0.290 C 
BRANCH   7   8
ATOM      8  C   UNL A   1      30.727  26.214  22.643  1.00  0.00     0.195 C 
BRANCH   8   9
ATOM      9  N   UNL A   1      30.103  27.448  23.123  1.00  0.00    -0.325 N 
ATOM     10  N   UNL A   1      28.631  29.775  22.941  1.00  0.00    -0.332 N 
ATOM     11  C   UNL A   1      29.985  29.872  23.490  1.00  0.00     0.219 C 
ATOM     12  C   UNL A   1      27.893  28.617  23.160  1.00  0.00     0.242 C 
ATOM     13  C   UNL A   1      30.824  28.633  23.166  1.00  0.00     0.242 C 
ATOM     14  C   UNL A   1      28.723  27.419  23.613  1.00  0.00     0.220 C 
ATOM     15  O   UNL A   1      26.666  28.579  23.114  1.00  0.00    -0.273 OA
ATOM     16  O   UNL A   1      32.046  28.687  23.062  1.00  0.00    -0.273 OA
BRANCH  10  17
ATOM     17  C   UNL A   1      27.953  30.978  22.482  1.00  0.00     0.116 C 
ATOM     18  C   UNL A   1      28.536  32.227  23.129  1.00  0.00     0.027 C 
ENDBRANCH  10  17
ENDBRANCH   8   9
ENDBRANCH   7   8
BRANCH   7  19
ATOM     19  N   UNL A   1      30.279  23.721  23.126  1.00  0.00    -0.346 N 
ATOM     20  H   UNL A   1      30.060  23.802  22.133  1.00  0.00     0.345 HD
ATOM     21  H   UNL A   1      29.437  23.456  23.638  1.00  0.00     0.345 HD
ATOM     22  H   UNL A   1      30.996  23.008  23.259  1.00  0.00     0.345 HD
ENDBRANCH   7  19
ENDBRANCH   4   7
ENDBRANCH   2   3
ENDBRANCH   1   2
BRANCH   1  23
ATOM     23  C   UNL A   1      33.359  27.796  26.924  1.00  0.00     0.023 C 
BRANCH  23  24
ATOM     24  C   UNL A   1      34.019  28.790  25.975  1.00  0.00     0.116 C 
BRANCH  24  25
ATOM     25  N   UNL A   1      33.824  30.173  26.382  1.00  0.00    -0.352 N 
ATOM     26  C   UNL A   1      34.518  30.908  27.311  1.00  0.00     0.251 C 
ATOM     27  H   UNL A   1      33.091  30.650  25.928  1.00  0.00     0.163 HD
ATOM     28  O   UNL A   1      34.117  32.024  27.632  1.00  0.00    -0.269 OA
BRANCH  26  29
ATOM     29  C   UNL A   1      35.727  30.339  27.947  1.00  0.00     0.039 A 
ATOM     30  C   UNL A   1      36.951  30.460  27.288  1.00  0.00     0.014 A 
ATOM     31  C   UNL A   1      35.659  29.706  29.192  1.00  0.00     0.014 A 
ATOM     32  C   UNL A   1      38.116  30.009  27.909  1.00  0.00     0.010 A 
ATOM     33  C   UNL A   1      36.831  29.328  29.843  1.00  0.00     0.010 A 
ATOM     34  C   UNL A   1      38.073  29.479  29.210  1.00  0.00    -0.014 A 
BRANCH  34  35
ATOM     35  C   UNL A   1      39.325  29.114  29.923  1.00  0.00     0.031 A 
ATOM     36  C   UNL A   1      39.743  29.845  31.170  1.00  0.00     0.074 A 
ATOM     37  C   UNL A   1      40.110  28.143  29.413  1.00  0.00     0.049 A 
ATOM     38  N   UNL A   1      40.799  29.657  31.919  1.00  0.00    -0.248 NA
ATOM     39  C   UNL A   1      38.876  30.944  31.622  1.00  0.00     0.031 C 
ATOM     40  C   UNL A   1      39.846  27.406  28.175  1.00  0.00     0.029 A 
ATOM     41  N   UNL A   1      41.288  27.608  29.870  1.00  0.00    -0.354 N 
ATOM     42  C   UNL A   1      40.726  30.612  32.926  1.00  0.00     0.074 A 
ATOM     43  C   UNL A   1      39.553  31.416  32.659  1.00  0.00     0.031 C 
ATOM     44  C   UNL A   1      40.811  26.492  27.990  1.00  0.00     0.029 A 
ATOM     45  C   UNL A   1      41.783  26.602  29.073  1.00  0.00     0.049 A 
ATOM     46  H   UNL A   1      41.736  27.914  30.691  1.00  0.00     0.167 HD
ATOM     47  C   UNL A   1      41.547  30.787  33.990  1.00  0.00     0.037 A 
ATOM     48  C   UNL A   1      42.895  25.852  29.197  1.00  0.00     0.037 A 
ATOM     49  C   UNL A   1      42.707  29.974  34.256  1.00  0.00     0.049 A 
ATOM     50  C   UNL A   1      43.789  26.064  30.388  1.00  0.00     0.074 A 
ATOM     51  C   UNL A   1      43.570  30.033  35.337  1.00  0.00     0.029 A 
ATOM     52  N   UNL A   1      43.174  28.961  33.430  1.00  0.00    -0.354 N 
ATOM     53  N   UNL A   1      43.661  26.922  31.374  1.00  0.00    -0.248 NA
ATOM     54  C   UNL A   1      44.973  25.202  30.490  1.00  0.00     0.031 C 
ATOM     55  C   UNL A   1      44.587  29.092  35.140  1.00  0.00     0.029 A 
ATOM     56  C   UNL A   1      44.327  28.406  33.964  1.00  0.00     0.049 A 
ATOM     57  H   UNL A   1      42.749  28.678  32.589  1.00  0.00     0.167 HD
ATOM     58  C   UNL A   1      44.737  26.686  32.224  1.00  0.00     0.074 A 
ATOM     59  C   UNL A   1      45.489  25.590  31.648  1.00  0.00     0.031 C 
ATOM     60  C   UNL A   1      45.074  27.321  33.375  1.00  0.00     0.037 A 
BRANCH  47  61
ATOM     61  C   UNL A   1      41.219  31.899  34.953  1.00  0.00     0.058 A 
ATOM     62  C   UNL A   1      41.733  33.195  34.785  1.00  0.00     0.135 A 
ATOM     63  C   UNL A   1      40.344  31.678  36.029  1.00  0.00     0.135 A 
ATOM     64  F   UNL A   1      42.584  33.462  33.782  1.00  0.00    -0.206 F 
ATOM     65  C   UNL A   1      41.415  34.225  35.666  1.00  0.00     0.059 A 
ATOM     66  C   UNL A   1      39.987  32.700  36.905  1.00  0.00     0.059 A 
ATOM     67  F   UNL A   1      39.823  30.459  36.238  1.00  0.00    -0.206 F 
ATOM     68  C   UNL A   1      40.539  33.968  36.723  1.00  0.00     0.060 A 
BRANCH  68  69
ATOM     69  S   UNL A   1      40.128  35.318  37.848  1.00  0.00     0.124 S 
ATOM     70  O   UNL A   1      41.287  35.320  38.736  1.00  0.00    -0.237 OA
ATOM     71  O   UNL A   1      40.024  36.457  36.942  1.00  0.00    -0.237 OA
ATOM     72  O   UNL A   1      38.873  34.885  38.456  1.00  0.00    -0.744 OA
ENDBRANCH  68  69
ENDBRANCH  47  61
BRANCH  48  73
ATOM     73  C   UNL A   1      43.212  24.816  28.178  1.00  0.00     0.058 A 
ATOM     74  C   UNL A   1      42.861  23.472  28.376  1.00  0.00     0.135 A 
ATOM     75  C   UNL A   1      43.866  25.149  26.980  1.00  0.00     0.135 A 
ATOM     76  F   UNL A   1      42.240  23.102  29.506  1.00  0.00    -0.206 F 
ATOM     77  C   UNL A   1      43.161  22.492  27.435  1.00  0.00     0.059 A 
ATOM     78  C   UNL A   1      44.151  24.193  26.011  1.00  0.00     0.059 A 
ATOM     79  F   UNL A   1      44.209  26.423  26.734  1.00  0.00    -0.206 F 
ATOM     80  C   UNL A   1      43.804  22.864  26.253  1.00  0.00     0.060 A 
BRANCH  80  81
ATOM     81  S   UNL A   1      44.147  21.593  25.018  1.00  0.00     0.124 S 
ATOM     82  O   UNL A   1      43.964  22.333  23.775  1.00  0.00    -0.237 OA
ATOM     83  O   UNL A   1      45.520  21.216  25.340  1.00  0.00    -0.237 OA
ATOM     84  O   UNL A   1      43.142  20.572  25.299  1.00  0.00    -0.744 OA
ENDBRANCH  80  81
ENDBRANCH  48  73
BRANCH  60  85
ATOM     85  C   UNL A   1      46.299  26.827  34.096  1.00  0.00     0.058 A 
ATOM     86  C   UNL A   1      46.227  25.826  35.078  1.00  0.00     0.135 A 
ATOM     87  C   UNL A   1      47.566  27.358  33.794  1.00  0.00     0.135 A 
ATOM     88  F   UNL A   1      45.043  25.288  35.408  1.00  0.00    -0.206 F 
ATOM     89  C   UNL A   1      47.358  25.402  35.768  1.00  0.00     0.059 A 
ATOM     90  C   UNL A   1      48.715  26.923  34.447  1.00  0.00     0.059 A 
ATOM     91  F   UNL A   1      47.695  28.307  32.854  1.00  0.00    -0.206 F 
ATOM     92  C   UNL A   1      48.597  25.960  35.449  1.00  0.00     0.060 A 
BRANCH  92  93
ATOM     93  S   UNL A   1      50.056  25.405  36.356  1.00  0.00     0.124 S 
ATOM     94  O   UNL A   1      50.672  26.674  36.725  1.00  0.00    -0.237 OA
ATOM     95  O   UNL A   1      49.470  24.640  37.452  1.00  0.00    -0.237 OA
ATOM     96  O   UNL A   1      50.788  24.614  35.370  1.00  0.00    -0.744 OA
ENDBRANCH  92  93
ENDBRANCH  60  85
ENDBRANCH  34  35
ENDBRANCH  26  29
ENDBRANCH  24  25
ENDBRANCH  23  24
ENDBRANCH   1  23
TORSDOF 18
ENDMDL
