MODEL 1
REMARK VINA RESULT:     -11.2      0.000      0.000
REMARK SMILES COc1ccc(C(=O)NNC(=O)CCC(=O)NCCCCNC(=O)c2ccc(-c3c4nc(c(-c5c(F)cc(S(=O)(=O)[O-])cc5F)c5ccc([nH]5)c(-c5c(F)cc(S(=O)(=O)[O-])cc5F)c5nc(c(-c6c(F)cc(S(=O)(=O)[O-])cc6F)c6ccc3[nH]6)C=C5)C=C4)cc2)cc1Br
REMARK SMILES IDX 18 1 17 2 15 3 16 4 14 6 13 7 11 8 10 9 12 11 9 12 7 13 8 14
REMARK SMILES IDX 6 16 3 17 4 18 92 19 5 20 91 21 93 22 2 23 1 24 19 25 20 26
REMARK SMILES IDX 21 27 22 28 23 29 24 31 25 32 26 33 90 34 27 35 89 36 28 37
REMARK SMILES IDX 29 38 30 39 83 40 31 41 88 42 82 43 84 44 32 45 87 46 81 47
REMARK SMILES IDX 80 48 33 50 67 51 46 52 66 53 47 54 50 55 65 56 85 57 48 58
REMARK SMILES IDX 49 59 64 61 86 62 51 63 34 64 35 65 44 66 36 67 37 68 43 69
REMARK SMILES IDX 45 70 38 71 39 72 40 73 41 74 42 75 68 76 69 77 78 78 70 79
REMARK SMILES IDX 71 80 77 81 79 82 72 83 73 84 74 85 75 86 76 87 52 88 53 89
REMARK SMILES IDX 62 90 54 91 55 92 61 93 63 94 56 95 57 96 58 97 59 98 60 99
REMARK H PARENT 17 5 10 10 9 15 22 30 84 49 50 60
REMARK Flexibility Score: inf
ROOT
ATOM      1  C   UNL A   1      32.810  28.978  23.473  1.00  0.00     0.116 C 
ENDROOT
BRANCH   1   2
ATOM      2  N   UNL A   1      31.565  29.709  23.646  1.00  0.00    -0.356 N 
ATOM      3  C   UNL A   1      30.277  29.370  23.375  1.00  0.00     0.220 C 
ATOM      4  O   UNL A   1      29.388  30.196  23.587  1.00  0.00    -0.275 OA
ATOM      5  H   UNL A   1      31.674  30.610  24.029  1.00  0.00     0.163 HD
BRANCH   3   6
ATOM      6  C   UNL A   1      29.936  28.023  22.787  1.00  0.00     0.110 C 
BRANCH   6   7
ATOM      7  C   UNL A   1      30.030  26.947  23.866  1.00  0.00     0.112 C 
BRANCH   7   8
ATOM      8  C   UNL A   1      30.674  25.720  23.269  1.00  0.00     0.238 C 
ATOM      9  N   UNL A   1      30.636  24.524  23.936  1.00  0.00    -0.267 N 
ATOM     10  H   UNL A   1      30.933  23.726  23.443  1.00  0.00     0.191 HD
ATOM     11  O   UNL A   1      31.161  25.760  22.136  1.00  0.00    -0.273 OA
BRANCH   9  12
ATOM     12  N   UNL A   1      30.214  24.340  25.247  1.00  0.00    -0.264 N 
ATOM     13  C   UNL A   1      30.790  23.531  26.212  1.00  0.00     0.269 C 
ATOM     14  O   UNL A   1      30.226  23.427  27.300  1.00  0.00    -0.267 OA
ATOM     15  H   UNL A   1      29.412  24.841  25.521  1.00  0.00     0.191 HD
BRANCH  13  16
ATOM     16  C   UNL A   1      32.014  22.720  25.970  1.00  0.00     0.042 A 
ATOM     17  C   UNL A   1      34.249  21.081  25.349  1.00  0.00     0.133 A 
ATOM     18  C   UNL A   1      32.936  20.585  25.296  1.00  0.00     0.048 A 
ATOM     19  C   UNL A   1      34.432  22.406  25.763  1.00  0.00     0.060 A 
ATOM     20  C   UNL A   1      31.834  21.388  25.590  1.00  0.00     0.018 A 
ATOM     21  C   UNL A   1      33.317  23.199  26.114  1.00  0.00     0.033 A 
ATOM     22  Br  UNL A   1      36.095  23.314  25.913  1.00  0.00    -0.047 Br
BRANCH  17  23
ATOM     23  O   UNL A   1      35.148  20.113  25.013  1.00  0.00    -0.496 OA
ATOM     24  C   UNL A   1      34.734  18.815  24.635  1.00  0.00     0.278 C 
ENDBRANCH  17  23
ENDBRANCH  13  16
ENDBRANCH   9  12
ENDBRANCH   7   8
ENDBRANCH   6   7
ENDBRANCH   3   6
ENDBRANCH   1   2
BRANCH   1  25
ATOM     25  C   UNL A   1      33.643  28.861  24.753  1.00  0.00     0.023 C 
BRANCH  25  26
ATOM     26  C   UNL A   1      33.093  27.891  25.801  1.00  0.00     0.023 C 
BRANCH  26  27
ATOM     27  C   UNL A   1      33.448  28.203  27.249  1.00  0.00     0.116 C 
BRANCH  27  28
ATOM     28  N   UNL A   1      33.426  29.630  27.525  1.00  0.00    -0.352 N 
ATOM     29  C   UNL A   1      34.394  30.482  28.003  1.00  0.00     0.251 C 
ATOM     30  H   UNL A   1      32.564  30.065  27.335  1.00  0.00     0.163 HD
ATOM     31  O   UNL A   1      34.054  31.633  28.285  1.00  0.00    -0.269 OA
BRANCH  29  32
ATOM     32  C   UNL A   1      35.807  30.067  28.221  1.00  0.00     0.039 A 
ATOM     33  C   UNL A   1      36.185  29.674  29.514  1.00  0.00     0.014 A 
ATOM     34  C   UNL A   1      36.780  30.101  27.221  1.00  0.00     0.014 A 
ATOM     35  C   UNL A   1      37.492  29.248  29.783  1.00  0.00     0.010 A 
ATOM     36  C   UNL A   1      38.066  29.621  27.468  1.00  0.00     0.010 A 
ATOM     37  C   UNL A   1      38.436  29.199  28.754  1.00  0.00    -0.014 A 
BRANCH  37  38
ATOM     38  C   UNL A   1      39.850  28.835  29.016  1.00  0.00     0.031 A 
ATOM     39  C   UNL A   1      40.775  29.887  29.563  1.00  0.00     0.074 A 
ATOM     40  C   UNL A   1      40.311  27.607  28.717  1.00  0.00     0.049 A 
ATOM     41  N   UNL A   1      42.062  29.826  29.787  1.00  0.00    -0.248 NA
ATOM     42  C   UNL A   1      40.169  31.190  29.883  1.00  0.00     0.031 C 
ATOM     43  C   UNL A   1      39.511  26.507  28.178  1.00  0.00     0.029 A 
ATOM     44  N   UNL A   1      41.578  27.084  28.807  1.00  0.00    -0.354 N 
ATOM     45  C   UNL A   1      42.419  31.080  30.268  1.00  0.00     0.074 A 
ATOM     46  C   UNL A   1      41.226  31.897  30.251  1.00  0.00     0.031 C 
ATOM     47  C   UNL A   1      40.309  25.445  27.968  1.00  0.00     0.029 A 
ATOM     48  C   UNL A   1      41.677  25.792  28.344  1.00  0.00     0.049 A 
ATOM     49  H   UNL A   1      42.344  27.586  29.167  1.00  0.00     0.167 HD
ATOM     50  C   UNL A   1      43.627  31.505  30.709  1.00  0.00     0.037 A 
ATOM     51  C   UNL A   1      42.753  24.988  28.231  1.00  0.00     0.037 A 
ATOM     52  C   UNL A   1      44.807  30.685  30.726  1.00  0.00     0.049 A 
ATOM     53  C   UNL A   1      44.095  25.493  28.692  1.00  0.00     0.074 A 
ATOM     54  C   UNL A   1      46.075  31.007  31.175  1.00  0.00     0.029 A 
ATOM     55  N   UNL A   1      44.863  29.376  30.267  1.00  0.00    -0.354 N 
ATOM     56  N   UNL A   1      44.408  26.664  29.197  1.00  0.00    -0.248 NA
ATOM     57  C   UNL A   1      45.232  24.567  28.579  1.00  0.00     0.031 C 
ATOM     58  C   UNL A   1      46.906  29.903  30.956  1.00  0.00     0.029 A 
ATOM     59  C   UNL A   1      46.147  28.882  30.407  1.00  0.00     0.049 A 
ATOM     60  H   UNL A   1      44.102  28.875  29.897  1.00  0.00     0.167 HD
ATOM     61  C   UNL A   1      45.765  26.602  29.493  1.00  0.00     0.074 A 
ATOM     62  C   UNL A   1      46.215  25.279  29.113  1.00  0.00     0.031 C 
ATOM     63  C   UNL A   1      46.567  27.552  30.036  1.00  0.00     0.037 A 
BRANCH  50  64
ATOM     64  C   UNL A   1      43.713  32.923  31.199  1.00  0.00     0.058 A 
ATOM     65  C   UNL A   1      44.179  33.957  30.371  1.00  0.00     0.135 A 
ATOM     66  C   UNL A   1      43.350  33.250  32.515  1.00  0.00     0.135 A 
ATOM     67  F   UNL A   1      44.559  33.693  29.111  1.00  0.00    -0.206 F 
ATOM     68  C   UNL A   1      44.323  35.256  30.842  1.00  0.00     0.059 A 
ATOM     69  C   UNL A   1      43.461  34.550  33.000  1.00  0.00     0.059 A 
ATOM     70  F   UNL A   1      42.903  32.300  33.351  1.00  0.00    -0.206 F 
ATOM     71  C   UNL A   1      43.970  35.542  32.161  1.00  0.00     0.060 A 
BRANCH  71  72
ATOM     72  S   UNL A   1      44.195  37.226  32.771  1.00  0.00     0.124 S 
ATOM     73  O   UNL A   1      43.839  38.010  31.592  1.00  0.00    -0.237 OA
ATOM     74  O   UNL A   1      43.250  37.288  33.881  1.00  0.00    -0.237 OA
ATOM     75  O   UNL A   1      45.604  37.266  33.148  1.00  0.00    -0.744 OA
ENDBRANCH  71  72
ENDBRANCH  50  64
BRANCH  51  76
ATOM     76  C   UNL A   1      42.604  23.612  27.684  1.00  0.00     0.058 A 
ATOM     77  C   UNL A   1      42.580  23.387  26.299  1.00  0.00     0.135 A 
ATOM     78  C   UNL A   1      42.481  22.498  28.528  1.00  0.00     0.135 A 
ATOM     79  F   UNL A   1      42.684  24.421  25.450  1.00  0.00    -0.206 F 
ATOM     80  C   UNL A   1      42.425  22.110  25.770  1.00  0.00     0.059 A 
ATOM     81  C   UNL A   1      42.346  21.207  28.022  1.00  0.00     0.059 A 
ATOM     82  F   UNL A   1      42.508  22.658  29.860  1.00  0.00    -0.206 F 
ATOM     83  C   UNL A   1      42.310  21.025  26.640  1.00  0.00     0.060 A 
BRANCH  83  84
ATOM     84  S   UNL A   1      42.152  19.366  25.940  1.00  0.00     0.124 S 
ATOM     85  O   UNL A   1      40.715  19.282  25.706  1.00  0.00    -0.237 OA
ATOM     86  O   UNL A   1      42.989  19.456  24.748  1.00  0.00    -0.237 OA
ATOM     87  O   UNL A   1      42.671  18.505  26.998  1.00  0.00    -0.744 OA
ENDBRANCH  83  84
ENDBRANCH  51  76
BRANCH  63  88
ATOM     88  C   UNL A   1      48.002  27.187  30.290  1.00  0.00     0.058 A 
ATOM     89  C   UNL A   1      49.002  27.418  29.335  1.00  0.00     0.135 A 
ATOM     90  C   UNL A   1      48.389  26.664  31.536  1.00  0.00     0.135 A 
ATOM     91  F   UNL A   1      48.683  27.911  28.127  1.00  0.00    -0.206 F 
ATOM     92  C   UNL A   1      50.338  27.133  29.600  1.00  0.00     0.059 A 
ATOM     93  C   UNL A   1      49.721  26.394  31.830  1.00  0.00     0.059 A 
ATOM     94  F   UNL A   1      47.470  26.435  32.488  1.00  0.00    -0.206 F 
ATOM     95  C   UNL A   1      50.688  26.625  30.853  1.00  0.00     0.060 A 
BRANCH  95  96
ATOM     96  S   UNL A   1      52.430  26.307  31.205  1.00  0.00     0.124 S 
ATOM     97  O   UNL A   1      52.999  26.271  29.862  1.00  0.00    -0.237 OA
ATOM     98  O   UNL A   1      52.800  27.460  32.020  1.00  0.00    -0.237 OA
ATOM     99  O   UNL A   1      52.405  25.030  31.913  1.00  0.00    -0.744 OA
ENDBRANCH  95  96
ENDBRANCH  63  88
ENDBRANCH  37  38
ENDBRANCH  29  32
ENDBRANCH  27  28
ENDBRANCH  26  27
ENDBRANCH  25  26
ENDBRANCH   1  25
TORSDOF 19
ENDMDL
MODEL 2
REMARK VINA RESULT:     -10.9      2.877      8.793
REMARK SMILES COc1ccc(C(=O)NNC(=O)CCC(=O)NCCCCNC(=O)c2ccc(-c3c4nc(c(-c5c(F)cc(S(=O)(=O)[O-])cc5F)c5ccc([nH]5)c(-c5c(F)cc(S(=O)(=O)[O-])cc5F)c5nc(c(-c6c(F)cc(S(=O)(=O)[O-])cc6F)c6ccc3[nH]6)C=C5)C=C4)cc2)cc1Br
REMARK SMILES IDX 18 1 17 2 15 3 16 4 14 6 13 7 11 8 10 9 12 11 9 12 7 13 8 14
REMARK SMILES IDX 6 16 3 17 4 18 92 19 5 20 91 21 93 22 2 23 1 24 19 25 20 26
REMARK SMILES IDX 21 27 22 28 23 29 24 31 25 32 26 33 90 34 27 35 89 36 28 37
REMARK SMILES IDX 29 38 30 39 83 40 31 41 88 42 82 43 84 44 32 45 87 46 81 47
REMARK SMILES IDX 80 48 33 50 67 51 46 52 66 53 47 54 50 55 65 56 85 57 48 58
REMARK SMILES IDX 49 59 64 61 86 62 51 63 34 64 35 65 44 66 36 67 37 68 43 69
REMARK SMILES IDX 45 70 38 71 39 72 40 73 41 74 42 75 68 76 69 77 78 78 70 79
REMARK SMILES IDX 71 80 77 81 79 82 72 83 73 84 74 85 75 86 76 87 52 88 53 89
REMARK SMILES IDX 62 90 54 91 55 92 61 93 63 94 56 95 57 96 58 97 59 98 60 99
REMARK H PARENT 17 5 10 10 9 15 22 30 84 49 50 60
REMARK Flexibility Score: inf
ROOT
ATOM      1  C   UNL A   1      32.428  29.580  26.972  1.00  0.00     0.116 C 
ENDROOT
BRANCH   1   2
ATOM      2  N   UNL A   1      31.723  28.345  27.280  1.00  0.00    -0.356 N 
ATOM      3  C   UNL A   1      31.206  27.380  26.475  1.00  0.00     0.220 C 
ATOM      4  O   UNL A   1      30.616  26.430  26.992  1.00  0.00    -0.275 OA
ATOM      5  H   UNL A   1      31.599  28.178  28.243  1.00  0.00     0.163 HD
BRANCH   3   6
ATOM      6  C   UNL A   1      31.312  27.481  24.974  1.00  0.00     0.110 C 
BRANCH   6   7
ATOM      7  C   UNL A   1      30.126  26.776  24.321  1.00  0.00     0.112 C 
BRANCH   7   8
ATOM      8  C   UNL A   1      30.630  25.555  23.593  1.00  0.00     0.238 C 
ATOM      9  N   UNL A   1      30.499  24.311  24.152  1.00  0.00    -0.267 N 
ATOM     10  H   UNL A   1      30.702  23.537  23.580  1.00  0.00     0.191 HD
ATOM     11  O   UNL A   1      31.082  25.654  22.449  1.00  0.00    -0.273 OA
BRANCH   9  12
ATOM     12  N   UNL A   1      30.102  24.047  25.458  1.00  0.00    -0.264 N 
ATOM     13  C   UNL A   1      30.781  23.307  26.411  1.00  0.00     0.269 C 
ATOM     14  O   UNL A   1      30.233  23.107  27.494  1.00  0.00    -0.267 OA
ATOM     15  H   UNL A   1      29.239  24.429  25.737  1.00  0.00     0.191 HD
BRANCH  13  16
ATOM     16  C   UNL A   1      32.104  22.675  26.160  1.00  0.00     0.042 A 
ATOM     17  C   UNL A   1      34.695  21.549  25.865  1.00  0.00     0.133 A 
ATOM     18  C   UNL A   1      34.510  22.839  26.388  1.00  0.00     0.048 A 
ATOM     19  C   UNL A   1      33.560  20.843  25.446  1.00  0.00     0.060 A 
ATOM     20  C   UNL A   1      33.239  23.393  26.545  1.00  0.00     0.018 A 
ATOM     21  C   UNL A   1      32.281  21.430  25.555  1.00  0.00     0.033 A 
ATOM     22  Br  UNL A   1      33.539  19.089  24.713  1.00  0.00    -0.047 Br
BRANCH  17  23
ATOM     23  O   UNL A   1      36.019  21.229  25.817  1.00  0.00    -0.496 OA
ATOM     24  C   UNL A   1      36.948  22.020  25.103  1.00  0.00     0.278 C 
ENDBRANCH  17  23
ENDBRANCH  13  16
ENDBRANCH   9  12
ENDBRANCH   7   8
ENDBRANCH   6   7
ENDBRANCH   3   6
ENDBRANCH   1   2
BRANCH   1  25
ATOM     25  C   UNL A   1      33.821  29.365  26.374  1.00  0.00     0.023 C 
BRANCH  25  26
ATOM     26  C   UNL A   1      34.942  29.152  27.394  1.00  0.00     0.023 C 
BRANCH  26  27
ATOM     27  C   UNL A   1      35.501  30.411  28.042  1.00  0.00     0.116 C 
BRANCH  27  28
ATOM     28  N   UNL A   1      35.532  30.316  29.492  1.00  0.00    -0.352 N 
ATOM     29  C   UNL A   1      36.536  29.966  30.363  1.00  0.00     0.251 C 
ATOM     30  H   UNL A   1      34.680  30.543  29.930  1.00  0.00     0.163 HD
ATOM     31  O   UNL A   1      36.241  29.824  31.551  1.00  0.00    -0.269 OA
BRANCH  29  32
ATOM     32  C   UNL A   1      37.940  29.723  29.929  1.00  0.00     0.039 A 
ATOM     33  C   UNL A   1      38.230  29.812  28.559  1.00  0.00     0.014 A 
ATOM     34  C   UNL A   1      38.962  29.358  30.806  1.00  0.00     0.014 A 
ATOM     35  C   UNL A   1      39.534  29.620  28.085  1.00  0.00     0.010 A 
ATOM     36  C   UNL A   1      40.274  29.225  30.349  1.00  0.00     0.010 A 
ATOM     37  C   UNL A   1      40.569  29.345  28.983  1.00  0.00    -0.014 A 
BRANCH  37  38
ATOM     38  C   UNL A   1      41.945  29.052  28.512  1.00  0.00     0.031 A 
ATOM     39  C   UNL A   1      42.285  27.643  28.113  1.00  0.00     0.074 A 
ATOM     40  C   UNL A   1      42.887  30.014  28.497  1.00  0.00     0.049 A 
ATOM     41  N   UNL A   1      43.436  27.136  27.757  1.00  0.00    -0.248 NA
ATOM     42  C   UNL A   1      41.179  26.670  28.137  1.00  0.00     0.031 C 
ATOM     43  C   UNL A   1      42.678  31.413  28.867  1.00  0.00     0.029 A 
ATOM     44  N   UNL A   1      44.221  29.950  28.175  1.00  0.00    -0.354 N 
ATOM     45  C   UNL A   1      43.194  25.788  27.520  1.00  0.00     0.074 A 
ATOM     46  C   UNL A   1      41.802  25.545  27.826  1.00  0.00     0.031 C 
ATOM     47  C   UNL A   1      43.844  32.074  28.768  1.00  0.00     0.029 A 
ATOM     48  C   UNL A   1      44.887  31.143  28.342  1.00  0.00     0.049 A 
ATOM     49  H   UNL A   1      44.659  29.129  27.856  1.00  0.00     0.167 HD
ATOM     50  C   UNL A   1      44.049  24.842  27.063  1.00  0.00     0.037 A 
ATOM     51  C   UNL A   1      46.191  31.441  28.175  1.00  0.00     0.037 A 
ATOM     52  C   UNL A   1      45.431  25.092  26.757  1.00  0.00     0.049 A 
ATOM     53  C   UNL A   1      47.133  30.365  27.703  1.00  0.00     0.074 A 
ATOM     54  C   UNL A   1      46.378  24.213  26.264  1.00  0.00     0.029 A 
ATOM     55  N   UNL A   1      46.064  26.316  26.920  1.00  0.00    -0.354 N 
ATOM     56  N   UNL A   1      46.879  29.107  27.430  1.00  0.00    -0.248 NA
ATOM     57  C   UNL A   1      48.538  30.749  27.505  1.00  0.00     0.031 C 
ATOM     58  C   UNL A   1      47.594  24.898  26.162  1.00  0.00     0.029 A 
ATOM     59  C   UNL A   1      47.394  26.213  26.554  1.00  0.00     0.049 A 
ATOM     60  H   UNL A   1      45.631  27.136  27.248  1.00  0.00     0.167 HD
ATOM     61  C   UNL A   1      48.082  28.560  26.996  1.00  0.00     0.074 A 
ATOM     62  C   UNL A   1      49.064  29.624  27.041  1.00  0.00     0.031 C 
ATOM     63  C   UNL A   1      48.350  27.293  26.591  1.00  0.00     0.037 A 
BRANCH  50  64
ATOM     64  C   UNL A   1      43.498  23.456  26.878  1.00  0.00     0.058 A 
ATOM     65  C   UNL A   1      43.349  22.577  27.963  1.00  0.00     0.135 A 
ATOM     66  C   UNL A   1      43.137  22.992  25.604  1.00  0.00     0.135 A 
ATOM     67  F   UNL A   1      43.700  22.965  29.200  1.00  0.00    -0.206 F 
ATOM     68  C   UNL A   1      42.902  21.273  27.786  1.00  0.00     0.059 A 
ATOM     69  C   UNL A   1      42.662  21.698  25.407  1.00  0.00     0.059 A 
ATOM     70  F   UNL A   1      43.263  23.789  24.532  1.00  0.00    -0.206 F 
ATOM     71  C   UNL A   1      42.570  20.839  26.503  1.00  0.00     0.060 A 
BRANCH  71  72
ATOM     72  S   UNL A   1      42.025  19.133  26.281  1.00  0.00     0.124 S 
ATOM     73  O   UNL A   1      42.965  18.657  25.271  1.00  0.00    -0.237 OA
ATOM     74  O   UNL A   1      42.195  18.572  27.618  1.00  0.00    -0.237 OA
ATOM     75  O   UNL A   1      40.642  19.273  25.835  1.00  0.00    -0.744 OA
ENDBRANCH  71  72
ENDBRANCH  50  64
BRANCH  51  76
ATOM     76  C   UNL A   1      46.679  32.824  28.430  1.00  0.00     0.058 A 
ATOM     77  C   UNL A   1      46.683  33.786  27.408  1.00  0.00     0.135 A 
ATOM     78  C   UNL A   1      47.151  33.212  29.693  1.00  0.00     0.135 A 
ATOM     79  F   UNL A   1      46.251  33.461  26.181  1.00  0.00    -0.206 F 
ATOM     80  C   UNL A   1      47.151  35.078  27.625  1.00  0.00     0.059 A 
ATOM     81  C   UNL A   1      47.604  34.506  29.940  1.00  0.00     0.059 A 
ATOM     82  F   UNL A   1      47.158  32.333  30.708  1.00  0.00    -0.206 F 
ATOM     83  C   UNL A   1      47.609  35.429  28.895  1.00  0.00     0.060 A 
BRANCH  83  84
ATOM     84  S   UNL A   1      48.173  37.123  29.175  1.00  0.00     0.124 S 
ATOM     85  O   UNL A   1      46.933  37.875  29.022  1.00  0.00    -0.237 OA
ATOM     86  O   UNL A   1      48.710  37.047  30.530  1.00  0.00    -0.237 OA
ATOM     87  O   UNL A   1      49.167  37.324  28.125  1.00  0.00    -0.744 OA
ENDBRANCH  83  84
ENDBRANCH  51  76
BRANCH  63  88
ATOM     88  C   UNL A   1      49.747  26.993  26.126  1.00  0.00     0.058 A 
ATOM     89  C   UNL A   1      50.715  26.465  26.992  1.00  0.00     0.135 A 
ATOM     90  C   UNL A   1      50.096  27.172  24.777  1.00  0.00     0.135 A 
ATOM     91  F   UNL A   1      50.431  26.282  28.292  1.00  0.00    -0.206 F 
ATOM     92  C   UNL A   1      51.988  26.134  26.540  1.00  0.00     0.059 A 
ATOM     93  C   UNL A   1      51.356  26.826  24.299  1.00  0.00     0.059 A 
ATOM     94  F   UNL A   1      49.201  27.664  23.906  1.00  0.00    -0.206 F 
ATOM     95  C   UNL A   1      52.298  26.314  25.190  1.00  0.00     0.060 A 
BRANCH  95  96
ATOM     96  S   UNL A   1      53.936  25.832  24.603  1.00  0.00     0.124 S 
ATOM     97  O   UNL A   1      53.943  24.403  24.895  1.00  0.00    -0.237 OA
ATOM     98  O   UNL A   1      53.880  26.191  23.190  1.00  0.00    -0.237 OA
ATOM     99  O   UNL A   1      54.838  26.645  25.414  1.00  0.00    -0.744 OA
ENDBRANCH  95  96
ENDBRANCH  63  88
ENDBRANCH  37  38
ENDBRANCH  29  32
ENDBRANCH  27  28
ENDBRANCH  26  27
ENDBRANCH  25  26
ENDBRANCH   1  25
TORSDOF 19
ENDMDL
MODEL 3
REMARK VINA RESULT:     -10.8      6.168     12.169
REMARK SMILES COc1ccc(C(=O)NNC(=O)CCC(=O)NCCCCNC(=O)c2ccc(-c3c4nc(c(-c5c(F)cc(S(=O)(=O)[O-])cc5F)c5ccc([nH]5)c(-c5c(F)cc(S(=O)(=O)[O-])cc5F)c5nc(c(-c6c(F)cc(S(=O)(=O)[O-])cc6F)c6ccc3[nH]6)C=C5)C=C4)cc2)cc1Br
REMARK SMILES IDX 18 1 17 2 15 3 16 4 14 6 13 7 11 8 10 9 12 11 9 12 7 13 8 14
REMARK SMILES IDX 6 16 3 17 4 18 92 19 5 20 91 21 93 22 2 23 1 24 19 25 20 26
REMARK SMILES IDX 21 27 22 28 23 29 24 31 25 32 26 33 90 34 27 35 89 36 28 37
REMARK SMILES IDX 29 38 30 39 83 40 31 41 88 42 82 43 84 44 32 45 87 46 81 47
REMARK SMILES IDX 80 48 33 50 67 51 46 52 66 53 47 54 50 55 65 56 85 57 48 58
REMARK SMILES IDX 49 59 64 61 86 62 51 63 34 64 35 65 44 66 36 67 37 68 43 69
REMARK SMILES IDX 45 70 38 71 39 72 40 73 41 74 42 75 68 76 69 77 78 78 70 79
REMARK SMILES IDX 71 80 77 81 79 82 72 83 73 84 74 85 75 86 76 87 52 88 53 89
REMARK SMILES IDX 62 90 54 91 55 92 61 93 63 94 56 95 57 96 58 97 59 98 60 99
REMARK H PARENT 17 5 10 10 9 15 22 30 84 49 50 60
REMARK Flexibility Score: inf
ROOT
ATOM      1  C   UNL A   1      41.336  20.167  27.672  1.00  0.00     0.116 C 
ENDROOT
BRANCH   1   2
ATOM      2  N   UNL A   1      41.589  18.917  26.971  1.00  0.00    -0.356 N 
ATOM      3  C   UNL A   1      42.647  18.502  26.226  1.00  0.00     0.220 C 
ATOM      4  O   UNL A   1      42.603  17.388  25.702  1.00  0.00    -0.275 OA
ATOM      5  H   UNL A   1      40.865  18.254  27.050  1.00  0.00     0.163 HD
BRANCH   3   6
ATOM      6  C   UNL A   1      43.842  19.397  26.006  1.00  0.00     0.110 C 
BRANCH   6   7
ATOM      7  C   UNL A   1      44.764  18.782  24.956  1.00  0.00     0.112 C 
BRANCH   7   8
ATOM      8  C   UNL A   1      46.057  19.560  24.935  1.00  0.00     0.238 C 
ATOM      9  N   UNL A   1      46.072  20.867  24.524  1.00  0.00    -0.267 N 
ATOM     10  H   UNL A   1      46.902  21.373  24.670  1.00  0.00     0.191 HD
ATOM     11  O   UNL A   1      47.094  19.056  25.372  1.00  0.00    -0.273 OA
BRANCH   9  12
ATOM     12  N   UNL A   1      45.016  21.539  23.920  1.00  0.00    -0.264 N 
ATOM     13  C   UNL A   1      44.351  22.658  24.389  1.00  0.00     0.269 C 
ATOM     14  O   UNL A   1      43.378  23.068  23.757  1.00  0.00    -0.267 OA
ATOM     15  H   UNL A   1      44.705  21.176  23.059  1.00  0.00     0.191 HD
BRANCH  13  16
ATOM     16  C   UNL A   1      44.705  23.341  25.663  1.00  0.00     0.042 A 
ATOM     17  C   UNL A   1      45.365  24.827  27.992  1.00  0.00     0.133 A 
ATOM     18  C   UNL A   1      45.862  25.183  26.727  1.00  0.00     0.048 A 
ATOM     19  C   UNL A   1      44.564  23.682  28.082  1.00  0.00     0.060 A 
ATOM     20  C   UNL A   1      45.533  24.463  25.578  1.00  0.00     0.018 A 
ATOM     21  C   UNL A   1      44.279  22.924  26.925  1.00  0.00     0.033 A 
ATOM     22  Br  UNL A   1      43.767  22.993  29.665  1.00  0.00    -0.047 Br
BRANCH  17  23
ATOM     23  O   UNL A   1      45.819  25.682  28.951  1.00  0.00    -0.496 OA
ATOM     24  C   UNL A   1      45.749  27.085  28.787  1.00  0.00     0.278 C 
ENDBRANCH  17  23
ENDBRANCH  13  16
ENDBRANCH   9  12
ENDBRANCH   7   8
ENDBRANCH   6   7
ENDBRANCH   3   6
ENDBRANCH   1   2
BRANCH   1  25
ATOM     25  C   UNL A   1      40.878  21.308  26.758  1.00  0.00     0.023 C 
BRANCH  25  26
ATOM     26  C   UNL A   1      40.803  22.684  27.422  1.00  0.00     0.023 C 
BRANCH  26  27
ATOM     27  C   UNL A   1      40.215  23.802  26.572  1.00  0.00     0.116 C 
BRANCH  27  28
ATOM     28  N   UNL A   1      41.215  24.438  25.730  1.00  0.00    -0.352 N 
ATOM     29  C   UNL A   1      41.835  25.662  25.816  1.00  0.00     0.251 C 
ATOM     30  H   UNL A   1      41.499  23.894  24.961  1.00  0.00     0.163 HD
ATOM     31  O   UNL A   1      42.544  26.011  24.871  1.00  0.00    -0.269 OA
BRANCH  29  32
ATOM     32  C   UNL A   1      41.661  26.582  26.974  1.00  0.00     0.039 A 
ATOM     33  C   UNL A   1      40.946  26.112  28.086  1.00  0.00     0.014 A 
ATOM     34  C   UNL A   1      42.123  27.899  26.983  1.00  0.00     0.014 A 
ATOM     35  C   UNL A   1      40.767  26.916  29.218  1.00  0.00     0.010 A 
ATOM     36  C   UNL A   1      42.000  28.684  28.130  1.00  0.00     0.010 A 
ATOM     37  C   UNL A   1      41.313  28.203  29.254  1.00  0.00    -0.014 A 
BRANCH  37  38
ATOM     38  C   UNL A   1      41.073  29.114  30.399  1.00  0.00     0.031 A 
ATOM     39  C   UNL A   1      41.924  28.966  31.629  1.00  0.00     0.074 A 
ATOM     40  C   UNL A   1      40.076  30.018  30.362  1.00  0.00     0.049 A 
ATOM     41  N   UNL A   1      41.841  29.586  32.777  1.00  0.00    -0.248 NA
ATOM     42  C   UNL A   1      43.006  27.968  31.561  1.00  0.00     0.031 C 
ATOM     43  C   UNL A   1      39.181  30.250  29.229  1.00  0.00     0.029 A 
ATOM     44  N   UNL A   1      39.634  30.898  31.320  1.00  0.00    -0.354 N 
ATOM     45  C   UNL A   1      42.852  29.052  33.567  1.00  0.00     0.074 A 
ATOM     46  C   UNL A   1      43.500  28.020  32.788  1.00  0.00     0.031 C 
ATOM     47  C   UNL A   1      38.287  31.197  29.561  1.00  0.00     0.029 A 
ATOM     48  C   UNL A   1      38.535  31.629  30.934  1.00  0.00     0.049 A 
ATOM     49  H   UNL A   1      40.064  30.997  32.200  1.00  0.00     0.167 HD
ATOM     50  C   UNL A   1      43.225  29.407  34.819  1.00  0.00     0.037 A 
ATOM     51  C   UNL A   1      37.810  32.537  31.618  1.00  0.00     0.037 A 
ATOM     52  C   UNL A   1      42.579  30.437  35.586  1.00  0.00     0.049 A 
ATOM     53  C   UNL A   1      38.218  32.891  33.024  1.00  0.00     0.074 A 
ATOM     54  C   UNL A   1      42.892  30.894  36.853  1.00  0.00     0.029 A 
ATOM     55  N   UNL A   1      41.481  31.168  35.154  1.00  0.00    -0.354 N 
ATOM     56  N   UNL A   1      39.212  32.417  33.739  1.00  0.00    -0.248 NA
ATOM     57  C   UNL A   1      37.416  33.910  33.716  1.00  0.00     0.031 C 
ATOM     58  C   UNL A   1      41.960  31.879  37.201  1.00  0.00     0.029 A 
ATOM     59  C   UNL A   1      41.093  32.062  36.136  1.00  0.00     0.049 A 
ATOM     60  H   UNL A   1      41.043  31.065  34.279  1.00  0.00     0.167 HD
ATOM     61  C   UNL A   1      39.174  33.103  34.948  1.00  0.00     0.074 A 
ATOM     62  C   UNL A   1      38.061  34.027  34.868  1.00  0.00     0.031 C 
ATOM     63  C   UNL A   1      39.990  32.985  36.025  1.00  0.00     0.037 A 
BRANCH  50  64
ATOM     64  C   UNL A   1      44.382  28.662  35.423  1.00  0.00     0.058 A 
ATOM     65  C   UNL A   1      44.186  27.510  36.201  1.00  0.00     0.135 A 
ATOM     66  C   UNL A   1      45.699  29.115  35.244  1.00  0.00     0.135 A 
ATOM     67  F   UNL A   1      42.944  27.047  36.420  1.00  0.00    -0.206 F 
ATOM     68  C   UNL A   1      45.247  26.857  36.815  1.00  0.00     0.059 A 
ATOM     69  C   UNL A   1      46.780  28.462  35.829  1.00  0.00     0.059 A 
ATOM     70  F   UNL A   1      45.943  30.214  34.514  1.00  0.00    -0.206 F 
ATOM     71  C   UNL A   1      46.541  27.346  36.631  1.00  0.00     0.060 A 
BRANCH  71  72
ATOM     72  S   UNL A   1      47.908  26.510  37.463  1.00  0.00     0.124 S 
ATOM     73  O   UNL A   1      47.615  26.802  38.864  1.00  0.00    -0.237 OA
ATOM     74  O   UNL A   1      47.723  25.122  37.055  1.00  0.00    -0.237 OA
ATOM     75  O   UNL A   1      49.090  27.170  36.920  1.00  0.00    -0.744 OA
ENDBRANCH  71  72
ENDBRANCH  50  64
BRANCH  51  76
ATOM     76  C   UNL A   1      36.640  33.196  30.976  1.00  0.00     0.058 A 
ATOM     77  C   UNL A   1      36.818  34.144  29.956  1.00  0.00     0.135 A 
ATOM     78  C   UNL A   1      35.326  32.897  31.366  1.00  0.00     0.135 A 
ATOM     79  F   UNL A   1      38.055  34.471  29.554  1.00  0.00    -0.206 F 
ATOM     80  C   UNL A   1      35.737  34.781  29.355  1.00  0.00     0.059 A 
ATOM     81  C   UNL A   1      34.227  33.507  30.765  1.00  0.00     0.059 A 
ATOM     82  F   UNL A   1      35.101  31.990  32.330  1.00  0.00    -0.206 F 
ATOM     83  C   UNL A   1      34.444  34.455  29.766  1.00  0.00     0.060 A 
BRANCH  83  84
ATOM     84  S   UNL A   1      33.047  35.258  28.949  1.00  0.00     0.124 S 
ATOM     85  O   UNL A   1      32.189  35.581  30.084  1.00  0.00    -0.237 OA
ATOM     86  O   UNL A   1      33.687  36.392  28.291  1.00  0.00    -0.237 OA
ATOM     87  O   UNL A   1      32.543  34.224  28.051  1.00  0.00    -0.744 OA
ENDBRANCH  83  84
ENDBRANCH  51  76
BRANCH  63  88
ATOM     88  C   UNL A   1      39.739  33.900  37.190  1.00  0.00     0.058 A 
ATOM     89  C   UNL A   1      38.842  33.562  38.214  1.00  0.00     0.135 A 
ATOM     90  C   UNL A   1      40.461  35.099  37.315  1.00  0.00     0.135 A 
ATOM     91  F   UNL A   1      38.124  32.430  38.137  1.00  0.00    -0.206 F 
ATOM     92  C   UNL A   1      38.659  34.387  39.319  1.00  0.00     0.059 A 
ATOM     93  C   UNL A   1      40.311  35.927  38.423  1.00  0.00     0.059 A 
ATOM     94  F   UNL A   1      41.339  35.462  36.367  1.00  0.00    -0.206 F 
ATOM     95  C   UNL A   1      39.402  35.566  39.417  1.00  0.00     0.060 A 
BRANCH  95  96
ATOM     96  S   UNL A   1      39.196  36.603  40.881  1.00  0.00     0.124 S 
ATOM     97  O   UNL A   1      38.236  37.593  40.405  1.00  0.00    -0.237 OA
ATOM     98  O   UNL A   1      38.692  35.654  41.869  1.00  0.00    -0.237 OA
ATOM     99  O   UNL A   1      40.544  37.104  41.133  1.00  0.00    -0.744 OA
ENDBRANCH  95  96
ENDBRANCH  63  88
ENDBRANCH  37  38
ENDBRANCH  29  32
ENDBRANCH  27  28
ENDBRANCH  26  27
ENDBRANCH  25  26
ENDBRANCH   1  25
TORSDOF 19
ENDMDL
