MODEL 1
REMARK VINA RESULT:     -12.4      0.000      0.000
REMARK SMILES CC[C@@H](C(=O)NCCCCNC(=O)c1ccc(-c2c3nc(c(-c4c(F)cc(S(=O)(=O)[O-])cc4F)c4ccc([nH]4)c(-c4c(F)cc(S(=O)(=O)[O-])cc4F)c4nc(c(-c5c(F)cc(S(=O)(=O)[O-])cc5F)c5ccc2[nH]5)C=C4)C=C3)cc1)N1C(=O)/C(=C/C(C)=C/c2ccccc2)SC1=S
REMARK SMILES IDX 8 1 7 2 6 3 4 4 5 5 3 7 2 8 1 9 80 10 81 11 95 12 82 13
REMARK SMILES IDX 83 14 94 15 96 16 84 17 85 18 86 19 87 20 88 21 89 22 93 23
REMARK SMILES IDX 90 24 92 25 91 26 9 27 10 28 11 29 12 30 13 32 14 33 15 34
REMARK SMILES IDX 79 35 16 36 78 37 17 38 18 39 19 40 72 41 20 42 77 43 71 44
REMARK SMILES IDX 73 45 21 46 76 47 70 48 69 49 22 51 56 52 35 53 55 54 36 55
REMARK SMILES IDX 39 56 54 57 74 58 37 59 38 60 53 62 75 63 40 64 23 65 24 66
REMARK SMILES IDX 33 67 25 68 26 69 32 70 34 71 27 72 28 73 29 74 30 75 31 76
REMARK SMILES IDX 57 77 58 78 67 79 59 80 60 81 66 82 68 83 61 84 62 85 63 86
REMARK SMILES IDX 64 87 65 88 41 89 42 90 51 91 43 92 44 93 50 94 52 95 45 96
REMARK SMILES IDX 46 97 47 98 48 99 49 100
REMARK H PARENT 6 6 11 31 73 50 39 61
REMARK Flexibility Score: inf
ROOT
ATOM      1  C   UNL A   1      39.162  21.507  25.764  1.00  0.00     0.023 C 
ENDROOT
BRANCH   1   2
ATOM      2  C   UNL A   1      37.818  22.234  25.850  1.00  0.00     0.116 C 
BRANCH   2   3
ATOM      3  N   UNL A   1      37.416  22.673  24.531  1.00  0.00    -0.354 N 
ATOM      4  C   UNL A   1      36.184  22.759  23.957  1.00  0.00     0.243 C 
ATOM      5  O   UNL A   1      36.159  22.976  22.740  1.00  0.00    -0.273 OA
ATOM      6  H   UNL A   1      38.158  22.959  23.950  1.00  0.00     0.163 HD
BRANCH   4   7
ATOM      7  C   UNL A   1      34.877  22.639  24.784  1.00  0.00     0.181 C 
BRANCH   7   8
ATOM      8  C   UNL A   1      34.233  21.239  24.824  1.00  0.00     0.032 C 
ATOM      9  C   UNL A   1      33.635  20.751  26.133  1.00  0.00     0.006 C 
ENDBRANCH   7   8
BRANCH   7  10
ATOM     10  N   UNL A   1      33.987  23.697  24.190  1.00  0.00    -0.280 N 
ATOM     11  C   UNL A   1      34.183  25.007  24.626  1.00  0.00     0.266 C 
ATOM     12  C   UNL A   1      33.137  23.561  23.099  1.00  0.00     0.149 C 
ATOM     13  O   UNL A   1      34.940  25.359  25.522  1.00  0.00    -0.268 OA
ATOM     14  C   UNL A   1      33.320  25.959  23.867  1.00  0.00     0.080 C 
ATOM     15  S   UNL A   1      32.587  25.138  22.556  1.00  0.00    -0.054 SA
ATOM     16  S   UNL A   1      32.553  22.211  22.309  1.00  0.00    -0.052 S 
ATOM     17  C   UNL A   1      33.135  27.243  24.221  1.00  0.00     0.024 C 
BRANCH  17  18
ATOM     18  C   UNL A   1      32.213  28.216  23.617  1.00  0.00    -0.049 C 
ATOM     19  C   UNL A   1      32.764  28.985  22.445  1.00  0.00     0.044 C 
ATOM     20  C   UNL A   1      31.012  28.465  24.184  1.00  0.00     0.011 C 
BRANCH  20  21
ATOM     21  C   UNL A   1      29.919  29.359  23.766  1.00  0.00    -0.025 A 
ATOM     22  C   UNL A   1      29.004  28.869  22.821  1.00  0.00     0.008 A 
ATOM     23  C   UNL A   1      29.827  30.701  24.147  1.00  0.00     0.008 A 
ATOM     24  C   UNL A   1      28.003  29.688  22.296  1.00  0.00     0.001 A 
ATOM     25  C   UNL A   1      28.818  31.522  23.628  1.00  0.00     0.001 A 
ATOM     26  C   UNL A   1      27.907  31.015  22.704  1.00  0.00     0.000 A 
ENDBRANCH  20  21
ENDBRANCH  17  18
ENDBRANCH   7  10
ENDBRANCH   4   7
ENDBRANCH   2   3
ENDBRANCH   1   2
BRANCH   1  27
ATOM     27  C   UNL A   1      40.110  21.775  26.928  1.00  0.00     0.023 C 
BRANCH  27  28
ATOM     28  C   UNL A   1      40.323  23.247  27.248  1.00  0.00     0.116 C 
BRANCH  28  29
ATOM     29  N   UNL A   1      40.873  24.008  26.134  1.00  0.00    -0.352 N 
ATOM     30  C   UNL A   1      41.221  25.337  26.085  1.00  0.00     0.251 C 
ATOM     31  H   UNL A   1      41.016  23.500  25.303  1.00  0.00     0.163 HD
ATOM     32  O   UNL A   1      41.573  25.839  25.020  1.00  0.00    -0.269 OA
BRANCH  30  33
ATOM     33  C   UNL A   1      41.128  26.159  27.308  1.00  0.00     0.039 A 
ATOM     34  C   UNL A   1      42.119  27.109  27.566  1.00  0.00     0.014 A 
ATOM     35  C   UNL A   1      40.041  26.023  28.175  1.00  0.00     0.014 A 
ATOM     36  C   UNL A   1      41.979  27.971  28.655  1.00  0.00     0.010 A 
ATOM     37  C   UNL A   1      39.854  26.945  29.197  1.00  0.00     0.010 A 
ATOM     38  C   UNL A   1      40.826  27.921  29.457  1.00  0.00    -0.014 A 
BRANCH  38  39
ATOM     39  C   UNL A   1      40.631  28.859  30.592  1.00  0.00     0.031 A 
ATOM     40  C   UNL A   1      41.479  28.720  31.829  1.00  0.00     0.074 A 
ATOM     41  C   UNL A   1      39.654  29.786  30.537  1.00  0.00     0.049 A 
ATOM     42  N   UNL A   1      41.423  29.394  32.949  1.00  0.00    -0.248 NA
ATOM     43  C   UNL A   1      42.498  27.658  31.821  1.00  0.00     0.031 C 
ATOM     44  C   UNL A   1      38.721  29.971  29.422  1.00  0.00     0.029 A 
ATOM     45  N   UNL A   1      39.278  30.744  31.444  1.00  0.00    -0.354 N 
ATOM     46  C   UNL A   1      42.379  28.823  33.780  1.00  0.00     0.074 A 
ATOM     47  C   UNL A   1      42.954  27.708  33.063  1.00  0.00     0.031 C 
ATOM     48  C   UNL A   1      37.905  31.001  29.699  1.00  0.00     0.029 A 
ATOM     49  C   UNL A   1      38.233  31.530  31.019  1.00  0.00     0.049 A 
ATOM     50  H   UNL A   1      39.716  30.858  32.319  1.00  0.00     0.167 HD
ATOM     51  C   UNL A   1      42.768  29.212  35.018  1.00  0.00     0.037 A 
ATOM     52  C   UNL A   1      37.616  32.564  31.622  1.00  0.00     0.037 A 
ATOM     53  C   UNL A   1      42.225  30.352  35.707  1.00  0.00     0.049 A 
ATOM     54  C   UNL A   1      38.097  33.009  32.977  1.00  0.00     0.074 A 
ATOM     55  C   UNL A   1      42.593  30.875  36.933  1.00  0.00     0.029 A 
ATOM     56  N   UNL A   1      41.201  31.154  35.220  1.00  0.00    -0.354 N 
ATOM     57  N   UNL A   1      39.049  32.498  33.723  1.00  0.00    -0.248 NA
ATOM     58  C   UNL A   1      37.431  34.177  33.568  1.00  0.00     0.031 C 
ATOM     59  C   UNL A   1      41.772  31.975  37.203  1.00  0.00     0.029 A 
ATOM     60  C   UNL A   1      40.920  32.162  36.126  1.00  0.00     0.049 A 
ATOM     61  H   UNL A   1      40.743  31.024  34.359  1.00  0.00     0.167 HD
ATOM     62  C   UNL A   1      39.114  33.300  34.857  1.00  0.00     0.074 A 
ATOM     63  C   UNL A   1      38.114  34.335  34.692  1.00  0.00     0.031 C 
ATOM     64  C   UNL A   1      39.927  33.190  35.937  1.00  0.00     0.037 A 
BRANCH  51  65
ATOM     65  C   UNL A   1      43.847  28.408  35.690  1.00  0.00     0.058 A 
ATOM     66  C   UNL A   1      45.208  28.669  35.466  1.00  0.00     0.135 A 
ATOM     67  C   UNL A   1      43.518  27.371  36.578  1.00  0.00     0.135 A 
ATOM     68  F   UNL A   1      45.579  29.637  34.612  1.00  0.00    -0.206 F 
ATOM     69  C   UNL A   1      46.205  27.909  36.066  1.00  0.00     0.059 A 
ATOM     70  C   UNL A   1      44.500  26.616  37.215  1.00  0.00     0.059 A 
ATOM     71  F   UNL A   1      42.233  27.076  36.829  1.00  0.00    -0.206 F 
ATOM     72  C   UNL A   1      45.841  26.881  36.938  1.00  0.00     0.060 A 
BRANCH  72  73
ATOM     73  S   UNL A   1      47.146  25.901  37.707  1.00  0.00     0.124 S 
ATOM     74  O   UNL A   1      46.591  25.672  39.037  1.00  0.00    -0.237 OA
ATOM     75  O   UNL A   1      47.211  24.730  36.839  1.00  0.00    -0.237 OA
ATOM     76  O   UNL A   1      48.309  26.782  37.655  1.00  0.00    -0.744 OA
ENDBRANCH  72  73
ENDBRANCH  51  65
BRANCH  52  77
ATOM     77  C   UNL A   1      36.511  33.279  30.931  1.00  0.00     0.058 A 
ATOM     78  C   UNL A   1      35.188  33.171  31.388  1.00  0.00     0.135 A 
ATOM     79  C   UNL A   1      36.751  34.092  29.814  1.00  0.00     0.135 A 
ATOM     80  F   UNL A   1      34.908  32.402  32.451  1.00  0.00    -0.206 F 
ATOM     81  C   UNL A   1      34.140  33.828  30.752  1.00  0.00     0.059 A 
ATOM     82  C   UNL A   1      35.723  34.779  29.173  1.00  0.00     0.059 A 
ATOM     83  F   UNL A   1      38.001  34.244  29.348  1.00  0.00    -0.206 F 
ATOM     84  C   UNL A   1      34.418  34.632  29.644  1.00  0.00     0.060 A 
BRANCH  84  85
ATOM     85  S   UNL A   1      33.058  35.519  28.854  1.00  0.00     0.124 S 
ATOM     86  O   UNL A   1      33.772  36.558  28.121  1.00  0.00    -0.237 OA
ATOM     87  O   UNL A   1      32.440  34.474  28.042  1.00  0.00    -0.237 OA
ATOM     88  O   UNL A   1      32.257  35.978  29.985  1.00  0.00    -0.744 OA
ENDBRANCH  84  85
ENDBRANCH  52  77
BRANCH  64  89
ATOM     89  C   UNL A   1      39.796  34.236  37.006  1.00  0.00     0.058 A 
ATOM     90  C   UNL A   1      39.122  33.979  38.210  1.00  0.00     0.135 A 
ATOM     91  C   UNL A   1      40.387  35.499  36.840  1.00  0.00     0.135 A 
ATOM     92  F   UNL A   1      38.536  32.788  38.416  1.00  0.00    -0.206 F 
ATOM     93  C   UNL A   1      39.016  34.948  39.202  1.00  0.00     0.059 A 
ATOM     94  C   UNL A   1      40.315  36.473  37.829  1.00  0.00     0.059 A 
ATOM     95  F   UNL A   1      41.053  35.790  35.711  1.00  0.00    -0.206 F 
ATOM     96  C   UNL A   1      39.614  36.193  39.002  1.00  0.00     0.060 A 
BRANCH  96  97
ATOM     97  S   UNL A   1      39.487  37.436  40.304  1.00  0.00     0.124 S 
ATOM     98  O   UNL A   1      38.812  38.525  39.606  1.00  0.00    -0.237 OA
ATOM     99  O   UNL A   1      38.698  36.748  41.320  1.00  0.00    -0.237 OA
ATOM    100  O   UNL A   1      40.878  37.690  40.667  1.00  0.00    -0.744 OA
ENDBRANCH  96  97
ENDBRANCH  64  89
ENDBRANCH  38  39
ENDBRANCH  30  33
ENDBRANCH  28  29
ENDBRANCH  27  28
ENDBRANCH   1  27
TORSDOF 18
ENDMDL
MODEL 2
REMARK VINA RESULT:     -12.0      6.456     12.243
REMARK SMILES CC[C@@H](C(=O)NCCCCNC(=O)c1ccc(-c2c3nc(c(-c4c(F)cc(S(=O)(=O)[O-])cc4F)c4ccc([nH]4)c(-c4c(F)cc(S(=O)(=O)[O-])cc4F)c4nc(c(-c5c(F)cc(S(=O)(=O)[O-])cc5F)c5ccc2[nH]5)C=C4)C=C3)cc1)N1C(=O)/C(=C/C(C)=C/c2ccccc2)SC1=S
REMARK SMILES IDX 8 1 7 2 6 3 4 4 5 5 3 7 2 8 1 9 80 10 81 11 95 12 82 13
REMARK SMILES IDX 83 14 94 15 96 16 84 17 85 18 86 19 87 20 88 21 89 22 93 23
REMARK SMILES IDX 90 24 92 25 91 26 9 27 10 28 11 29 12 30 13 32 14 33 15 34
REMARK SMILES IDX 79 35 16 36 78 37 17 38 18 39 19 40 72 41 20 42 77 43 71 44
REMARK SMILES IDX 73 45 21 46 76 47 70 48 69 49 22 51 56 52 35 53 55 54 36 55
REMARK SMILES IDX 39 56 54 57 74 58 37 59 38 60 53 62 75 63 40 64 23 65 24 66
REMARK SMILES IDX 33 67 25 68 26 69 32 70 34 71 27 72 28 73 29 74 30 75 31 76
REMARK SMILES IDX 57 77 58 78 67 79 59 80 60 81 66 82 68 83 61 84 62 85 63 86
REMARK SMILES IDX 64 87 65 88 41 89 42 90 51 91 43 92 44 93 50 94 52 95 45 96
REMARK SMILES IDX 46 97 47 98 48 99 49 100
REMARK H PARENT 6 6 11 31 73 50 39 61
REMARK Flexibility Score: inf
ROOT
ATOM      1  C   UNL A   1      34.521  30.156  26.983  1.00  0.00     0.023 C 
ENDROOT
BRANCH   1   2
ATOM      2  C   UNL A   1      33.044  30.542  27.093  1.00  0.00     0.116 C 
BRANCH   2   3
ATOM      3  N   UNL A   1      32.283  29.418  27.596  1.00  0.00    -0.354 N 
ATOM      4  C   UNL A   1      31.717  28.363  26.946  1.00  0.00     0.243 C 
ATOM      5  O   UNL A   1      30.948  27.658  27.611  1.00  0.00    -0.273 OA
ATOM      6  H   UNL A   1      32.154  29.415  28.572  1.00  0.00     0.163 HD
BRANCH   4   7
ATOM      7  C   UNL A   1      32.049  28.028  25.468  1.00  0.00     0.181 C 
BRANCH   7   8
ATOM      8  C   UNL A   1      31.171  28.722  24.408  1.00  0.00     0.032 C 
ATOM      9  C   UNL A   1      31.709  28.858  22.994  1.00  0.00     0.006 C 
ENDBRANCH   7   8
BRANCH   7  10
ATOM     10  N   UNL A   1      31.976  26.525  25.424  1.00  0.00    -0.280 N 
ATOM     11  C   UNL A   1      33.112  25.824  25.826  1.00  0.00     0.266 C 
ATOM     12  C   UNL A   1      30.840  25.747  25.236  1.00  0.00     0.149 C 
ATOM     13  O   UNL A   1      34.196  26.319  26.111  1.00  0.00    -0.268 OA
ATOM     14  C   UNL A   1      32.855  24.355  25.847  1.00  0.00     0.080 C 
ATOM     15  S   UNL A   1      31.183  24.068  25.619  1.00  0.00    -0.054 SA
ATOM     16  S   UNL A   1      29.311  26.130  24.684  1.00  0.00    -0.052 S 
ATOM     17  C   UNL A   1      33.823  23.430  25.976  1.00  0.00     0.024 C 
BRANCH  17  18
ATOM     18  C   UNL A   1      33.686  21.969  25.880  1.00  0.00    -0.049 C 
ATOM     19  C   UNL A   1      33.633  21.239  27.197  1.00  0.00     0.044 C 
ATOM     20  C   UNL A   1      33.740  21.353  24.679  1.00  0.00     0.011 C 
BRANCH  20  21
ATOM     21  C   UNL A   1      33.605  19.930  24.322  1.00  0.00    -0.025 A 
ATOM     22  C   UNL A   1      34.673  19.077  24.639  1.00  0.00     0.008 A 
ATOM     23  C   UNL A   1      32.545  19.418  23.567  1.00  0.00     0.008 A 
ATOM     24  C   UNL A   1      34.668  17.739  24.241  1.00  0.00     0.001 A 
ATOM     25  C   UNL A   1      32.534  18.074  23.175  1.00  0.00     0.001 A 
ATOM     26  C   UNL A   1      33.594  17.236  23.513  1.00  0.00     0.000 A 
ENDBRANCH  20  21
ENDBRANCH  17  18
ENDBRANCH   7  10
ENDBRANCH   4   7
ENDBRANCH   2   3
ENDBRANCH   1   2
BRANCH   1  27
ATOM     27  C   UNL A   1      35.428  30.792  28.031  1.00  0.00     0.023 C 
BRANCH  27  28
ATOM     28  C   UNL A   1      35.839  29.864  29.164  1.00  0.00     0.116 C 
BRANCH  28  29
ATOM     29  N   UNL A   1      35.854  30.513  30.468  1.00  0.00    -0.352 N 
ATOM     30  C   UNL A   1      36.927  30.793  31.280  1.00  0.00     0.251 C 
ATOM     31  H   UNL A   1      34.975  30.789  30.814  1.00  0.00     0.163 HD
ATOM     32  O   UNL A   1      36.742  31.254  32.404  1.00  0.00    -0.269 OA
BRANCH  30  33
ATOM     33  C   UNL A   1      38.295  30.499  30.806  1.00  0.00     0.039 A 
ATOM     34  C   UNL A   1      39.154  29.764  31.625  1.00  0.00     0.014 A 
ATOM     35  C   UNL A   1      38.711  30.909  29.537  1.00  0.00     0.014 A 
ATOM     36  C   UNL A   1      40.406  29.378  31.139  1.00  0.00     0.010 A 
ATOM     37  C   UNL A   1      39.912  30.442  29.020  1.00  0.00     0.010 A 
ATOM     38  C   UNL A   1      40.778  29.682  29.819  1.00  0.00    -0.014 A 
BRANCH  38  39
ATOM     39  C   UNL A   1      42.084  29.243  29.262  1.00  0.00     0.031 A 
ATOM     40  C   UNL A   1      43.220  30.226  29.158  1.00  0.00     0.074 A 
ATOM     41  C   UNL A   1      42.226  27.987  28.793  1.00  0.00     0.049 A 
ATOM     42  N   UNL A   1      44.412  30.061  28.646  1.00  0.00    -0.248 NA
ATOM     43  C   UNL A   1      42.969  31.587  29.660  1.00  0.00     0.031 C 
ATOM     44  C   UNL A   1      41.177  26.964  28.774  1.00  0.00     0.029 A 
ATOM     45  N   UNL A   1      43.309  27.358  28.236  1.00  0.00    -0.354 N 
ATOM     46  C   UNL A   1      45.040  31.297  28.744  1.00  0.00     0.074 A 
ATOM     47  C   UNL A   1      44.077  32.219  29.302  1.00  0.00     0.031 C 
ATOM     48  C   UNL A   1      41.679  25.828  28.263  1.00  0.00     0.029 A 
ATOM     49  C   UNL A   1      43.073  26.048  27.892  1.00  0.00     0.049 A 
ATOM     50  H   UNL A   1      44.177  27.803  28.095  1.00  0.00     0.167 HD
ATOM     51  C   UNL A   1      46.315  31.628  28.429  1.00  0.00     0.037 A 
ATOM     52  C   UNL A   1      43.891  25.127  27.346  1.00  0.00     0.037 A 
ATOM     53  C   UNL A   1      47.282  30.694  27.919  1.00  0.00     0.049 A 
ATOM     54  C   UNL A   1      45.317  25.504  27.049  1.00  0.00     0.074 A 
ATOM     55  C   UNL A   1      48.618  30.907  27.631  1.00  0.00     0.029 A 
ATOM     56  N   UNL A   1      47.017  29.361  27.631  1.00  0.00    -0.354 N 
ATOM     57  N   UNL A   1      45.914  26.662  27.209  1.00  0.00    -0.248 NA
ATOM     58  C   UNL A   1      46.185  24.449  26.508  1.00  0.00     0.031 C 
ATOM     59  C   UNL A   1      49.154  29.711  27.140  1.00  0.00     0.029 A 
ATOM     60  C   UNL A   1      48.163  28.743  27.161  1.00  0.00     0.049 A 
ATOM     61  H   UNL A   1      46.144  28.922  27.744  1.00  0.00     0.167 HD
ATOM     62  C   UNL A   1      47.234  26.466  26.816  1.00  0.00     0.074 A 
ATOM     63  C   UNL A   1      47.349  25.077  26.423  1.00  0.00     0.031 C 
ATOM     64  C   UNL A   1      48.258  27.355  26.785  1.00  0.00     0.037 A 
BRANCH  51  65
ATOM     65  C   UNL A   1      46.735  33.055  28.651  1.00  0.00     0.058 A 
ATOM     66  C   UNL A   1      46.622  34.021  27.638  1.00  0.00     0.135 A 
ATOM     67  C   UNL A   1      47.246  33.466  29.892  1.00  0.00     0.135 A 
ATOM     68  F   UNL A   1      46.157  33.678  26.426  1.00  0.00    -0.206 F 
ATOM     69  C   UNL A   1      47.035  35.333  27.834  1.00  0.00     0.059 A 
ATOM     70  C   UNL A   1      47.639  34.783  30.121  1.00  0.00     0.059 A 
ATOM     71  F   UNL A   1      47.378  32.585  30.896  1.00  0.00    -0.206 F 
ATOM     72  C   UNL A   1      47.546  35.705  29.078  1.00  0.00     0.060 A 
BRANCH  72  73
ATOM     73  S   UNL A   1      48.081  37.412  29.317  1.00  0.00     0.124 S 
ATOM     74  O   UNL A   1      47.249  38.115  28.346  1.00  0.00    -0.237 OA
ATOM     75  O   UNL A   1      47.755  37.650  30.719  1.00  0.00    -0.237 OA
ATOM     76  O   UNL A   1      49.507  37.367  29.007  1.00  0.00    -0.744 OA
ENDBRANCH  72  73
ENDBRANCH  51  65
BRANCH  52  77
ATOM     77  C   UNL A   1      43.396  23.748  27.091  1.00  0.00     0.058 A 
ATOM     78  C   UNL A   1      43.214  22.843  28.148  1.00  0.00     0.135 A 
ATOM     79  C   UNL A   1      43.083  23.311  25.796  1.00  0.00     0.135 A 
ATOM     80  F   UNL A   1      43.503  23.214  29.404  1.00  0.00    -0.206 F 
ATOM     81  C   UNL A   1      42.757  21.548  27.929  1.00  0.00     0.059 A 
ATOM     82  C   UNL A   1      42.602  22.027  25.553  1.00  0.00     0.059 A 
ATOM     83  F   UNL A   1      43.221  24.144  24.752  1.00  0.00    -0.206 F 
ATOM     84  C   UNL A   1      42.452  21.149  26.626  1.00  0.00     0.060 A 
BRANCH  84  85
ATOM     85  S   UNL A   1      41.813  19.481  26.357  1.00  0.00     0.124 S 
ATOM     86  O   UNL A   1      40.374  19.703  26.427  1.00  0.00    -0.237 OA
ATOM     87  O   UNL A   1      42.346  19.156  25.037  1.00  0.00    -0.237 OA
ATOM     88  O   UNL A   1      42.391  18.720  27.462  1.00  0.00    -0.744 OA
ENDBRANCH  84  85
ENDBRANCH  52  77
BRANCH  64  89
ATOM     89  C   UNL A   1      49.599  26.843  26.345  1.00  0.00     0.058 A 
ATOM     90  C   UNL A   1      50.052  26.999  25.025  1.00  0.00     0.135 A 
ATOM     91  C   UNL A   1      50.460  26.224  27.266  1.00  0.00     0.135 A 
ATOM     92  F   UNL A   1      49.264  27.581  24.106  1.00  0.00    -0.206 F 
ATOM     93  C   UNL A   1      51.300  26.535  24.628  1.00  0.00     0.059 A 
ATOM     94  C   UNL A   1      51.722  25.776  26.896  1.00  0.00     0.059 A 
ATOM     95  F   UNL A   1      50.079  26.061  28.543  1.00  0.00    -0.206 F 
ATOM     96  C   UNL A   1      52.129  25.922  25.570  1.00  0.00     0.060 A 
BRANCH  96  97
ATOM     97  S   UNL A   1      53.756  25.342  25.048  1.00  0.00     0.124 S 
ATOM     98  O   UNL A   1      54.630  26.034  25.989  1.00  0.00    -0.237 OA
ATOM     99  O   UNL A   1      53.647  23.898  25.227  1.00  0.00    -0.237 OA
ATOM    100  O   UNL A   1      53.847  25.790  23.661  1.00  0.00    -0.744 OA
ENDBRANCH  96  97
ENDBRANCH  64  89
ENDBRANCH  38  39
ENDBRANCH  30  33
ENDBRANCH  28  29
ENDBRANCH  27  28
ENDBRANCH   1  27
TORSDOF 18
ENDMDL
MODEL 3
REMARK VINA RESULT:     -12.0      5.446     12.552
REMARK SMILES CC[C@@H](C(=O)NCCCCNC(=O)c1ccc(-c2c3nc(c(-c4c(F)cc(S(=O)(=O)[O-])cc4F)c4ccc([nH]4)c(-c4c(F)cc(S(=O)(=O)[O-])cc4F)c4nc(c(-c5c(F)cc(S(=O)(=O)[O-])cc5F)c5ccc2[nH]5)C=C4)C=C3)cc1)N1C(=O)/C(=C/C(C)=C/c2ccccc2)SC1=S
REMARK SMILES IDX 8 1 7 2 6 3 4 4 5 5 3 7 2 8 1 9 80 10 81 11 95 12 82 13
REMARK SMILES IDX 83 14 94 15 96 16 84 17 85 18 86 19 87 20 88 21 89 22 93 23
REMARK SMILES IDX 90 24 92 25 91 26 9 27 10 28 11 29 12 30 13 32 14 33 15 34
REMARK SMILES IDX 79 35 16 36 78 37 17 38 18 39 19 40 72 41 20 42 77 43 71 44
REMARK SMILES IDX 73 45 21 46 76 47 70 48 69 49 22 51 56 52 35 53 55 54 36 55
REMARK SMILES IDX 39 56 54 57 74 58 37 59 38 60 53 62 75 63 40 64 23 65 24 66
REMARK SMILES IDX 33 67 25 68 26 69 32 70 34 71 27 72 28 73 29 74 30 75 31 76
REMARK SMILES IDX 57 77 58 78 67 79 59 80 60 81 66 82 68 83 61 84 62 85 63 86
REMARK SMILES IDX 64 87 65 88 41 89 42 90 51 91 43 92 44 93 50 94 52 95 45 96
REMARK SMILES IDX 46 97 47 98 48 99 49 100
REMARK H PARENT 6 6 11 31 73 50 39 61
REMARK Flexibility Score: inf
ROOT
ATOM      1  C   UNL A   1      36.594  33.031  30.382  1.00  0.00     0.023 C 
ENDROOT
BRANCH   1   2
ATOM      2  C   UNL A   1      36.666  33.942  31.610  1.00  0.00     0.116 C 
BRANCH   2   3
ATOM      3  N   UNL A   1      38.045  34.291  31.877  1.00  0.00    -0.354 N 
ATOM      4  C   UNL A   1      38.793  34.164  33.008  1.00  0.00     0.243 C 
ATOM      5  O   UNL A   1      39.888  34.737  33.009  1.00  0.00    -0.273 OA
ATOM      6  H   UNL A   1      38.523  34.687  31.113  1.00  0.00     0.163 HD
BRANCH   4   7
ATOM      7  C   UNL A   1      38.326  33.309  34.216  1.00  0.00     0.181 C 
BRANCH   7   8
ATOM      8  C   UNL A   1      38.070  34.080  35.526  1.00  0.00     0.032 C 
ATOM      9  C   UNL A   1      37.052  33.527  36.508  1.00  0.00     0.006 C 
ENDBRANCH   7   8
BRANCH   7  10
ATOM     10  N   UNL A   1      39.394  32.255  34.334  1.00  0.00    -0.280 N 
ATOM     11  C   UNL A   1      39.348  31.204  33.418  1.00  0.00     0.266 C 
ATOM     12  C   UNL A   1      40.547  32.313  35.106  1.00  0.00     0.149 C 
ATOM     13  O   UNL A   1      38.461  31.006  32.597  1.00  0.00    -0.268 OA
ATOM     14  C   UNL A   1      40.530  30.306  33.575  1.00  0.00     0.080 C 
ATOM     15  S   UNL A   1      41.652  31.029  34.647  1.00  0.00    -0.054 SA
ATOM     16  S   UNL A   1      40.991  33.321  36.362  1.00  0.00    -0.052 S 
ATOM     17  C   UNL A   1      40.635  29.102  32.987  1.00  0.00     0.024 C 
BRANCH  17  18
ATOM     18  C   UNL A   1      41.693  28.098  33.181  1.00  0.00    -0.049 C 
ATOM     19  C   UNL A   1      41.562  27.255  34.422  1.00  0.00     0.044 C 
ATOM     20  C   UNL A   1      42.757  28.055  32.349  1.00  0.00     0.011 C 
BRANCH  20  21
ATOM     21  C   UNL A   1      43.914  27.145  32.316  1.00  0.00    -0.025 A 
ATOM     22  C   UNL A   1      43.698  25.836  31.859  1.00  0.00     0.008 A 
ATOM     23  C   UNL A   1      45.169  27.468  32.842  1.00  0.00     0.008 A 
ATOM     24  C   UNL A   1      44.718  24.883  31.895  1.00  0.00     0.001 A 
ATOM     25  C   UNL A   1      46.196  26.517  32.871  1.00  0.00     0.001 A 
ATOM     26  C   UNL A   1      45.970  25.226  32.397  1.00  0.00     0.000 A 
ENDBRANCH  20  21
ENDBRANCH  17  18
ENDBRANCH   7  10
ENDBRANCH   4   7
ENDBRANCH   2   3
ENDBRANCH   1   2
BRANCH   1  27
ATOM     27  C   UNL A   1      35.231  32.394  30.136  1.00  0.00     0.023 C 
BRANCH  27  28
ATOM     28  C   UNL A   1      34.849  32.256  28.670  1.00  0.00     0.116 C 
BRANCH  28  29
ATOM     29  N   UNL A   1      34.296  30.950  28.336  1.00  0.00    -0.352 N 
ATOM     30  C   UNL A   1      34.952  29.757  28.149  1.00  0.00     0.251 C 
ATOM     31  H   UNL A   1      33.317  30.918  28.232  1.00  0.00     0.163 HD
ATOM     32  O   UNL A   1      34.331  28.769  27.765  1.00  0.00    -0.269 OA
BRANCH  30  33
ATOM     33  C   UNL A   1      36.410  29.686  28.374  1.00  0.00     0.039 A 
ATOM     34  C   UNL A   1      36.886  29.279  29.623  1.00  0.00     0.014 A 
ATOM     35  C   UNL A   1      37.305  29.976  27.341  1.00  0.00     0.014 A 
ATOM     36  C   UNL A   1      38.257  29.094  29.810  1.00  0.00     0.010 A 
ATOM     37  C   UNL A   1      38.656  29.695  27.499  1.00  0.00     0.010 A 
ATOM     38  C   UNL A   1      39.149  29.264  28.738  1.00  0.00    -0.014 A 
BRANCH  38  39
ATOM     39  C   UNL A   1      40.607  29.027  28.897  1.00  0.00     0.031 A 
ATOM     40  C   UNL A   1      41.192  27.691  28.521  1.00  0.00     0.074 A 
ATOM     41  C   UNL A   1      41.388  29.983  29.439  1.00  0.00     0.049 A 
ATOM     42  N   UNL A   1      42.422  27.263  28.642  1.00  0.00    -0.248 NA
ATOM     43  C   UNL A   1      40.263  26.690  27.970  1.00  0.00     0.031 C 
ATOM     44  C   UNL A   1      40.925  31.291  29.910  1.00  0.00     0.029 A 
ATOM     45  N   UNL A   1      42.736  30.000  29.693  1.00  0.00    -0.354 N 
ATOM     46  C   UNL A   1      42.407  25.943  28.207  1.00  0.00     0.074 A 
ATOM     47  C   UNL A   1      41.036  25.619  27.881  1.00  0.00     0.031 C 
ATOM     48  C   UNL A   1      41.977  31.993  30.362  1.00  0.00     0.029 A 
ATOM     49  C   UNL A   1      43.182  31.178  30.243  1.00  0.00     0.049 A 
ATOM     50  H   UNL A   1      43.329  29.238  29.497  1.00  0.00     0.167 HD
ATOM     51  C   UNL A   1      43.446  25.087  28.060  1.00  0.00     0.037 A 
ATOM     52  C   UNL A   1      44.422  31.559  30.604  1.00  0.00     0.037 A 
ATOM     53  C   UNL A   1      44.813  25.431  28.341  1.00  0.00     0.049 A 
ATOM     54  C   UNL A   1      45.568  30.608  30.386  1.00  0.00     0.074 A 
ATOM     55  C   UNL A   1      45.950  24.664  28.163  1.00  0.00     0.029 A 
ATOM     56  N   UNL A   1      45.230  26.654  28.850  1.00  0.00    -0.354 N 
ATOM     57  N   UNL A   1      45.546  29.385  29.912  1.00  0.00    -0.248 NA
ATOM     58  C   UNL A   1      46.909  31.091  30.741  1.00  0.00     0.031 C 
ATOM     59  C   UNL A   1      47.052  25.410  28.593  1.00  0.00     0.029 A 
ATOM     60  C   UNL A   1      46.607  26.658  29.001  1.00  0.00     0.049 A 
ATOM     61  H   UNL A   1      44.636  27.405  29.073  1.00  0.00     0.167 HD
ATOM     62  C   UNL A   1      46.871  28.963  29.885  1.00  0.00     0.074 A 
ATOM     63  C   UNL A   1      47.668  30.067  30.379  1.00  0.00     0.031 C 
ATOM     64  C   UNL A   1      47.382  27.772  29.486  1.00  0.00     0.037 A 
BRANCH  51  65
ATOM     65  C   UNL A   1      43.138  23.705  27.552  1.00  0.00     0.058 A 
ATOM     66  C   UNL A   1      43.215  23.389  26.187  1.00  0.00     0.135 A 
ATOM     67  C   UNL A   1      42.773  22.681  28.441  1.00  0.00     0.135 A 
ATOM     68  F   UNL A   1      43.541  24.334  25.291  1.00  0.00    -0.206 F 
ATOM     69  C   UNL A   1      42.905  22.119  25.714  1.00  0.00     0.059 A 
ATOM     70  C   UNL A   1      42.488  21.393  27.994  1.00  0.00     0.059 A 
ATOM     71  F   UNL A   1      42.682  22.927  29.758  1.00  0.00    -0.206 F 
ATOM     72  C   UNL A   1      42.539  21.127  26.626  1.00  0.00     0.060 A 
BRANCH  72  73
ATOM     73  S   UNL A   1      42.136  19.484  25.998  1.00  0.00     0.124 S 
ATOM     74  O   UNL A   1      42.536  18.639  27.118  1.00  0.00    -0.237 OA
ATOM     75  O   UNL A   1      40.699  19.582  25.762  1.00  0.00    -0.237 OA
ATOM     76  O   UNL A   1      42.959  19.368  24.797  1.00  0.00    -0.744 OA
ENDBRANCH  72  73
ENDBRANCH  51  65
BRANCH  52  77
ATOM     77  C   UNL A   1      44.652  32.918  31.161  1.00  0.00     0.058 A 
ATOM     78  C   UNL A   1      44.831  34.022  30.313  1.00  0.00     0.135 A 
ATOM     79  C   UNL A   1      44.685  33.146  32.544  1.00  0.00     0.135 A 
ATOM     80  F   UNL A   1      44.811  33.854  28.982  1.00  0.00    -0.206 F 
ATOM     81  C   UNL A   1      45.052  35.300  30.815  1.00  0.00     0.059 A 
ATOM     82  C   UNL A   1      44.881  34.420  33.072  1.00  0.00     0.059 A 
ATOM     83  F   UNL A   1      44.500  32.127  33.399  1.00  0.00    -0.206 F 
ATOM     84  C   UNL A   1      45.075  35.489  32.198  1.00  0.00     0.060 A 
BRANCH  84  85
ATOM     85  S   UNL A   1      45.315  37.160  32.840  1.00  0.00     0.124 S 
ATOM     86  O   UNL A   1      46.646  37.479  32.338  1.00  0.00    -0.237 OA
ATOM     87  O   UNL A   1      44.209  37.888  32.224  1.00  0.00    -0.237 OA
ATOM     88  O   UNL A   1      45.209  36.981  34.285  1.00  0.00    -0.744 OA
ENDBRANCH  84  85
ENDBRANCH  52  77
BRANCH  64  89
ATOM     89  C   UNL A   1      48.875  27.614  29.533  1.00  0.00     0.058 A 
ATOM     90  C   UNL A   1      49.543  27.277  30.720  1.00  0.00     0.135 A 
ATOM     91  C   UNL A   1      49.641  27.761  28.365  1.00  0.00     0.135 A 
ATOM     92  F   UNL A   1      48.856  27.129  31.864  1.00  0.00    -0.206 F 
ATOM     93  C   UNL A   1      50.924  27.119  30.754  1.00  0.00     0.059 A 
ATOM     94  C   UNL A   1      51.019  27.582  28.371  1.00  0.00     0.059 A 
ATOM     95  F   UNL A   1      49.048  28.071  27.201  1.00  0.00    -0.206 F 
ATOM     96  C   UNL A   1      51.655  27.275  29.575  1.00  0.00     0.060 A 
BRANCH  96  97
ATOM     97  S   UNL A   1      53.444  27.047  29.625  1.00  0.00     0.124 S 
ATOM     98  O   UNL A   1      53.753  26.831  28.216  1.00  0.00    -0.237 OA
ATOM     99  O   UNL A   1      53.906  28.311  30.190  1.00  0.00    -0.237 OA
ATOM    100  O   UNL A   1      53.613  25.884  30.491  1.00  0.00    -0.744 OA
ENDBRANCH  96  97
ENDBRANCH  64  89
ENDBRANCH  38  39
ENDBRANCH  30  33
ENDBRANCH  28  29
ENDBRANCH  27  28
ENDBRANCH   1  27
TORSDOF 18
ENDMDL
