MODEL 1
REMARK VINA RESULT:     -12.9      0.000      0.000
REMARK SMILES CCc1ccc(-c2cc(Cl)cc3c2O[C@H](C(F)(F)F)C(C(=O)NCCCCNC(=O)c2ccc(-c4c5nc(c(-c6c(F)cc(S(=O)(=O)[O-])cc6F)c6ccc([nH]6)c(-c6c(F)cc(S(=O)(=O)[O-])cc6F)c6nc(c(-c7c(F)cc(S(=O)(=O)[O-])cc7F)c7ccc4[nH]7)C=C6)C=C5)cc2)=C3)cc1
REMARK SMILES IDX 26 1 25 2 24 3 23 4 21 5 22 6 20 8 7 9 8 10 13 11 9 12 12 13
REMARK SMILES IDX 14 14 10 15 11 16 97 17 15 18 6 19 3 20 4 21 99 22 5 23
REMARK SMILES IDX 98 24 2 25 1 26 16 27 17 28 18 29 19 30 27 31 28 32 29 33
REMARK SMILES IDX 30 35 31 36 32 37 96 38 33 39 95 40 34 41 35 42 36 43 89 44
REMARK SMILES IDX 37 45 94 46 88 47 90 48 38 49 93 50 87 51 86 52 39 54 73 55
REMARK SMILES IDX 52 56 72 57 53 58 56 59 71 60 91 61 54 62 55 63 70 65 92 66
REMARK SMILES IDX 57 67 40 68 41 69 50 70 42 71 43 72 49 73 51 74 44 75 45 76
REMARK SMILES IDX 46 77 47 78 48 79 74 80 75 81 84 82 76 83 77 84 83 85 85 86
REMARK SMILES IDX 78 87 79 88 80 89 81 90 82 91 58 92 59 93 68 94 60 95 61 96
REMARK SMILES IDX 67 97 69 98 62 99 63 100 64 101 65 102 66 103
REMARK H PARENT 23 7 28 34 90 53 56 64
REMARK Flexibility Score: inf
ROOT
ATOM      1  C   UNL A   1      38.483  23.238  26.204  1.00  0.00     0.023 C 
ENDROOT
BRANCH   1   2
ATOM      2  C   UNL A   1      38.146  21.790  25.816  1.00  0.00     0.023 C 
BRANCH   2   3
ATOM      3  C   UNL A   1      36.829  21.607  25.049  1.00  0.00     0.116 C 
BRANCH   3   4
ATOM      4  N   UNL A   1      36.481  22.842  24.379  1.00  0.00    -0.352 N 
ATOM      5  C   UNL A   1      35.342  23.175  23.732  1.00  0.00     0.251 C 
ATOM      6  O   UNL A   1      35.415  23.953  22.785  1.00  0.00    -0.270 OA
ATOM      7  H   UNL A   1      37.174  23.540  24.397  1.00  0.00     0.163 HD
BRANCH   5   8
ATOM      8  C   UNL A   1      34.039  22.672  24.266  1.00  0.00     0.067 C 
ATOM      9  C   UNL A   1      31.883  26.113  23.921  1.00  0.00     0.026 A 
ATOM     10  C   UNL A   1      32.693  27.157  24.445  1.00  0.00     0.033 A 
ATOM     11  C   UNL A   1      32.302  24.801  24.204  1.00  0.00     0.135 A 
ATOM     12  C   UNL A   1      33.744  26.924  25.329  1.00  0.00     0.042 A 
ATOM     13  C   UNL A   1      33.294  24.592  25.198  1.00  0.00     0.019 A 
ATOM     14  O   UNL A   1      31.841  23.688  23.514  1.00  0.00    -0.475 OA
ATOM     15  Cl  UNL A   1      34.698  28.240  25.886  1.00  0.00    -0.084 Cl
ATOM     16  C   UNL A   1      34.001  25.643  25.772  1.00  0.00     0.032 A 
ATOM     17  C   UNL A   1      33.726  23.201  25.466  1.00  0.00     0.025 C 
ATOM     18  C   UNL A   1      32.897  22.658  23.256  1.00  0.00     0.314 C 
BRANCH   9  19
ATOM     19  C   UNL A   1      30.598  26.576  23.329  1.00  0.00    -0.015 A 
ATOM     20  C   UNL A   1      28.301  28.275  23.121  1.00  0.00    -0.048 A 
ATOM     21  C   UNL A   1      29.454  28.519  22.363  1.00  0.00     0.004 A 
ATOM     22  C   UNL A   1      28.258  27.093  23.869  1.00  0.00     0.004 A 
ATOM     23  C   UNL A   1      30.574  27.675  22.449  1.00  0.00     0.009 A 
ATOM     24  C   UNL A   1      29.387  26.253  23.967  1.00  0.00     0.009 A 
BRANCH  20  25
ATOM     25  C   UNL A   1      27.198  29.315  23.098  1.00  0.00     0.032 C 
ATOM     26  C   UNL A   1      27.560  30.750  23.469  1.00  0.00     0.009 C 
ENDBRANCH  20  25
ENDBRANCH   9  19
BRANCH  18  27
ATOM     27  C   UNL A   1      32.304  21.230  23.221  1.00  0.00     0.429 C 
ATOM     28  F   UNL A   1      31.388  21.020  24.194  1.00  0.00    -0.167 F 
ATOM     29  F   UNL A   1      31.704  20.975  22.033  1.00  0.00    -0.167 F 
ATOM     30  F   UNL A   1      33.253  20.268  23.375  1.00  0.00    -0.167 F 
ENDBRANCH  18  27
ENDBRANCH   5   8
ENDBRANCH   3   4
ENDBRANCH   2   3
ENDBRANCH   1   2
BRANCH   1  31
ATOM     31  C   UNL A   1      39.813  23.419  26.923  1.00  0.00     0.116 C 
BRANCH  31  32
ATOM     32  N   UNL A   1      40.845  23.927  26.034  1.00  0.00    -0.352 N 
ATOM     33  C   UNL A   1      41.545  25.106  26.104  1.00  0.00     0.251 C 
ATOM     34  H   UNL A   1      41.075  23.344  25.275  1.00  0.00     0.163 HD
ATOM     35  O   UNL A   1      42.234  25.463  25.149  1.00  0.00    -0.269 OA
BRANCH  33  36
ATOM     36  C   UNL A   1      41.451  25.955  27.311  1.00  0.00     0.039 A 
ATOM     37  C   UNL A   1      42.489  26.845  27.596  1.00  0.00     0.014 A 
ATOM     38  C   UNL A   1      40.341  25.879  28.158  1.00  0.00     0.014 A 
ATOM     39  C   UNL A   1      42.384  27.704  28.693  1.00  0.00     0.010 A 
ATOM     40  C   UNL A   1      40.204  26.786  29.205  1.00  0.00     0.010 A 
ATOM     41  C   UNL A   1      41.224  27.709  29.485  1.00  0.00    -0.014 A 
BRANCH  41  42
ATOM     42  C   UNL A   1      41.054  28.684  30.596  1.00  0.00     0.031 A 
ATOM     43  C   UNL A   1      41.910  28.591  31.830  1.00  0.00     0.074 A 
ATOM     44  C   UNL A   1      40.079  29.612  30.520  1.00  0.00     0.049 A 
ATOM     45  N   UNL A   1      41.870  29.317  32.919  1.00  0.00    -0.248 NA
ATOM     46  C   UNL A   1      42.923  27.525  31.859  1.00  0.00     0.031 C 
ATOM     47  C   UNL A   1      39.143  29.765  29.404  1.00  0.00     0.029 A 
ATOM     48  N   UNL A   1      39.702  30.594  31.404  1.00  0.00    -0.354 N 
ATOM     49  C   UNL A   1      42.836  28.787  33.766  1.00  0.00     0.074 A 
ATOM     50  C   UNL A   1      43.411  27.646  33.084  1.00  0.00     0.031 C 
ATOM     51  C   UNL A   1      38.313  30.788  29.662  1.00  0.00     0.029 A 
ATOM     52  C   UNL A   1      38.628  31.340  30.975  1.00  0.00     0.049 A 
ATOM     53  H   UNL A   1      40.157  30.748  32.263  1.00  0.00     0.167 HD
ATOM     54  C   UNL A   1      43.222  29.221  34.989  1.00  0.00     0.037 A 
ATOM     55  C   UNL A   1      37.964  32.347  31.576  1.00  0.00     0.037 A 
ATOM     56  C   UNL A   1      42.659  30.371  35.650  1.00  0.00     0.049 A 
ATOM     57  C   UNL A   1      38.418  32.822  32.928  1.00  0.00     0.074 A 
ATOM     58  C   UNL A   1      43.036  30.941  36.853  1.00  0.00     0.029 A 
ATOM     59  N   UNL A   1      41.593  31.120  35.171  1.00  0.00    -0.354 N 
ATOM     60  N   UNL A   1      39.394  32.364  33.677  1.00  0.00    -0.248 NA
ATOM     61  C   UNL A   1      37.690  33.955  33.515  1.00  0.00     0.031 C 
ATOM     62  C   UNL A   1      42.162  31.997  37.131  1.00  0.00     0.029 A 
ATOM     63  C   UNL A   1      41.279  32.126  36.071  1.00  0.00     0.049 A 
ATOM     64  H   UNL A   1      41.129  30.960  34.318  1.00  0.00     0.167 HD
ATOM     65  C   UNL A   1      39.410  33.166  34.813  1.00  0.00     0.074 A 
ATOM     66  C   UNL A   1      38.357  34.148  34.645  1.00  0.00     0.031 C 
ATOM     67  C   UNL A   1      40.225  33.097  35.895  1.00  0.00     0.037 A 
BRANCH  54  68
ATOM     68  C   UNL A   1      44.300  28.445  35.700  1.00  0.00     0.058 A 
ATOM     69  C   UNL A   1      44.000  27.404  36.594  1.00  0.00     0.135 A 
ATOM     70  C   UNL A   1      45.655  28.727  35.461  1.00  0.00     0.135 A 
ATOM     71  F   UNL A   1      42.722  27.097  36.870  1.00  0.00    -0.206 F 
ATOM     72  C   UNL A   1      45.001  26.697  37.253  1.00  0.00     0.059 A 
ATOM     73  C   UNL A   1      46.674  28.012  36.085  1.00  0.00     0.059 A 
ATOM     74  F   UNL A   1      46.003  29.710  34.615  1.00  0.00    -0.206 F 
ATOM     75  C   UNL A   1      46.335  27.011  36.993  1.00  0.00     0.060 A 
BRANCH  75  76
ATOM     76  S   UNL A   1      47.622  26.089  37.862  1.00  0.00     0.124 S 
ATOM     77  O   UNL A   1      48.681  26.053  36.859  1.00  0.00    -0.237 OA
ATOM     78  O   UNL A   1      47.879  26.934  39.025  1.00  0.00    -0.237 OA
ATOM     79  O   UNL A   1      46.987  24.807  38.151  1.00  0.00    -0.744 OA
ENDBRANCH  75  76
ENDBRANCH  54  68
BRANCH  55  80
ATOM     80  C   UNL A   1      36.805  32.978  30.887  1.00  0.00     0.058 A 
ATOM     81  C   UNL A   1      35.487  32.679  31.261  1.00  0.00     0.135 A 
ATOM     82  C   UNL A   1      36.996  33.920  29.863  1.00  0.00     0.135 A 
ATOM     83  F   UNL A   1      35.252  31.781  32.230  1.00  0.00    -0.206 F 
ATOM     84  C   UNL A   1      34.398  33.285  30.642  1.00  0.00     0.059 A 
ATOM     85  C   UNL A   1      35.924  34.559  29.247  1.00  0.00     0.059 A 
ATOM     86  F   UNL A   1      38.237  34.253  29.478  1.00  0.00    -0.206 F 
ATOM     87  C   UNL A   1      34.627  34.229  29.640  1.00  0.00     0.060 A 
BRANCH  87  88
ATOM     88  S   UNL A   1      33.209  35.060  28.892  1.00  0.00     0.124 S 
ATOM     89  O   UNL A   1      33.844  36.201  28.244  1.00  0.00    -0.237 OA
ATOM     90  O   UNL A   1      32.687  34.028  28.000  1.00  0.00    -0.237 OA
ATOM     91  O   UNL A   1      32.361  35.373  30.037  1.00  0.00    -0.744 OA
ENDBRANCH  87  88
ENDBRANCH  55  80
BRANCH  67  92
ATOM     92  C   UNL A   1      40.033  34.126  36.977  1.00  0.00     0.058 A 
ATOM     93  C   UNL A   1      40.681  35.370  36.939  1.00  0.00     0.135 A 
ATOM     94  C   UNL A   1      39.147  33.882  38.038  1.00  0.00     0.135 A 
ATOM     95  F   UNL A   1      41.544  35.654  35.950  1.00  0.00    -0.206 F 
ATOM     96  C   UNL A   1      40.477  36.327  37.928  1.00  0.00     0.059 A 
ATOM     97  C   UNL A   1      38.904  34.835  39.023  1.00  0.00     0.059 A 
ATOM     98  F   UNL A   1      38.492  32.712  38.119  1.00  0.00    -0.206 F 
ATOM     99  C   UNL A   1      39.584  36.051  38.966  1.00  0.00     0.060 A 
BRANCH  99 100
ATOM    100  S   UNL A   1      39.304  37.312  40.226  1.00  0.00     0.124 S 
ATOM    101  O   UNL A   1      38.451  38.256  39.512  1.00  0.00    -0.237 OA
ATOM    102  O   UNL A   1      38.657  36.552  41.290  1.00  0.00    -0.237 OA
ATOM    103  O   UNL A   1      40.649  37.791  40.534  1.00  0.00    -0.744 OA
ENDBRANCH  99 100
ENDBRANCH  67  92
ENDBRANCH  41  42
ENDBRANCH  33  36
ENDBRANCH  31  32
ENDBRANCH   1  31
TORSDOF 17
ENDMDL
MODEL 2
REMARK VINA RESULT:     -12.7      1.320      2.031
REMARK SMILES CCc1ccc(-c2cc(Cl)cc3c2O[C@H](C(F)(F)F)C(C(=O)NCCCCNC(=O)c2ccc(-c4c5nc(c(-c6c(F)cc(S(=O)(=O)[O-])cc6F)c6ccc([nH]6)c(-c6c(F)cc(S(=O)(=O)[O-])cc6F)c6nc(c(-c7c(F)cc(S(=O)(=O)[O-])cc7F)c7ccc4[nH]7)C=C6)C=C5)cc2)=C3)cc1
REMARK SMILES IDX 26 1 25 2 24 3 23 4 21 5 22 6 20 8 7 9 8 10 13 11 9 12 12 13
REMARK SMILES IDX 14 14 10 15 11 16 97 17 15 18 6 19 3 20 4 21 99 22 5 23
REMARK SMILES IDX 98 24 2 25 1 26 16 27 17 28 18 29 19 30 27 31 28 32 29 33
REMARK SMILES IDX 30 35 31 36 32 37 96 38 33 39 95 40 34 41 35 42 36 43 89 44
REMARK SMILES IDX 37 45 94 46 88 47 90 48 38 49 93 50 87 51 86 52 39 54 73 55
REMARK SMILES IDX 52 56 72 57 53 58 56 59 71 60 91 61 54 62 55 63 70 65 92 66
REMARK SMILES IDX 57 67 40 68 41 69 50 70 42 71 43 72 49 73 51 74 44 75 45 76
REMARK SMILES IDX 46 77 47 78 48 79 74 80 75 81 84 82 76 83 77 84 83 85 85 86
REMARK SMILES IDX 78 87 79 88 80 89 81 90 82 91 58 92 59 93 68 94 60 95 61 96
REMARK SMILES IDX 67 97 69 98 62 99 63 100 64 101 65 102 66 103
REMARK H PARENT 23 7 28 34 90 53 56 64
REMARK Flexibility Score: inf
ROOT
ATOM      1  C   UNL A   1      37.344  23.088  26.172  1.00  0.00     0.023 C 
ENDROOT
BRANCH   1   2
ATOM      2  C   UNL A   1      36.667  22.929  24.803  1.00  0.00     0.023 C 
BRANCH   2   3
ATOM      3  C   UNL A   1      35.210  22.450  24.843  1.00  0.00     0.116 C 
BRANCH   3   4
ATOM      4  N   UNL A   1      34.444  23.133  23.822  1.00  0.00    -0.352 N 
ATOM      5  C   UNL A   1      33.164  23.567  23.856  1.00  0.00     0.251 C 
ATOM      6  O   UNL A   1      32.527  23.582  22.807  1.00  0.00    -0.270 OA
ATOM      7  H   UNL A   1      34.926  23.307  22.982  1.00  0.00     0.163 HD
BRANCH   5   8
ATOM      8  C   UNL A   1      32.624  24.111  25.139  1.00  0.00     0.067 C 
ATOM      9  C   UNL A   1      31.424  27.761  23.782  1.00  0.00     0.026 A 
ATOM     10  C   UNL A   1      32.492  28.278  23.000  1.00  0.00     0.033 A 
ATOM     11  C   UNL A   1      31.726  26.649  24.588  1.00  0.00     0.135 A 
ATOM     12  C   UNL A   1      33.806  27.836  23.134  1.00  0.00     0.042 A 
ATOM     13  C   UNL A   1      33.084  26.297  24.798  1.00  0.00     0.019 A 
ATOM     14  O   UNL A   1      30.756  25.826  25.146  1.00  0.00    -0.475 OA
ATOM     15  Cl  UNL A   1      35.032  28.487  22.121  1.00  0.00    -0.084 Cl
ATOM     16  C   UNL A   1      34.123  26.895  24.091  1.00  0.00     0.032 A 
ATOM     17  C   UNL A   1      33.373  25.114  25.639  1.00  0.00     0.025 C 
ATOM     18  C   UNL A   1      31.122  24.374  25.139  1.00  0.00     0.314 C 
BRANCH   9  19
ATOM     19  C   UNL A   1      30.201  28.611  23.784  1.00  0.00    -0.015 A 
ATOM     20  C   UNL A   1      28.494  30.702  22.824  1.00  0.00    -0.048 A 
ATOM     21  C   UNL A   1      28.325  29.377  22.401  1.00  0.00     0.004 A 
ATOM     22  C   UNL A   1      29.426  30.942  23.840  1.00  0.00     0.004 A 
ATOM     23  C   UNL A   1      29.148  28.347  22.886  1.00  0.00     0.009 A 
ATOM     24  C   UNL A   1      30.263  29.911  24.317  1.00  0.00     0.009 A 
BRANCH  20  25
ATOM     25  C   UNL A   1      27.678  31.780  22.139  1.00  0.00     0.032 C 
ATOM     26  C   UNL A   1      27.867  31.974  20.638  1.00  0.00     0.009 C 
ENDBRANCH  20  25
ENDBRANCH   9  19
BRANCH  18  27
ATOM     27  C   UNL A   1      30.504  23.626  26.343  1.00  0.00     0.429 C 
ATOM     28  F   UNL A   1      31.362  23.504  27.381  1.00  0.00    -0.167 F 
ATOM     29  F   UNL A   1      29.396  24.260  26.800  1.00  0.00    -0.167 F 
ATOM     30  F   UNL A   1      30.107  22.364  26.024  1.00  0.00    -0.167 F 
ENDBRANCH  18  27
ENDBRANCH   5   8
ENDBRANCH   3   4
ENDBRANCH   2   3
ENDBRANCH   1   2
BRANCH   1  31
ATOM     31  C   UNL A   1      38.245  24.309  26.307  1.00  0.00     0.116 C 
BRANCH  31  32
ATOM     32  N   UNL A   1      39.652  23.958  26.203  1.00  0.00    -0.352 N 
ATOM     33  C   UNL A   1      40.747  24.603  26.723  1.00  0.00     0.251 C 
ATOM     34  H   UNL A   1      39.848  23.142  25.687  1.00  0.00     0.163 HD
ATOM     35  O   UNL A   1      41.877  24.275  26.360  1.00  0.00    -0.269 OA
BRANCH  33  36
ATOM     36  C   UNL A   1      40.568  25.702  27.695  1.00  0.00     0.039 A 
ATOM     37  C   UNL A   1      39.574  25.591  28.670  1.00  0.00     0.014 A 
ATOM     38  C   UNL A   1      41.381  26.839  27.651  1.00  0.00     0.014 A 
ATOM     39  C   UNL A   1      39.439  26.588  29.639  1.00  0.00     0.010 A 
ATOM     40  C   UNL A   1      41.294  27.794  28.661  1.00  0.00     0.010 A 
ATOM     41  C   UNL A   1      40.322  27.680  29.667  1.00  0.00    -0.014 A 
BRANCH  41  42
ATOM     42  C   UNL A   1      40.254  28.698  30.749  1.00  0.00     0.031 A 
ATOM     43  C   UNL A   1      41.119  28.569  31.974  1.00  0.00     0.074 A 
ATOM     44  C   UNL A   1      39.360  29.703  30.658  1.00  0.00     0.049 A 
ATOM     45  N   UNL A   1      41.159  29.327  33.040  1.00  0.00    -0.248 NA
ATOM     46  C   UNL A   1      42.039  27.422  32.021  1.00  0.00     0.031 C 
ATOM     47  C   UNL A   1      38.421  29.902  29.552  1.00  0.00     0.029 A 
ATOM     48  N   UNL A   1      39.082  30.739  31.517  1.00  0.00    -0.354 N 
ATOM     49  C   UNL A   1      42.091  28.742  33.889  1.00  0.00     0.074 A 
ATOM     50  C   UNL A   1      42.555  27.537  33.235  1.00  0.00     0.031 C 
ATOM     51  C   UNL A   1      37.686  30.998  29.789  1.00  0.00     0.029 A 
ATOM     52  C   UNL A   1      38.068  31.560  31.080  1.00  0.00     0.049 A 
ATOM     53  H   UNL A   1      39.562  30.879  32.364  1.00  0.00     0.167 HD
ATOM     54  C   UNL A   1      42.532  29.178  35.093  1.00  0.00     0.037 A 
ATOM     55  C   UNL A   1      37.501  32.637  31.659  1.00  0.00     0.037 A 
ATOM     56  C   UNL A   1      42.079  30.391  35.726  1.00  0.00     0.049 A 
ATOM     57  C   UNL A   1      38.016  33.112  32.990  1.00  0.00     0.074 A 
ATOM     58  C   UNL A   1      42.523  30.962  36.906  1.00  0.00     0.029 A 
ATOM     59  N   UNL A   1      41.073  31.213  35.239  1.00  0.00    -0.354 N 
ATOM     60  N   UNL A   1      38.962  32.595  33.738  1.00  0.00    -0.248 NA
ATOM     61  C   UNL A   1      37.396  34.319  33.552  1.00  0.00     0.031 C 
ATOM     62  C   UNL A   1      41.746  32.095  37.164  1.00  0.00     0.029 A 
ATOM     63  C   UNL A   1      40.860  32.268  36.112  1.00  0.00     0.049 A 
ATOM     64  H   UNL A   1      40.582  31.068  34.399  1.00  0.00     0.167 HD
ATOM     65  C   UNL A   1      39.065  33.426  34.849  1.00  0.00     0.074 A 
ATOM     66  C   UNL A   1      38.096  34.488  34.665  1.00  0.00     0.031 C 
ATOM     67  C   UNL A   1      39.889  33.320  35.921  1.00  0.00     0.037 A 
BRANCH  54  68
ATOM     68  C   UNL A   1      43.552  28.334  35.812  1.00  0.00     0.058 A 
ATOM     69  C   UNL A   1      43.179  27.343  36.734  1.00  0.00     0.135 A 
ATOM     70  C   UNL A   1      44.923  28.500  35.553  1.00  0.00     0.135 A 
ATOM     71  F   UNL A   1      41.884  27.146  37.030  1.00  0.00    -0.206 F 
ATOM     72  C   UNL A   1      44.128  26.573  37.401  1.00  0.00     0.059 A 
ATOM     73  C   UNL A   1      45.888  27.719  36.185  1.00  0.00     0.059 A 
ATOM     74  F   UNL A   1      45.339  29.431  34.680  1.00  0.00    -0.206 F 
ATOM     75  C   UNL A   1      45.480  26.771  37.121  1.00  0.00     0.060 A 
BRANCH  75  76
ATOM     76  S   UNL A   1      46.698  25.769  38.000  1.00  0.00     0.124 S 
ATOM     77  O   UNL A   1      46.617  24.508  37.271  1.00  0.00    -0.237 OA
ATOM     78  O   UNL A   1      47.927  26.534  37.808  1.00  0.00    -0.237 OA
ATOM     79  O   UNL A   1      46.191  25.738  39.368  1.00  0.00    -0.744 OA
ENDBRANCH  75  76
ENDBRANCH  54  68
BRANCH  55  80
ATOM     80  C   UNL A   1      36.388  33.344  30.967  1.00  0.00     0.058 A 
ATOM     81  C   UNL A   1      35.073  33.272  31.447  1.00  0.00     0.135 A 
ATOM     82  C   UNL A   1      36.627  34.134  29.832  1.00  0.00     0.135 A 
ATOM     83  F   UNL A   1      34.792  32.524  32.525  1.00  0.00    -0.206 F 
ATOM     84  C   UNL A   1      34.031  33.951  30.824  1.00  0.00     0.059 A 
ATOM     85  C   UNL A   1      35.607  34.845  29.207  1.00  0.00     0.059 A 
ATOM     86  F   UNL A   1      37.871  34.250  29.342  1.00  0.00    -0.206 F 
ATOM     87  C   UNL A   1      34.310  34.741  29.707  1.00  0.00     0.060 A 
BRANCH  87  88
ATOM     88  S   UNL A   1      32.962  35.674  28.948  1.00  0.00     0.124 S 
ATOM     89  O   UNL A   1      33.688  36.740  28.268  1.00  0.00    -0.237 OA
ATOM     90  O   UNL A   1      32.345  34.670  28.085  1.00  0.00    -0.237 OA
ATOM     91  O   UNL A   1      32.155  36.087  30.091  1.00  0.00    -0.744 OA
ENDBRANCH  87  88
ENDBRANCH  55  80
BRANCH  67  92
ATOM     92  C   UNL A   1      39.803  34.392  36.973  1.00  0.00     0.058 A 
ATOM     93  C   UNL A   1      39.034  34.227  38.137  1.00  0.00     0.135 A 
ATOM     94  C   UNL A   1      40.540  35.579  36.839  1.00  0.00     0.135 A 
ATOM     95  F   UNL A   1      38.304  33.115  38.313  1.00  0.00    -0.206 F 
ATOM     96  C   UNL A   1      38.982  35.213  39.118  1.00  0.00     0.059 A 
ATOM     97  C   UNL A   1      40.527  36.565  37.821  1.00  0.00     0.059 A 
ATOM     98  F   UNL A   1      41.301  35.785  35.751  1.00  0.00    -0.206 F 
ATOM     99  C   UNL A   1      39.734  36.377  38.953  1.00  0.00     0.060 A 
BRANCH  99 100
ATOM    100  S   UNL A   1      39.681  37.633  40.248  1.00  0.00     0.124 S 
ATOM    101  O   UNL A   1      39.035  36.907  41.336  1.00  0.00    -0.237 OA
ATOM    102  O   UNL A   1      41.094  37.941  40.441  1.00  0.00    -0.237 OA
ATOM    103  O   UNL A   1      38.888  38.705  39.651  1.00  0.00    -0.744 OA
ENDBRANCH  99 100
ENDBRANCH  67  92
ENDBRANCH  41  42
ENDBRANCH  33  36
ENDBRANCH  31  32
ENDBRANCH   1  31
TORSDOF 17
ENDMDL
MODEL 3
REMARK VINA RESULT:     -12.4      0.637      7.963
REMARK SMILES CCc1ccc(-c2cc(Cl)cc3c2O[C@H](C(F)(F)F)C(C(=O)NCCCCNC(=O)c2ccc(-c4c5nc(c(-c6c(F)cc(S(=O)(=O)[O-])cc6F)c6ccc([nH]6)c(-c6c(F)cc(S(=O)(=O)[O-])cc6F)c6nc(c(-c7c(F)cc(S(=O)(=O)[O-])cc7F)c7ccc4[nH]7)C=C6)C=C5)cc2)=C3)cc1
REMARK SMILES IDX 26 1 25 2 24 3 23 4 21 5 22 6 20 8 7 9 8 10 13 11 9 12 12 13
REMARK SMILES IDX 14 14 10 15 11 16 97 17 15 18 6 19 3 20 4 21 99 22 5 23
REMARK SMILES IDX 98 24 2 25 1 26 16 27 17 28 18 29 19 30 27 31 28 32 29 33
REMARK SMILES IDX 30 35 31 36 32 37 96 38 33 39 95 40 34 41 35 42 36 43 89 44
REMARK SMILES IDX 37 45 94 46 88 47 90 48 38 49 93 50 87 51 86 52 39 54 73 55
REMARK SMILES IDX 52 56 72 57 53 58 56 59 71 60 91 61 54 62 55 63 70 65 92 66
REMARK SMILES IDX 57 67 40 68 41 69 50 70 42 71 43 72 49 73 51 74 44 75 45 76
REMARK SMILES IDX 46 77 47 78 48 79 74 80 75 81 84 82 76 83 77 84 83 85 85 86
REMARK SMILES IDX 78 87 79 88 80 89 81 90 82 91 58 92 59 93 68 94 60 95 61 96
REMARK SMILES IDX 67 97 69 98 62 99 63 100 64 101 65 102 66 103
REMARK H PARENT 23 7 28 34 90 53 56 64
REMARK Flexibility Score: inf
ROOT
ATOM      1  C   UNL A   1      39.375  22.715  26.557  1.00  0.00     0.023 C 
ENDROOT
BRANCH   1   2
ATOM      2  C   UNL A   1      38.094  23.563  26.548  1.00  0.00     0.023 C 
BRANCH   2   3
ATOM      3  C   UNL A   1      36.864  22.885  25.929  1.00  0.00     0.116 C 
BRANCH   3   4
ATOM      4  N   UNL A   1      36.469  23.594  24.730  1.00  0.00    -0.352 N 
ATOM      5  C   UNL A   1      35.455  23.336  23.875  1.00  0.00     0.251 C 
ATOM      6  O   UNL A   1      35.601  23.631  22.693  1.00  0.00    -0.270 OA
ATOM      7  H   UNL A   1      37.020  24.379  24.506  1.00  0.00     0.163 HD
BRANCH   5   8
ATOM      8  C   UNL A   1      34.168  22.810  24.425  1.00  0.00     0.067 C 
ATOM      9  C   UNL A   1      31.915  26.179  24.001  1.00  0.00     0.026 A 
ATOM     10  C   UNL A   1      32.696  27.258  24.497  1.00  0.00     0.033 A 
ATOM     11  C   UNL A   1      32.372  24.886  24.315  1.00  0.00     0.135 A 
ATOM     12  C   UNL A   1      33.754  27.076  25.384  1.00  0.00     0.042 A 
ATOM     13  C   UNL A   1      33.371  24.730  25.311  1.00  0.00     0.019 A 
ATOM     14  O   UNL A   1      31.941  23.743  23.654  1.00  0.00    -0.475 OA
ATOM     15  Cl  UNL A   1      34.672  28.432  25.905  1.00  0.00    -0.084 Cl
ATOM     16  C   UNL A   1      34.049  25.815  25.857  1.00  0.00     0.032 A 
ATOM     17  C   UNL A   1      33.843  23.359  25.612  1.00  0.00     0.025 C 
ATOM     18  C   UNL A   1      33.025  22.738  23.418  1.00  0.00     0.314 C 
BRANCH   9  19
ATOM     19  C   UNL A   1      30.616  26.590  23.401  1.00  0.00    -0.015 A 
ATOM     20  C   UNL A   1      28.240  28.178  23.197  1.00  0.00    -0.048 A 
ATOM     21  C   UNL A   1      29.389  28.494  22.459  1.00  0.00     0.004 A 
ATOM     22  C   UNL A   1      28.247  26.979  23.919  1.00  0.00     0.004 A 
ATOM     23  C   UNL A   1      30.548  27.705  22.543  1.00  0.00     0.009 A 
ATOM     24  C   UNL A   1      29.415  26.194  24.016  1.00  0.00     0.009 A 
BRANCH  20  25
ATOM     25  C   UNL A   1      27.088  29.162  23.179  1.00  0.00     0.032 C 
ATOM     26  C   UNL A   1      27.415  30.648  23.288  1.00  0.00     0.009 C 
ENDBRANCH  20  25
ENDBRANCH   9  19
BRANCH  18  27
ATOM     27  C   UNL A   1      32.473  21.294  23.421  1.00  0.00     0.429 C 
ATOM     28  F   UNL A   1      33.426  20.369  23.676  1.00  0.00    -0.167 F 
ATOM     29  F   UNL A   1      31.497  21.142  24.350  1.00  0.00    -0.167 F 
ATOM     30  F   UNL A   1      31.913  20.949  22.230  1.00  0.00    -0.167 F 
ENDBRANCH  18  27
ENDBRANCH   5   8
ENDBRANCH   3   4
ENDBRANCH   2   3
ENDBRANCH   1   2
BRANCH   1  31
ATOM     31  C   UNL A   1      40.601  23.408  27.138  1.00  0.00     0.116 C 
BRANCH  31  32
ATOM     32  N   UNL A   1      41.359  24.113  26.118  1.00  0.00    -0.352 N 
ATOM     33  C   UNL A   1      41.635  25.454  26.016  1.00  0.00     0.251 C 
ATOM     34  H   UNL A   1      41.727  23.550  25.399  1.00  0.00     0.163 HD
ATOM     35  O   UNL A   1      42.117  25.899  24.974  1.00  0.00    -0.269 OA
BRANCH  33  36
ATOM     36  C   UNL A   1      41.332  26.362  27.142  1.00  0.00     0.039 A 
ATOM     37  C   UNL A   1      40.351  25.994  28.066  1.00  0.00     0.014 A 
ATOM     38  C   UNL A   1      42.016  27.573  27.292  1.00  0.00     0.014 A 
ATOM     39  C   UNL A   1      40.102  26.807  29.174  1.00  0.00     0.010 A 
ATOM     40  C   UNL A   1      41.820  28.343  28.436  1.00  0.00     0.010 A 
ATOM     41  C   UNL A   1      40.861  27.969  29.390  1.00  0.00    -0.014 A 
BRANCH  41  42
ATOM     42  C   UNL A   1      40.676  28.793  30.615  1.00  0.00     0.031 A 
ATOM     43  C   UNL A   1      39.608  29.851  30.669  1.00  0.00     0.074 A 
ATOM     44  C   UNL A   1      41.519  28.632  31.654  1.00  0.00     0.049 A 
ATOM     45  N   UNL A   1      39.333  30.699  31.628  1.00  0.00    -0.248 NA
ATOM     46  C   UNL A   1      38.754  29.997  29.479  1.00  0.00     0.031 C 
ATOM     47  C   UNL A   1      42.635  27.684  31.700  1.00  0.00     0.029 A 
ATOM     48  N   UNL A   1      41.581  29.272  32.868  1.00  0.00    -0.354 N 
ATOM     49  C   UNL A   1      38.292  31.487  31.153  1.00  0.00     0.074 A 
ATOM     50  C   UNL A   1      38.018  31.050  29.801  1.00  0.00     0.031 C 
ATOM     51  C   UNL A   1      43.257  27.791  32.883  1.00  0.00     0.029 A 
ATOM     52  C   UNL A   1      42.615  28.841  33.667  1.00  0.00     0.049 A 
ATOM     53  H   UNL A   1      40.946  29.973  33.140  1.00  0.00     0.167 HD
ATOM     54  C   UNL A   1      37.614  32.471  31.791  1.00  0.00     0.037 A 
ATOM     55  C   UNL A   1      43.010  29.253  34.889  1.00  0.00     0.037 A 
ATOM     56  C   UNL A   1      37.880  32.884  33.145  1.00  0.00     0.049 A 
ATOM     57  C   UNL A   1      42.235  30.337  35.584  1.00  0.00     0.074 A 
ATOM     58  C   UNL A   1      37.198  33.815  33.909  1.00  0.00     0.029 A 
ATOM     59  N   UNL A   1      38.916  32.404  33.934  1.00  0.00    -0.354 N 
ATOM     60  N   UNL A   1      41.194  31.011  35.154  1.00  0.00    -0.248 NA
ATOM     61  C   UNL A   1      42.678  30.712  36.934  1.00  0.00     0.031 C 
ATOM     62  C   UNL A   1      37.855  33.941  35.137  1.00  0.00     0.029 A 
ATOM     63  C   UNL A   1      38.910  33.043  35.164  1.00  0.00     0.049 A 
ATOM     64  H   UNL A   1      39.560  31.712  33.660  1.00  0.00     0.167 HD
ATOM     65  C   UNL A   1      40.846  31.875  36.187  1.00  0.00     0.074 A 
ATOM     66  C   UNL A   1      41.777  31.625  37.269  1.00  0.00     0.031 C 
ATOM     67  C   UNL A   1      39.845  32.789  36.235  1.00  0.00     0.037 A 
BRANCH  54  68
ATOM     68  C   UNL A   1      36.523  33.177  31.029  1.00  0.00     0.058 A 
ATOM     69  C   UNL A   1      35.164  32.973  31.316  1.00  0.00     0.135 A 
ATOM     70  C   UNL A   1      36.843  34.096  30.015  1.00  0.00     0.135 A 
ATOM     71  F   UNL A   1      34.798  32.098  32.268  1.00  0.00    -0.206 F 
ATOM     72  C   UNL A   1      34.161  33.622  30.602  1.00  0.00     0.059 A 
ATOM     73  C   UNL A   1      35.857  34.781  29.310  1.00  0.00     0.059 A 
ATOM     74  F   UNL A   1      38.126  34.334  29.698  1.00  0.00    -0.206 F 
ATOM     75  C   UNL A   1      34.519  34.523  29.599  1.00  0.00     0.060 A 
BRANCH  75  76
ATOM     76  S   UNL A   1      33.206  35.352  28.677  1.00  0.00     0.124 S 
ATOM     77  O   UNL A   1      32.588  34.229  27.980  1.00  0.00    -0.237 OA
ATOM     78  O   UNL A   1      32.409  35.953  29.743  1.00  0.00    -0.237 OA
ATOM     79  O   UNL A   1      33.928  36.296  27.830  1.00  0.00    -0.744 OA
ENDBRANCH  75  76
ENDBRANCH  54  68
BRANCH  55  80
ATOM     80  C   UNL A   1      44.194  28.619  35.532  1.00  0.00     0.058 A 
ATOM     81  C   UNL A   1      45.486  29.124  35.331  1.00  0.00     0.135 A 
ATOM     82  C   UNL A   1      44.049  27.515  36.388  1.00  0.00     0.135 A 
ATOM     83  F   UNL A   1      45.678  30.173  34.516  1.00  0.00    -0.206 F 
ATOM     84  C   UNL A   1      46.595  28.555  35.949  1.00  0.00     0.059 A 
ATOM     85  C   UNL A   1      45.139  26.946  37.039  1.00  0.00     0.059 A 
ATOM     86  F   UNL A   1      42.831  27.004  36.626  1.00  0.00    -0.206 F 
ATOM     87  C   UNL A   1      46.411  27.469  36.807  1.00  0.00     0.060 A 
BRANCH  87  88
ATOM     88  S   UNL A   1      47.848  26.784  37.658  1.00  0.00     0.124 S 
ATOM     89  O   UNL A   1      47.787  27.473  38.942  1.00  0.00    -0.237 OA
ATOM     90  O   UNL A   1      47.536  25.358  37.683  1.00  0.00    -0.237 OA
ATOM     91  O   UNL A   1      48.961  27.159  36.792  1.00  0.00    -0.744 OA
ENDBRANCH  87  88
ENDBRANCH  55  80
BRANCH  67  92
ATOM     92  C   UNL A   1      39.681  33.574  37.508  1.00  0.00     0.058 A 
ATOM     93  C   UNL A   1      40.412  34.748  37.753  1.00  0.00     0.135 A 
ATOM     94  C   UNL A   1      38.742  33.175  38.472  1.00  0.00     0.135 A 
ATOM     95  F   UNL A   1      41.328  35.172  36.867  1.00  0.00    -0.206 F 
ATOM     96  C   UNL A   1      40.235  35.484  38.920  1.00  0.00     0.059 A 
ATOM     97  C   UNL A   1      38.527  33.911  39.633  1.00  0.00     0.059 A 
ATOM     98  F   UNL A   1      38.008  32.066  38.285  1.00  0.00    -0.206 F 
ATOM     99  C   UNL A   1      39.287  35.059  39.854  1.00  0.00     0.060 A 
BRANCH  99 100
ATOM    100  S   UNL A   1      39.045  36.040  41.350  1.00  0.00     0.124 S 
ATOM    101  O   UNL A   1      38.960  37.391  40.805  1.00  0.00    -0.237 OA
ATOM    102  O   UNL A   1      37.802  35.492  41.884  1.00  0.00    -0.237 OA
ATOM    103  O   UNL A   1      40.239  35.756  42.141  1.00  0.00    -0.744 OA
ENDBRANCH  99 100
ENDBRANCH  67  92
ENDBRANCH  41  42
ENDBRANCH  33  36
ENDBRANCH  31  32
ENDBRANCH   1  31
TORSDOF 17
ENDMDL
