MODEL 1
REMARK VINA RESULT:     -12.0      0.000      0.000
REMARK SMILES O=C(CCNC(=O)/C(=C/c1ccccc1)NC(=O)c1ccccc1)NCCCCNC(=O)c1ccc(-c2c3nc(c(-c4c(F)cc(S(=O)(=O)[O-])cc4F)c4ccc([nH]4)c(-c4c(F)cc(S(=O)(=O)[O-])cc4F)c4nc(c(-c5c(F)cc(S(=O)(=O)[O-])cc5F)c5ccc2[nH]5)C=C4)C=C3)cc1
REMARK SMILES IDX 26 1 25 2 1 3 2 4 3 6 4 7 5 8 6 9 7 11 8 12 9 13 16 14 17 15
REMARK SMILES IDX 18 17 19 18 20 19 24 20 21 21 23 22 22 23 10 24 11 25 15 26
REMARK SMILES IDX 12 27 14 28 13 29 27 30 28 31 29 32 30 33 31 34 32 36 33 37
REMARK SMILES IDX 34 38 98 39 35 40 97 41 36 42 37 43 38 44 91 45 39 46 96 47
REMARK SMILES IDX 90 48 92 49 40 50 95 51 89 52 88 53 41 55 75 56 54 57 74 58
REMARK SMILES IDX 55 59 58 60 73 61 93 62 56 63 57 64 72 66 94 67 59 68 42 69
REMARK SMILES IDX 43 70 52 71 44 72 45 73 51 74 53 75 46 76 47 77 48 78 49 79
REMARK SMILES IDX 50 80 76 81 77 82 86 83 78 84 79 85 85 86 87 87 80 88 81 89
REMARK SMILES IDX 82 90 83 91 84 92 60 93 61 94 70 95 62 96 63 97 69 98 71 99
REMARK SMILES IDX 64 100 65 101 66 102 67 103 68 104
REMARK H PARENT 25 5 5 10 16 16 30 35 92 54 58 65
REMARK Flexibility Score: inf
ROOT
ATOM      1  C   UNL A   1      30.591  27.017  24.843  1.00  0.00     0.116 C 
ENDROOT
BRANCH   1   2
ATOM      2  N   UNL A   1      31.486  26.581  23.791  1.00  0.00    -0.356 N 
ATOM      3  O   UNL A   1      30.468  27.740  22.085  1.00  0.00    -0.275 OA
ATOM      4  C   UNL A   1      31.350  26.988  22.486  1.00  0.00     0.221 C 
ATOM      5  H   UNL A   1      32.222  25.969  24.020  1.00  0.00     0.163 HD
BRANCH   4   6
ATOM      6  C   UNL A   1      32.434  26.468  21.571  1.00  0.00     0.121 C 
BRANCH   6   7
ATOM      7  C   UNL A   1      33.233  25.385  22.277  1.00  0.00     0.126 C 
BRANCH   7   8
ATOM      8  N   UNL A   1      32.978  24.021  21.821  1.00  0.00    -0.350 N 
ATOM      9  C   UNL A   1      33.073  22.786  22.400  1.00  0.00     0.267 C 
ATOM     10  H   UNL A   1      32.669  23.982  20.888  1.00  0.00     0.163 HD
ATOM     11  O   UNL A   1      32.306  21.932  21.950  1.00  0.00    -0.268 OA
BRANCH   9  12
ATOM     12  C   UNL A   1      34.042  22.422  23.505  1.00  0.00     0.107 C 
ATOM     13  C   UNL A   1      35.328  22.808  23.388  1.00  0.00     0.040 C 
BRANCH  12  14
ATOM     14  N   UNL A   1      33.587  21.957  24.730  1.00  0.00    -0.317 N 
ATOM     15  C   UNL A   1      33.166  20.740  25.212  1.00  0.00     0.255 C 
ATOM     16  H   UNL A   1      33.557  22.664  25.414  1.00  0.00     0.170 HD
ATOM     17  O   UNL A   1      32.586  20.703  26.296  1.00  0.00    -0.269 OA
BRANCH  15  18
ATOM     18  C   UNL A   1      33.438  19.480  24.514  1.00  0.00     0.040 A 
ATOM     19  C   UNL A   1      32.478  18.993  23.619  1.00  0.00     0.014 A 
ATOM     20  C   UNL A   1      34.607  18.760  24.778  1.00  0.00     0.014 A 
ATOM     21  C   UNL A   1      32.727  17.814  22.925  1.00  0.00     0.001 A 
ATOM     22  C   UNL A   1      34.845  17.575  24.090  1.00  0.00     0.001 A 
ATOM     23  C   UNL A   1      33.913  17.118  23.160  1.00  0.00     0.000 A 
ENDBRANCH  15  18
ENDBRANCH  12  14
BRANCH  13  24
ATOM     24  C   UNL A   1      36.453  22.684  24.339  1.00  0.00    -0.023 A 
ATOM     25  C   UNL A   1      36.786  23.824  25.086  1.00  0.00     0.008 A 
ATOM     26  C   UNL A   1      37.239  21.534  24.490  1.00  0.00     0.008 A 
ATOM     27  C   UNL A   1      37.841  23.803  25.998  1.00  0.00     0.001 A 
ATOM     28  C   UNL A   1      38.279  21.504  25.424  1.00  0.00     0.001 A 
ATOM     29  C   UNL A   1      38.579  22.637  26.178  1.00  0.00     0.000 A 
ENDBRANCH  13  24
ENDBRANCH   9  12
ENDBRANCH   7   8
ENDBRANCH   6   7
ENDBRANCH   4   6
ENDBRANCH   1   2
BRANCH   1  30
ATOM     30  C   UNL A   1      31.334  27.307  26.145  1.00  0.00     0.023 C 
BRANCH  30  31
ATOM     31  C   UNL A   1      32.705  27.972  25.971  1.00  0.00     0.023 C 
BRANCH  31  32
ATOM     32  C   UNL A   1      33.434  28.332  27.264  1.00  0.00     0.116 C 
BRANCH  32  33
ATOM     33  N   UNL A   1      33.413  29.760  27.537  1.00  0.00    -0.352 N 
ATOM     34  C   UNL A   1      34.396  30.564  28.067  1.00  0.00     0.251 C 
ATOM     35  H   UNL A   1      32.572  30.218  27.309  1.00  0.00     0.163 HD
ATOM     36  O   UNL A   1      34.132  31.720  28.383  1.00  0.00    -0.269 OA
BRANCH  34  37
ATOM     37  C   UNL A   1      35.763  30.035  28.276  1.00  0.00     0.039 A 
ATOM     38  C   UNL A   1      36.676  30.069  27.220  1.00  0.00     0.014 A 
ATOM     39  C   UNL A   1      36.143  29.490  29.503  1.00  0.00     0.014 A 
ATOM     40  C   UNL A   1      37.996  29.639  27.420  1.00  0.00     0.010 A 
ATOM     41  C   UNL A   1      37.470  29.112  29.712  1.00  0.00     0.010 A 
ATOM     42  C   UNL A   1      38.423  29.205  28.686  1.00  0.00    -0.014 A 
BRANCH  42  43
ATOM     43  C   UNL A   1      39.853  28.875  28.966  1.00  0.00     0.031 A 
ATOM     44  C   UNL A   1      40.787  29.916  29.533  1.00  0.00     0.074 A 
ATOM     45  C   UNL A   1      40.345  27.665  28.625  1.00  0.00     0.049 A 
ATOM     46  N   UNL A   1      42.076  29.841  29.752  1.00  0.00    -0.248 NA
ATOM     47  C   UNL A   1      40.203  31.226  29.864  1.00  0.00     0.031 C 
ATOM     48  C   UNL A   1      39.583  26.585  27.993  1.00  0.00     0.029 A 
ATOM     49  N   UNL A   1      41.610  27.140  28.749  1.00  0.00    -0.354 N 
ATOM     50  C   UNL A   1      42.460  31.093  30.218  1.00  0.00     0.074 A 
ATOM     51  C   UNL A   1      41.278  31.927  30.197  1.00  0.00     0.031 C 
ATOM     52  C   UNL A   1      40.384  25.522  27.814  1.00  0.00     0.029 A 
ATOM     53  C   UNL A   1      41.728  25.851  28.279  1.00  0.00     0.049 A 
ATOM     54  H   UNL A   1      42.364  27.640  29.138  1.00  0.00     0.167 HD
ATOM     55  C   UNL A   1      43.674  31.507  30.656  1.00  0.00     0.037 A 
ATOM     56  C   UNL A   1      42.792  25.026  28.222  1.00  0.00     0.037 A 
ATOM     57  C   UNL A   1      44.841  30.667  30.727  1.00  0.00     0.049 A 
ATOM     58  C   UNL A   1      44.123  25.494  28.748  1.00  0.00     0.074 A 
ATOM     59  C   UNL A   1      46.094  30.976  31.230  1.00  0.00     0.029 A 
ATOM     60  N   UNL A   1      44.903  29.353  30.287  1.00  0.00    -0.354 N 
ATOM     61  N   UNL A   1      44.443  26.659  29.258  1.00  0.00    -0.248 NA
ATOM     62  C   UNL A   1      45.235  24.534  28.699  1.00  0.00     0.031 C 
ATOM     63  C   UNL A   1      46.921  29.860  31.066  1.00  0.00     0.029 A 
ATOM     64  C   UNL A   1      46.173  28.842  30.499  1.00  0.00     0.049 A 
ATOM     65  H   UNL A   1      44.154  28.857  29.884  1.00  0.00     0.167 HD
ATOM     66  C   UNL A   1      45.784  26.562  29.613  1.00  0.00     0.074 A 
ATOM     67  C   UNL A   1      46.212  25.221  29.274  1.00  0.00     0.031 C 
ATOM     68  C   UNL A   1      46.587  27.501  30.171  1.00  0.00     0.037 A 
BRANCH  55  69
ATOM     69  C   UNL A   1      43.798  32.933  31.122  1.00  0.00     0.058 A 
ATOM     70  C   UNL A   1      43.568  33.290  32.461  1.00  0.00     0.135 A 
ATOM     71  C   UNL A   1      44.192  33.948  30.234  1.00  0.00     0.135 A 
ATOM     72  F   UNL A   1      43.179  32.364  33.350  1.00  0.00    -0.206 F 
ATOM     73  C   UNL A   1      43.689  34.606  32.894  1.00  0.00     0.059 A 
ATOM     74  C   UNL A   1      44.347  35.266  30.652  1.00  0.00     0.059 A 
ATOM     75  F   UNL A   1      44.430  33.662  28.944  1.00  0.00    -0.206 F 
ATOM     76  C   UNL A   1      44.077  35.588  31.982  1.00  0.00     0.060 A 
BRANCH  76  77
ATOM     77  S   UNL A   1      44.232  37.290  32.563  1.00  0.00     0.124 S 
ATOM     78  O   UNL A   1      45.613  37.311  33.035  1.00  0.00    -0.237 OA
ATOM     79  O   UNL A   1      43.965  38.059  31.352  1.00  0.00    -0.237 OA
ATOM     80  O   UNL A   1      43.211  37.390  33.602  1.00  0.00    -0.744 OA
ENDBRANCH  76  77
ENDBRANCH  55  69
BRANCH  56  81
ATOM     81  C   UNL A   1      42.640  23.650  27.672  1.00  0.00     0.058 A 
ATOM     82  C   UNL A   1      42.770  23.407  26.296  1.00  0.00     0.135 A 
ATOM     83  C   UNL A   1      42.366  22.556  28.506  1.00  0.00     0.135 A 
ATOM     84  F   UNL A   1      43.024  24.422  25.457  1.00  0.00    -0.206 F 
ATOM     85  C   UNL A   1      42.617  22.131  25.763  1.00  0.00     0.059 A 
ATOM     86  C   UNL A   1      42.232  21.266  27.999  1.00  0.00     0.059 A 
ATOM     87  F   UNL A   1      42.250  22.731  29.831  1.00  0.00    -0.206 F 
ATOM     88  C   UNL A   1      42.348  21.065  26.624  1.00  0.00     0.060 A 
BRANCH  88  89
ATOM     89  S   UNL A   1      42.199  19.405  25.927  1.00  0.00     0.124 S 
ATOM     90  O   UNL A   1      40.759  19.298  25.729  1.00  0.00    -0.237 OA
ATOM     91  O   UNL A   1      43.005  19.507  24.715  1.00  0.00    -0.237 OA
ATOM     92  O   UNL A   1      42.760  18.554  26.972  1.00  0.00    -0.744 OA
ENDBRANCH  88  89
ENDBRANCH  56  81
BRANCH  68  93
ATOM     93  C   UNL A   1      48.003  27.106  30.491  1.00  0.00     0.058 A 
ATOM     94  C   UNL A   1      49.056  27.338  29.592  1.00  0.00     0.135 A 
ATOM     95  C   UNL A   1      48.317  26.539  31.737  1.00  0.00     0.135 A 
ATOM     96  F   UNL A   1      48.809  27.871  28.385  1.00  0.00    -0.206 F 
ATOM     97  C   UNL A   1      50.369  27.001  29.909  1.00  0.00     0.059 A 
ATOM     98  C   UNL A   1      49.626  26.218  32.084  1.00  0.00     0.059 A 
ATOM     99  F   UNL A   1      47.349  26.305  32.637  1.00  0.00    -0.206 F 
ATOM    100  C   UNL A   1      50.644  26.444  31.159  1.00  0.00     0.060 A 
BRANCH 100 101
ATOM    101  S   UNL A   1      52.355  26.045  31.574  1.00  0.00     0.124 S 
ATOM    102  O   UNL A   1      52.998  26.111  30.265  1.00  0.00    -0.237 OA
ATOM    103  O   UNL A   1      52.708  27.110  32.507  1.00  0.00    -0.237 OA
ATOM    104  O   UNL A   1      52.261  24.712  32.161  1.00  0.00    -0.744 OA
ENDBRANCH 100 101
ENDBRANCH  68  93
ENDBRANCH  42  43
ENDBRANCH  34  37
ENDBRANCH  32  33
ENDBRANCH  31  32
ENDBRANCH  30  31
ENDBRANCH   1  30
TORSDOF 20
ENDMDL
MODEL 2
REMARK VINA RESULT:     -11.8      2.661      4.191
REMARK SMILES O=C(CCNC(=O)/C(=C/c1ccccc1)NC(=O)c1ccccc1)NCCCCNC(=O)c1ccc(-c2c3nc(c(-c4c(F)cc(S(=O)(=O)[O-])cc4F)c4ccc([nH]4)c(-c4c(F)cc(S(=O)(=O)[O-])cc4F)c4nc(c(-c5c(F)cc(S(=O)(=O)[O-])cc5F)c5ccc2[nH]5)C=C4)C=C3)cc1
REMARK SMILES IDX 26 1 25 2 1 3 2 4 3 6 4 7 5 8 6 9 7 11 8 12 9 13 16 14 17 15
REMARK SMILES IDX 18 17 19 18 20 19 24 20 21 21 23 22 22 23 10 24 11 25 15 26
REMARK SMILES IDX 12 27 14 28 13 29 27 30 28 31 29 32 30 33 31 34 32 36 33 37
REMARK SMILES IDX 34 38 98 39 35 40 97 41 36 42 37 43 38 44 91 45 39 46 96 47
REMARK SMILES IDX 90 48 92 49 40 50 95 51 89 52 88 53 41 55 75 56 54 57 74 58
REMARK SMILES IDX 55 59 58 60 73 61 93 62 56 63 57 64 72 66 94 67 59 68 42 69
REMARK SMILES IDX 43 70 52 71 44 72 45 73 51 74 53 75 46 76 47 77 48 78 49 79
REMARK SMILES IDX 50 80 76 81 77 82 86 83 78 84 79 85 85 86 87 87 80 88 81 89
REMARK SMILES IDX 82 90 83 91 84 92 60 93 61 94 70 95 62 96 63 97 69 98 71 99
REMARK SMILES IDX 64 100 65 101 66 102 67 103 68 104
REMARK H PARENT 25 5 5 10 16 16 30 35 92 54 58 65
REMARK Flexibility Score: inf
ROOT
ATOM      1  C   UNL A   1      31.986  28.927  26.176  1.00  0.00     0.116 C 
ENDROOT
BRANCH   1   2
ATOM      2  N   UNL A   1      31.436  28.009  25.199  1.00  0.00    -0.356 N 
ATOM      3  O   UNL A   1      30.723  26.423  26.704  1.00  0.00    -0.275 OA
ATOM      4  C   UNL A   1      30.839  26.823  25.551  1.00  0.00     0.221 C 
ATOM      5  H   UNL A   1      31.491  28.246  24.245  1.00  0.00     0.163 HD
BRANCH   4   6
ATOM      6  C   UNL A   1      30.274  26.057  24.378  1.00  0.00     0.121 C 
BRANCH   6   7
ATOM      7  C   UNL A   1      31.001  24.732  24.225  1.00  0.00     0.126 C 
BRANCH   7   8
ATOM      8  N   UNL A   1      31.055  23.904  25.427  1.00  0.00    -0.350 N 
ATOM      9  C   UNL A   1      31.853  22.876  25.846  1.00  0.00     0.267 C 
ATOM     10  H   UNL A   1      30.361  24.140  26.084  1.00  0.00     0.163 HD
ATOM     11  O   UNL A   1      31.977  22.768  27.067  1.00  0.00    -0.268 OA
BRANCH   9  12
ATOM     12  C   UNL A   1      32.548  21.893  24.927  1.00  0.00     0.107 C 
ATOM     13  C   UNL A   1      32.375  20.574  25.146  1.00  0.00     0.040 C 
BRANCH  12  14
ATOM     14  N   UNL A   1      33.114  22.310  23.732  1.00  0.00    -0.317 N 
ATOM     15  C   UNL A   1      34.330  22.838  23.365  1.00  0.00     0.255 C 
ATOM     16  H   UNL A   1      32.503  22.204  22.968  1.00  0.00     0.170 HD
ATOM     17  O   UNL A   1      34.443  23.337  22.246  1.00  0.00    -0.269 OA
BRANCH  15  18
ATOM     18  C   UNL A   1      35.511  22.772  24.231  1.00  0.00     0.040 A 
ATOM     19  C   UNL A   1      35.910  23.933  24.903  1.00  0.00     0.014 A 
ATOM     20  C   UNL A   1      36.247  21.588  24.339  1.00  0.00     0.014 A 
ATOM     21  C   UNL A   1      37.011  23.888  25.750  1.00  0.00     0.001 A 
ATOM     22  C   UNL A   1      37.354  21.551  25.180  1.00  0.00     0.001 A 
ATOM     23  C   UNL A   1      37.720  22.694  25.890  1.00  0.00     0.000 A 
ENDBRANCH  15  18
ENDBRANCH  12  14
BRANCH  13  24
ATOM     24  C   UNL A   1      32.840  19.408  24.366  1.00  0.00    -0.023 A 
ATOM     25  C   UNL A   1      33.999  18.759  24.817  1.00  0.00     0.008 A 
ATOM     26  C   UNL A   1      32.240  18.956  23.183  1.00  0.00     0.008 A 
ATOM     27  C   UNL A   1      34.518  17.657  24.137  1.00  0.00     0.001 A 
ATOM     28  C   UNL A   1      32.744  17.834  22.516  1.00  0.00     0.001 A 
ATOM     29  C   UNL A   1      33.881  17.185  22.993  1.00  0.00     0.000 A 
ENDBRANCH  13  24
ENDBRANCH   9  12
ENDBRANCH   7   8
ENDBRANCH   6   7
ENDBRANCH   4   6
ENDBRANCH   1   2
BRANCH   1  30
ATOM     30  C   UNL A   1      33.466  28.662  26.442  1.00  0.00     0.023 C 
BRANCH  30  31
ATOM     31  C   UNL A   1      34.248  29.863  26.989  1.00  0.00     0.023 C 
BRANCH  31  32
ATOM     32  C   UNL A   1      35.436  29.523  27.887  1.00  0.00     0.116 C 
BRANCH  32  33
ATOM     33  N   UNL A   1      35.347  30.156  29.193  1.00  0.00    -0.352 N 
ATOM     34  C   UNL A   1      36.336  30.400  30.118  1.00  0.00     0.251 C 
ATOM     35  H   UNL A   1      34.445  30.453  29.454  1.00  0.00     0.163 HD
ATOM     36  O   UNL A   1      36.037  30.792  31.241  1.00  0.00    -0.269 OA
BRANCH  34  37
ATOM     37  C   UNL A   1      37.758  30.172  29.769  1.00  0.00     0.039 A 
ATOM     38  C   UNL A   1      38.663  29.836  30.778  1.00  0.00     0.014 A 
ATOM     39  C   UNL A   1      38.204  30.306  28.454  1.00  0.00     0.014 A 
ATOM     40  C   UNL A   1      39.996  29.547  30.456  1.00  0.00     0.010 A 
ATOM     41  C   UNL A   1      39.520  29.967  28.131  1.00  0.00     0.010 A 
ATOM     42  C   UNL A   1      40.428  29.557  29.119  1.00  0.00    -0.014 A 
BRANCH  42  43
ATOM     43  C   UNL A   1      41.802  29.117  28.731  1.00  0.00     0.031 A 
ATOM     44  C   UNL A   1      42.937  30.109  28.659  1.00  0.00     0.074 A 
ATOM     45  C   UNL A   1      42.018  27.840  28.349  1.00  0.00     0.049 A 
ATOM     46  N   UNL A   1      44.169  29.929  28.253  1.00  0.00    -0.248 NA
ATOM     47  C   UNL A   1      42.640  31.492  29.063  1.00  0.00     0.031 C 
ATOM     48  C   UNL A   1      41.000  26.788  28.288  1.00  0.00     0.029 A 
ATOM     49  N   UNL A   1      43.164  27.208  27.926  1.00  0.00    -0.354 N 
ATOM     50  C   UNL A   1      44.783  31.174  28.327  1.00  0.00     0.074 A 
ATOM     51  C   UNL A   1      43.772  32.113  28.762  1.00  0.00     0.031 C 
ATOM     52  C   UNL A   1      41.572  25.641  27.884  1.00  0.00     0.029 A 
ATOM     53  C   UNL A   1      42.987  25.878  27.618  1.00  0.00     0.049 A 
ATOM     54  H   UNL A   1      44.033  27.666  27.850  1.00  0.00     0.167 HD
ATOM     55  C   UNL A   1      46.075  31.506  28.087  1.00  0.00     0.037 A 
ATOM     56  C   UNL A   1      43.858  24.952  27.168  1.00  0.00     0.037 A 
ATOM     57  C   UNL A   1      47.097  30.567  27.702  1.00  0.00     0.049 A 
ATOM     58  C   UNL A   1      45.296  25.334  26.944  1.00  0.00     0.074 A 
ATOM     59  C   UNL A   1      48.450  30.796  27.514  1.00  0.00     0.029 A 
ATOM     60  N   UNL A   1      46.884  29.220  27.450  1.00  0.00    -0.354 N 
ATOM     61  N   UNL A   1      45.872  26.503  27.097  1.00  0.00    -0.248 NA
ATOM     62  C   UNL A   1      46.207  24.271  26.496  1.00  0.00     0.031 C 
ATOM     63  C   UNL A   1      49.048  29.596  27.118  1.00  0.00     0.029 A 
ATOM     64  C   UNL A   1      48.077  28.609  27.099  1.00  0.00     0.049 A 
ATOM     65  H   UNL A   1      46.013  28.765  27.511  1.00  0.00     0.167 HD
ATOM     66  C   UNL A   1      47.214  26.309  26.788  1.00  0.00     0.074 A 
ATOM     67  C   UNL A   1      47.369  24.909  26.453  1.00  0.00     0.031 C 
ATOM     68  C   UNL A   1      48.225  27.211  26.782  1.00  0.00     0.037 A 
BRANCH  55  69
ATOM     69  C   UNL A   1      46.469  32.948  28.262  1.00  0.00     0.058 A 
ATOM     70  C   UNL A   1      46.390  33.864  27.200  1.00  0.00     0.135 A 
ATOM     71  C   UNL A   1      46.889  33.432  29.512  1.00  0.00     0.135 A 
ATOM     72  F   UNL A   1      46.005  33.455  25.982  1.00  0.00    -0.206 F 
ATOM     73  C   UNL A   1      46.747  35.198  27.362  1.00  0.00     0.059 A 
ATOM     74  C   UNL A   1      47.224  34.769  29.703  1.00  0.00     0.059 A 
ATOM     75  F   UNL A   1      46.978  32.602  30.563  1.00  0.00    -0.206 F 
ATOM     76  C   UNL A   1      47.165  35.642  28.617  1.00  0.00     0.060 A 
BRANCH  76  77
ATOM     77  S   UNL A   1      47.621  37.378  28.808  1.00  0.00     0.124 S 
ATOM     78  O   UNL A   1      48.578  37.306  29.907  1.00  0.00    -0.237 OA
ATOM     79  O   UNL A   1      48.182  37.700  27.500  1.00  0.00    -0.237 OA
ATOM     80  O   UNL A   1      46.354  38.031  29.120  1.00  0.00    -0.744 OA
ENDBRANCH  76  77
ENDBRANCH  55  69
BRANCH  56  81
ATOM     81  C   UNL A   1      43.402  23.555  26.928  1.00  0.00     0.058 A 
ATOM     82  C   UNL A   1      43.133  23.100  25.628  1.00  0.00     0.135 A 
ATOM     83  C   UNL A   1      43.229  22.650  27.985  1.00  0.00     0.135 A 
ATOM     84  F   UNL A   1      43.276  23.930  24.584  1.00  0.00    -0.206 F 
ATOM     85  C   UNL A   1      42.692  21.803  25.385  1.00  0.00     0.059 A 
ATOM     86  C   UNL A   1      42.812  21.341  27.766  1.00  0.00     0.059 A 
ATOM     87  F   UNL A   1      43.489  23.029  29.246  1.00  0.00    -0.206 F 
ATOM     88  C   UNL A   1      42.535  20.929  26.462  1.00  0.00     0.060 A 
BRANCH  88  89
ATOM     89  S   UNL A   1      42.009  19.232  26.133  1.00  0.00     0.124 S 
ATOM     90  O   UNL A   1      42.385  18.563  27.371  1.00  0.00    -0.237 OA
ATOM     91  O   UNL A   1      40.577  19.393  25.902  1.00  0.00    -0.237 OA
ATOM     92  O   UNL A   1      42.788  18.865  24.954  1.00  0.00    -0.744 OA
ENDBRANCH  88  89
ENDBRANCH  56  81
BRANCH  68  93
ATOM     93  C   UNL A   1      49.603  26.711  26.443  1.00  0.00     0.058 A 
ATOM     94  C   UNL A   1      50.404  26.053  27.390  1.00  0.00     0.135 A 
ATOM     95  C   UNL A   1      50.105  26.844  25.138  1.00  0.00     0.135 A 
ATOM     96  F   UNL A   1      49.974  25.907  28.653  1.00  0.00    -0.206 F 
ATOM     97  C   UNL A   1      51.664  25.563  27.061  1.00  0.00     0.059 A 
ATOM     98  C   UNL A   1      51.352  26.338  24.781  1.00  0.00     0.059 A 
ATOM     99  F   UNL A   1      49.376  27.456  24.192  1.00  0.00    -0.206 F 
ATOM    100  C   UNL A   1      52.128  25.708  25.752  1.00  0.00     0.060 A 
BRANCH 100 101
ATOM    101  S   UNL A   1      53.748  25.035  25.326  1.00  0.00     0.124 S 
ATOM    102  O   UNL A   1      53.491  23.599  25.367  1.00  0.00    -0.237 OA
ATOM    103  O   UNL A   1      53.984  25.598  24.001  1.00  0.00    -0.237 OA
ATOM    104  O   UNL A   1      54.617  25.548  26.381  1.00  0.00    -0.744 OA
ENDBRANCH 100 101
ENDBRANCH  68  93
ENDBRANCH  42  43
ENDBRANCH  34  37
ENDBRANCH  32  33
ENDBRANCH  31  32
ENDBRANCH  30  31
ENDBRANCH   1  30
TORSDOF 20
ENDMDL
MODEL 3
REMARK VINA RESULT:     -11.6      2.809      4.206
REMARK SMILES O=C(CCNC(=O)/C(=C/c1ccccc1)NC(=O)c1ccccc1)NCCCCNC(=O)c1ccc(-c2c3nc(c(-c4c(F)cc(S(=O)(=O)[O-])cc4F)c4ccc([nH]4)c(-c4c(F)cc(S(=O)(=O)[O-])cc4F)c4nc(c(-c5c(F)cc(S(=O)(=O)[O-])cc5F)c5ccc2[nH]5)C=C4)C=C3)cc1
REMARK SMILES IDX 26 1 25 2 1 3 2 4 3 6 4 7 5 8 6 9 7 11 8 12 9 13 16 14 17 15
REMARK SMILES IDX 18 17 19 18 20 19 24 20 21 21 23 22 22 23 10 24 11 25 15 26
REMARK SMILES IDX 12 27 14 28 13 29 27 30 28 31 29 32 30 33 31 34 32 36 33 37
REMARK SMILES IDX 34 38 98 39 35 40 97 41 36 42 37 43 38 44 91 45 39 46 96 47
REMARK SMILES IDX 90 48 92 49 40 50 95 51 89 52 88 53 41 55 75 56 54 57 74 58
REMARK SMILES IDX 55 59 58 60 73 61 93 62 56 63 57 64 72 66 94 67 59 68 42 69
REMARK SMILES IDX 43 70 52 71 44 72 45 73 51 74 53 75 46 76 47 77 48 78 49 79
REMARK SMILES IDX 50 80 76 81 77 82 86 83 78 84 79 85 85 86 87 87 80 88 81 89
REMARK SMILES IDX 82 90 83 91 84 92 60 93 61 94 70 95 62 96 63 97 69 98 71 99
REMARK SMILES IDX 64 100 65 101 66 102 67 103 68 104
REMARK H PARENT 25 5 5 10 16 16 30 35 92 54 58 65
REMARK Flexibility Score: inf
ROOT
ATOM      1  C   UNL A   1      33.972  32.050  27.928  1.00  0.00     0.116 C 
ENDROOT
BRANCH   1   2
ATOM      2  N   UNL A   1      33.764  30.618  28.007  1.00  0.00    -0.356 N 
ATOM      3  O   UNL A   1      32.254  30.478  26.278  1.00  0.00    -0.275 OA
ATOM      4  C   UNL A   1      32.917  29.945  27.161  1.00  0.00     0.221 C 
ATOM      5  H   UNL A   1      34.251  30.107  28.693  1.00  0.00     0.163 HD
BRANCH   4   6
ATOM      6  C   UNL A   1      32.907  28.449  27.375  1.00  0.00     0.121 C 
BRANCH   6   7
ATOM      7  C   UNL A   1      31.649  27.847  26.772  1.00  0.00     0.126 C 
BRANCH   7   8
ATOM      8  N   UNL A   1      31.704  27.592  25.335  1.00  0.00    -0.350 N 
ATOM      9  C   UNL A   1      31.995  26.498  24.568  1.00  0.00     0.267 C 
ATOM     10  H   UNL A   1      31.482  28.386  24.797  1.00  0.00     0.163 HD
ATOM     11  O   UNL A   1      31.448  26.467  23.464  1.00  0.00    -0.268 OA
BRANCH   9  12
ATOM     12  C   UNL A   1      32.927  25.378  24.980  1.00  0.00     0.107 C 
ATOM     13  C   UNL A   1      34.074  25.208  24.291  1.00  0.00     0.040 C 
BRANCH  12  14
ATOM     14  N   UNL A   1      32.765  24.721  26.190  1.00  0.00    -0.317 N 
ATOM     15  C   UNL A   1      32.525  23.420  26.566  1.00  0.00     0.255 C 
ATOM     16  H   UNL A   1      32.837  25.329  26.961  1.00  0.00     0.170 HD
ATOM     17  O   UNL A   1      32.187  23.193  27.727  1.00  0.00    -0.269 OA
BRANCH  15  18
ATOM     18  C   UNL A   1      32.718  22.289  25.653  1.00  0.00     0.040 A 
ATOM     19  C   UNL A   1      31.971  22.252  24.470  1.00  0.00     0.014 A 
ATOM     20  C   UNL A   1      33.591  21.249  25.987  1.00  0.00     0.014 A 
ATOM     21  C   UNL A   1      32.157  21.203  23.577  1.00  0.00     0.001 A 
ATOM     22  C   UNL A   1      33.765  20.196  25.095  1.00  0.00     0.001 A 
ATOM     23  C   UNL A   1      33.060  20.187  23.893  1.00  0.00     0.000 A 
ENDBRANCH  15  18
ENDBRANCH  12  14
BRANCH  13  24
ATOM     24  C   UNL A   1      35.200  24.280  24.525  1.00  0.00    -0.023 A 
ATOM     25  C   UNL A   1      35.489  23.359  23.506  1.00  0.00     0.008 A 
ATOM     26  C   UNL A   1      35.944  24.220  25.710  1.00  0.00     0.008 A 
ATOM     27  C   UNL A   1      36.527  22.436  23.645  1.00  0.00     0.001 A 
ATOM     28  C   UNL A   1      37.002  23.314  25.838  1.00  0.00     0.001 A 
ATOM     29  C   UNL A   1      37.293  22.424  24.806  1.00  0.00     0.000 A 
ENDBRANCH  13  24
ENDBRANCH   9  12
ENDBRANCH   7   8
ENDBRANCH   6   7
ENDBRANCH   4   6
ENDBRANCH   1   2
BRANCH   1  30
ATOM     30  C   UNL A   1      35.454  32.417  27.953  1.00  0.00     0.023 C 
BRANCH  30  31
ATOM     31  C   UNL A   1      35.806  33.621  28.834  1.00  0.00     0.023 C 
BRANCH  31  32
ATOM     32  C   UNL A   1      36.561  33.299  30.123  1.00  0.00     0.116 C 
BRANCH  32  33
ATOM     33  N   UNL A   1      36.048  32.111  30.786  1.00  0.00    -0.352 N 
ATOM     34  C   UNL A   1      36.594  30.850  30.870  1.00  0.00     0.251 C 
ATOM     35  H   UNL A   1      35.184  32.226  31.243  1.00  0.00     0.163 HD
ATOM     36  O   UNL A   1      35.929  29.929  31.330  1.00  0.00    -0.269 OA
BRANCH  34  37
ATOM     37  C   UNL A   1      37.972  30.599  30.388  1.00  0.00     0.039 A 
ATOM     38  C   UNL A   1      39.024  30.584  31.307  1.00  0.00     0.014 A 
ATOM     39  C   UNL A   1      38.232  30.395  29.033  1.00  0.00     0.014 A 
ATOM     40  C   UNL A   1      40.323  30.276  30.879  1.00  0.00     0.010 A 
ATOM     41  C   UNL A   1      39.518  30.039  28.621  1.00  0.00     0.010 A 
ATOM     42  C   UNL A   1      40.576  29.947  29.538  1.00  0.00    -0.014 A 
BRANCH  42  43
ATOM     43  C   UNL A   1      41.919  29.479  29.080  1.00  0.00     0.031 A 
ATOM     44  C   UNL A   1      43.076  30.442  28.972  1.00  0.00     0.074 A 
ATOM     45  C   UNL A   1      42.084  28.203  28.670  1.00  0.00     0.049 A 
ATOM     46  N   UNL A   1      44.283  30.238  28.507  1.00  0.00    -0.248 NA
ATOM     47  C   UNL A   1      42.833  31.826  29.409  1.00  0.00     0.031 C 
ATOM     48  C   UNL A   1      41.038  27.178  28.640  1.00  0.00     0.029 A 
ATOM     49  N   UNL A   1      43.193  27.549  28.186  1.00  0.00    -0.354 N 
ATOM     50  C   UNL A   1      44.932  31.465  28.571  1.00  0.00     0.074 A 
ATOM     51  C   UNL A   1      43.966  32.423  29.066  1.00  0.00     0.031 C 
ATOM     52  C   UNL A   1      41.560  26.023  28.194  1.00  0.00     0.029 A 
ATOM     53  C   UNL A   1      42.967  26.229  27.867  1.00  0.00     0.049 A 
ATOM     54  H   UNL A   1      44.069  27.985  28.077  1.00  0.00     0.167 HD
ATOM     55  C   UNL A   1      46.220  31.768  28.278  1.00  0.00     0.037 A 
ATOM     56  C   UNL A   1      43.792  25.289  27.364  1.00  0.00     0.037 A 
ATOM     57  C   UNL A   1      47.198  30.810  27.832  1.00  0.00     0.049 A 
ATOM     58  C   UNL A   1      45.229  25.637  27.080  1.00  0.00     0.074 A 
ATOM     59  C   UNL A   1      48.547  31.008  27.586  1.00  0.00     0.029 A 
ATOM     60  N   UNL A   1      46.939  29.473  27.570  1.00  0.00    -0.354 N 
ATOM     61  N   UNL A   1      45.841  26.788  27.224  1.00  0.00    -0.248 NA
ATOM     62  C   UNL A   1      46.090  24.558  26.575  1.00  0.00     0.031 C 
ATOM     63  C   UNL A   1      49.095  29.799  27.145  1.00  0.00     0.029 A 
ATOM     64  C   UNL A   1      48.098  28.837  27.156  1.00  0.00     0.049 A 
ATOM     65  H   UNL A   1      46.060  29.039  27.664  1.00  0.00     0.167 HD
ATOM     66  C   UNL A   1      47.162  26.565  26.851  1.00  0.00     0.074 A 
ATOM     67  C   UNL A   1      47.265  25.167  26.489  1.00  0.00     0.031 C 
ATOM     68  C   UNL A   1      48.195  27.442  26.812  1.00  0.00     0.037 A 
BRANCH  55  69
ATOM     69  C   UNL A   1      46.658  33.197  28.455  1.00  0.00     0.058 A 
ATOM     70  C   UNL A   1      46.577  34.126  27.405  1.00  0.00     0.135 A 
ATOM     71  C   UNL A   1      47.125  33.656  29.699  1.00  0.00     0.135 A 
ATOM     72  F   UNL A   1      46.150  33.740  26.193  1.00  0.00    -0.206 F 
ATOM     73  C   UNL A   1      46.976  35.448  27.570  1.00  0.00     0.059 A 
ATOM     74  C   UNL A   1      47.503  34.981  29.893  1.00  0.00     0.059 A 
ATOM     75  F   UNL A   1      47.218  32.813  30.739  1.00  0.00    -0.206 F 
ATOM     76  C   UNL A   1      47.439  35.867  28.817  1.00  0.00     0.060 A 
BRANCH  76  77
ATOM     77  S   UNL A   1      47.949  37.587  29.013  1.00  0.00     0.124 S 
ATOM     78  O   UNL A   1      49.161  37.624  28.202  1.00  0.00    -0.237 OA
ATOM     79  O   UNL A   1      46.805  38.316  28.475  1.00  0.00    -0.237 OA
ATOM     80  O   UNL A   1      48.152  37.721  30.453  1.00  0.00    -0.744 OA
ENDBRANCH  76  77
ENDBRANCH  55  69
BRANCH  56  81
ATOM     81  C   UNL A   1      43.290  23.908  27.124  1.00  0.00     0.058 A 
ATOM     82  C   UNL A   1      43.207  22.979  28.173  1.00  0.00     0.135 A 
ATOM     83  C   UNL A   1      42.881  23.490  25.848  1.00  0.00     0.135 A 
ATOM     84  F   UNL A   1      43.593  23.328  29.409  1.00  0.00    -0.206 F 
ATOM     85  C   UNL A   1      42.754  21.681  27.964  1.00  0.00     0.059 A 
ATOM     86  C   UNL A   1      42.402  22.204  25.619  1.00  0.00     0.059 A 
ATOM     87  F   UNL A   1      42.923  24.344  24.814  1.00  0.00    -0.206 F 
ATOM     88  C   UNL A   1      42.352  21.302  26.681  1.00  0.00     0.060 A 
BRANCH  88  89
ATOM     89  S   UNL A   1      41.719  19.629  26.430  1.00  0.00     0.124 S 
ATOM     90  O   UNL A   1      40.290  19.874  26.287  1.00  0.00    -0.237 OA
ATOM     91  O   UNL A   1      42.420  19.213  25.219  1.00  0.00    -0.237 OA
ATOM     92  O   UNL A   1      42.123  18.933  27.647  1.00  0.00    -0.744 OA
ENDBRANCH  88  89
ENDBRANCH  56  81
BRANCH  68  93
ATOM     93  C   UNL A   1      49.543  26.912  26.403  1.00  0.00     0.058 A 
ATOM     94  C   UNL A   1      50.428  26.347  27.335  1.00  0.00     0.135 A 
ATOM     95  C   UNL A   1      49.929  26.920  25.053  1.00  0.00     0.135 A 
ATOM     96  F   UNL A   1      50.111  26.321  28.639  1.00  0.00    -0.206 F 
ATOM     97  C   UNL A   1      51.659  25.828  26.945  1.00  0.00     0.059 A 
ATOM     98  C   UNL A   1      51.144  26.383  24.637  1.00  0.00     0.059 A 
ATOM     99  F   UNL A   1      49.115  27.440  24.120  1.00  0.00    -0.206 F 
ATOM    100  C   UNL A   1      52.007  25.849  25.593  1.00  0.00     0.060 A 
BRANCH 100 101
ATOM    101  S   UNL A   1      53.590  25.139  25.093  1.00  0.00     0.124 S 
ATOM    102  O   UNL A   1      53.320  23.709  25.201  1.00  0.00    -0.237 OA
ATOM    103  O   UNL A   1      53.750  25.652  23.736  1.00  0.00    -0.237 OA
ATOM    104  O   UNL A   1      54.528  25.676  26.074  1.00  0.00    -0.744 OA
ENDBRANCH 100 101
ENDBRANCH  68  93
ENDBRANCH  42  43
ENDBRANCH  34  37
ENDBRANCH  32  33
ENDBRANCH  31  32
ENDBRANCH  30  31
ENDBRANCH   1  30
TORSDOF 20
ENDMDL
