MODEL 1
REMARK VINA RESULT:     -12.7      0.000      0.000
REMARK SMILES CCc1ccc2[nH]c(C(=O)c3cc(C)ccn3)c(CC(=O)NCCCCNC(=O)c3ccc(-c4c5nc(c(-c6c(F)cc(S(=O)(=O)[O-])cc6F)c6ccc([nH]6)c(-c6c(F)cc(S(=O)(=O)[O-])cc6F)c6nc(c(-c7c(F)cc(S(=O)(=O)[O-])cc7F)c7ccc4[nH]7)C=C6)C=C5)cc3)c2c1
REMARK SMILES IDX 24 1 23 2 22 3 20 4 21 5 19 7 18 8 3 9 4 10 97 11 5 12 96 13
REMARK SMILES IDX 6 14 7 15 8 16 2 18 1 19 9 20 10 21 11 22 12 23 17 24 13 25
REMARK SMILES IDX 16 26 14 27 15 28 25 29 26 30 27 31 28 32 29 34 30 35 31 36
REMARK SMILES IDX 95 37 32 38 94 39 33 40 34 41 35 42 88 43 36 44 93 45 87 46
REMARK SMILES IDX 89 47 37 48 92 49 86 50 85 51 38 53 72 54 51 55 71 56 52 57
REMARK SMILES IDX 55 58 70 59 90 60 53 61 54 62 69 64 91 65 56 66 39 67 40 68
REMARK SMILES IDX 49 69 41 70 42 71 48 72 50 73 43 74 44 75 45 76 46 77 47 78
REMARK SMILES IDX 73 79 74 80 83 81 75 82 76 83 82 84 84 85 77 86 78 87 79 88
REMARK SMILES IDX 80 89 81 90 57 91 58 92 67 93 59 94 60 95 66 96 68 97 61 98
REMARK SMILES IDX 62 99 63 100 64 101 65 102
REMARK H PARENT 22 6 7 17 27 33 89 52 55 63
REMARK Flexibility Score: inf
ROOT
ATOM      1  C   UNL A   1      35.077  30.403  27.669  1.00  0.00     0.023 C 
ENDROOT
BRANCH   1   2
ATOM      2  C   UNL A   1      33.908  30.055  26.750  1.00  0.00     0.116 C 
BRANCH   2   3
ATOM      3  N   UNL A   1      32.832  29.383  27.445  1.00  0.00    -0.356 N 
ATOM      4  C   UNL A   1      32.069  28.319  27.054  1.00  0.00     0.224 C 
ATOM      5  O   UNL A   1      31.347  27.805  27.912  1.00  0.00    -0.275 OA
ATOM      6  H   UNL A   1      32.616  29.748  28.335  1.00  0.00     0.163 HD
BRANCH   4   7
ATOM      7  C   UNL A   1      32.208  27.705  25.664  1.00  0.00     0.138 C 
BRANCH   7   8
ATOM      8  C   UNL A   1      30.919  27.260  25.026  1.00  0.00    -0.002 A 
ATOM      9  C   UNL A   1      29.060  29.993  23.055  1.00  0.00    -0.048 A 
ATOM     10  C   UNL A   1      27.938  29.203  22.776  1.00  0.00     0.006 A 
ATOM     11  C   UNL A   1      30.121  29.429  23.781  1.00  0.00     0.014 A 
ATOM     12  C   UNL A   1      27.855  27.867  23.188  1.00  0.00     0.027 A 
ATOM     13  C   UNL A   1      30.060  28.088  24.225  1.00  0.00     0.004 A 
ATOM     14  C   UNL A   1      28.932  27.342  23.911  1.00  0.00     0.046 A 
ATOM     15  N   UNL A   1      29.107  26.097  24.465  1.00  0.00    -0.352 N 
ATOM     16  C   UNL A   1      30.344  25.988  25.068  1.00  0.00     0.093 A 
ATOM     17  H   UNL A   1      28.437  25.377  24.435  1.00  0.00     0.167 HD
BRANCH   9  18
ATOM     18  C   UNL A   1      29.072  31.453  22.663  1.00  0.00     0.032 C 
ATOM     19  C   UNL A   1      28.425  31.752  21.316  1.00  0.00     0.009 C 
ENDBRANCH   9  18
BRANCH  16  20
ATOM     20  C   UNL A   1      30.892  24.767  25.649  1.00  0.00     0.227 C 
ATOM     21  O   UNL A   1      30.874  24.527  26.858  1.00  0.00    -0.285 OA
BRANCH  20  22
ATOM     22  C   UNL A   1      31.584  23.790  24.769  1.00  0.00     0.113 A 
ATOM     23  C   UNL A   1      31.638  22.449  25.141  1.00  0.00     0.036 A 
ATOM     24  N   UNL A   1      32.110  24.277  23.620  1.00  0.00    -0.253 NA
ATOM     25  C   UNL A   1      32.274  21.549  24.284  1.00  0.00    -0.047 A 
ATOM     26  C   UNL A   1      32.690  23.384  22.795  1.00  0.00     0.112 A 
ATOM     27  C   UNL A   1      32.370  20.092  24.619  1.00  0.00     0.044 C 
ATOM     28  C   UNL A   1      32.799  22.030  23.081  1.00  0.00     0.023 A 
ENDBRANCH  20  22
ENDBRANCH  16  20
ENDBRANCH   7   8
ENDBRANCH   4   7
ENDBRANCH   2   3
ENDBRANCH   1   2
BRANCH   1  29
ATOM     29  C   UNL A   1      35.019  31.801  28.290  1.00  0.00     0.023 C 
BRANCH  29  30
ATOM     30  C   UNL A   1      36.033  32.077  29.395  1.00  0.00     0.116 C 
BRANCH  30  31
ATOM     31  N   UNL A   1      35.828  31.264  30.583  1.00  0.00    -0.352 N 
ATOM     32  C   UNL A   1      36.674  30.345  31.158  1.00  0.00     0.251 C 
ATOM     33  H   UNL A   1      34.965  31.387  31.039  1.00  0.00     0.163 HD
ATOM     34  O   UNL A   1      36.288  29.674  32.113  1.00  0.00    -0.269 OA
BRANCH  32  35
ATOM     35  C   UNL A   1      38.030  30.135  30.602  1.00  0.00     0.039 A 
ATOM     36  C   UNL A   1      39.093  29.936  31.488  1.00  0.00     0.014 A 
ATOM     37  C   UNL A   1      38.257  30.120  29.224  1.00  0.00     0.014 A 
ATOM     38  C   UNL A   1      40.367  29.652  30.992  1.00  0.00     0.010 A 
ATOM     39  C   UNL A   1      39.515  29.776  28.730  1.00  0.00     0.010 A 
ATOM     40  C   UNL A   1      40.581  29.534  29.609  1.00  0.00    -0.014 A 
BRANCH  40  41
ATOM     41  C   UNL A   1      41.906  29.134  29.070  1.00  0.00     0.031 A 
ATOM     42  C   UNL A   1      43.014  30.143  28.941  1.00  0.00     0.074 A 
ATOM     43  C   UNL A   1      42.091  27.870  28.639  1.00  0.00     0.049 A 
ATOM     44  N   UNL A   1      44.217  29.988  28.451  1.00  0.00    -0.248 NA
ATOM     45  C   UNL A   1      42.723  31.510  29.399  1.00  0.00     0.031 C 
ATOM     46  C   UNL A   1      41.077  26.812  28.657  1.00  0.00     0.029 A 
ATOM     47  N   UNL A   1      43.193  27.261  28.093  1.00  0.00    -0.354 N 
ATOM     48  C   UNL A   1      44.823  31.237  28.530  1.00  0.00     0.074 A 
ATOM     49  C   UNL A   1      43.838  32.148  29.073  1.00  0.00     0.031 C 
ATOM     50  C   UNL A   1      41.609  25.683  28.164  1.00  0.00     0.029 A 
ATOM     51  C   UNL A   1      42.990  25.940  27.769  1.00  0.00     0.049 A 
ATOM     52  H   UNL A   1      44.048  27.727  27.946  1.00  0.00     0.167 HD
ATOM     53  C   UNL A   1      46.090  31.588  28.200  1.00  0.00     0.037 A 
ATOM     54  C   UNL A   1      43.822  25.037  27.213  1.00  0.00     0.037 A 
ATOM     55  C   UNL A   1      47.075  30.672  27.685  1.00  0.00     0.049 A 
ATOM     56  C   UNL A   1      45.230  25.446  26.875  1.00  0.00     0.074 A 
ATOM     57  C   UNL A   1      48.402  30.917  27.380  1.00  0.00     0.029 A 
ATOM     58  N   UNL A   1      46.840  29.334  27.398  1.00  0.00    -0.354 N 
ATOM     59  N   UNL A   1      45.806  26.615  27.019  1.00  0.00    -0.248 NA
ATOM     60  C   UNL A   1      46.104  24.410  26.307  1.00  0.00     0.031 C 
ATOM     61  C   UNL A   1      48.963  29.737  26.879  1.00  0.00     0.029 A 
ATOM     62  C   UNL A   1      47.995  28.746  26.907  1.00  0.00     0.049 A 
ATOM     63  H   UNL A   1      45.980  28.872  27.525  1.00  0.00     0.167 HD
ATOM     64  C   UNL A   1      47.113  26.451  26.580  1.00  0.00     0.074 A 
ATOM     65  C   UNL A   1      47.249  25.065  26.179  1.00  0.00     0.031 C 
ATOM     66  C   UNL A   1      48.113  27.364  26.515  1.00  0.00     0.037 A 
BRANCH  53  67
ATOM     67  C   UNL A   1      46.485  33.024  28.398  1.00  0.00     0.058 A 
ATOM     68  C   UNL A   1      47.024  33.476  29.613  1.00  0.00     0.135 A 
ATOM     69  C   UNL A   1      46.355  33.953  27.353  1.00  0.00     0.135 A 
ATOM     70  F   UNL A   1      47.156  32.632  30.649  1.00  0.00    -0.206 F 
ATOM     71  C   UNL A   1      47.392  34.804  29.796  1.00  0.00     0.059 A 
ATOM     72  C   UNL A   1      46.741  35.282  27.506  1.00  0.00     0.059 A 
ATOM     73  F   UNL A   1      45.848  33.574  26.170  1.00  0.00    -0.206 F 
ATOM     74  C   UNL A   1      47.244  35.702  28.737  1.00  0.00     0.060 A 
BRANCH  74  75
ATOM     75  S   UNL A   1      47.729  37.422  28.989  1.00  0.00     0.124 S 
ATOM     76  O   UNL A   1      47.117  38.069  27.831  1.00  0.00    -0.237 OA
ATOM     77  O   UNL A   1      47.123  37.733  30.279  1.00  0.00    -0.237 OA
ATOM     78  O   UNL A   1      49.187  37.369  28.980  1.00  0.00    -0.744 OA
ENDBRANCH  74  75
ENDBRANCH  53  67
BRANCH  54  79
ATOM     79  C   UNL A   1      43.353  23.649  26.970  1.00  0.00     0.058 A 
ATOM     80  C   UNL A   1      43.121  23.185  25.666  1.00  0.00     0.135 A 
ATOM     81  C   UNL A   1      43.142  22.754  28.031  1.00  0.00     0.135 A 
ATOM     82  F   UNL A   1      43.305  24.006  24.621  1.00  0.00    -0.206 F 
ATOM     83  C   UNL A   1      42.684  21.888  25.421  1.00  0.00     0.059 A 
ATOM     84  C   UNL A   1      42.725  21.446  27.809  1.00  0.00     0.059 A 
ATOM     85  F   UNL A   1      43.366  23.145  29.294  1.00  0.00    -0.206 F 
ATOM     86  C   UNL A   1      42.489  21.024  26.501  1.00  0.00     0.060 A 
BRANCH  86  87
ATOM     87  S   UNL A   1      41.973  19.325  26.172  1.00  0.00     0.124 S 
ATOM     88  O   UNL A   1      42.799  18.986  25.020  1.00  0.00    -0.237 OA
ATOM     89  O   UNL A   1      42.314  18.651  27.422  1.00  0.00    -0.237 OA
ATOM     90  O   UNL A   1      40.543  19.455  25.910  1.00  0.00    -0.744 OA
ENDBRANCH  86  87
ENDBRANCH  54  79
BRANCH  66  91
ATOM     91  C   UNL A   1      49.448  26.888  26.013  1.00  0.00     0.058 A 
ATOM     92  C   UNL A   1      49.857  27.106  24.689  1.00  0.00     0.135 A 
ATOM     93  C   UNL A   1      50.342  26.238  26.880  1.00  0.00     0.135 A 
ATOM     94  F   UNL A   1      49.036  27.717  23.821  1.00  0.00    -0.206 F 
ATOM     95  C   UNL A   1      51.097  26.673  24.232  1.00  0.00     0.059 A 
ATOM     96  C   UNL A   1      51.596  25.817  26.450  1.00  0.00     0.059 A 
ATOM     97  F   UNL A   1      50.002  26.013  28.159  1.00  0.00    -0.206 F 
ATOM     98  C   UNL A   1      51.959  26.027  25.120  1.00  0.00     0.060 A 
BRANCH  98  99
ATOM     99  S   UNL A   1      53.577  25.488  24.523  1.00  0.00     0.124 S 
ATOM    100  O   UNL A   1      53.525  24.055  24.790  1.00  0.00    -0.237 OA
ATOM    101  O   UNL A   1      53.538  25.874  23.116  1.00  0.00    -0.237 OA
ATOM    102  O   UNL A   1      54.512  26.248  25.348  1.00  0.00    -0.744 OA
ENDBRANCH  98  99
ENDBRANCH  66  91
ENDBRANCH  40  41
ENDBRANCH  32  35
ENDBRANCH  30  31
ENDBRANCH  29  30
ENDBRANCH   1  29
TORSDOF 18
ENDMDL
MODEL 2
REMARK VINA RESULT:     -12.6      5.931      8.311
REMARK SMILES CCc1ccc2[nH]c(C(=O)c3cc(C)ccn3)c(CC(=O)NCCCCNC(=O)c3ccc(-c4c5nc(c(-c6c(F)cc(S(=O)(=O)[O-])cc6F)c6ccc([nH]6)c(-c6c(F)cc(S(=O)(=O)[O-])cc6F)c6nc(c(-c7c(F)cc(S(=O)(=O)[O-])cc7F)c7ccc4[nH]7)C=C6)C=C5)cc3)c2c1
REMARK SMILES IDX 24 1 23 2 22 3 20 4 21 5 19 7 18 8 3 9 4 10 97 11 5 12 96 13
REMARK SMILES IDX 6 14 7 15 8 16 2 18 1 19 9 20 10 21 11 22 12 23 17 24 13 25
REMARK SMILES IDX 16 26 14 27 15 28 25 29 26 30 27 31 28 32 29 34 30 35 31 36
REMARK SMILES IDX 95 37 32 38 94 39 33 40 34 41 35 42 88 43 36 44 93 45 87 46
REMARK SMILES IDX 89 47 37 48 92 49 86 50 85 51 38 53 72 54 51 55 71 56 52 57
REMARK SMILES IDX 55 58 70 59 90 60 53 61 54 62 69 64 91 65 56 66 39 67 40 68
REMARK SMILES IDX 49 69 41 70 42 71 48 72 50 73 43 74 44 75 45 76 46 77 47 78
REMARK SMILES IDX 73 79 74 80 83 81 75 82 76 83 82 84 84 85 77 86 78 87 79 88
REMARK SMILES IDX 80 89 81 90 57 91 58 92 67 93 59 94 60 95 66 96 68 97 61 98
REMARK SMILES IDX 62 99 63 100 64 101 65 102
REMARK H PARENT 22 6 7 17 27 33 89 52 55 63
REMARK Flexibility Score: inf
ROOT
ATOM      1  C   UNL A   1      34.696  31.144  27.835  1.00  0.00     0.023 C 
ENDROOT
BRANCH   1   2
ATOM      2  C   UNL A   1      34.353  29.772  27.258  1.00  0.00     0.116 C 
BRANCH   2   3
ATOM      3  N   UNL A   1      33.159  29.202  27.843  1.00  0.00    -0.356 N 
ATOM      4  C   UNL A   1      32.353  28.200  27.381  1.00  0.00     0.224 C 
ATOM      5  O   UNL A   1      31.506  27.760  28.164  1.00  0.00    -0.275 OA
ATOM      6  H   UNL A   1      32.885  29.596  28.704  1.00  0.00     0.163 HD
BRANCH   4   7
ATOM      7  C   UNL A   1      32.579  27.557  26.017  1.00  0.00     0.138 C 
BRANCH   7   8
ATOM      8  C   UNL A   1      31.370  26.899  25.407  1.00  0.00    -0.002 A 
ATOM      9  C   UNL A   1      29.173  29.216  23.261  1.00  0.00    -0.048 A 
ATOM     10  C   UNL A   1      28.173  28.263  23.032  1.00  0.00     0.006 A 
ATOM     11  C   UNL A   1      30.295  28.852  24.024  1.00  0.00     0.014 A 
ATOM     12  C   UNL A   1      28.271  26.957  23.530  1.00  0.00     0.027 A 
ATOM     13  C   UNL A   1      30.414  27.547  24.553  1.00  0.00     0.004 A 
ATOM     14  C   UNL A   1      29.402  26.633  24.287  1.00  0.00     0.046 A 
ATOM     15  N   UNL A   1      29.742  25.463  24.921  1.00  0.00    -0.352 N 
ATOM     16  C   UNL A   1      30.976  25.564  25.530  1.00  0.00     0.093 A 
ATOM     17  H   UNL A   1      29.178  24.656  24.936  1.00  0.00     0.167 HD
BRANCH   9  18
ATOM     18  C   UNL A   1      28.987  30.636  22.775  1.00  0.00     0.032 C 
ATOM     19  C   UNL A   1      27.929  31.431  23.529  1.00  0.00     0.009 C 
ENDBRANCH   9  18
BRANCH  16  20
ATOM     20  C   UNL A   1      31.681  24.470  26.190  1.00  0.00     0.227 C 
ATOM     21  O   UNL A   1      31.405  24.076  27.325  1.00  0.00    -0.285 OA
BRANCH  20  22
ATOM     22  C   UNL A   1      32.845  23.842  25.513  1.00  0.00     0.113 A 
ATOM     23  C   UNL A   1      34.132  24.104  25.977  1.00  0.00     0.036 A 
ATOM     24  N   UNL A   1      32.569  23.014  24.478  1.00  0.00    -0.253 NA
ATOM     25  C   UNL A   1      35.206  23.482  25.337  1.00  0.00    -0.047 A 
ATOM     26  C   UNL A   1      33.619  22.401  23.898  1.00  0.00     0.112 A 
ATOM     27  C   UNL A   1      36.617  23.717  25.781  1.00  0.00     0.044 C 
ATOM     28  C   UNL A   1      34.937  22.603  24.283  1.00  0.00     0.023 A 
ENDBRANCH  20  22
ENDBRANCH  16  20
ENDBRANCH   7   8
ENDBRANCH   4   7
ENDBRANCH   2   3
ENDBRANCH   1   2
BRANCH   1  29
ATOM     29  C   UNL A   1      33.497  32.070  28.060  1.00  0.00     0.023 C 
BRANCH  29  30
ATOM     30  C   UNL A   1      33.509  33.372  27.266  1.00  0.00     0.116 C 
BRANCH  30  31
ATOM     31  N   UNL A   1      32.885  34.481  27.970  1.00  0.00    -0.352 N 
ATOM     32  C   UNL A   1      33.209  35.022  29.192  1.00  0.00     0.251 C 
ATOM     33  H   UNL A   1      32.126  34.904  27.508  1.00  0.00     0.163 HD
ATOM     34  O   UNL A   1      32.500  35.902  29.677  1.00  0.00    -0.269 OA
BRANCH  32  35
ATOM     35  C   UNL A   1      34.382  34.516  29.940  1.00  0.00     0.039 A 
ATOM     36  C   UNL A   1      34.169  33.870  31.161  1.00  0.00     0.014 A 
ATOM     37  C   UNL A   1      35.680  34.663  29.443  1.00  0.00     0.014 A 
ATOM     38  C   UNL A   1      35.248  33.310  31.848  1.00  0.00     0.010 A 
ATOM     39  C   UNL A   1      36.747  34.050  30.098  1.00  0.00     0.010 A 
ATOM     40  C   UNL A   1      36.542  33.364  31.304  1.00  0.00    -0.014 A 
BRANCH  40  41
ATOM     41  C   UNL A   1      37.683  32.686  31.972  1.00  0.00     0.031 A 
ATOM     42  C   UNL A   1      38.195  33.180  33.296  1.00  0.00     0.074 A 
ATOM     43  C   UNL A   1      38.297  31.658  31.351  1.00  0.00     0.049 A 
ATOM     44  N   UNL A   1      39.207  32.746  34.003  1.00  0.00    -0.248 NA
ATOM     45  C   UNL A   1      37.495  34.328  33.892  1.00  0.00     0.031 C 
ATOM     46  C   UNL A   1      37.931  31.122  30.037  1.00  0.00     0.029 A 
ATOM     47  N   UNL A   1      39.364  30.887  31.737  1.00  0.00    -0.354 N 
ATOM     48  C   UNL A   1      39.273  33.572  35.119  1.00  0.00     0.074 A 
ATOM     49  C   UNL A   1      38.228  34.562  34.972  1.00  0.00     0.031 C 
ATOM     50  C   UNL A   1      38.747  30.099  29.736  1.00  0.00     0.029 A 
ATOM     51  C   UNL A   1      39.710  29.923  30.819  1.00  0.00     0.049 A 
ATOM     52  H   UNL A   1      39.838  31.012  32.591  1.00  0.00     0.167 HD
ATOM     53  C   UNL A   1      40.114  33.500  36.179  1.00  0.00     0.037 A 
ATOM     54  C   UNL A   1      40.694  29.003  30.844  1.00  0.00     0.037 A 
ATOM     55  C   UNL A   1      41.136  32.497  36.335  1.00  0.00     0.049 A 
ATOM     56  C   UNL A   1      41.601  28.930  32.041  1.00  0.00     0.074 A 
ATOM     57  C   UNL A   1      41.996  32.302  37.401  1.00  0.00     0.029 A 
ATOM     58  N   UNL A   1      41.436  31.519  35.397  1.00  0.00    -0.354 N 
ATOM     59  N   UNL A   1      41.606  29.678  33.119  1.00  0.00    -0.248 NA
ATOM     60  C   UNL A   1      42.631  27.882  32.031  1.00  0.00     0.031 C 
ATOM     61  C   UNL A   1      42.838  31.227  37.095  1.00  0.00     0.029 A 
ATOM     62  C   UNL A   1      42.477  30.728  35.854  1.00  0.00     0.049 A 
ATOM     63  H   UNL A   1      40.976  31.405  34.534  1.00  0.00     0.167 HD
ATOM     64  C   UNL A   1      42.624  29.179  33.923  1.00  0.00     0.074 A 
ATOM     65  C   UNL A   1      43.203  28.055  33.215  1.00  0.00     0.031 C 
ATOM     66  C   UNL A   1      43.041  29.611  35.138  1.00  0.00     0.037 A 
BRANCH  53  67
ATOM     67  C   UNL A   1      39.955  34.531  37.261  1.00  0.00     0.058 A 
ATOM     68  C   UNL A   1      40.633  35.759  37.209  1.00  0.00     0.135 A 
ATOM     69  C   UNL A   1      39.092  34.304  38.345  1.00  0.00     0.135 A 
ATOM     70  F   UNL A   1      41.481  36.021  36.202  1.00  0.00    -0.206 F 
ATOM     71  C   UNL A   1      40.485  36.715  38.209  1.00  0.00     0.059 A 
ATOM     72  C   UNL A   1      38.910  35.257  39.344  1.00  0.00     0.059 A 
ATOM     73  F   UNL A   1      38.419  33.147  38.443  1.00  0.00    -0.206 F 
ATOM     74  C   UNL A   1      39.622  36.453  39.275  1.00  0.00     0.060 A 
BRANCH  74  75
ATOM     75  S   UNL A   1      39.438  37.703  40.564  1.00  0.00     0.124 S 
ATOM     76  O   UNL A   1      40.718  38.401  40.477  1.00  0.00    -0.237 OA
ATOM     77  O   UNL A   1      38.276  38.458  40.106  1.00  0.00    -0.237 OA
ATOM     78  O   UNL A   1      39.233  36.915  41.774  1.00  0.00    -0.744 OA
ENDBRANCH  74  75
ENDBRANCH  53  67
BRANCH  54  79
ATOM     79  C   UNL A   1      40.852  28.056  29.710  1.00  0.00     0.058 A 
ATOM     80  C   UNL A   1      39.977  26.972  29.550  1.00  0.00     0.135 A 
ATOM     81  C   UNL A   1      41.869  28.224  28.757  1.00  0.00     0.135 A 
ATOM     82  F   UNL A   1      38.993  26.769  30.441  1.00  0.00    -0.206 F 
ATOM     83  C   UNL A   1      40.109  26.078  28.494  1.00  0.00     0.059 A 
ATOM     84  C   UNL A   1      42.008  27.354  27.679  1.00  0.00     0.059 A 
ATOM     85  F   UNL A   1      42.720  29.255  28.856  1.00  0.00    -0.206 F 
ATOM     86  C   UNL A   1      41.129  26.278  27.562  1.00  0.00     0.060 A 
BRANCH  86  87
ATOM     87  S   UNL A   1      41.262  25.144  26.162  1.00  0.00     0.124 S 
ATOM     88  O   UNL A   1      42.307  24.236  26.620  1.00  0.00    -0.237 OA
ATOM     89  O   UNL A   1      39.916  24.582  26.091  1.00  0.00    -0.237 OA
ATOM     90  O   UNL A   1      41.626  26.021  25.054  1.00  0.00    -0.744 OA
ENDBRANCH  86  87
ENDBRANCH  54  79
BRANCH  66  91
ATOM     91  C   UNL A   1      44.162  28.852  35.790  1.00  0.00     0.058 A 
ATOM     92  C   UNL A   1      45.504  29.214  35.601  1.00  0.00     0.135 A 
ATOM     93  C   UNL A   1      43.887  27.770  36.643  1.00  0.00     0.135 A 
ATOM     94  F   UNL A   1      45.819  30.237  34.790  1.00  0.00    -0.206 F 
ATOM     95  C   UNL A   1      46.538  28.515  36.214  1.00  0.00     0.059 A 
ATOM     96  C   UNL A   1      44.904  27.072  37.284  1.00  0.00     0.059 A 
ATOM     97  F   UNL A   1      42.619  27.389  36.864  1.00  0.00    -0.206 F 
ATOM     98  C   UNL A   1      46.228  27.443  37.053  1.00  0.00     0.060 A 
BRANCH  98  99
ATOM     99  S   UNL A   1      47.576  26.555  37.863  1.00  0.00     0.124 S 
ATOM    100  O   UNL A   1      47.222  26.706  39.271  1.00  0.00    -0.237 OA
ATOM    101  O   UNL A   1      47.442  25.209  37.315  1.00  0.00    -0.237 OA
ATOM    102  O   UNL A   1      48.767  27.283  37.433  1.00  0.00    -0.744 OA
ENDBRANCH  98  99
ENDBRANCH  66  91
ENDBRANCH  40  41
ENDBRANCH  32  35
ENDBRANCH  30  31
ENDBRANCH  29  30
ENDBRANCH   1  29
TORSDOF 18
ENDMDL
MODEL 3
REMARK VINA RESULT:     -12.6      6.313     11.507
REMARK SMILES CCc1ccc2[nH]c(C(=O)c3cc(C)ccn3)c(CC(=O)NCCCCNC(=O)c3ccc(-c4c5nc(c(-c6c(F)cc(S(=O)(=O)[O-])cc6F)c6ccc([nH]6)c(-c6c(F)cc(S(=O)(=O)[O-])cc6F)c6nc(c(-c7c(F)cc(S(=O)(=O)[O-])cc7F)c7ccc4[nH]7)C=C6)C=C5)cc3)c2c1
REMARK SMILES IDX 24 1 23 2 22 3 20 4 21 5 19 7 18 8 3 9 4 10 97 11 5 12 96 13
REMARK SMILES IDX 6 14 7 15 8 16 2 18 1 19 9 20 10 21 11 22 12 23 17 24 13 25
REMARK SMILES IDX 16 26 14 27 15 28 25 29 26 30 27 31 28 32 29 34 30 35 31 36
REMARK SMILES IDX 95 37 32 38 94 39 33 40 34 41 35 42 88 43 36 44 93 45 87 46
REMARK SMILES IDX 89 47 37 48 92 49 86 50 85 51 38 53 72 54 51 55 71 56 52 57
REMARK SMILES IDX 55 58 70 59 90 60 53 61 54 62 69 64 91 65 56 66 39 67 40 68
REMARK SMILES IDX 49 69 41 70 42 71 48 72 50 73 43 74 44 75 45 76 46 77 47 78
REMARK SMILES IDX 73 79 74 80 83 81 75 82 76 83 82 84 84 85 77 86 78 87 79 88
REMARK SMILES IDX 80 89 81 90 57 91 58 92 67 93 59 94 60 95 66 96 68 97 61 98
REMARK SMILES IDX 62 99 63 100 64 101 65 102
REMARK H PARENT 22 6 7 17 27 33 89 52 55 63
REMARK Flexibility Score: inf
ROOT
ATOM      1  C   UNL A   1      37.558  24.151  25.723  1.00  0.00     0.023 C 
ENDROOT
BRANCH   1   2
ATOM      2  C   UNL A   1      36.049  23.937  25.823  1.00  0.00     0.116 C 
BRANCH   2   3
ATOM      3  N   UNL A   1      35.389  24.000  24.537  1.00  0.00    -0.356 N 
ATOM      4  C   UNL A   1      34.321  24.754  24.139  1.00  0.00     0.224 C 
ATOM      5  O   UNL A   1      34.072  24.774  22.931  1.00  0.00    -0.275 OA
ATOM      6  H   UNL A   1      35.766  23.410  23.844  1.00  0.00     0.163 HD
BRANCH   4   7
ATOM      7  C   UNL A   1      33.560  25.642  25.119  1.00  0.00     0.138 C 
BRANCH   7   8
ATOM      8  C   UNL A   1      32.060  25.523  25.063  1.00  0.00    -0.002 A 
ATOM      9  C   UNL A   1      30.304  28.183  22.909  1.00  0.00    -0.048 A 
ATOM     10  C   UNL A   1      29.006  27.777  23.243  1.00  0.00     0.006 A 
ATOM     11  C   UNL A   1      31.394  27.479  23.447  1.00  0.00     0.014 A 
ATOM     12  C   UNL A   1      28.770  26.683  24.085  1.00  0.00     0.027 A 
ATOM     13  C   UNL A   1      31.187  26.381  24.312  1.00  0.00     0.004 A 
ATOM     14  C   UNL A   1      29.881  26.009  24.603  1.00  0.00     0.046 A 
ATOM     15  N   UNL A   1      29.951  24.944  25.468  1.00  0.00    -0.352 N 
ATOM     16  C   UNL A   1      31.259  24.567  25.693  1.00  0.00     0.093 A 
ATOM     17  H   UNL A   1      29.168  24.507  25.874  1.00  0.00     0.167 HD
BRANCH   9  18
ATOM     18  C   UNL A   1      30.514  29.418  22.063  1.00  0.00     0.032 C 
ATOM     19  C   UNL A   1      29.240  30.191  21.742  1.00  0.00     0.009 C 
ENDBRANCH   9  18
BRANCH  16  20
ATOM     20  C   UNL A   1      31.679  23.404  26.468  1.00  0.00     0.227 C 
ATOM     21  O   UNL A   1      31.600  23.347  27.696  1.00  0.00    -0.285 OA
BRANCH  20  22
ATOM     22  C   UNL A   1      32.312  22.255  25.770  1.00  0.00     0.113 A 
ATOM     23  C   UNL A   1      31.896  21.919  24.483  1.00  0.00     0.036 A 
ATOM     24  N   UNL A   1      33.296  21.609  26.439  1.00  0.00    -0.253 NA
ATOM     25  C   UNL A   1      32.525  20.851  23.842  1.00  0.00    -0.047 A 
ATOM     26  C   UNL A   1      33.909  20.602  25.786  1.00  0.00     0.112 A 
ATOM     27  C   UNL A   1      32.129  20.433  22.459  1.00  0.00     0.044 C 
ATOM     28  C   UNL A   1      33.561  20.188  24.508  1.00  0.00     0.023 A 
ENDBRANCH  20  22
ENDBRANCH  16  20
ENDBRANCH   7   8
ENDBRANCH   4   7
ENDBRANCH   2   3
ENDBRANCH   1   2
BRANCH   1  29
ATOM     29  C   UNL A   1      38.412  22.957  26.157  1.00  0.00     0.023 C 
BRANCH  29  30
ATOM     30  C   UNL A   1      39.613  23.287  27.037  1.00  0.00     0.116 C 
BRANCH  30  31
ATOM     31  N   UNL A   1      40.818  23.587  26.279  1.00  0.00    -0.352 N 
ATOM     32  C   UNL A   1      41.629  24.695  26.348  1.00  0.00     0.251 C 
ATOM     33  H   UNL A   1      41.090  22.903  25.626  1.00  0.00     0.163 HD
ATOM     34  O   UNL A   1      42.558  24.821  25.552  1.00  0.00    -0.269 OA
BRANCH  32  35
ATOM     35  C   UNL A   1      41.360  25.751  27.349  1.00  0.00     0.039 A 
ATOM     36  C   UNL A   1      40.314  25.562  28.257  1.00  0.00     0.014 A 
ATOM     37  C   UNL A   1      42.134  26.913  27.406  1.00  0.00     0.014 A 
ATOM     38  C   UNL A   1      40.091  26.503  29.265  1.00  0.00     0.010 A 
ATOM     39  C   UNL A   1      41.950  27.820  28.449  1.00  0.00     0.010 A 
ATOM     40  C   UNL A   1      40.930  27.622  29.391  1.00  0.00    -0.014 A 
BRANCH  40  41
ATOM     41  C   UNL A   1      40.768  28.578  30.517  1.00  0.00     0.031 A 
ATOM     42  C   UNL A   1      41.615  28.451  31.753  1.00  0.00     0.074 A 
ATOM     43  C   UNL A   1      39.812  29.526  30.447  1.00  0.00     0.049 A 
ATOM     44  N   UNL A   1      41.582  29.163  32.851  1.00  0.00    -0.248 NA
ATOM     45  C   UNL A   1      42.611  27.370  31.767  1.00  0.00     0.031 C 
ATOM     46  C   UNL A   1      38.888  29.716  29.326  1.00  0.00     0.029 A 
ATOM     47  N   UNL A   1      39.452  30.503  31.341  1.00  0.00    -0.354 N 
ATOM     48  C   UNL A   1      42.542  28.609  33.690  1.00  0.00     0.074 A 
ATOM     49  C   UNL A   1      43.107  27.474  32.992  1.00  0.00     0.031 C 
ATOM     50  C   UNL A   1      38.081  30.756  29.592  1.00  0.00     0.029 A 
ATOM     51  C   UNL A   1      38.409  31.289  30.910  1.00  0.00     0.049 A 
ATOM     52  H   UNL A   1      39.898  30.629  32.211  1.00  0.00     0.167 HD
ATOM     53  C   UNL A   1      42.930  29.020  34.922  1.00  0.00     0.037 A 
ATOM     54  C   UNL A   1      37.785  32.322  31.510  1.00  0.00     0.037 A 
ATOM     55  C   UNL A   1      42.384  30.165  35.602  1.00  0.00     0.049 A 
ATOM     56  C   UNL A   1      38.249  32.772  32.868  1.00  0.00     0.074 A 
ATOM     57  C   UNL A   1      42.755  30.699  36.824  1.00  0.00     0.029 A 
ATOM     58  N   UNL A   1      41.349  30.955  35.120  1.00  0.00    -0.354 N 
ATOM     59  N   UNL A   1      39.203  32.277  33.619  1.00  0.00    -0.248 NA
ATOM     60  C   UNL A   1      37.557  33.928  33.456  1.00  0.00     0.031 C 
ATOM     61  C   UNL A   1      41.924  31.792  37.097  1.00  0.00     0.029 A 
ATOM     62  C   UNL A   1      41.060  31.962  36.027  1.00  0.00     0.049 A 
ATOM     63  H   UNL A   1      40.889  30.818  34.261  1.00  0.00     0.167 HD
ATOM     64  C   UNL A   1      39.241  33.072  34.758  1.00  0.00     0.074 A 
ATOM     65  C   UNL A   1      38.223  34.090  34.592  1.00  0.00     0.031 C 
ATOM     66  C   UNL A   1      40.045  32.969  35.844  1.00  0.00     0.037 A 
BRANCH  53  67
ATOM     67  C   UNL A   1      44.009  28.230  35.608  1.00  0.00     0.058 A 
ATOM     68  C   UNL A   1      43.702  27.179  36.487  1.00  0.00     0.135 A 
ATOM     69  C   UNL A   1      45.364  28.503  35.361  1.00  0.00     0.135 A 
ATOM     70  F   UNL A   1      42.423  26.886  36.769  1.00  0.00    -0.206 F 
ATOM     71  C   UNL A   1      44.700  26.445  37.120  1.00  0.00     0.059 A 
ATOM     72  C   UNL A   1      46.379  27.764  35.965  1.00  0.00     0.059 A 
ATOM     73  F   UNL A   1      45.713  29.495  34.529  1.00  0.00    -0.206 F 
ATOM     74  C   UNL A   1      46.037  26.748  36.855  1.00  0.00     0.060 A 
BRANCH  74  75
ATOM     75  S   UNL A   1      47.320  25.786  37.683  1.00  0.00     0.124 S 
ATOM     76  O   UNL A   1      47.635  24.786  36.666  1.00  0.00    -0.237 OA
ATOM     77  O   UNL A   1      48.355  26.786  37.926  1.00  0.00    -0.237 OA
ATOM     78  O   UNL A   1      46.649  25.280  38.875  1.00  0.00    -0.744 OA
ENDBRANCH  74  75
ENDBRANCH  53  67
BRANCH  54  79
ATOM     79  C   UNL A   1      36.672  33.020  30.815  1.00  0.00     0.058 A 
ATOM     80  C   UNL A   1      35.340  32.815  31.203  1.00  0.00     0.135 A 
ATOM     81  C   UNL A   1      36.918  33.914  29.762  1.00  0.00     0.135 A 
ATOM     82  F   UNL A   1      35.057  31.965  32.202  1.00  0.00    -0.206 F 
ATOM     83  C   UNL A   1      34.288  33.462  30.565  1.00  0.00     0.059 A 
ATOM     84  C   UNL A   1      35.883  34.589  29.122  1.00  0.00     0.059 A 
ATOM     85  F   UNL A   1      38.176  34.156  29.366  1.00  0.00    -0.206 F 
ATOM     86  C   UNL A   1      34.570  34.349  29.524  1.00  0.00     0.060 A 
BRANCH  86  87
ATOM     87  S   UNL A   1      33.202  35.226  28.735  1.00  0.00     0.124 S 
ATOM     88  O   UNL A   1      32.443  35.686  29.892  1.00  0.00    -0.237 OA
ATOM     89  O   UNL A   1      33.897  36.261  27.975  1.00  0.00    -0.237 OA
ATOM     90  O   UNL A   1      32.562  34.191  27.929  1.00  0.00    -0.744 OA
ENDBRANCH  86  87
ENDBRANCH  54  79
BRANCH  66  91
ATOM     91  C   UNL A   1      39.874  33.998  36.927  1.00  0.00     0.058 A 
ATOM     92  C   UNL A   1      40.461  35.269  36.833  1.00  0.00     0.135 A 
ATOM     93  C   UNL A   1      39.082  33.720  38.053  1.00  0.00     0.135 A 
ATOM     94  F   UNL A   1      41.231  35.581  35.779  1.00  0.00    -0.206 F 
ATOM     95  C   UNL A   1      40.291  36.222  37.832  1.00  0.00     0.059 A 
ATOM     96  C   UNL A   1      38.881  34.666  39.052  1.00  0.00     0.059 A 
ATOM     97  F   UNL A   1      38.492  32.522  38.186  1.00  0.00    -0.206 F 
ATOM     98  C   UNL A   1      39.500  35.910  38.939  1.00  0.00     0.060 A 
BRANCH  98  99
ATOM     99  S   UNL A   1      39.267  37.162  40.221  1.00  0.00     0.124 S 
ATOM    100  O   UNL A   1      38.516  36.416  41.225  1.00  0.00    -0.237 OA
ATOM    101  O   UNL A   1      40.640  37.505  40.580  1.00  0.00    -0.237 OA
ATOM    102  O   UNL A   1      38.526  38.215  39.534  1.00  0.00    -0.744 OA
ENDBRANCH  98  99
ENDBRANCH  66  91
ENDBRANCH  40  41
ENDBRANCH  32  35
ENDBRANCH  30  31
ENDBRANCH  29  30
ENDBRANCH   1  29
TORSDOF 18
ENDMDL
