MODEL 1
REMARK VINA RESULT:     -13.7      0.000      0.000
REMARK SMILES Cc1c(CCC(=O)N2CCC(C(=O)NCCCCNC(=O)c3ccc(-c4c5nc(c(-c6c(F)cc(S(=O)(=O)[O-])cc6F)c6ccc([nH]6)c(-c6c(F)cc(S(=O)(=O)[O-])cc6F)c6nc(c(-c7c(F)cc(S(=O)(=O)[O-])cc7F)c7ccc4[nH]7)C=C6)C=C5)cc3)CC2)c(=O)oc2cc3oc4c(c3cc12)CCCC4
REMARK SMILES IDX 16 1 15 2 14 3 12 4 13 5 11 7 6 8 7 9 8 10 9 11 89 12 10 13
REMARK SMILES IDX 88 14 5 15 4 16 3 17 1 18 2 19 101 20 90 21 93 22 100 23
REMARK SMILES IDX 91 24 92 25 94 26 99 27 95 28 98 29 96 30 97 31 102 32
REMARK SMILES IDX 105 33 103 34 104 35 17 36 18 37 19 38 20 39 21 41 22 42
REMARK SMILES IDX 23 43 87 44 24 45 86 46 25 47 26 48 27 49 80 50 28 51 85 52
REMARK SMILES IDX 79 53 81 54 29 55 84 56 78 57 77 58 30 60 64 61 43 62 63 63
REMARK SMILES IDX 44 64 47 65 62 66 82 67 45 68 46 69 61 71 83 72 48 73 31 74
REMARK SMILES IDX 32 75 41 76 33 77 34 78 40 79 42 80 35 81 36 82 37 83 38 84
REMARK SMILES IDX 39 85 65 86 66 87 75 88 67 89 68 90 74 91 76 92 69 93 70 94
REMARK SMILES IDX 71 95 72 96 73 97 49 98 50 99 59 100 51 101 52 102 58 103
REMARK SMILES IDX 60 104 53 105 54 106 55 107 56 108 57 109
REMARK H PARENT 14 6 19 40 81 59 47 70
REMARK Flexibility Score: inf
ROOT
ATOM      1  C   UNL A   1      46.614  21.257  34.616  1.00  0.00     0.023 C 
ENDROOT
BRANCH   1   2
ATOM      2  C   UNL A   1      47.930  21.984  34.839  1.00  0.00     0.116 C 
BRANCH   2   3
ATOM      3  N   UNL A   1      48.948  21.452  33.952  1.00  0.00    -0.356 N 
ATOM      4  C   UNL A   1      50.235  21.103  34.182  1.00  0.00     0.223 C 
ATOM      5  O   UNL A   1      50.929  20.811  33.205  1.00  0.00    -0.275 OA
ATOM      6  H   UNL A   1      48.649  21.321  33.023  1.00  0.00     0.163 HD
BRANCH   4   7
ATOM      7  C   UNL A   1      50.747  20.854  35.588  1.00  0.00     0.082 C 
ATOM      8  C   UNL A   1      49.376  20.423  39.348  1.00  0.00     0.222 C 
ATOM      9  O   UNL A   1      48.821  21.486  39.629  1.00  0.00    -0.275 OA
ATOM     10  N   UNL A   1      50.431  20.363  38.431  1.00  0.00    -0.343 N 
ATOM     11  C   UNL A   1      51.217  21.551  38.020  1.00  0.00     0.120 C 
ATOM     12  C   UNL A   1      50.448  19.301  37.456  1.00  0.00     0.120 C 
ATOM     13  C   UNL A   1      51.031  22.013  36.541  1.00  0.00     0.035 C 
ATOM     14  C   UNL A   1      49.763  19.914  36.251  1.00  0.00     0.035 C 
BRANCH   8  15
ATOM     15  C   UNL A   1      48.992  19.114  40.092  1.00  0.00     0.105 C 
BRANCH  15  16
ATOM     16  C   UNL A   1      47.704  19.070  40.960  1.00  0.00     0.053 C 
BRANCH  16  17
ATOM     17  C   UNL A   1      46.574  18.261  40.346  1.00  0.00     0.042 A 
ATOM     18  C   UNL A   1      46.966  16.172  41.709  1.00  0.00     0.046 C 
ATOM     19  C   UNL A   1      46.144  17.114  40.879  1.00  0.00    -0.030 A 
ATOM     20  C   UNL A   1      44.791  16.735  40.525  1.00  0.00     0.022 A 
ATOM     21  C   UNL A   1      45.952  18.629  39.024  1.00  0.00     0.339 A 
ATOM     22  C   UNL A   1      44.437  16.726  39.200  1.00  0.00     0.142 A 
ATOM     23  C   UNL A   1      43.826  16.440  41.462  1.00  0.00     0.024 A 
ATOM     24  O   UNL A   1      46.226  19.683  38.462  1.00  0.00    -0.246 OA
ATOM     25  O   UNL A   1      45.162  17.623  38.385  1.00  0.00    -0.422 OA
ATOM     26  C   UNL A   1      43.380  15.914  38.743  1.00  0.00     0.095 A 
ATOM     27  C   UNL A   1      42.786  15.612  41.095  1.00  0.00     0.025 A 
ATOM     28  C   UNL A   1      42.676  15.243  39.763  1.00  0.00     0.138 A 
ATOM     29  C   UNL A   1      41.926  14.820  41.870  1.00  0.00     0.001 A 
ATOM     30  O   UNL A   1      41.902  14.102  39.708  1.00  0.00    -0.461 OA
ATOM     31  C   UNL A   1      41.611  13.794  41.013  1.00  0.00     0.108 A 
ATOM     32  C   UNL A   1      41.875  14.645  43.351  1.00  0.00     0.040 C 
ATOM     33  C   UNL A   1      41.539  12.389  41.505  1.00  0.00     0.076 C 
ATOM     34  C   UNL A   1      42.556  13.321  43.745  1.00  0.00     0.005 C 
ATOM     35  C   UNL A   1      42.640  12.263  42.606  1.00  0.00     0.008 C 
ENDBRANCH  16  17
ENDBRANCH  15  16
ENDBRANCH   8  15
ENDBRANCH   4   7
ENDBRANCH   2   3
ENDBRANCH   1   2
BRANCH   1  36
ATOM     36  C   UNL A   1      45.527  21.693  35.597  1.00  0.00     0.023 C 
BRANCH  36  37
ATOM     37  C   UNL A   1      44.462  22.584  34.957  1.00  0.00     0.116 C 
BRANCH  37  38
ATOM     38  N   UNL A   1      43.809  23.443  35.928  1.00  0.00    -0.352 N 
ATOM     39  C   UNL A   1      43.682  24.811  35.853  1.00  0.00     0.251 C 
ATOM     40  H   UNL A   1      43.419  23.004  36.719  1.00  0.00     0.163 HD
ATOM     41  O   UNL A   1      43.221  25.463  36.782  1.00  0.00    -0.269 OA
BRANCH  39  42
ATOM     42  C   UNL A   1      44.158  25.461  34.618  1.00  0.00     0.039 A 
ATOM     43  C   UNL A   1      43.222  25.871  33.659  1.00  0.00     0.014 A 
ATOM     44  C   UNL A   1      45.527  25.505  34.358  1.00  0.00     0.014 A 
ATOM     45  C   UNL A   1      43.653  26.264  32.400  1.00  0.00     0.010 A 
ATOM     46  C   UNL A   1      45.957  25.918  33.100  1.00  0.00     0.010 A 
ATOM     47  C   UNL A   1      45.020  26.300  32.120  1.00  0.00    -0.014 A 
BRANCH  47  48
ATOM     48  C   UNL A   1      45.443  26.986  30.887  1.00  0.00     0.031 A 
ATOM     49  C   UNL A   1      45.473  26.055  29.732  1.00  0.00     0.074 A 
ATOM     50  C   UNL A   1      45.256  28.296  30.624  1.00  0.00     0.049 A 
ATOM     51  N   UNL A   1      44.362  25.786  29.124  1.00  0.00    -0.248 NA
ATOM     52  C   UNL A   1      46.562  25.141  29.406  1.00  0.00     0.031 C 
ATOM     53  C   UNL A   1      44.362  29.180  31.380  1.00  0.00     0.029 A 
ATOM     54  N   UNL A   1      45.645  29.050  29.538  1.00  0.00    -0.354 N 
ATOM     55  C   UNL A   1      44.544  24.617  28.422  1.00  0.00     0.074 A 
ATOM     56  C   UNL A   1      45.942  24.279  28.579  1.00  0.00     0.031 C 
ATOM     57  C   UNL A   1      44.145  30.295  30.654  1.00  0.00     0.029 A 
ATOM     58  C   UNL A   1      44.996  30.279  29.466  1.00  0.00     0.049 A 
ATOM     59  H   UNL A   1      46.313  28.751  28.881  1.00  0.00     0.167 HD
ATOM     60  C   UNL A   1      43.502  24.026  27.779  1.00  0.00     0.037 A 
ATOM     61  C   UNL A   1      44.734  30.988  28.337  1.00  0.00     0.037 A 
ATOM     62  C   UNL A   1      42.215  24.689  27.857  1.00  0.00     0.049 A 
ATOM     63  C   UNL A   1      43.741  30.121  27.611  1.00  0.00     0.074 A 
ATOM     64  C   UNL A   1      40.878  24.373  27.996  1.00  0.00     0.029 A 
ATOM     65  N   UNL A   1      42.256  26.054  27.806  1.00  0.00    -0.354 N 
ATOM     66  N   UNL A   1      42.462  30.044  27.874  1.00  0.00    -0.248 NA
ATOM     67  C   UNL A   1      44.234  29.096  26.675  1.00  0.00     0.031 C 
ATOM     68  C   UNL A   1      40.139  25.610  27.985  1.00  0.00     0.029 A 
ATOM     69  C   UNL A   1      41.033  26.653  27.799  1.00  0.00     0.049 A 
ATOM     70  H   UNL A   1      43.098  26.561  27.778  1.00  0.00     0.167 HD
ATOM     71  C   UNL A   1      42.062  28.825  27.342  1.00  0.00     0.074 A 
ATOM     72  C   UNL A   1      43.137  28.372  26.486  1.00  0.00     0.031 C 
ATOM     73  C   UNL A   1      41.011  28.099  27.819  1.00  0.00     0.037 A 
BRANCH  60  74
ATOM     74  C   UNL A   1      43.705  22.927  26.817  1.00  0.00     0.058 A 
ATOM     75  C   UNL A   1      43.103  21.694  27.117  1.00  0.00     0.135 A 
ATOM     76  C   UNL A   1      44.549  23.002  25.707  1.00  0.00     0.135 A 
ATOM     77  F   UNL A   1      42.270  21.591  28.167  1.00  0.00    -0.206 F 
ATOM     78  C   UNL A   1      43.358  20.557  26.367  1.00  0.00     0.059 A 
ATOM     79  C   UNL A   1      44.817  21.872  24.933  1.00  0.00     0.059 A 
ATOM     80  F   UNL A   1      45.140  24.161  25.380  1.00  0.00    -0.206 F 
ATOM     81  C   UNL A   1      44.230  20.653  25.284  1.00  0.00     0.060 A 
BRANCH  81  82
ATOM     82  S   UNL A   1      44.592  19.141  24.365  1.00  0.00     0.124 S 
ATOM     83  O   UNL A   1      43.637  18.202  24.943  1.00  0.00    -0.237 OA
ATOM     84  O   UNL A   1      44.327  19.555  22.991  1.00  0.00    -0.237 OA
ATOM     85  O   UNL A   1      45.993  18.882  24.679  1.00  0.00    -0.744 OA
ENDBRANCH  81  82
ENDBRANCH  60  74
BRANCH  61  86
ATOM     86  C   UNL A   1      45.896  31.658  27.666  1.00  0.00     0.058 A 
ATOM     87  C   UNL A   1      45.778  33.010  27.277  1.00  0.00     0.135 A 
ATOM     88  C   UNL A   1      47.108  31.031  27.331  1.00  0.00     0.135 A 
ATOM     89  F   UNL A   1      44.612  33.661  27.426  1.00  0.00    -0.206 F 
ATOM     90  C   UNL A   1      46.838  33.727  26.722  1.00  0.00     0.059 A 
ATOM     91  C   UNL A   1      48.195  31.734  26.808  1.00  0.00     0.059 A 
ATOM     92  F   UNL A   1      47.279  29.715  27.500  1.00  0.00    -0.206 F 
ATOM     93  C   UNL A   1      48.057  33.089  26.527  1.00  0.00     0.060 A 
BRANCH  93  94
ATOM     94  S   UNL A   1      49.466  34.058  25.951  1.00  0.00     0.124 S 
ATOM     95  O   UNL A   1      50.359  33.019  25.447  1.00  0.00    -0.237 OA
ATOM     96  O   UNL A   1      48.853  34.914  24.940  1.00  0.00    -0.237 OA
ATOM     97  O   UNL A   1      49.915  34.747  27.156  1.00  0.00    -0.744 OA
ENDBRANCH  93  94
ENDBRANCH  61  86
BRANCH  73  98
ATOM     98  C   UNL A   1      39.935  28.861  28.493  1.00  0.00     0.058 A 
ATOM     99  C   UNL A   1      39.914  28.906  29.897  1.00  0.00     0.135 A 
ATOM    100  C   UNL A   1      38.971  29.595  27.793  1.00  0.00     0.135 A 
ATOM    101  F   UNL A   1      40.837  28.243  30.611  1.00  0.00    -0.206 F 
ATOM    102  C   UNL A   1      38.980  29.667  30.585  1.00  0.00     0.059 A 
ATOM    103  C   UNL A   1      38.031  30.374  28.463  1.00  0.00     0.059 A 
ATOM    104  F   UNL A   1      38.941  29.580  26.450  1.00  0.00    -0.206 F 
ATOM    105  C   UNL A   1      38.049  30.409  29.859  1.00  0.00     0.060 A 
BRANCH 105 106
ATOM    106  S   UNL A   1      36.919  31.477  30.772  1.00  0.00     0.124 S 
ATOM    107  O   UNL A   1      37.546  32.786  30.620  1.00  0.00    -0.237 OA
ATOM    108  O   UNL A   1      35.664  31.288  30.049  1.00  0.00    -0.237 OA
ATOM    109  O   UNL A   1      36.943  30.926  32.124  1.00  0.00    -0.744 OA
ENDBRANCH 105 106
ENDBRANCH  73  98
ENDBRANCH  47  48
ENDBRANCH  39  42
ENDBRANCH  37  38
ENDBRANCH  36  37
ENDBRANCH   1  36
TORSDOF 17
ENDMDL
MODEL 2
REMARK VINA RESULT:     -12.8      6.892     12.828
REMARK SMILES Cc1c(CCC(=O)N2CCC(C(=O)NCCCCNC(=O)c3ccc(-c4c5nc(c(-c6c(F)cc(S(=O)(=O)[O-])cc6F)c6ccc([nH]6)c(-c6c(F)cc(S(=O)(=O)[O-])cc6F)c6nc(c(-c7c(F)cc(S(=O)(=O)[O-])cc7F)c7ccc4[nH]7)C=C6)C=C5)cc3)CC2)c(=O)oc2cc3oc4c(c3cc12)CCCC4
REMARK SMILES IDX 16 1 15 2 14 3 12 4 13 5 11 7 6 8 7 9 8 10 9 11 89 12 10 13
REMARK SMILES IDX 88 14 5 15 4 16 3 17 1 18 2 19 101 20 90 21 93 22 100 23
REMARK SMILES IDX 91 24 92 25 94 26 99 27 95 28 98 29 96 30 97 31 102 32
REMARK SMILES IDX 105 33 103 34 104 35 17 36 18 37 19 38 20 39 21 41 22 42
REMARK SMILES IDX 23 43 87 44 24 45 86 46 25 47 26 48 27 49 80 50 28 51 85 52
REMARK SMILES IDX 79 53 81 54 29 55 84 56 78 57 77 58 30 60 64 61 43 62 63 63
REMARK SMILES IDX 44 64 47 65 62 66 82 67 45 68 46 69 61 71 83 72 48 73 31 74
REMARK SMILES IDX 32 75 41 76 33 77 34 78 40 79 42 80 35 81 36 82 37 83 38 84
REMARK SMILES IDX 39 85 65 86 66 87 75 88 67 89 68 90 74 91 76 92 69 93 70 94
REMARK SMILES IDX 71 95 72 96 73 97 49 98 50 99 59 100 51 101 52 102 58 103
REMARK SMILES IDX 60 104 53 105 54 106 55 107 56 108 57 109
REMARK H PARENT 14 6 19 40 81 59 47 70
REMARK Flexibility Score: inf
ROOT
ATOM      1  C   UNL A   1      47.750  31.689  29.363  1.00  0.00     0.023 C 
ENDROOT
BRANCH   1   2
ATOM      2  C   UNL A   1      46.614  31.027  30.126  1.00  0.00     0.116 C 
BRANCH   2   3
ATOM      3  N   UNL A   1      46.893  29.615  30.308  1.00  0.00    -0.356 N 
ATOM      4  C   UNL A   1      46.251  28.515  29.851  1.00  0.00     0.223 C 
ATOM      5  O   UNL A   1      46.623  27.420  30.281  1.00  0.00    -0.275 OA
ATOM      6  H   UNL A   1      47.687  29.426  30.859  1.00  0.00     0.163 HD
BRANCH   4   7
ATOM      7  C   UNL A   1      45.279  28.592  28.690  1.00  0.00     0.082 C 
ATOM      8  C   UNL A   1      43.321  26.181  26.129  1.00  0.00     0.222 C 
ATOM      9  O   UNL A   1      44.192  25.586  25.493  1.00  0.00    -0.275 OA
ATOM     10  N   UNL A   1      43.540  27.456  26.662  1.00  0.00    -0.343 N 
ATOM     11  C   UNL A   1      44.636  28.347  26.211  1.00  0.00     0.120 C 
ATOM     12  C   UNL A   1      43.091  27.738  28.003  1.00  0.00     0.120 C 
ATOM     13  C   UNL A   1      45.774  28.605  27.246  1.00  0.00     0.035 C 
ATOM     14  C   UNL A   1      44.308  27.443  28.856  1.00  0.00     0.035 C 
BRANCH   8  15
ATOM     15  C   UNL A   1      41.896  25.576  26.270  1.00  0.00     0.105 C 
BRANCH  15  16
ATOM     16  C   UNL A   1      41.670  24.342  27.186  1.00  0.00     0.053 C 
BRANCH  16  17
ATOM     17  C   UNL A   1      40.568  23.413  26.708  1.00  0.00     0.042 A 
ATOM     18  C   UNL A   1      38.701  24.522  27.996  1.00  0.00     0.046 C 
ATOM     19  C   UNL A   1      39.272  23.686  26.889  1.00  0.00    -0.030 A 
ATOM     20  C   UNL A   1      38.365  23.025  25.972  1.00  0.00     0.022 A 
ATOM     21  C   UNL A   1      40.862  22.059  26.116  1.00  0.00     0.339 A 
ATOM     22  C   UNL A   1      38.475  21.668  25.805  1.00  0.00     0.142 A 
ATOM     23  C   UNL A   1      37.437  23.704  25.216  1.00  0.00     0.024 A 
ATOM     24  O   UNL A   1      42.009  21.713  25.855  1.00  0.00    -0.246 OA
ATOM     25  O   UNL A   1      39.767  21.143  26.031  1.00  0.00    -0.422 OA
ATOM     26  C   UNL A   1      37.372  20.905  25.375  1.00  0.00     0.095 A 
ATOM     27  C   UNL A   1      36.309  23.030  24.801  1.00  0.00     0.025 A 
ATOM     28  C   UNL A   1      36.236  21.664  25.028  1.00  0.00     0.138 A 
ATOM     29  C   UNL A   1      35.048  23.504  24.408  1.00  0.00     0.001 A 
ATOM     30  O   UNL A   1      34.907  21.300  24.971  1.00  0.00    -0.461 OA
ATOM     31  C   UNL A   1      34.217  22.467  24.758  1.00  0.00     0.108 A 
ATOM     32  C   UNL A   1      34.550  24.907  24.313  1.00  0.00     0.040 C 
ATOM     33  C   UNL A   1      32.890  22.736  25.381  1.00  0.00     0.076 C 
ATOM     34  C   UNL A   1      33.682  25.239  25.542  1.00  0.00     0.005 C 
ATOM     35  C   UNL A   1      33.083  24.002  26.274  1.00  0.00     0.008 C 
ENDBRANCH  16  17
ENDBRANCH  15  16
ENDBRANCH   8  15
ENDBRANCH   4   7
ENDBRANCH   2   3
ENDBRANCH   1   2
BRANCH   1  36
ATOM     36  C   UNL A   1      47.510  31.715  27.855  1.00  0.00     0.023 C 
BRANCH  36  37
ATOM     37  C   UNL A   1      47.065  33.085  27.342  1.00  0.00     0.116 C 
BRANCH  37  38
ATOM     38  N   UNL A   1      46.344  32.993  26.084  1.00  0.00    -0.352 N 
ATOM     39  C   UNL A   1      44.979  32.917  25.930  1.00  0.00     0.251 C 
ATOM     40  H   UNL A   1      46.886  32.982  25.262  1.00  0.00     0.163 HD
ATOM     41  O   UNL A   1      44.469  32.718  24.834  1.00  0.00    -0.269 OA
BRANCH  39  42
ATOM     42  C   UNL A   1      44.159  33.051  27.148  1.00  0.00     0.039 A 
ATOM     43  C   UNL A   1      43.842  34.332  27.617  1.00  0.00     0.014 A 
ATOM     44  C   UNL A   1      43.857  31.912  27.891  1.00  0.00     0.014 A 
ATOM     45  C   UNL A   1      43.279  34.484  28.877  1.00  0.00     0.010 A 
ATOM     46  C   UNL A   1      43.275  32.066  29.147  1.00  0.00     0.010 A 
ATOM     47  C   UNL A   1      42.983  33.353  29.641  1.00  0.00    -0.014 A 
BRANCH  47  48
ATOM     48  C   UNL A   1      42.137  33.539  30.831  1.00  0.00     0.031 A 
ATOM     49  C   UNL A   1      40.720  33.204  30.547  1.00  0.00     0.074 A 
ATOM     50  C   UNL A   1      42.557  33.426  32.108  1.00  0.00     0.049 A 
ATOM     51  N   UNL A   1      40.362  31.960  30.567  1.00  0.00    -0.248 NA
ATOM     52  C   UNL A   1      39.748  34.088  29.916  1.00  0.00     0.031 C 
ATOM     53  C   UNL A   1      43.833  32.828  32.517  1.00  0.00     0.029 A 
ATOM     54  N   UNL A   1      41.876  33.622  33.290  1.00  0.00    -0.354 N 
ATOM     55  C   UNL A   1      39.184  31.854  29.865  1.00  0.00     0.074 A 
ATOM     56  C   UNL A   1      38.808  33.209  29.524  1.00  0.00     0.031 C 
ATOM     57  C   UNL A   1      43.777  32.557  33.837  1.00  0.00     0.029 A 
ATOM     58  C   UNL A   1      42.540  33.099  34.396  1.00  0.00     0.049 A 
ATOM     59  H   UNL A   1      41.009  34.083  33.347  1.00  0.00     0.167 HD
ATOM     60  C   UNL A   1      38.631  30.636  29.617  1.00  0.00     0.037 A 
ATOM     61  C   UNL A   1      41.967  32.650  35.543  1.00  0.00     0.037 A 
ATOM     62  C   UNL A   1      39.328  29.476  30.139  1.00  0.00     0.049 A 
ATOM     63  C   UNL A   1      41.205  31.433  35.092  1.00  0.00     0.074 A 
ATOM     64  C   UNL A   1      39.643  28.186  29.764  1.00  0.00     0.029 A 
ATOM     65  N   UNL A   1      39.897  29.639  31.370  1.00  0.00    -0.354 N 
ATOM     66  N   UNL A   1      41.720  30.251  34.873  1.00  0.00    -0.248 NA
ATOM     67  C   UNL A   1      39.815  31.587  34.633  1.00  0.00     0.031 C 
ATOM     68  C   UNL A   1      40.385  27.591  30.846  1.00  0.00     0.029 A 
ATOM     69  C   UNL A   1      40.475  28.515  31.875  1.00  0.00     0.049 A 
ATOM     70  H   UNL A   1      39.889  30.497  31.851  1.00  0.00     0.167 HD
ATOM     71  C   UNL A   1      40.813  29.617  34.033  1.00  0.00     0.074 A 
ATOM     72  C   UNL A   1      39.602  30.411  34.056  1.00  0.00     0.031 C 
ATOM     73  C   UNL A   1      41.157  28.642  33.145  1.00  0.00     0.037 A 
BRANCH  60  74
ATOM     74  C   UNL A   1      37.258  30.497  29.098  1.00  0.00     0.058 A 
ATOM     75  C   UNL A   1      37.114  29.971  27.804  1.00  0.00     0.135 A 
ATOM     76  C   UNL A   1      36.119  30.965  29.757  1.00  0.00     0.135 A 
ATOM     77  F   UNL A   1      38.186  29.495  27.148  1.00  0.00    -0.206 F 
ATOM     78  C   UNL A   1      35.886  29.944  27.161  1.00  0.00     0.059 A 
ATOM     79  C   UNL A   1      34.871  30.943  29.133  1.00  0.00     0.059 A 
ATOM     80  F   UNL A   1      36.211  31.469  30.997  1.00  0.00    -0.206 F 
ATOM     81  C   UNL A   1      34.771  30.448  27.829  1.00  0.00     0.060 A 
BRANCH  81  82
ATOM     82  S   UNL A   1      33.199  30.458  26.943  1.00  0.00     0.124 S 
ATOM     83  O   UNL A   1      33.610  30.078  25.596  1.00  0.00    -0.237 OA
ATOM     84  O   UNL A   1      32.432  29.459  27.681  1.00  0.00    -0.237 OA
ATOM     85  O   UNL A   1      32.735  31.834  27.091  1.00  0.00    -0.744 OA
ENDBRANCH  81  82
ENDBRANCH  60  74
BRANCH  61  86
ATOM     86  C   UNL A   1      41.404  33.681  36.475  1.00  0.00     0.058 A 
ATOM     87  C   UNL A   1      41.778  33.655  37.836  1.00  0.00     0.135 A 
ATOM     88  C   UNL A   1      40.471  34.669  36.120  1.00  0.00     0.135 A 
ATOM     89  F   UNL A   1      42.558  32.667  38.308  1.00  0.00    -0.206 F 
ATOM     90  C   UNL A   1      41.364  34.625  38.748  1.00  0.00     0.059 A 
ATOM     91  C   UNL A   1      40.068  35.672  37.003  1.00  0.00     0.059 A 
ATOM     92  F   UNL A   1      39.917  34.696  34.901  1.00  0.00    -0.206 F 
ATOM     93  C   UNL A   1      40.537  35.654  38.312  1.00  0.00     0.060 A 
BRANCH  93  94
ATOM     94  S   UNL A   1      40.127  36.988  39.456  1.00  0.00     0.124 S 
ATOM     95  O   UNL A   1      41.306  37.842  39.357  1.00  0.00    -0.237 OA
ATOM     96  O   UNL A   1      38.903  37.525  38.869  1.00  0.00    -0.237 OA
ATOM     97  O   UNL A   1      39.951  36.297  40.729  1.00  0.00    -0.744 OA
ENDBRANCH  93  94
ENDBRANCH  61  86
BRANCH  73  98
ATOM     98  C   UNL A   1      42.353  27.836  33.480  1.00  0.00     0.058 A 
ATOM     99  C   UNL A   1      42.219  26.769  34.382  1.00  0.00     0.135 A 
ATOM    100  C   UNL A   1      43.603  28.048  32.887  1.00  0.00     0.135 A 
ATOM    101  F   UNL A   1      41.032  26.507  34.953  1.00  0.00    -0.206 F 
ATOM    102  C   UNL A   1      43.283  25.928  34.675  1.00  0.00     0.059 A 
ATOM    103  C   UNL A   1      44.681  27.211  33.159  1.00  0.00     0.059 A 
ATOM    104  F   UNL A   1      43.788  29.061  32.023  1.00  0.00    -0.206 F 
ATOM    105  C   UNL A   1      44.509  26.149  34.048  1.00  0.00     0.060 A 
BRANCH 105 106
ATOM    106  S   UNL A   1      45.843  24.975  34.359  1.00  0.00     0.124 S 
ATOM    107  O   UNL A   1      46.792  25.305  33.301  1.00  0.00    -0.237 OA
ATOM    108  O   UNL A   1      46.256  25.331  35.714  1.00  0.00    -0.237 OA
ATOM    109  O   UNL A   1      45.191  23.675  34.232  1.00  0.00    -0.744 OA
ENDBRANCH 105 106
ENDBRANCH  73  98
ENDBRANCH  47  48
ENDBRANCH  39  42
ENDBRANCH  37  38
ENDBRANCH  36  37
ENDBRANCH   1  36
TORSDOF 17
ENDMDL
MODEL 3
REMARK VINA RESULT:     -12.7      1.550      2.171
REMARK SMILES Cc1c(CCC(=O)N2CCC(C(=O)NCCCCNC(=O)c3ccc(-c4c5nc(c(-c6c(F)cc(S(=O)(=O)[O-])cc6F)c6ccc([nH]6)c(-c6c(F)cc(S(=O)(=O)[O-])cc6F)c6nc(c(-c7c(F)cc(S(=O)(=O)[O-])cc7F)c7ccc4[nH]7)C=C6)C=C5)cc3)CC2)c(=O)oc2cc3oc4c(c3cc12)CCCC4
REMARK SMILES IDX 16 1 15 2 14 3 12 4 13 5 11 7 6 8 7 9 8 10 9 11 89 12 10 13
REMARK SMILES IDX 88 14 5 15 4 16 3 17 1 18 2 19 101 20 90 21 93 22 100 23
REMARK SMILES IDX 91 24 92 25 94 26 99 27 95 28 98 29 96 30 97 31 102 32
REMARK SMILES IDX 105 33 103 34 104 35 17 36 18 37 19 38 20 39 21 41 22 42
REMARK SMILES IDX 23 43 87 44 24 45 86 46 25 47 26 48 27 49 80 50 28 51 85 52
REMARK SMILES IDX 79 53 81 54 29 55 84 56 78 57 77 58 30 60 64 61 43 62 63 63
REMARK SMILES IDX 44 64 47 65 62 66 82 67 45 68 46 69 61 71 83 72 48 73 31 74
REMARK SMILES IDX 32 75 41 76 33 77 34 78 40 79 42 80 35 81 36 82 37 83 38 84
REMARK SMILES IDX 39 85 65 86 66 87 75 88 67 89 68 90 74 91 76 92 69 93 70 94
REMARK SMILES IDX 71 95 72 96 73 97 49 98 50 99 59 100 51 101 52 102 58 103
REMARK SMILES IDX 60 104 53 105 54 106 55 107 56 108 57 109
REMARK H PARENT 14 6 19 40 81 59 47 70
REMARK Flexibility Score: inf
ROOT
ATOM      1  C   UNL A   1      45.974  26.230  38.009  1.00  0.00     0.023 C 
ENDROOT
BRANCH   1   2
ATOM      2  C   UNL A   1      47.377  26.399  37.449  1.00  0.00     0.116 C 
BRANCH   2   3
ATOM      3  N   UNL A   1      48.310  26.680  38.524  1.00  0.00    -0.356 N 
ATOM      4  C   UNL A   1      49.012  25.853  39.333  1.00  0.00     0.223 C 
ATOM      5  O   UNL A   1      49.629  26.363  40.272  1.00  0.00    -0.275 OA
ATOM      6  H   UNL A   1      48.457  27.639  38.694  1.00  0.00     0.163 HD
BRANCH   4   7
ATOM      7  C   UNL A   1      49.228  24.395  38.976  1.00  0.00     0.082 C 
ATOM      8  C   UNL A   1      49.043  20.739  40.650  1.00  0.00     0.222 C 
ATOM      9  O   UNL A   1      49.869  20.744  41.564  1.00  0.00    -0.275 OA
ATOM     10  N   UNL A   1      49.195  21.543  39.515  1.00  0.00    -0.343 N 
ATOM     11  C   UNL A   1      50.487  22.156  39.122  1.00  0.00     0.120 C 
ATOM     12  C   UNL A   1      48.048  22.251  39.003  1.00  0.00     0.120 C 
ATOM     13  C   UNL A   1      50.567  23.709  39.237  1.00  0.00     0.035 C 
ATOM     14  C   UNL A   1      48.139  23.607  39.672  1.00  0.00     0.035 C 
BRANCH   8  15
ATOM     15  C   UNL A   1      47.846  19.748  40.676  1.00  0.00     0.105 C 
BRANCH  15  16
ATOM     16  C   UNL A   1      47.924  18.424  39.868  1.00  0.00     0.053 C 
BRANCH  16  17
ATOM     17  C   UNL A   1      46.588  17.719  39.706  1.00  0.00     0.042 A 
ATOM     18  C   UNL A   1      47.203  15.665  41.038  1.00  0.00     0.046 C 
ATOM     19  C   UNL A   1      46.248  16.653  40.436  1.00  0.00    -0.030 A 
ATOM     20  C   UNL A   1      44.824  16.413  40.556  1.00  0.00     0.022 A 
ATOM     21  C   UNL A   1      45.612  18.094  38.621  1.00  0.00     0.339 A 
ATOM     22  C   UNL A   1      44.065  16.383  39.414  1.00  0.00     0.142 A 
ATOM     23  C   UNL A   1      44.187  16.273  41.768  1.00  0.00     0.024 A 
ATOM     24  O   UNL A   1      45.787  19.083  37.920  1.00  0.00    -0.246 OA
ATOM     25  O   UNL A   1      44.569  17.155  38.344  1.00  0.00    -0.422 OA
ATOM     26  C   UNL A   1      42.848  15.675  39.378  1.00  0.00     0.095 A 
ATOM     27  C   UNL A   1      43.013  15.551  41.814  1.00  0.00     0.025 A 
ATOM     28  C   UNL A   1      42.449  15.135  40.617  1.00  0.00     0.138 A 
ATOM     29  C   UNL A   1      42.378  14.897  42.880  1.00  0.00     0.001 A 
ATOM     30  O   UNL A   1      41.597  14.087  40.898  1.00  0.00    -0.461 OA
ATOM     31  C   UNL A   1      41.712  13.874  42.249  1.00  0.00     0.108 A 
ATOM     32  C   UNL A   1      42.789  14.797  44.311  1.00  0.00     0.040 C 
ATOM     33  C   UNL A   1      41.672  12.510  42.848  1.00  0.00     0.076 C 
ATOM     34  C   UNL A   1      43.435  13.424  44.575  1.00  0.00     0.005 C 
ATOM     35  C   UNL A   1      43.052  12.311  43.554  1.00  0.00     0.008 C 
ENDBRANCH  16  17
ENDBRANCH  15  16
ENDBRANCH   8  15
ENDBRANCH   4   7
ENDBRANCH   2   3
ENDBRANCH   1   2
BRANCH   1  36
ATOM     36  C   UNL A   1      45.018  27.326  37.544  1.00  0.00     0.023 C 
BRANCH  36  37
ATOM     37  C   UNL A   1      43.749  26.779  36.890  1.00  0.00     0.116 C 
BRANCH  37  38
ATOM     38  N   UNL A   1      43.743  25.328  36.831  1.00  0.00    -0.352 N 
ATOM     39  C   UNL A   1      43.995  24.555  35.721  1.00  0.00     0.251 C 
ATOM     40  H   UNL A   1      43.538  24.851  37.668  1.00  0.00     0.163 HD
ATOM     41  O   UNL A   1      43.846  23.339  35.741  1.00  0.00    -0.269 OA
BRANCH  39  42
ATOM     42  C   UNL A   1      44.417  25.259  34.496  1.00  0.00     0.039 A 
ATOM     43  C   UNL A   1      43.439  25.749  33.621  1.00  0.00     0.014 A 
ATOM     44  C   UNL A   1      45.768  25.279  34.156  1.00  0.00     0.014 A 
ATOM     45  C   UNL A   1      43.806  26.201  32.361  1.00  0.00     0.010 A 
ATOM     46  C   UNL A   1      46.135  25.750  32.898  1.00  0.00     0.010 A 
ATOM     47  C   UNL A   1      45.155  26.213  32.000  1.00  0.00    -0.014 A 
BRANCH  47  48
ATOM     48  C   UNL A   1      45.525  26.955  30.783  1.00  0.00     0.031 A 
ATOM     49  C   UNL A   1      45.562  26.066  29.596  1.00  0.00     0.074 A 
ATOM     50  C   UNL A   1      45.284  28.265  30.569  1.00  0.00     0.049 A 
ATOM     51  N   UNL A   1      44.449  25.776  29.003  1.00  0.00    -0.248 NA
ATOM     52  C   UNL A   1      46.675  25.204  29.215  1.00  0.00     0.031 C 
ATOM     53  C   UNL A   1      44.376  29.090  31.374  1.00  0.00     0.029 A 
ATOM     54  N   UNL A   1      45.621  29.070  29.502  1.00  0.00    -0.354 N 
ATOM     55  C   UNL A   1      44.657  24.639  28.257  1.00  0.00     0.074 A 
ATOM     56  C   UNL A   1      46.069  24.348  28.373  1.00  0.00     0.031 C 
ATOM     57  C   UNL A   1      44.102  30.220  30.691  1.00  0.00     0.029 A 
ATOM     58  C   UNL A   1      44.927  30.275  29.486  1.00  0.00     0.049 A 
ATOM     59  H   UNL A   1      46.285  28.817  28.820  1.00  0.00     0.167 HD
ATOM     60  C   UNL A   1      43.622  24.032  27.616  1.00  0.00     0.037 A 
ATOM     61  C   UNL A   1      44.614  31.011  28.387  1.00  0.00     0.037 A 
ATOM     62  C   UNL A   1      42.314  24.644  27.744  1.00  0.00     0.049 A 
ATOM     63  C   UNL A   1      43.637  30.133  27.653  1.00  0.00     0.074 A 
ATOM     64  C   UNL A   1      40.994  24.275  27.900  1.00  0.00     0.029 A 
ATOM     65  N   UNL A   1      42.305  26.010  27.740  1.00  0.00    -0.354 N 
ATOM     66  N   UNL A   1      42.368  30.001  27.940  1.00  0.00    -0.248 NA
ATOM     67  C   UNL A   1      44.145  29.160  26.672  1.00  0.00     0.031 C 
ATOM     68  C   UNL A   1      40.210  25.483  27.947  1.00  0.00     0.029 A 
ATOM     69  C   UNL A   1      41.061  26.564  27.779  1.00  0.00     0.049 A 
ATOM     70  H   UNL A   1      43.127  26.548  27.711  1.00  0.00     0.167 HD
ATOM     71  C   UNL A   1      42.000  28.786  27.375  1.00  0.00     0.074 A 
ATOM     72  C   UNL A   1      43.072  28.402  26.481  1.00  0.00     0.031 C 
ATOM     73  C   UNL A   1      40.988  28.006  27.849  1.00  0.00     0.037 A 
BRANCH  60  74
ATOM     74  C   UNL A   1      43.844  22.974  26.613  1.00  0.00     0.058 A 
ATOM     75  C   UNL A   1      43.372  21.688  26.924  1.00  0.00     0.135 A 
ATOM     76  C   UNL A   1      44.592  23.143  25.446  1.00  0.00     0.135 A 
ATOM     77  F   UNL A   1      42.634  21.492  28.030  1.00  0.00    -0.206 F 
ATOM     78  C   UNL A   1      43.664  20.592  26.127  1.00  0.00     0.059 A 
ATOM     79  C   UNL A   1      44.894  22.056  24.624  1.00  0.00     0.059 A 
ATOM     80  F   UNL A   1      45.056  24.356  25.107  1.00  0.00    -0.206 F 
ATOM     81  C   UNL A   1      44.440  20.785  24.986  1.00  0.00     0.060 A 
BRANCH  81  82
ATOM     82  S   UNL A   1      44.857  19.329  24.003  1.00  0.00     0.124 S 
ATOM     83  O   UNL A   1      46.300  19.239  24.194  1.00  0.00    -0.237 OA
ATOM     84  O   UNL A   1      44.062  18.291  24.652  1.00  0.00    -0.237 OA
ATOM     85  O   UNL A   1      44.425  19.694  22.657  1.00  0.00    -0.744 OA
ENDBRANCH  81  82
ENDBRANCH  60  74
BRANCH  61  86
ATOM     86  C   UNL A   1      45.736  31.746  27.715  1.00  0.00     0.058 A 
ATOM     87  C   UNL A   1      45.525  33.073  27.281  1.00  0.00     0.135 A 
ATOM     88  C   UNL A   1      46.998  31.203  27.422  1.00  0.00     0.135 A 
ATOM     89  F   UNL A   1      44.311  33.639  27.388  1.00  0.00    -0.206 F 
ATOM     90  C   UNL A   1      46.539  33.850  26.722  1.00  0.00     0.059 A 
ATOM     91  C   UNL A   1      48.039  31.969  26.896  1.00  0.00     0.059 A 
ATOM     92  F   UNL A   1      47.263  29.909  27.636  1.00  0.00    -0.206 F 
ATOM     93  C   UNL A   1      47.806  33.300  26.568  1.00  0.00     0.060 A 
BRANCH  93  94
ATOM     94  S   UNL A   1      49.150  34.354  25.986  1.00  0.00     0.124 S 
ATOM     95  O   UNL A   1      49.633  34.940  27.232  1.00  0.00    -0.237 OA
ATOM     96  O   UNL A   1      50.041  33.387  25.352  1.00  0.00    -0.237 OA
ATOM     97  O   UNL A   1      48.484  35.274  25.071  1.00  0.00    -0.744 OA
ENDBRANCH  93  94
ENDBRANCH  61  86
BRANCH  73  98
ATOM     98  C   UNL A   1      39.900  28.705  28.572  1.00  0.00     0.058 A 
ATOM     99  C   UNL A   1      39.890  28.674  29.976  1.00  0.00     0.135 A 
ATOM    100  C   UNL A   1      38.913  29.452  27.920  1.00  0.00     0.135 A 
ATOM    101  F   UNL A   1      40.835  27.995  30.646  1.00  0.00    -0.206 F 
ATOM    102  C   UNL A   1      38.945  29.374  30.711  1.00  0.00     0.059 A 
ATOM    103  C   UNL A   1      37.960  30.171  28.638  1.00  0.00     0.059 A 
ATOM    104  F   UNL A   1      38.871  29.509  26.578  1.00  0.00    -0.206 F 
ATOM    105  C   UNL A   1      37.990  30.131  30.033  1.00  0.00     0.060 A 
BRANCH 105 106
ATOM    106  S   UNL A   1      36.844  31.122  31.012  1.00  0.00     0.124 S 
ATOM    107  O   UNL A   1      36.252  30.122  31.894  1.00  0.00    -0.237 OA
ATOM    108  O   UNL A   1      37.738  32.082  31.654  1.00  0.00    -0.237 OA
ATOM    109  O   UNL A   1      35.943  31.689  30.013  1.00  0.00    -0.744 OA
ENDBRANCH 105 106
ENDBRANCH  73  98
ENDBRANCH  47  48
ENDBRANCH  39  42
ENDBRANCH  37  38
ENDBRANCH  36  37
ENDBRANCH   1  36
TORSDOF 17
ENDMDL
