MODEL 1
REMARK VINA RESULT:     -10.9      0.000      0.000
REMARK SMILES CC[C@H](C)[C@@H](NC(=S)Nc1ccccc1)C(=O)NCCCCNC(=O)c1ccc(-c2c3nc(c(-c4c(F)cc(S(=O)(=O)[O-])cc4F)c4ccc([nH]4)c(-c4c(F)cc(S(=O)(=O)[O-])cc4F)c4nc(c(-c5c(F)cc(S(=O)(=O)[O-])cc5F)c5ccc2[nH]5)C=C4)C=C3)cc1
REMARK SMILES IDX 20 1 19 2 18 3 16 4 17 5 5 7 3 8 4 9 2 10 1 11 6 12 7 14
REMARK SMILES IDX 8 15 9 16 10 18 11 19 15 20 12 21 14 22 13 23 21 24 22 25
REMARK SMILES IDX 23 26 24 27 25 29 26 30 27 31 91 32 28 33 90 34 29 35 30 36
REMARK SMILES IDX 31 37 84 38 32 39 89 40 83 41 85 42 33 43 88 44 82 45 81 46
REMARK SMILES IDX 34 48 68 49 47 50 67 51 48 52 51 53 66 54 86 55 49 56 50 57
REMARK SMILES IDX 65 59 87 60 52 61 35 62 36 63 45 64 37 65 38 66 44 67 46 68
REMARK SMILES IDX 39 69 40 70 41 71 42 72 43 73 69 74 70 75 79 76 71 77 72 78
REMARK SMILES IDX 78 79 80 80 73 81 74 82 75 83 76 84 77 85 53 86 54 87 63 88
REMARK SMILES IDX 55 89 56 90 62 91 64 92 57 93 58 94 59 95 60 96 61 97
REMARK H PARENT 18 6 6 13 9 17 23 28 85 47 51 58
REMARK Flexibility Score: inf
ROOT
ATOM      1  C   UNL A   1      31.751  27.484  25.336  1.00  0.00     0.023 C 
ENDROOT
BRANCH   1   2
ATOM      2  C   UNL A   1      30.866  26.239  25.227  1.00  0.00     0.116 C 
BRANCH   2   3
ATOM      3  N   UNL A   1      30.976  25.488  26.456  1.00  0.00    -0.354 N 
ATOM      4  C   UNL A   1      31.310  24.178  26.592  1.00  0.00     0.242 C 
ATOM      5  O   UNL A   1      30.635  23.500  27.371  1.00  0.00    -0.273 OA
ATOM      6  H   UNL A   1      30.786  25.979  27.287  1.00  0.00     0.163 HD
BRANCH   4   7
ATOM      7  C   UNL A   1      32.411  23.551  25.706  1.00  0.00     0.173 C 
BRANCH   7   8
ATOM      8  C   UNL A   1      33.797  23.884  26.358  1.00  0.00     0.018 C 
ATOM      9  C   UNL A   1      34.343  22.769  27.255  1.00  0.00     0.010 C 
BRANCH   8  10
ATOM     10  C   UNL A   1      34.787  24.322  25.235  1.00  0.00     0.002 C 
ATOM     11  C   UNL A   1      34.193  24.917  23.969  1.00  0.00     0.004 C 
ENDBRANCH   8  10
ENDBRANCH   7   8
BRANCH   7  12
ATOM     12  N   UNL A   1      32.186  22.119  25.418  1.00  0.00    -0.350 N 
ATOM     13  H   UNL A   1      31.590  21.680  26.067  1.00  0.00     0.163 HD
BRANCH  12  14
ATOM     14  C   UNL A   1      32.625  21.287  24.449  1.00  0.00     0.171 C 
ATOM     15  S   UNL A   1      32.260  21.719  22.873  1.00  0.00    -0.041 S 
BRANCH  14  16
ATOM     16  N   UNL A   1      33.471  20.255  24.642  1.00  0.00    -0.333 N 
ATOM     17  H   UNL A   1      34.399  20.529  24.822  1.00  0.00     0.169 HD
BRANCH  16  18
ATOM     18  C   UNL A   1      33.281  18.868  24.633  1.00  0.00     0.040 A 
ATOM     19  C   UNL A   1      33.657  18.164  23.486  1.00  0.00     0.026 A 
ATOM     20  C   UNL A   1      32.752  18.183  25.726  1.00  0.00     0.026 A 
ATOM     21  C   UNL A   1      33.655  16.768  23.496  1.00  0.00     0.002 A 
ATOM     22  C   UNL A   1      32.727  16.788  25.726  1.00  0.00     0.002 A 
ATOM     23  C   UNL A   1      33.209  16.081  24.624  1.00  0.00     0.000 A 
ENDBRANCH  16  18
ENDBRANCH  14  16
ENDBRANCH  12  14
ENDBRANCH   7  12
ENDBRANCH   4   7
ENDBRANCH   2   3
ENDBRANCH   1   2
BRANCH   1  24
ATOM     24  C   UNL A   1      32.738  27.446  26.515  1.00  0.00     0.023 C 
BRANCH  24  25
ATOM     25  C   UNL A   1      34.017  28.246  26.291  1.00  0.00     0.116 C 
BRANCH  25  26
ATOM     26  N   UNL A   1      33.789  29.666  26.493  1.00  0.00    -0.352 N 
ATOM     27  C   UNL A   1      34.445  30.518  27.334  1.00  0.00     0.251 C 
ATOM     28  H   UNL A   1      33.070  30.066  25.952  1.00  0.00     0.163 HD
ATOM     29  O   UNL A   1      33.965  31.631  27.576  1.00  0.00    -0.269 OA
BRANCH  27  30
ATOM     30  C   UNL A   1      35.718  30.105  27.950  1.00  0.00     0.039 A 
ATOM     31  C   UNL A   1      35.705  29.606  29.253  1.00  0.00     0.014 A 
ATOM     32  C   UNL A   1      36.925  30.250  27.256  1.00  0.00     0.014 A 
ATOM     33  C   UNL A   1      36.907  29.247  29.863  1.00  0.00     0.010 A 
ATOM     34  C   UNL A   1      38.116  29.832  27.843  1.00  0.00     0.010 A 
ATOM     35  C   UNL A   1      38.120  29.359  29.163  1.00  0.00    -0.014 A 
BRANCH  35  36
ATOM     36  C   UNL A   1      39.404  29.043  29.834  1.00  0.00     0.031 A 
ATOM     37  C   UNL A   1      39.799  29.788  31.080  1.00  0.00     0.074 A 
ATOM     38  C   UNL A   1      40.213  28.100  29.316  1.00  0.00     0.049 A 
ATOM     39  N   UNL A   1      40.863  29.645  31.826  1.00  0.00    -0.248 NA
ATOM     40  C   UNL A   1      38.888  30.853  31.535  1.00  0.00     0.031 C 
ATOM     41  C   UNL A   1      39.957  27.349  28.085  1.00  0.00     0.029 A 
ATOM     42  N   UNL A   1      41.411  27.607  29.764  1.00  0.00    -0.354 N 
ATOM     43  C   UNL A   1      40.760  30.608  32.824  1.00  0.00     0.074 A 
ATOM     44  C   UNL A   1      39.556  31.364  32.560  1.00  0.00     0.031 C 
ATOM     45  C   UNL A   1      40.952  26.466  27.895  1.00  0.00     0.029 A 
ATOM     46  C   UNL A   1      41.924  26.604  28.976  1.00  0.00     0.049 A 
ATOM     47  H   UNL A   1      41.862  27.941  30.573  1.00  0.00     0.167 HD
ATOM     48  C   UNL A   1      41.579  30.824  33.881  1.00  0.00     0.037 A 
ATOM     49  C   UNL A   1      43.043  25.870  29.121  1.00  0.00     0.037 A 
ATOM     50  C   UNL A   1      42.753  30.038  34.157  1.00  0.00     0.049 A 
ATOM     51  C   UNL A   1      43.917  26.102  30.324  1.00  0.00     0.074 A 
ATOM     52  C   UNL A   1      43.617  30.130  35.234  1.00  0.00     0.029 A 
ATOM     53  N   UNL A   1      43.225  29.012  33.352  1.00  0.00    -0.354 N 
ATOM     54  N   UNL A   1      43.769  26.970  31.296  1.00  0.00    -0.248 NA
ATOM     55  C   UNL A   1      45.101  25.243  30.458  1.00  0.00     0.031 C 
ATOM     56  C   UNL A   1      44.631  29.181  35.061  1.00  0.00     0.029 A 
ATOM     57  C   UNL A   1      44.374  28.469  33.900  1.00  0.00     0.049 A 
ATOM     58  H   UNL A   1      42.803  28.713  32.514  1.00  0.00     0.167 HD
ATOM     59  C   UNL A   1      44.820  26.739  32.176  1.00  0.00     0.074 A 
ATOM     60  C   UNL A   1      45.593  25.645  31.623  1.00  0.00     0.031 C 
ATOM     61  C   UNL A   1      45.120  27.371  33.338  1.00  0.00     0.037 A 
BRANCH  48  62
ATOM     62  C   UNL A   1      41.228  31.950  34.814  1.00  0.00     0.058 A 
ATOM     63  C   UNL A   1      40.350  31.768  35.895  1.00  0.00     0.135 A 
ATOM     64  C   UNL A   1      41.791  33.224  34.638  1.00  0.00     0.135 A 
ATOM     65  F   UNL A   1      39.769  30.575  36.102  1.00  0.00    -0.206 F 
ATOM     66  C   UNL A   1      40.015  32.816  36.746  1.00  0.00     0.059 A 
ATOM     67  C   UNL A   1      41.492  34.280  35.493  1.00  0.00     0.059 A 
ATOM     68  F   UNL A   1      42.637  33.455  33.620  1.00  0.00    -0.206 F 
ATOM     69  C   UNL A   1      40.589  34.070  36.534  1.00  0.00     0.060 A 
BRANCH  69  70
ATOM     70  S   UNL A   1      40.144  35.423  37.644  1.00  0.00     0.124 S 
ATOM     71  O   UNL A   1      41.354  35.546  38.452  1.00  0.00    -0.237 OA
ATOM     72  O   UNL A   1      39.887  36.519  36.716  1.00  0.00    -0.237 OA
ATOM     73  O   UNL A   1      38.970  34.914  38.346  1.00  0.00    -0.744 OA
ENDBRANCH  69  70
ENDBRANCH  48  62
BRANCH  49  74
ATOM     74  C   UNL A   1      43.370  24.811  28.130  1.00  0.00     0.058 A 
ATOM     75  C   UNL A   1      42.927  23.493  28.313  1.00  0.00     0.135 A 
ATOM     76  C   UNL A   1      44.118  25.096  26.978  1.00  0.00     0.135 A 
ATOM     77  F   UNL A   1      42.211  23.172  29.401  1.00  0.00    -0.206 F 
ATOM     78  C   UNL A   1      43.228  22.489  27.399  1.00  0.00     0.059 A 
ATOM     79  C   UNL A   1      44.412  24.114  26.037  1.00  0.00     0.059 A 
ATOM     80  F   UNL A   1      44.548  26.346  26.746  1.00  0.00    -0.206 F 
ATOM     81  C   UNL A   1      43.972  22.810  26.262  1.00  0.00     0.060 A 
BRANCH  81  82
ATOM     82  S   UNL A   1      44.320  21.509  25.059  1.00  0.00     0.124 S 
ATOM     83  O   UNL A   1      44.219  22.239  23.801  1.00  0.00    -0.237 OA
ATOM     84  O   UNL A   1      45.662  21.084  25.446  1.00  0.00    -0.237 OA
ATOM     85  O   UNL A   1      43.265  20.532  25.310  1.00  0.00    -0.744 OA
ENDBRANCH  81  82
ENDBRANCH  49  74
BRANCH  61  86
ATOM     86  C   UNL A   1      46.305  26.864  34.110  1.00  0.00     0.058 A 
ATOM     87  C   UNL A   1      46.184  25.846  35.067  1.00  0.00     0.135 A 
ATOM     88  C   UNL A   1      47.585  27.386  33.864  1.00  0.00     0.135 A 
ATOM     89  F   UNL A   1      44.981  25.316  35.341  1.00  0.00    -0.206 F 
ATOM     90  C   UNL A   1      47.286  25.385  35.780  1.00  0.00     0.059 A 
ATOM     91  C   UNL A   1      48.705  26.922  34.545  1.00  0.00     0.059 A 
ATOM     92  F   UNL A   1      47.757  28.352  32.947  1.00  0.00    -0.206 F 
ATOM     93  C   UNL A   1      48.542  25.933  35.514  1.00  0.00     0.060 A 
BRANCH  93  94
ATOM     94  S   UNL A   1      49.968  25.321  36.435  1.00  0.00     0.124 S 
ATOM     95  O   UNL A   1      50.999  26.278  36.048  1.00  0.00    -0.237 OA
ATOM     96  O   UNL A   1      49.511  25.406  37.818  1.00  0.00    -0.237 OA
ATOM     97  O   UNL A   1      50.145  23.964  35.924  1.00  0.00    -0.744 OA
ENDBRANCH  93  94
ENDBRANCH  61  86
ENDBRANCH  35  36
ENDBRANCH  27  30
ENDBRANCH  25  26
ENDBRANCH  24  25
ENDBRANCH   1  24
TORSDOF 20
ENDMDL
MODEL 2
REMARK VINA RESULT:     -10.5      2.024      2.820
REMARK SMILES CC[C@H](C)[C@@H](NC(=S)Nc1ccccc1)C(=O)NCCCCNC(=O)c1ccc(-c2c3nc(c(-c4c(F)cc(S(=O)(=O)[O-])cc4F)c4ccc([nH]4)c(-c4c(F)cc(S(=O)(=O)[O-])cc4F)c4nc(c(-c5c(F)cc(S(=O)(=O)[O-])cc5F)c5ccc2[nH]5)C=C4)C=C3)cc1
REMARK SMILES IDX 20 1 19 2 18 3 16 4 17 5 5 7 3 8 4 9 2 10 1 11 6 12 7 14
REMARK SMILES IDX 8 15 9 16 10 18 11 19 15 20 12 21 14 22 13 23 21 24 22 25
REMARK SMILES IDX 23 26 24 27 25 29 26 30 27 31 91 32 28 33 90 34 29 35 30 36
REMARK SMILES IDX 31 37 84 38 32 39 89 40 83 41 85 42 33 43 88 44 82 45 81 46
REMARK SMILES IDX 34 48 68 49 47 50 67 51 48 52 51 53 66 54 86 55 49 56 50 57
REMARK SMILES IDX 65 59 87 60 52 61 35 62 36 63 45 64 37 65 38 66 44 67 46 68
REMARK SMILES IDX 39 69 40 70 41 71 42 72 43 73 69 74 70 75 79 76 71 77 72 78
REMARK SMILES IDX 78 79 80 80 73 81 74 82 75 83 76 84 77 85 53 86 54 87 63 88
REMARK SMILES IDX 55 89 56 90 62 91 64 92 57 93 58 94 59 95 60 96 61 97
REMARK H PARENT 18 6 6 13 9 17 23 28 85 47 51 58
REMARK Flexibility Score: inf
ROOT
ATOM      1  C   UNL A   1      32.744  28.570  24.030  1.00  0.00     0.023 C 
ENDROOT
BRANCH   1   2
ATOM      2  C   UNL A   1      33.808  28.128  23.022  1.00  0.00     0.116 C 
BRANCH   2   3
ATOM      3  N   UNL A   1      33.174  27.317  22.009  1.00  0.00    -0.354 N 
ATOM      4  C   UNL A   1      33.159  25.960  21.932  1.00  0.00     0.242 C 
ATOM      5  O   UNL A   1      33.374  25.455  20.828  1.00  0.00    -0.273 OA
ATOM      6  H   UNL A   1      32.700  27.801  21.295  1.00  0.00     0.163 HD
BRANCH   4   7
ATOM      7  C   UNL A   1      33.005  25.102  23.209  1.00  0.00     0.173 C 
BRANCH   7   8
ATOM      8  C   UNL A   1      31.603  24.403  23.149  1.00  0.00     0.018 C 
ATOM      9  C   UNL A   1      31.676  22.873  23.139  1.00  0.00     0.010 C 
BRANCH   8  10
ATOM     10  C   UNL A   1      30.707  24.978  24.289  1.00  0.00     0.002 C 
ATOM     11  C   UNL A   1      29.814  26.160  23.951  1.00  0.00     0.004 C 
ENDBRANCH   8  10
ENDBRANCH   7   8
BRANCH   7  12
ATOM     12  N   UNL A   1      34.146  24.192  23.444  1.00  0.00    -0.350 N 
ATOM     13  H   UNL A   1      34.560  23.865  22.613  1.00  0.00     0.163 HD
BRANCH  12  14
ATOM     14  C   UNL A   1      34.741  23.717  24.559  1.00  0.00     0.171 C 
ATOM     15  S   UNL A   1      34.014  24.114  26.016  1.00  0.00    -0.041 S 
BRANCH  14  16
ATOM     16  N   UNL A   1      35.746  22.820  24.577  1.00  0.00    -0.333 N 
ATOM     17  H   UNL A   1      35.556  21.999  24.070  1.00  0.00     0.169 HD
BRANCH  16  18
ATOM     18  C   UNL A   1      37.009  22.833  25.182  1.00  0.00     0.040 A 
ATOM     19  C   UNL A   1      37.433  24.022  25.782  1.00  0.00     0.026 A 
ATOM     20  C   UNL A   1      37.831  21.708  25.213  1.00  0.00     0.026 A 
ATOM     21  C   UNL A   1      38.600  24.035  26.549  1.00  0.00     0.002 A 
ATOM     22  C   UNL A   1      39.009  21.728  25.959  1.00  0.00     0.002 A 
ATOM     23  C   UNL A   1      39.376  22.882  26.653  1.00  0.00     0.000 A 
ENDBRANCH  16  18
ENDBRANCH  14  16
ENDBRANCH  12  14
ENDBRANCH   7  12
ENDBRANCH   4   7
ENDBRANCH   2   3
ENDBRANCH   1   2
BRANCH   1  24
ATOM     24  C   UNL A   1      32.906  27.941  25.424  1.00  0.00     0.023 C 
BRANCH  24  25
ATOM     25  C   UNL A   1      34.041  28.533  26.254  1.00  0.00     0.116 C 
BRANCH  25  26
ATOM     26  N   UNL A   1      33.800  29.934  26.547  1.00  0.00    -0.352 N 
ATOM     27  C   UNL A   1      34.442  30.733  27.450  1.00  0.00     0.251 C 
ATOM     28  H   UNL A   1      33.082  30.364  26.028  1.00  0.00     0.163 HD
ATOM     29  O   UNL A   1      33.951  31.824  27.760  1.00  0.00    -0.269 OA
BRANCH  27  30
ATOM     30  C   UNL A   1      35.713  30.290  28.048  1.00  0.00     0.039 A 
ATOM     31  C   UNL A   1      35.688  29.662  29.294  1.00  0.00     0.014 A 
ATOM     32  C   UNL A   1      36.928  30.532  27.397  1.00  0.00     0.014 A 
ATOM     33  C   UNL A   1      36.886  29.271  29.890  1.00  0.00     0.010 A 
ATOM     34  C   UNL A   1      38.118  30.084  27.965  1.00  0.00     0.010 A 
ATOM     35  C   UNL A   1      38.109  29.481  29.230  1.00  0.00    -0.014 A 
BRANCH  35  36
ATOM     36  C   UNL A   1      39.388  29.129  29.894  1.00  0.00     0.031 A 
ATOM     37  C   UNL A   1      39.806  29.856  31.144  1.00  0.00     0.074 A 
ATOM     38  C   UNL A   1      40.172  28.170  29.366  1.00  0.00     0.049 A 
ATOM     39  N   UNL A   1      40.870  29.681  31.884  1.00  0.00    -0.248 NA
ATOM     40  C   UNL A   1      38.924  30.939  31.610  1.00  0.00     0.031 C 
ATOM     41  C   UNL A   1      39.892  27.434  28.131  1.00  0.00     0.029 A 
ATOM     42  N   UNL A   1      41.359  27.645  29.805  1.00  0.00    -0.354 N 
ATOM     43  C   UNL A   1      40.794  30.639  32.889  1.00  0.00     0.074 A 
ATOM     44  C   UNL A   1      39.609  31.426  32.635  1.00  0.00     0.031 C 
ATOM     45  C   UNL A   1      40.864  26.529  27.930  1.00  0.00     0.029 A 
ATOM     46  C   UNL A   1      41.843  26.635  29.008  1.00  0.00     0.049 A 
ATOM     47  H   UNL A   1      41.822  27.962  30.614  1.00  0.00     0.167 HD
ATOM     48  C   UNL A   1      41.623  30.827  33.944  1.00  0.00     0.037 A 
ATOM     49  C   UNL A   1      42.945  25.873  29.143  1.00  0.00     0.037 A 
ATOM     50  C   UNL A   1      42.778  30.011  34.209  1.00  0.00     0.049 A 
ATOM     51  C   UNL A   1      43.829  26.075  30.343  1.00  0.00     0.074 A 
ATOM     52  C   UNL A   1      43.649  30.074  35.283  1.00  0.00     0.029 A 
ATOM     53  N   UNL A   1      43.221  28.980  33.395  1.00  0.00    -0.354 N 
ATOM     54  N   UNL A   1      43.707  26.940  31.322  1.00  0.00    -0.248 NA
ATOM     55  C   UNL A   1      44.992  25.187  30.467  1.00  0.00     0.031 C 
ATOM     56  C   UNL A   1      44.639  29.102  35.099  1.00  0.00     0.029 A 
ATOM     57  C   UNL A   1      44.359  28.405  33.934  1.00  0.00     0.049 A 
ATOM     58  H   UNL A   1      42.789  28.697  32.556  1.00  0.00     0.167 HD
ATOM     59  C   UNL A   1      44.756  26.676  32.196  1.00  0.00     0.074 A 
ATOM     60  C   UNL A   1      45.499  25.567  31.632  1.00  0.00     0.031 C 
ATOM     61  C   UNL A   1      45.076  27.293  33.361  1.00  0.00     0.037 A 
BRANCH  48  62
ATOM     62  C   UNL A   1      41.304  31.955  34.886  1.00  0.00     0.058 A 
ATOM     63  C   UNL A   1      40.398  31.798  35.948  1.00  0.00     0.135 A 
ATOM     64  C   UNL A   1      41.925  33.205  34.738  1.00  0.00     0.135 A 
ATOM     65  F   UNL A   1      39.762  30.628  36.126  1.00  0.00    -0.206 F 
ATOM     66  C   UNL A   1      40.092  32.848  36.807  1.00  0.00     0.059 A 
ATOM     67  C   UNL A   1      41.657  34.262  35.603  1.00  0.00     0.059 A 
ATOM     68  F   UNL A   1      42.800  33.413  33.740  1.00  0.00    -0.206 F 
ATOM     69  C   UNL A   1      40.726  34.078  36.624  1.00  0.00     0.060 A 
BRANCH  69  70
ATOM     70  S   UNL A   1      40.318  35.434  37.745  1.00  0.00     0.124 S 
ATOM     71  O   UNL A   1      40.025  36.510  36.803  1.00  0.00    -0.237 OA
ATOM     72  O   UNL A   1      39.172  34.904  38.476  1.00  0.00    -0.237 OA
ATOM     73  O   UNL A   1      41.536  35.602  38.532  1.00  0.00    -0.744 OA
ENDBRANCH  69  70
ENDBRANCH  48  62
BRANCH  49  74
ATOM     74  C   UNL A   1      43.242  24.813  28.143  1.00  0.00     0.058 A 
ATOM     75  C   UNL A   1      43.991  25.099  26.993  1.00  0.00     0.135 A 
ATOM     76  C   UNL A   1      42.797  23.496  28.322  1.00  0.00     0.135 A 
ATOM     77  F   UNL A   1      44.437  26.347  26.776  1.00  0.00    -0.206 F 
ATOM     78  C   UNL A   1      44.273  24.123  26.044  1.00  0.00     0.059 A 
ATOM     79  C   UNL A   1      43.085  22.495  27.400  1.00  0.00     0.059 A 
ATOM     80  F   UNL A   1      42.093  23.166  29.417  1.00  0.00    -0.206 F 
ATOM     81  C   UNL A   1      43.816  22.821  26.257  1.00  0.00     0.060 A 
BRANCH  81  82
ATOM     82  S   UNL A   1      44.225  21.549  25.042  1.00  0.00     0.124 S 
ATOM     83  O   UNL A   1      44.089  22.284  23.791  1.00  0.00    -0.237 OA
ATOM     84  O   UNL A   1      45.586  21.185  25.425  1.00  0.00    -0.237 OA
ATOM     85  O   UNL A   1      43.219  20.520  25.284  1.00  0.00    -0.744 OA
ENDBRANCH  81  82
ENDBRANCH  49  74
BRANCH  61  86
ATOM     86  C   UNL A   1      46.251  26.752  34.124  1.00  0.00     0.058 A 
ATOM     87  C   UNL A   1      46.110  25.726  35.072  1.00  0.00     0.135 A 
ATOM     88  C   UNL A   1      47.542  27.247  33.880  1.00  0.00     0.135 A 
ATOM     89  F   UNL A   1      44.896  25.221  35.344  1.00  0.00    -0.206 F 
ATOM     90  C   UNL A   1      47.203  25.234  35.776  1.00  0.00     0.059 A 
ATOM     91  C   UNL A   1      48.653  26.751  34.553  1.00  0.00     0.059 A 
ATOM     92  F   UNL A   1      47.733  28.219  32.973  1.00  0.00    -0.206 F 
ATOM     93  C   UNL A   1      48.471  25.756  35.512  1.00  0.00     0.060 A 
BRANCH  93  94
ATOM     94  S   UNL A   1      49.885  25.102  36.423  1.00  0.00     0.124 S 
ATOM     95  O   UNL A   1      51.002  25.652  35.661  1.00  0.00    -0.237 OA
ATOM     96  O   UNL A   1      49.689  25.663  37.755  1.00  0.00    -0.237 OA
ATOM     97  O   UNL A   1      49.711  23.655  36.328  1.00  0.00    -0.744 OA
ENDBRANCH  93  94
ENDBRANCH  61  86
ENDBRANCH  35  36
ENDBRANCH  27  30
ENDBRANCH  25  26
ENDBRANCH  24  25
ENDBRANCH   1  24
TORSDOF 20
ENDMDL
MODEL 3
REMARK VINA RESULT:     -10.3      5.370      9.818
REMARK SMILES CC[C@H](C)[C@@H](NC(=S)Nc1ccccc1)C(=O)NCCCCNC(=O)c1ccc(-c2c3nc(c(-c4c(F)cc(S(=O)(=O)[O-])cc4F)c4ccc([nH]4)c(-c4c(F)cc(S(=O)(=O)[O-])cc4F)c4nc(c(-c5c(F)cc(S(=O)(=O)[O-])cc5F)c5ccc2[nH]5)C=C4)C=C3)cc1
REMARK SMILES IDX 20 1 19 2 18 3 16 4 17 5 5 7 3 8 4 9 2 10 1 11 6 12 7 14
REMARK SMILES IDX 8 15 9 16 10 18 11 19 15 20 12 21 14 22 13 23 21 24 22 25
REMARK SMILES IDX 23 26 24 27 25 29 26 30 27 31 91 32 28 33 90 34 29 35 30 36
REMARK SMILES IDX 31 37 84 38 32 39 89 40 83 41 85 42 33 43 88 44 82 45 81 46
REMARK SMILES IDX 34 48 68 49 47 50 67 51 48 52 51 53 66 54 86 55 49 56 50 57
REMARK SMILES IDX 65 59 87 60 52 61 35 62 36 63 45 64 37 65 38 66 44 67 46 68
REMARK SMILES IDX 39 69 40 70 41 71 42 72 43 73 69 74 70 75 79 76 71 77 72 78
REMARK SMILES IDX 78 79 80 80 73 81 74 82 75 83 76 84 77 85 53 86 54 87 63 88
REMARK SMILES IDX 55 89 56 90 62 91 64 92 57 93 58 94 59 95 60 96 61 97
REMARK H PARENT 18 6 6 13 9 17 23 28 85 47 51 58
REMARK Flexibility Score: inf
ROOT
ATOM      1  C   UNL A   1      33.971  28.605  25.899  1.00  0.00     0.023 C 
ENDROOT
BRANCH   1   2
ATOM      2  C   UNL A   1      33.692  27.101  25.838  1.00  0.00     0.116 C 
BRANCH   2   3
ATOM      3  N   UNL A   1      33.250  26.770  24.503  1.00  0.00    -0.354 N 
ATOM      4  C   UNL A   1      33.448  25.602  23.837  1.00  0.00     0.242 C 
ATOM      5  O   UNL A   1      33.802  25.677  22.658  1.00  0.00    -0.273 OA
ATOM      6  H   UNL A   1      32.750  27.468  24.022  1.00  0.00     0.163 HD
BRANCH   4   7
ATOM      7  C   UNL A   1      33.353  24.248  24.578  1.00  0.00     0.173 C 
BRANCH   7   8
ATOM      8  C   UNL A   1      31.837  23.964  24.862  1.00  0.00     0.018 C 
ATOM      9  C   UNL A   1      31.144  23.153  23.763  1.00  0.00     0.010 C 
BRANCH   8  10
ATOM     10  C   UNL A   1      31.704  23.333  26.282  1.00  0.00     0.002 C 
ATOM     11  C   UNL A   1      30.301  23.082  26.810  1.00  0.00     0.004 C 
ENDBRANCH   8  10
ENDBRANCH   7   8
BRANCH   7  12
ATOM     12  N   UNL A   1      34.075  23.155  23.894  1.00  0.00    -0.350 N 
ATOM     13  H   UNL A   1      33.962  23.166  22.916  1.00  0.00     0.163 HD
BRANCH  12  14
ATOM     14  C   UNL A   1      34.858  22.145  24.330  1.00  0.00     0.171 C 
ATOM     15  S   UNL A   1      34.072  20.740  24.794  1.00  0.00    -0.041 S 
BRANCH  14  16
ATOM     16  N   UNL A   1      36.203  22.120  24.249  1.00  0.00    -0.333 N 
ATOM     17  H   UNL A   1      36.545  21.772  23.395  1.00  0.00     0.169 HD
BRANCH  16  18
ATOM     18  C   UNL A   1      37.207  22.494  25.151  1.00  0.00     0.040 A 
ATOM     19  C   UNL A   1      38.176  21.543  25.483  1.00  0.00     0.026 A 
ATOM     20  C   UNL A   1      37.272  23.772  25.703  1.00  0.00     0.026 A 
ATOM     21  C   UNL A   1      39.292  21.919  26.232  1.00  0.00     0.002 A 
ATOM     22  C   UNL A   1      38.375  24.142  26.473  1.00  0.00     0.002 A 
ATOM     23  C   UNL A   1      39.400  23.224  26.709  1.00  0.00     0.000 A 
ENDBRANCH  16  18
ENDBRANCH  14  16
ENDBRANCH  12  14
ENDBRANCH   7  12
ENDBRANCH   4   7
ENDBRANCH   2   3
ENDBRANCH   1   2
BRANCH   1  24
ATOM     24  C   UNL A   1      34.079  29.162  27.329  1.00  0.00     0.023 C 
BRANCH  24  25
ATOM     25  C   UNL A   1      35.504  29.469  27.779  1.00  0.00     0.116 C 
BRANCH  25  26
ATOM     26  N   UNL A   1      35.517  30.086  29.093  1.00  0.00    -0.352 N 
ATOM     27  C   UNL A   1      36.527  30.103  30.011  1.00  0.00     0.251 C 
ATOM     28  H   UNL A   1      34.691  30.554  29.355  1.00  0.00     0.163 HD
ATOM     29  O   UNL A   1      36.292  30.446  31.175  1.00  0.00    -0.269 OA
BRANCH  27  30
ATOM     30  C   UNL A   1      37.889  29.710  29.610  1.00  0.00     0.039 A 
ATOM     31  C   UNL A   1      38.752  29.189  30.576  1.00  0.00     0.014 A 
ATOM     32  C   UNL A   1      38.324  29.895  28.293  1.00  0.00     0.014 A 
ATOM     33  C   UNL A   1      40.056  28.849  30.219  1.00  0.00     0.010 A 
ATOM     34  C   UNL A   1      39.607  29.495  27.925  1.00  0.00     0.010 A 
ATOM     35  C   UNL A   1      40.493  29.000  28.892  1.00  0.00    -0.014 A 
BRANCH  35  36
ATOM     36  C   UNL A   1      41.899  28.704  28.528  1.00  0.00     0.031 A 
ATOM     37  C   UNL A   1      42.279  27.318  28.080  1.00  0.00     0.074 A 
ATOM     38  C   UNL A   1      42.829  29.674  28.611  1.00  0.00     0.049 A 
ATOM     39  N   UNL A   1      43.444  26.865  27.696  1.00  0.00    -0.248 NA
ATOM     40  C   UNL A   1      41.214  26.302  28.088  1.00  0.00     0.031 C 
ATOM     41  C   UNL A   1      42.585  31.041  29.080  1.00  0.00     0.029 A 
ATOM     42  N   UNL A   1      44.163  29.662  28.298  1.00  0.00    -0.354 N 
ATOM     43  C   UNL A   1      43.257  25.512  27.435  1.00  0.00     0.074 A 
ATOM     44  C   UNL A   1      41.880  25.206  27.752  1.00  0.00     0.031 C 
ATOM     45  C   UNL A   1      43.726  31.745  28.991  1.00  0.00     0.029 A 
ATOM     46  C   UNL A   1      44.783  30.876  28.479  1.00  0.00     0.049 A 
ATOM     47  H   UNL A   1      44.633  28.861  27.973  1.00  0.00     0.167 HD
ATOM     48  C   UNL A   1      44.144  24.613  26.947  1.00  0.00     0.037 A 
ATOM     49  C   UNL A   1      46.056  31.246  28.246  1.00  0.00     0.037 A 
ATOM     50  C   UNL A   1      45.502  24.938  26.595  1.00  0.00     0.049 A 
ATOM     51  C   UNL A   1      47.014  30.240  27.668  1.00  0.00     0.074 A 
ATOM     52  C   UNL A   1      46.466  24.119  26.034  1.00  0.00     0.029 A 
ATOM     53  N   UNL A   1      46.086  26.184  26.768  1.00  0.00    -0.354 N 
ATOM     54  N   UNL A   1      46.803  28.982  27.361  1.00  0.00    -0.248 NA
ATOM     55  C   UNL A   1      48.377  30.708  27.388  1.00  0.00     0.031 C 
ATOM     56  C   UNL A   1      47.644  24.863  25.898  1.00  0.00     0.029 A 
ATOM     57  C   UNL A   1      47.400  26.156  26.335  1.00  0.00     0.049 A 
ATOM     58  H   UNL A   1      45.631  26.974  27.142  1.00  0.00     0.167 HD
ATOM     59  C   UNL A   1      47.996  28.518  26.819  1.00  0.00     0.074 A 
ATOM     60  C   UNL A   1      48.922  29.632  26.835  1.00  0.00     0.031 C 
ATOM     61  C   UNL A   1      48.300  27.282  26.349  1.00  0.00     0.037 A 
BRANCH  48  62
ATOM     62  C   UNL A   1      43.671  23.197  26.763  1.00  0.00     0.058 A 
ATOM     63  C   UNL A   1      43.416  22.662  25.490  1.00  0.00     0.135 A 
ATOM     64  C   UNL A   1      43.487  22.357  27.873  1.00  0.00     0.135 A 
ATOM     65  F   UNL A   1      43.559  23.426  24.395  1.00  0.00    -0.206 F 
ATOM     66  C   UNL A   1      42.962  21.358  25.325  1.00  0.00     0.059 A 
ATOM     67  C   UNL A   1      43.061  21.040  27.730  1.00  0.00     0.059 A 
ATOM     68  F   UNL A   1      43.716  22.816  29.114  1.00  0.00    -0.206 F 
ATOM     69  C   UNL A   1      42.785  20.555  26.453  1.00  0.00     0.060 A 
BRANCH  69  70
ATOM     70  S   UNL A   1      42.192  18.864  26.225  1.00  0.00     0.124 S 
ATOM     71  O   UNL A   1      42.349  18.319  27.570  1.00  0.00    -0.237 OA
ATOM     72  O   UNL A   1      40.817  19.071  25.782  1.00  0.00    -0.237 OA
ATOM     73  O   UNL A   1      43.096  18.321  25.217  1.00  0.00    -0.744 OA
ENDBRANCH  69  70
ENDBRANCH  48  62
BRANCH  49  74
ATOM     74  C   UNL A   1      46.482  32.646  28.506  1.00  0.00     0.058 A 
ATOM     75  C   UNL A   1      46.991  33.023  29.758  1.00  0.00     0.135 A 
ATOM     76  C   UNL A   1      46.402  33.631  27.510  1.00  0.00     0.135 A 
ATOM     77  F   UNL A   1      47.083  32.116  30.743  1.00  0.00    -0.206 F 
ATOM     78  C   UNL A   1      47.388  34.329  30.022  1.00  0.00     0.059 A 
ATOM     79  C   UNL A   1      46.815  34.939  27.742  1.00  0.00     0.059 A 
ATOM     80  F   UNL A   1      45.942  33.317  26.289  1.00  0.00    -0.206 F 
ATOM     81  C   UNL A   1      47.297  35.281  29.005  1.00  0.00     0.060 A 
BRANCH  81  82
ATOM     82  S   UNL A   1      47.858  36.964  29.343  1.00  0.00     0.124 S 
ATOM     83  O   UNL A   1      48.603  36.782  30.582  1.00  0.00    -0.237 OA
ATOM     84  O   UNL A   1      48.653  37.267  28.156  1.00  0.00    -0.237 OA
ATOM     85  O   UNL A   1      46.611  37.714  29.459  1.00  0.00    -0.744 OA
ENDBRANCH  81  82
ENDBRANCH  49  74
BRANCH  61  86
ATOM     86  C   UNL A   1      49.673  27.086  25.771  1.00  0.00     0.058 A 
ATOM     87  C   UNL A   1      50.761  26.691  26.565  1.00  0.00     0.135 A 
ATOM     88  C   UNL A   1      49.894  27.268  24.396  1.00  0.00     0.135 A 
ATOM     89  F   UNL A   1      50.601  26.507  27.885  1.00  0.00    -0.206 F 
ATOM     90  C   UNL A   1      52.029  26.515  26.022  1.00  0.00     0.059 A 
ATOM     91  C   UNL A   1      51.148  27.071  23.827  1.00  0.00     0.059 A 
ATOM     92  F   UNL A   1      48.884  27.633  23.591  1.00  0.00    -0.206 F 
ATOM     93  C   UNL A   1      52.213  26.711  24.652  1.00  0.00     0.060 A 
BRANCH  93  94
ATOM     94  S   UNL A   1      53.860  26.469  23.954  1.00  0.00     0.124 S 
ATOM     95  O   UNL A   1      54.350  25.346  24.745  1.00  0.00    -0.237 OA
ATOM     96  O   UNL A   1      53.569  26.181  22.554  1.00  0.00    -0.237 OA
ATOM     97  O   UNL A   1      54.523  27.748  24.198  1.00  0.00    -0.744 OA
ENDBRANCH  93  94
ENDBRANCH  61  86
ENDBRANCH  35  36
ENDBRANCH  27  30
ENDBRANCH  25  26
ENDBRANCH  24  25
ENDBRANCH   1  24
TORSDOF 20
ENDMDL
