MODEL 1
REMARK VINA RESULT:      -9.9      0.000      0.000
REMARK SMILES CCCc1noc(C2C[NH+](CC(=O)NCCCCNC(=O)c3ccc(-c4c5nc(c(-c6c(F)cc(S(=O)(=O)[O-])cc6F)c6ccc([nH]6)c(-c6c(F)cc(S(=O)(=O)[O-])cc6F)c6nc(c(-c7c(F)cc(S(=O)(=O)[O-])cc7F)c7ccc4[nH]7)C=C6)C=C5)cc3)C2)n1
REMARK SMILES IDX 16 1 15 2 14 3 12 4 13 5 11 7 10 8 8 9 9 10 88 11 7 13 4 14
REMARK SMILES IDX 5 15 89 16 6 17 3 18 2 19 1 20 17 21 18 22 19 23 20 24 21 26
REMARK SMILES IDX 22 27 23 28 87 29 24 30 86 31 25 32 26 33 27 34 80 35 28 36
REMARK SMILES IDX 85 37 79 38 81 39 29 40 84 41 78 42 77 43 30 45 64 46 43 47
REMARK SMILES IDX 63 48 44 49 47 50 62 51 82 52 45 53 46 54 61 56 83 57 48 58
REMARK SMILES IDX 31 59 32 60 41 61 33 62 34 63 40 64 42 65 35 66 36 67 37 68
REMARK SMILES IDX 38 69 39 70 65 71 66 72 75 73 67 74 68 75 74 76 76 77 69 78
REMARK SMILES IDX 70 79 71 80 72 81 73 82 49 83 50 84 59 85 51 86 52 87 58 88
REMARK SMILES IDX 60 89 53 90 54 91 55 92 56 93 57 94
REMARK H PARENT 14 6 10 12 19 25 81 44 47 55
REMARK Flexibility Score: inf
ROOT
ATOM      1  C   UNL A   1      42.468  20.154  26.614  1.00  0.00     0.023 C 
ENDROOT
BRANCH   1   2
ATOM      2  C   UNL A   1      42.795  18.939  25.736  1.00  0.00     0.116 C 
BRANCH   2   3
ATOM      3  N   UNL A   1      44.199  18.566  25.758  1.00  0.00    -0.351 N 
ATOM      4  C   UNL A   1      45.305  19.168  25.219  1.00  0.00     0.275 C 
ATOM      5  O   UNL A   1      46.391  18.604  25.385  1.00  0.00    -0.269 OA
ATOM      6  H   UNL A   1      44.391  17.733  26.247  1.00  0.00     0.163 HD
BRANCH   4   7
ATOM      7  C   UNL A   1      45.211  20.469  24.408  1.00  0.00     0.363 C 
BRANCH   7   8
ATOM      8  N   UNL A   1      46.130  21.598  24.740  1.00  0.00    -0.325 N 
ATOM      9  C   UNL A   1      44.898  23.324  24.887  1.00  0.00     0.188 C 
ATOM     10  C   UNL A   1      45.986  22.835  23.912  1.00  0.00     0.282 C 
ATOM     11  C   UNL A   1      45.649  22.397  25.887  1.00  0.00     0.282 C 
ATOM     12  H   UNL A   1      47.009  21.080  24.741  1.00  0.00     0.348 HD
BRANCH   9  13
ATOM     13  C   UNL A   1      44.790  24.763  25.303  1.00  0.00     0.241 A 
ATOM     14  C   UNL A   1      44.859  26.575  26.351  1.00  0.00     0.171 A 
ATOM     15  N   UNL A   1      43.683  26.631  25.722  1.00  0.00    -0.062 NA
ATOM     16  N   UNL A   1      45.584  25.427  26.117  1.00  0.00    -0.196 NA
ATOM     17  O   UNL A   1      43.648  25.456  25.000  1.00  0.00    -0.339 OA
BRANCH  14  18
ATOM     18  C   UNL A   1      45.281  27.630  27.304  1.00  0.00     0.081 C 
BRANCH  18  19
ATOM     19  C   UNL A   1      44.950  29.054  26.850  1.00  0.00     0.005 C 
ATOM     20  C   UNL A   1      43.715  29.649  27.519  1.00  0.00     0.004 C 
ENDBRANCH  18  19
ENDBRANCH  14  18
ENDBRANCH   9  13
ENDBRANCH   7   8
ENDBRANCH   4   7
ENDBRANCH   2   3
ENDBRANCH   1   2
BRANCH   1  21
ATOM     21  C   UNL A   1      41.621  21.245  25.970  1.00  0.00     0.023 C 
BRANCH  21  22
ATOM     22  C   UNL A   1      40.367  21.605  26.747  1.00  0.00     0.116 C 
BRANCH  22  23
ATOM     23  N   UNL A   1      39.290  22.087  25.891  1.00  0.00    -0.352 N 
ATOM     24  C   UNL A   1      38.688  23.323  25.864  1.00  0.00     0.251 C 
ATOM     25  H   UNL A   1      38.946  21.435  25.239  1.00  0.00     0.163 HD
ATOM     26  O   UNL A   1      37.702  23.509  25.163  1.00  0.00    -0.269 OA
BRANCH  24  27
ATOM     27  C   UNL A   1      39.227  24.406  26.710  1.00  0.00     0.039 A 
ATOM     28  C   UNL A   1      40.035  25.386  26.130  1.00  0.00     0.014 A 
ATOM     29  C   UNL A   1      38.905  24.467  28.068  1.00  0.00     0.014 A 
ATOM     30  C   UNL A   1      40.462  26.469  26.899  1.00  0.00     0.010 A 
ATOM     31  C   UNL A   1      39.254  25.589  28.806  1.00  0.00     0.010 A 
ATOM     32  C   UNL A   1      40.045  26.595  28.233  1.00  0.00    -0.014 A 
BRANCH  32  33
ATOM     33  C   UNL A   1      40.443  27.752  29.071  1.00  0.00     0.031 A 
ATOM     34  C   UNL A   1      41.742  27.702  29.829  1.00  0.00     0.074 A 
ATOM     35  C   UNL A   1      39.603  28.794  29.222  1.00  0.00     0.049 A 
ATOM     36  N   UNL A   1      42.214  28.535  30.717  1.00  0.00    -0.248 NA
ATOM     37  C   UNL A   1      42.605  26.534  29.584  1.00  0.00     0.031 C 
ATOM     38  C   UNL A   1      38.292  28.928  28.580  1.00  0.00     0.029 A 
ATOM     39  N   UNL A   1      39.719  29.934  29.975  1.00  0.00    -0.354 N 
ATOM     40  C   UNL A   1      43.409  27.979  31.159  1.00  0.00     0.074 A 
ATOM     41  C   UNL A   1      43.563  26.712  30.481  1.00  0.00     0.031 C 
ATOM     42  C   UNL A   1      37.736  30.092  28.953  1.00  0.00     0.029 A 
ATOM     43  C   UNL A   1      38.631  30.769  29.886  1.00  0.00     0.049 A 
ATOM     44  H   UNL A   1      40.508  30.134  30.528  1.00  0.00     0.167 HD
ATOM     45  C   UNL A   1      44.309  28.491  32.031  1.00  0.00     0.037 A 
ATOM     46  C   UNL A   1      38.384  31.946  30.494  1.00  0.00     0.037 A 
ATOM     47  C   UNL A   1      44.169  29.776  32.661  1.00  0.00     0.049 A 
ATOM     48  C   UNL A   1      39.416  32.513  31.430  1.00  0.00     0.074 A 
ATOM     49  C   UNL A   1      45.053  30.422  33.507  1.00  0.00     0.029 A 
ATOM     50  N   UNL A   1      43.077  30.617  32.504  1.00  0.00    -0.354 N 
ATOM     51  N   UNL A   1      40.566  32.000  31.797  1.00  0.00    -0.248 NA
ATOM     52  C   UNL A   1      39.121  33.821  32.030  1.00  0.00     0.031 C 
ATOM     53  C   UNL A   1      44.483  31.642  33.884  1.00  0.00     0.029 A 
ATOM     54  C   UNL A   1      43.260  31.773  33.243  1.00  0.00     0.049 A 
ATOM     55  H   UNL A   1      42.288  30.421  31.949  1.00  0.00     0.167 HD
ATOM     56  C   UNL A   1      41.144  32.932  32.650  1.00  0.00     0.074 A 
ATOM     57  C   UNL A   1      40.221  34.045  32.737  1.00  0.00     0.031 C 
ATOM     58  C   UNL A   1      42.331  32.873  33.304  1.00  0.00     0.037 A 
BRANCH  45  59
ATOM     59  C   UNL A   1      45.524  27.662  32.339  1.00  0.00     0.058 A 
ATOM     60  C   UNL A   1      46.672  27.709  31.530  1.00  0.00     0.135 A 
ATOM     61  C   UNL A   1      45.549  26.818  33.461  1.00  0.00     0.135 A 
ATOM     62  F   UNL A   1      46.695  28.485  30.434  1.00  0.00    -0.206 F 
ATOM     63  C   UNL A   1      47.785  26.921  31.799  1.00  0.00     0.059 A 
ATOM     64  C   UNL A   1      46.664  26.042  33.766  1.00  0.00     0.059 A 
ATOM     65  F   UNL A   1      44.479  26.733  34.267  1.00  0.00    -0.206 F 
ATOM     66  C   UNL A   1      47.770  26.088  32.918  1.00  0.00     0.060 A 
BRANCH  66  67
ATOM     67  S   UNL A   1      49.220  25.066  33.252  1.00  0.00     0.124 S 
ATOM     68  O   UNL A   1      48.616  23.910  33.908  1.00  0.00    -0.237 OA
ATOM     69  O   UNL A   1      49.751  24.828  31.913  1.00  0.00    -0.237 OA
ATOM     70  O   UNL A   1      50.044  25.913  34.108  1.00  0.00    -0.744 OA
ENDBRANCH  66  67
ENDBRANCH  45  59
BRANCH  46  71
ATOM     71  C   UNL A   1      37.123  32.678  30.209  1.00  0.00     0.058 A 
ATOM     72  C   UNL A   1      35.984  32.484  31.005  1.00  0.00     0.135 A 
ATOM     73  C   UNL A   1      37.031  33.598  29.153  1.00  0.00     0.135 A 
ATOM     74  F   UNL A   1      36.022  31.610  32.024  1.00  0.00    -0.206 F 
ATOM     75  C   UNL A   1      34.795  33.161  30.757  1.00  0.00     0.059 A 
ATOM     76  C   UNL A   1      35.860  34.305  28.898  1.00  0.00     0.059 A 
ATOM     77  F   UNL A   1      38.098  33.833  28.373  1.00  0.00    -0.206 F 
ATOM     78  C   UNL A   1      34.744  34.072  29.701  1.00  0.00     0.060 A 
BRANCH  78  79
ATOM     79  S   UNL A   1      33.209  34.982  29.418  1.00  0.00     0.124 S 
ATOM     80  O   UNL A   1      32.563  34.160  28.402  1.00  0.00    -0.237 OA
ATOM     81  O   UNL A   1      32.593  34.964  30.741  1.00  0.00    -0.237 OA
ATOM     82  O   UNL A   1      33.675  36.292  28.971  1.00  0.00    -0.744 OA
ENDBRANCH  78  79
ENDBRANCH  46  71
BRANCH  58  83
ATOM     83  C   UNL A   1      42.715  34.059  34.141  1.00  0.00     0.058 A 
ATOM     84  C   UNL A   1      42.454  34.103  35.518  1.00  0.00     0.135 A 
ATOM     85  C   UNL A   1      43.407  35.138  33.567  1.00  0.00     0.135 A 
ATOM     86  F   UNL A   1      41.789  33.099  36.112  1.00  0.00    -0.206 F 
ATOM     87  C   UNL A   1      42.849  35.185  36.297  1.00  0.00     0.059 A 
ATOM     88  C   UNL A   1      43.834  36.219  34.330  1.00  0.00     0.059 A 
ATOM     89  F   UNL A   1      43.691  35.137  32.255  1.00  0.00    -0.206 F 
ATOM     90  C   UNL A   1      43.541  36.238  35.694  1.00  0.00     0.060 A 
BRANCH  90  91
ATOM     91  S   UNL A   1      44.084  37.618  36.721  1.00  0.00     0.124 S 
ATOM     92  O   UNL A   1      43.047  37.649  37.746  1.00  0.00    -0.237 OA
ATOM     93  O   UNL A   1      45.403  37.179  37.166  1.00  0.00    -0.237 OA
ATOM     94  O   UNL A   1      44.087  38.749  35.796  1.00  0.00    -0.744 OA
ENDBRANCH  90  91
ENDBRANCH  58  83
ENDBRANCH  32  33
ENDBRANCH  24  27
ENDBRANCH  22  23
ENDBRANCH  21  22
ENDBRANCH   1  21
TORSDOF 18
ENDMDL
MODEL 2
REMARK VINA RESULT:      -9.7      4.563     11.319
REMARK SMILES CCCc1noc(C2C[NH+](CC(=O)NCCCCNC(=O)c3ccc(-c4c5nc(c(-c6c(F)cc(S(=O)(=O)[O-])cc6F)c6ccc([nH]6)c(-c6c(F)cc(S(=O)(=O)[O-])cc6F)c6nc(c(-c7c(F)cc(S(=O)(=O)[O-])cc7F)c7ccc4[nH]7)C=C6)C=C5)cc3)C2)n1
REMARK SMILES IDX 16 1 15 2 14 3 12 4 13 5 11 7 10 8 8 9 9 10 88 11 7 13 4 14
REMARK SMILES IDX 5 15 89 16 6 17 3 18 2 19 1 20 17 21 18 22 19 23 20 24 21 26
REMARK SMILES IDX 22 27 23 28 87 29 24 30 86 31 25 32 26 33 27 34 80 35 28 36
REMARK SMILES IDX 85 37 79 38 81 39 29 40 84 41 78 42 77 43 30 45 64 46 43 47
REMARK SMILES IDX 63 48 44 49 47 50 62 51 82 52 45 53 46 54 61 56 83 57 48 58
REMARK SMILES IDX 31 59 32 60 41 61 33 62 34 63 40 64 42 65 35 66 36 67 37 68
REMARK SMILES IDX 38 69 39 70 65 71 66 72 75 73 67 74 68 75 74 76 76 77 69 78
REMARK SMILES IDX 70 79 71 80 72 81 73 82 49 83 50 84 59 85 51 86 52 87 58 88
REMARK SMILES IDX 60 89 53 90 54 91 55 92 56 93 57 94
REMARK H PARENT 14 6 10 12 19 25 81 44 47 55
REMARK Flexibility Score: inf
ROOT
ATOM      1  C   UNL A   1      33.097  29.271  24.893  1.00  0.00     0.023 C 
ENDROOT
BRANCH   1   2
ATOM      2  C   UNL A   1      31.568  29.290  25.024  1.00  0.00     0.116 C 
BRANCH   2   3
ATOM      3  N   UNL A   1      30.885  28.553  23.974  1.00  0.00    -0.351 N 
ATOM      4  C   UNL A   1      30.534  27.232  23.876  1.00  0.00     0.275 C 
ATOM      5  O   UNL A   1      29.966  26.876  22.839  1.00  0.00    -0.269 OA
ATOM      6  H   UNL A   1      30.629  29.098  23.195  1.00  0.00     0.163 HD
BRANCH   4   7
ATOM      7  C   UNL A   1      30.860  26.218  24.982  1.00  0.00     0.363 C 
BRANCH   7   8
ATOM      8  N   UNL A   1      30.280  24.844  24.899  1.00  0.00    -0.325 N 
ATOM      9  C   UNL A   1      31.934  23.512  24.960  1.00  0.00     0.188 C 
ATOM     10  C   UNL A   1      30.899  23.923  23.897  1.00  0.00     0.282 C 
ATOM     11  C   UNL A   1      30.809  23.945  25.945  1.00  0.00     0.282 C 
ATOM     12  H   UNL A   1      29.296  25.102  24.819  1.00  0.00     0.348 HD
BRANCH   9  13
ATOM     13  C   UNL A   1      32.405  22.093  25.108  1.00  0.00     0.241 A 
ATOM     14  C   UNL A   1      33.377  20.251  24.883  1.00  0.00     0.171 A 
ATOM     15  N   UNL A   1      32.118  19.901  25.157  1.00  0.00    -0.062 NA
ATOM     16  N   UNL A   1      33.602  21.611  24.844  1.00  0.00    -0.196 NA
ATOM     17  O   UNL A   1      31.480  21.109  25.342  1.00  0.00    -0.339 OA
BRANCH  14  18
ATOM     18  C   UNL A   1      34.409  19.241  24.547  1.00  0.00     0.081 C 
BRANCH  18  19
ATOM     19  C   UNL A   1      33.909  17.795  24.593  1.00  0.00     0.005 C 
ATOM     20  C   UNL A   1      33.876  17.104  23.234  1.00  0.00     0.004 C 
ENDBRANCH  18  19
ENDBRANCH  14  18
ENDBRANCH   9  13
ENDBRANCH   7   8
ENDBRANCH   4   7
ENDBRANCH   2   3
ENDBRANCH   1   2
BRANCH   1  21
ATOM     21  C   UNL A   1      33.832  28.221  25.718  1.00  0.00     0.023 C 
BRANCH  21  22
ATOM     22  C   UNL A   1      33.708  28.405  27.220  1.00  0.00     0.116 C 
BRANCH  22  23
ATOM     23  N   UNL A   1      33.599  29.804  27.612  1.00  0.00    -0.352 N 
ATOM     24  C   UNL A   1      34.534  30.615  28.210  1.00  0.00     0.251 C 
ATOM     25  H   UNL A   1      32.732  30.230  27.419  1.00  0.00     0.163 HD
ATOM     26  O   UNL A   1      34.221  31.736  28.589  1.00  0.00    -0.269 OA
BRANCH  24  27
ATOM     27  C   UNL A   1      35.905  30.106  28.413  1.00  0.00     0.039 A 
ATOM     28  C   UNL A   1      36.804  30.124  27.344  1.00  0.00     0.014 A 
ATOM     29  C   UNL A   1      36.307  29.643  29.668  1.00  0.00     0.014 A 
ATOM     30  C   UNL A   1      38.129  29.742  27.554  1.00  0.00     0.010 A 
ATOM     31  C   UNL A   1      37.644  29.351  29.896  1.00  0.00     0.010 A 
ATOM     32  C   UNL A   1      38.566  29.388  28.839  1.00  0.00    -0.014 A 
BRANCH  32  33
ATOM     33  C   UNL A   1      39.976  29.016  29.112  1.00  0.00     0.031 A 
ATOM     34  C   UNL A   1      40.912  30.044  29.688  1.00  0.00     0.074 A 
ATOM     35  C   UNL A   1      40.430  27.798  28.759  1.00  0.00     0.049 A 
ATOM     36  N   UNL A   1      42.203  29.974  29.874  1.00  0.00    -0.248 NA
ATOM     37  C   UNL A   1      40.320  31.339  30.064  1.00  0.00     0.031 C 
ATOM     38  C   UNL A   1      39.629  26.738  28.142  1.00  0.00     0.029 A 
ATOM     39  N   UNL A   1      41.684  27.250  28.853  1.00  0.00    -0.354 N 
ATOM     40  C   UNL A   1      42.582  31.221  30.357  1.00  0.00     0.074 A 
ATOM     41  C   UNL A   1      41.394  32.045  30.384  1.00  0.00     0.031 C 
ATOM     42  C   UNL A   1      40.406  25.664  27.931  1.00  0.00     0.029 A 
ATOM     43  C   UNL A   1      41.766  25.968  28.364  1.00  0.00     0.049 A 
ATOM     44  H   UNL A   1      42.453  27.731  29.236  1.00  0.00     0.167 HD
ATOM     45  C   UNL A   1      43.804  31.634  30.766  1.00  0.00     0.037 A 
ATOM     46  C   UNL A   1      42.822  25.137  28.270  1.00  0.00     0.037 A 
ATOM     47  C   UNL A   1      44.969  30.790  30.782  1.00  0.00     0.049 A 
ATOM     48  C   UNL A   1      44.163  25.605  28.766  1.00  0.00     0.074 A 
ATOM     49  C   UNL A   1      46.241  31.085  31.240  1.00  0.00     0.029 A 
ATOM     50  N   UNL A   1      44.999  29.480  30.327  1.00  0.00    -0.354 N 
ATOM     51  N   UNL A   1      44.495  26.770  29.270  1.00  0.00    -0.248 NA
ATOM     52  C   UNL A   1      45.273  24.646  28.687  1.00  0.00     0.031 C 
ATOM     53  C   UNL A   1      47.048  29.961  31.037  1.00  0.00     0.029 A 
ATOM     54  C   UNL A   1      46.270  28.953  30.486  1.00  0.00     0.049 A 
ATOM     55  H   UNL A   1      44.232  28.995  29.947  1.00  0.00     0.167 HD
ATOM     56  C   UNL A   1      45.843  26.676  29.592  1.00  0.00     0.074 A 
ATOM     57  C   UNL A   1      46.263  25.336  29.235  1.00  0.00     0.031 C 
ATOM     58  C   UNL A   1      46.661  27.612  30.134  1.00  0.00     0.037 A 
BRANCH  45  59
ATOM     59  C   UNL A   1      43.934  33.055  31.239  1.00  0.00     0.058 A 
ATOM     60  C   UNL A   1      43.839  33.389  32.600  1.00  0.00     0.135 A 
ATOM     61  C   UNL A   1      44.166  34.095  30.325  1.00  0.00     0.135 A 
ATOM     62  F   UNL A   1      43.599  32.436  33.515  1.00  0.00    -0.206 F 
ATOM     63  C   UNL A   1      43.931  34.707  33.034  1.00  0.00     0.059 A 
ATOM     64  C   UNL A   1      44.290  35.418  30.741  1.00  0.00     0.059 A 
ATOM     65  F   UNL A   1      44.263  33.833  29.012  1.00  0.00    -0.206 F 
ATOM     66  C   UNL A   1      44.153  35.715  32.096  1.00  0.00     0.060 A 
BRANCH  66  67
ATOM     67  S   UNL A   1      44.263  37.422  32.673  1.00  0.00     0.124 S 
ATOM     68  O   UNL A   1      45.659  37.496  33.094  1.00  0.00    -0.237 OA
ATOM     69  O   UNL A   1      43.922  38.181  31.474  1.00  0.00    -0.237 OA
ATOM     70  O   UNL A   1      43.279  37.481  33.749  1.00  0.00    -0.744 OA
ENDBRANCH  66  67
ENDBRANCH  45  59
BRANCH  46  71
ATOM     71  C   UNL A   1      42.644  23.770  27.715  1.00  0.00     0.058 A 
ATOM     72  C   UNL A   1      42.546  22.658  28.564  1.00  0.00     0.135 A 
ATOM     73  C   UNL A   1      42.550  23.547  26.333  1.00  0.00     0.135 A 
ATOM     74  F   UNL A   1      42.634  22.822  29.894  1.00  0.00    -0.206 F 
ATOM     75  C   UNL A   1      42.377  21.371  28.065  1.00  0.00     0.059 A 
ATOM     76  C   UNL A   1      42.358  22.272  25.810  1.00  0.00     0.059 A 
ATOM     77  F   UNL A   1      42.620  24.580  25.479  1.00  0.00    -0.206 F 
ATOM     78  C   UNL A   1      42.282  21.189  26.684  1.00  0.00     0.060 A 
BRANCH  78  79
ATOM     79  S   UNL A   1      42.013  19.519  26.050  1.00  0.00     0.124 S 
ATOM     80  O   UNL A   1      40.591  19.553  25.728  1.00  0.00    -0.237 OA
ATOM     81  O   UNL A   1      42.925  19.472  24.911  1.00  0.00    -0.237 OA
ATOM     82  O   UNL A   1      42.386  18.668  27.177  1.00  0.00    -0.744 OA
ENDBRANCH  78  79
ENDBRANCH  46  71
BRANCH  58  83
ATOM     83  C   UNL A   1      48.083  27.210  30.406  1.00  0.00     0.058 A 
ATOM     84  C   UNL A   1      49.091  27.379  29.446  1.00  0.00     0.135 A 
ATOM     85  C   UNL A   1      48.448  26.707  31.665  1.00  0.00     0.135 A 
ATOM     86  F   UNL A   1      48.790  27.850  28.226  1.00  0.00    -0.206 F 
ATOM     87  C   UNL A   1      50.413  27.045  29.718  1.00  0.00     0.059 A 
ATOM     88  C   UNL A   1      49.767  26.389  31.968  1.00  0.00     0.059 A 
ATOM     89  F   UNL A   1      47.520  26.538  32.621  1.00  0.00    -0.206 F 
ATOM     90  C   UNL A   1      50.742  26.551  30.983  1.00  0.00     0.060 A 
BRANCH  90  91
ATOM     91  S   UNL A   1      52.467  26.159  31.338  1.00  0.00     0.124 S 
ATOM     92  O   UNL A   1      53.049  26.158  30.001  1.00  0.00    -0.237 OA
ATOM     93  O   UNL A   1      52.869  27.263  32.204  1.00  0.00    -0.237 OA
ATOM     94  O   UNL A   1      52.390  24.855  31.992  1.00  0.00    -0.744 OA
ENDBRANCH  90  91
ENDBRANCH  58  83
ENDBRANCH  32  33
ENDBRANCH  24  27
ENDBRANCH  22  23
ENDBRANCH  21  22
ENDBRANCH   1  21
TORSDOF 18
ENDMDL
MODEL 3
REMARK VINA RESULT:      -9.5      2.556      3.537
REMARK SMILES CCCc1noc(C2C[NH+](CC(=O)NCCCCNC(=O)c3ccc(-c4c5nc(c(-c6c(F)cc(S(=O)(=O)[O-])cc6F)c6ccc([nH]6)c(-c6c(F)cc(S(=O)(=O)[O-])cc6F)c6nc(c(-c7c(F)cc(S(=O)(=O)[O-])cc7F)c7ccc4[nH]7)C=C6)C=C5)cc3)C2)n1
REMARK SMILES IDX 16 1 15 2 14 3 12 4 13 5 11 7 10 8 8 9 9 10 88 11 7 13 4 14
REMARK SMILES IDX 5 15 89 16 6 17 3 18 2 19 1 20 17 21 18 22 19 23 20 24 21 26
REMARK SMILES IDX 22 27 23 28 87 29 24 30 86 31 25 32 26 33 27 34 80 35 28 36
REMARK SMILES IDX 85 37 79 38 81 39 29 40 84 41 78 42 77 43 30 45 64 46 43 47
REMARK SMILES IDX 63 48 44 49 47 50 62 51 82 52 45 53 46 54 61 56 83 57 48 58
REMARK SMILES IDX 31 59 32 60 41 61 33 62 34 63 40 64 42 65 35 66 36 67 37 68
REMARK SMILES IDX 38 69 39 70 65 71 66 72 75 73 67 74 68 75 74 76 76 77 69 78
REMARK SMILES IDX 70 79 71 80 72 81 73 82 49 83 50 84 59 85 51 86 52 87 58 88
REMARK SMILES IDX 60 89 53 90 54 91 55 92 56 93 57 94
REMARK H PARENT 14 6 10 12 19 25 81 44 47 55
REMARK Flexibility Score: inf
ROOT
ATOM      1  C   UNL A   1      41.920  20.677  27.496  1.00  0.00     0.023 C 
ENDROOT
BRANCH   1   2
ATOM      2  C   UNL A   1      41.991  19.919  26.164  1.00  0.00     0.116 C 
BRANCH   2   3
ATOM      3  N   UNL A   1      43.100  18.982  26.087  1.00  0.00    -0.351 N 
ATOM      4  C   UNL A   1      44.259  19.009  25.358  1.00  0.00     0.275 C 
ATOM      5  O   UNL A   1      45.024  18.047  25.482  1.00  0.00    -0.269 OA
ATOM      6  H   UNL A   1      43.000  18.187  26.660  1.00  0.00     0.163 HD
BRANCH   4   7
ATOM      7  C   UNL A   1      44.589  20.157  24.394  1.00  0.00     0.363 C 
BRANCH   7   8
ATOM      8  N   UNL A   1      44.168  21.545  24.751  1.00  0.00    -0.325 N 
ATOM      9  C   UNL A   1      45.946  22.710  24.746  1.00  0.00     0.188 C 
ATOM     10  C   UNL A   1      44.960  22.223  25.823  1.00  0.00     0.282 C 
ATOM     11  C   UNL A   1      44.707  22.555  23.816  1.00  0.00     0.282 C 
ATOM     12  H   UNL A   1      43.171  21.371  24.881  1.00  0.00     0.348 HD
BRANCH   9  13
ATOM     13  C   UNL A   1      46.553  24.084  24.783  1.00  0.00     0.241 A 
ATOM     14  C   UNL A   1      46.884  26.143  24.968  1.00  0.00     0.171 A 
ATOM     15  N   UNL A   1      47.607  25.813  23.896  1.00  0.00    -0.062 NA
ATOM     16  N   UNL A   1      46.209  25.094  25.555  1.00  0.00    -0.196 NA
ATOM     17  O   UNL A   1      47.423  24.450  23.790  1.00  0.00    -0.339 OA
BRANCH  14  18
ATOM     18  C   UNL A   1      46.748  27.553  25.409  1.00  0.00     0.081 C 
BRANCH  18  19
ATOM     19  C   UNL A   1      45.908  27.735  26.676  1.00  0.00     0.005 C 
ATOM     20  C   UNL A   1      45.262  29.111  26.800  1.00  0.00     0.004 C 
ENDBRANCH  18  19
ENDBRANCH  14  18
ENDBRANCH   9  13
ENDBRANCH   7   8
ENDBRANCH   4   7
ENDBRANCH   2   3
ENDBRANCH   1   2
BRANCH   1  21
ATOM     21  C   UNL A   1      40.792  21.694  27.635  1.00  0.00     0.023 C 
BRANCH  21  22
ATOM     22  C   UNL A   1      41.259  23.131  27.783  1.00  0.00     0.116 C 
BRANCH  22  23
ATOM     23  N   UNL A   1      41.586  23.754  26.506  1.00  0.00    -0.352 N 
ATOM     24  C   UNL A   1      41.571  25.084  26.158  1.00  0.00     0.251 C 
ATOM     25  H   UNL A   1      41.857  23.133  25.792  1.00  0.00     0.163 HD
ATOM     26  O   UNL A   1      41.748  25.414  24.993  1.00  0.00    -0.269 OA
BRANCH  24  27
ATOM     27  C   UNL A   1      41.309  26.098  27.198  1.00  0.00     0.039 A 
ATOM     28  C   UNL A   1      40.259  25.895  28.098  1.00  0.00     0.014 A 
ATOM     29  C   UNL A   1      42.121  27.230  27.302  1.00  0.00     0.014 A 
ATOM     30  C   UNL A   1      40.070  26.796  29.147  1.00  0.00     0.010 A 
ATOM     31  C   UNL A   1      41.988  28.072  28.396  1.00  0.00     0.010 A 
ATOM     32  C   UNL A   1      40.955  27.870  29.323  1.00  0.00    -0.014 A 
BRANCH  32  33
ATOM     33  C   UNL A   1      40.813  28.825  30.449  1.00  0.00     0.031 A 
ATOM     34  C   UNL A   1      41.686  28.668  31.665  1.00  0.00     0.074 A 
ATOM     35  C   UNL A   1      39.847  29.763  30.417  1.00  0.00     0.049 A 
ATOM     36  N   UNL A   1      41.634  29.300  32.807  1.00  0.00    -0.248 NA
ATOM     37  C   UNL A   1      42.728  27.629  31.599  1.00  0.00     0.031 C 
ATOM     38  C   UNL A   1      38.904  29.975  29.315  1.00  0.00     0.029 A 
ATOM     39  N   UNL A   1      39.486  30.706  31.344  1.00  0.00    -0.354 N 
ATOM     40  C   UNL A   1      42.612  28.717  33.604  1.00  0.00     0.074 A 
ATOM     41  C   UNL A   1      43.204  27.645  32.835  1.00  0.00     0.031 C 
ATOM     42  C   UNL A   1      38.088  30.995  29.623  1.00  0.00     0.029 A 
ATOM     43  C   UNL A   1      38.423  31.486  30.956  1.00  0.00     0.049 A 
ATOM     44  H   UNL A   1      39.946  30.815  32.208  1.00  0.00     0.167 HD
ATOM     45  C   UNL A   1      42.999  29.061  34.855  1.00  0.00     0.037 A 
ATOM     46  C   UNL A   1      37.788  32.481  31.606  1.00  0.00     0.037 A 
ATOM     47  C   UNL A   1      42.437  30.161  35.591  1.00  0.00     0.049 A 
ATOM     48  C   UNL A   1      38.260  32.870  32.980  1.00  0.00     0.074 A 
ATOM     49  C   UNL A   1      42.802  30.640  36.837  1.00  0.00     0.029 A 
ATOM     50  N   UNL A   1      41.397  30.961  35.142  1.00  0.00    -0.354 N 
ATOM     51  N   UNL A   1      39.222  32.344  33.701  1.00  0.00    -0.248 NA
ATOM     52  C   UNL A   1      37.568  33.992  33.629  1.00  0.00     0.031 C 
ATOM     53  C   UNL A   1      41.962  31.714  37.153  1.00  0.00     0.029 A 
ATOM     54  C   UNL A   1      41.100  31.927  36.089  1.00  0.00     0.049 A 
ATOM     55  H   UNL A   1      40.936  30.858  34.278  1.00  0.00     0.167 HD
ATOM     56  C   UNL A   1      39.267  33.085  34.875  1.00  0.00     0.074 A 
ATOM     57  C   UNL A   1      38.243  34.103  34.765  1.00  0.00     0.031 C 
ATOM     58  C   UNL A   1      40.082  32.937  35.949  1.00  0.00     0.037 A 
BRANCH  45  59
ATOM     59  C   UNL A   1      44.088  28.244  35.493  1.00  0.00     0.058 A 
ATOM     60  C   UNL A   1      43.795  27.140  36.312  1.00  0.00     0.135 A 
ATOM     61  C   UNL A   1      45.439  28.559  35.277  1.00  0.00     0.135 A 
ATOM     62  F   UNL A   1      42.520  26.806  36.567  1.00  0.00    -0.206 F 
ATOM     63  C   UNL A   1      44.801  26.402  36.925  1.00  0.00     0.059 A 
ATOM     64  C   UNL A   1      46.463  27.816  35.858  1.00  0.00     0.059 A 
ATOM     65  F   UNL A   1      45.775  29.604  34.506  1.00  0.00    -0.206 F 
ATOM     66  C   UNL A   1      46.133  26.750  36.695  1.00  0.00     0.060 A 
BRANCH  66  67
ATOM     67  S   UNL A   1      47.429  25.787  37.503  1.00  0.00     0.124 S 
ATOM     68  O   UNL A   1      46.651  24.723  38.130  1.00  0.00    -0.237 OA
ATOM     69  O   UNL A   1      48.265  25.381  36.377  1.00  0.00    -0.237 OA
ATOM     70  O   UNL A   1      48.040  26.743  38.421  1.00  0.00    -0.744 OA
ENDBRANCH  66  67
ENDBRANCH  45  59
BRANCH  46  71
ATOM     71  C   UNL A   1      36.662  33.196  30.952  1.00  0.00     0.058 A 
ATOM     72  C   UNL A   1      36.896  34.089  29.896  1.00  0.00     0.135 A 
ATOM     73  C   UNL A   1      35.332  32.990  31.350  1.00  0.00     0.135 A 
ATOM     74  F   UNL A   1      38.152  34.322  29.483  1.00  0.00    -0.206 F 
ATOM     75  C   UNL A   1      35.856  34.767  29.268  1.00  0.00     0.059 A 
ATOM     76  C   UNL A   1      34.272  33.638  30.723  1.00  0.00     0.059 A 
ATOM     77  F   UNL A   1      35.053  32.131  32.343  1.00  0.00    -0.206 F 
ATOM     78  C   UNL A   1      34.546  34.532  29.689  1.00  0.00     0.060 A 
BRANCH  78  79
ATOM     79  S   UNL A   1      33.199  35.380  28.834  1.00  0.00     0.124 S 
ATOM     80  O   UNL A   1      33.928  36.362  28.039  1.00  0.00    -0.237 OA
ATOM     81  O   UNL A   1      32.574  34.292  28.089  1.00  0.00    -0.237 OA
ATOM     82  O   UNL A   1      32.396  35.921  29.927  1.00  0.00    -0.744 OA
ENDBRANCH  78  79
ENDBRANCH  46  71
BRANCH  58  83
ATOM     83  C   UNL A   1      39.923  33.920  37.075  1.00  0.00     0.058 A 
ATOM     84  C   UNL A   1      40.637  35.126  37.103  1.00  0.00     0.135 A 
ATOM     85  C   UNL A   1      39.000  33.676  38.104  1.00  0.00     0.135 A 
ATOM     86  F   UNL A   1      41.536  35.403  36.145  1.00  0.00    -0.206 F 
ATOM     87  C   UNL A   1      40.456  36.051  38.125  1.00  0.00     0.059 A 
ATOM     88  C   UNL A   1      38.784  34.597  39.123  1.00  0.00     0.059 A 
ATOM     89  F   UNL A   1      38.284  32.540  38.114  1.00  0.00    -0.206 F 
ATOM     90  C   UNL A   1      39.525  35.778  39.131  1.00  0.00     0.060 A 
BRANCH  90  91
ATOM     91  S   UNL A   1      39.268  37.003  40.430  1.00  0.00     0.124 S 
ATOM     92  O   UNL A   1      40.635  37.432  40.704  1.00  0.00    -0.237 OA
ATOM     93  O   UNL A   1      38.415  37.987  39.771  1.00  0.00    -0.237 OA
ATOM     94  O   UNL A   1      38.624  36.238  41.495  1.00  0.00    -0.744 OA
ENDBRANCH  90  91
ENDBRANCH  58  83
ENDBRANCH  32  33
ENDBRANCH  24  27
ENDBRANCH  22  23
ENDBRANCH  21  22
ENDBRANCH   1  21
TORSDOF 18
ENDMDL
