MODEL 1
REMARK VINA RESULT:     -13.2      0.000      0.000
REMARK SMILES Cc1ccc2[nH]cc([C@@H](C(=O)NCCCCNC(=O)c3ccc(-c4c5nc(c(-c6c(F)cc(S(=O)(=O)[O-])cc6F)c6ccc([nH]6)c(-c6c(F)cc(S(=O)(=O)[O-])cc6F)c6nc(c(-c7c(F)cc(S(=O)(=O)[O-])cc7F)c7ccc4[nH]7)C=C6)C=C5)cc3)[NH+]3CCN(c4cccc(Cl)c4)CC3)c2c1
REMARK SMILES IDX 15 1 14 2 13 3 12 4 10 5 11 6 9 8 8 9 1 10 2 11 3 12 100 13
REMARK SMILES IDX 4 14 99 15 5 16 6 17 7 18 86 20 87 21 98 22 88 24 97 25
REMARK SMILES IDX 89 26 90 27 91 28 96 29 92 30 94 31 93 32 95 33 16 34 17 35
REMARK SMILES IDX 18 36 19 38 20 39 21 40 85 41 22 42 84 43 23 44 24 45 25 46
REMARK SMILES IDX 78 47 26 48 83 49 77 50 79 51 27 52 82 53 76 54 75 55 28 57
REMARK SMILES IDX 62 58 41 59 61 60 42 61 45 62 60 63 80 64 43 65 44 66 59 68
REMARK SMILES IDX 81 69 46 70 29 71 30 72 39 73 31 74 32 75 38 76 40 77 33 78
REMARK SMILES IDX 34 79 35 80 36 81 37 82 63 83 64 84 73 85 65 86 66 87 72 88
REMARK SMILES IDX 74 89 67 90 68 91 69 92 70 93 71 94 47 95 48 96 57 97 49 98
REMARK SMILES IDX 50 99 56 100 58 101 51 102 52 103 53 104 54 105 55 106
REMARK H PARENT 12 7 6 19 86 23 17 37 79 56 45 67
REMARK Flexibility Score: inf
ROOT
ATOM      1  C   UNL A   1      37.822  22.982  25.996  1.00  0.00     0.023 C 
ENDROOT
BRANCH   1   2
ATOM      2  C   UNL A   1      37.016  23.349  24.755  1.00  0.00     0.023 C 
BRANCH   2   3
ATOM      3  C   UNL A   1      35.614  23.890  25.033  1.00  0.00     0.116 C 
BRANCH   3   4
ATOM      4  N   UNL A   1      34.625  23.314  24.147  1.00  0.00    -0.351 N 
ATOM      5  C   UNL A   1      33.556  23.916  23.530  1.00  0.00     0.283 C 
ATOM      6  O   UNL A   1      32.845  23.172  22.846  1.00  0.00    -0.268 OA
ATOM      7  H   UNL A   1      34.735  22.354  23.960  1.00  0.00     0.163 HD
BRANCH   5   8
ATOM      8  C   UNL A   1      33.346  25.464  23.660  1.00  0.00     0.307 C 
BRANCH   8   9
ATOM      9  C   UNL A   1      32.449  25.846  24.812  1.00  0.00     0.044 A 
ATOM     10  C   UNL A   1      34.811  29.742  27.179  1.00  0.00     0.044 C 
ATOM     11  C   UNL A   1      33.655  28.808  26.957  1.00  0.00    -0.050 A 
ATOM     12  C   UNL A   1      32.575  28.785  27.843  1.00  0.00     0.005 A 
ATOM     13  C   UNL A   1      33.689  27.909  25.878  1.00  0.00     0.014 A 
ATOM     14  C   UNL A   1      31.538  27.857  27.701  1.00  0.00     0.027 A 
ATOM     15  C   UNL A   1      32.669  26.941  25.728  1.00  0.00     0.009 A 
ATOM     16  C   UNL A   1      31.628  26.933  26.655  1.00  0.00     0.046 A 
ATOM     17  N   UNL A   1      30.811  25.876  26.339  1.00  0.00    -0.361 N 
ATOM     18  C   UNL A   1      31.331  25.179  25.282  1.00  0.00     0.094 A 
ATOM     19  H   UNL A   1      29.974  25.651  26.805  1.00  0.00     0.166 HD
ENDBRANCH   8   9
BRANCH   8  20
ATOM     20  N   UNL A   1      32.968  26.106  22.377  1.00  0.00    -0.318 N 
ATOM     21  C   UNL A   1      31.566  26.026  21.936  1.00  0.00     0.284 C 
ATOM     22  C   UNL A   1      33.488  27.469  22.183  1.00  0.00     0.284 C 
ATOM     23  H   UNL A   1      33.463  25.472  21.750  1.00  0.00     0.349 HD
ATOM     24  C   UNL A   1      30.609  27.158  22.366  1.00  0.00     0.178 C 
ATOM     25  C   UNL A   1      32.605  28.627  22.705  1.00  0.00     0.178 C 
ATOM     26  N   UNL A   1      31.214  28.491  22.248  1.00  0.00    -0.360 N 
BRANCH  26  27
ATOM     27  C   UNL A   1      30.389  29.577  22.545  1.00  0.00     0.038 A 
ATOM     28  C   UNL A   1      30.240  30.082  23.846  1.00  0.00     0.026 A 
ATOM     29  C   UNL A   1      29.676  30.190  21.511  1.00  0.00     0.046 A 
ATOM     30  C   UNL A   1      29.372  31.142  24.116  1.00  0.00     0.004 A 
ATOM     31  C   UNL A   1      28.805  31.245  21.779  1.00  0.00     0.043 A 
ATOM     32  C   UNL A   1      28.644  31.721  23.079  1.00  0.00     0.020 A 
ATOM     33  Cl  UNL A   1      27.908  31.958  20.495  1.00  0.00    -0.084 Cl
ENDBRANCH  26  27
ENDBRANCH   8  20
ENDBRANCH   5   8
ENDBRANCH   3   4
ENDBRANCH   2   3
ENDBRANCH   1   2
BRANCH   1  34
ATOM     34  C   UNL A   1      38.662  24.114  26.559  1.00  0.00     0.116 C 
BRANCH  34  35
ATOM     35  N   UNL A   1      40.047  24.065  26.116  1.00  0.00    -0.352 N 
ATOM     36  C   UNL A   1      41.081  24.902  26.460  1.00  0.00     0.251 C 
ATOM     37  H   UNL A   1      40.271  23.341  25.489  1.00  0.00     0.163 HD
ATOM     38  O   UNL A   1      42.165  24.809  25.905  1.00  0.00    -0.269 OA
BRANCH  36  39
ATOM     39  C   UNL A   1      40.842  25.940  27.485  1.00  0.00     0.039 A 
ATOM     40  C   UNL A   1      39.865  25.715  28.456  1.00  0.00     0.014 A 
ATOM     41  C   UNL A   1      41.617  27.102  27.513  1.00  0.00     0.014 A 
ATOM     42  C   UNL A   1      39.703  26.637  29.490  1.00  0.00     0.010 A 
ATOM     43  C   UNL A   1      41.514  27.974  28.588  1.00  0.00     0.010 A 
ATOM     44  C   UNL A   1      40.546  27.757  29.581  1.00  0.00    -0.014 A 
BRANCH  44  45
ATOM     45  C   UNL A   1      40.412  28.728  30.693  1.00  0.00     0.031 A 
ATOM     46  C   UNL A   1      41.280  28.590  31.915  1.00  0.00     0.074 A 
ATOM     47  C   UNL A   1      39.474  29.693  30.627  1.00  0.00     0.049 A 
ATOM     48  N   UNL A   1      41.284  29.305  33.009  1.00  0.00    -0.248 NA
ATOM     49  C   UNL A   1      42.249  27.482  31.920  1.00  0.00     0.031 C 
ATOM     50  C   UNL A   1      38.532  29.886  29.522  1.00  0.00     0.029 A 
ATOM     51  N   UNL A   1      39.154  30.691  31.512  1.00  0.00    -0.354 N 
ATOM     52  C   UNL A   1      42.240  28.726  33.836  1.00  0.00     0.074 A 
ATOM     53  C   UNL A   1      42.752  27.565  33.142  1.00  0.00     0.031 C 
ATOM     54  C   UNL A   1      37.760  30.953  29.783  1.00  0.00     0.029 A 
ATOM     55  C   UNL A   1      38.129  31.501  31.084  1.00  0.00     0.049 A 
ATOM     56  H   UNL A   1      39.614  30.815  32.373  1.00  0.00     0.167 HD
ATOM     57  C   UNL A   1      42.673  29.141  35.049  1.00  0.00     0.037 A 
ATOM     58  C   UNL A   1      37.555  32.567  31.675  1.00  0.00     0.037 A 
ATOM     59  C   UNL A   1      42.182  30.318  35.715  1.00  0.00     0.049 A 
ATOM     60  C   UNL A   1      38.075  33.027  33.010  1.00  0.00     0.074 A 
ATOM     61  C   UNL A   1      42.596  30.862  36.918  1.00  0.00     0.029 A 
ATOM     62  N   UNL A   1      41.171  31.136  35.232  1.00  0.00    -0.354 N 
ATOM     63  N   UNL A   1      39.027  32.508  33.748  1.00  0.00    -0.248 NA
ATOM     64  C   UNL A   1      37.452  34.227  33.586  1.00  0.00     0.031 C 
ATOM     65  C   UNL A   1      41.811  31.990  37.180  1.00  0.00     0.029 A 
ATOM     66  C   UNL A   1      40.939  32.175  36.119  1.00  0.00     0.049 A 
ATOM     67  H   UNL A   1      40.690  30.999  34.385  1.00  0.00     0.167 HD
ATOM     68  C   UNL A   1      39.137  33.332  34.862  1.00  0.00     0.074 A 
ATOM     69  C   UNL A   1      38.163  34.391  34.694  1.00  0.00     0.031 C 
ATOM     70  C   UNL A   1      39.969  33.224  35.928  1.00  0.00     0.037 A 
BRANCH  57  71
ATOM     71  C   UNL A   1      43.737  28.321  35.724  1.00  0.00     0.058 A 
ATOM     72  C   UNL A   1      45.103  28.550  35.490  1.00  0.00     0.135 A 
ATOM     73  C   UNL A   1      43.392  27.309  36.633  1.00  0.00     0.135 A 
ATOM     74  F   UNL A   1      45.490  29.494  34.616  1.00  0.00    -0.206 F 
ATOM     75  C   UNL A   1      46.087  27.786  36.107  1.00  0.00     0.059 A 
ATOM     76  C   UNL A   1      44.360  26.549  37.285  1.00  0.00     0.059 A 
ATOM     77  F   UNL A   1      42.101  27.045  36.893  1.00  0.00    -0.206 F 
ATOM     78  C   UNL A   1      45.705  26.785  37.003  1.00  0.00     0.060 A 
BRANCH  78  79
ATOM     79  S   UNL A   1      46.993  25.803  37.797  1.00  0.00     0.124 S 
ATOM     80  O   UNL A   1      47.968  26.831  38.150  1.00  0.00    -0.237 OA
ATOM     81  O   UNL A   1      46.279  25.197  38.916  1.00  0.00    -0.237 OA
ATOM     82  O   UNL A   1      47.410  24.877  36.749  1.00  0.00    -0.744 OA
ENDBRANCH  78  79
ENDBRANCH  57  71
BRANCH  58  83
ATOM     83  C   UNL A   1      36.453  33.292  30.990  1.00  0.00     0.058 A 
ATOM     84  C   UNL A   1      36.708  34.104  29.876  1.00  0.00     0.135 A 
ATOM     85  C   UNL A   1      35.123  33.177  31.425  1.00  0.00     0.135 A 
ATOM     86  F   UNL A   1      37.963  34.249  29.425  1.00  0.00    -0.206 F 
ATOM     87  C   UNL A   1      35.688  34.792  29.225  1.00  0.00     0.059 A 
ATOM     88  C   UNL A   1      34.083  33.835  30.776  1.00  0.00     0.059 A 
ATOM     89  F   UNL A   1      34.824  32.396  32.474  1.00  0.00    -0.206 F 
ATOM     90  C   UNL A   1      34.377  34.649  29.683  1.00  0.00     0.060 A 
BRANCH  90  91
ATOM     91  S   UNL A   1      33.054  35.507  28.802  1.00  0.00     0.124 S 
ATOM     92  O   UNL A   1      32.469  34.421  28.023  1.00  0.00    -0.237 OA
ATOM     93  O   UNL A   1      32.237  36.019  29.897  1.00  0.00    -0.237 OA
ATOM     94  O   UNL A   1      33.767  36.523  28.033  1.00  0.00    -0.744 OA
ENDBRANCH  90  91
ENDBRANCH  58  83
BRANCH  70  95
ATOM     95  C   UNL A   1      39.891  34.301  36.974  1.00  0.00     0.058 A 
ATOM     96  C   UNL A   1      40.588  35.511  36.839  1.00  0.00     0.135 A 
ATOM     97  C   UNL A   1      39.076  34.133  38.104  1.00  0.00     0.135 A 
ATOM     98  F   UNL A   1      41.385  35.720  35.779  1.00  0.00    -0.206 F 
ATOM     99  C   UNL A   1      40.504  36.508  37.806  1.00  0.00     0.059 A 
ATOM    100  C   UNL A   1      38.955  35.127  39.070  1.00  0.00     0.059 A 
ATOM    101  F   UNL A   1      38.378  33.000  38.273  1.00  0.00    -0.206 F 
ATOM    102  C   UNL A   1      39.686  36.305  38.920  1.00  0.00     0.060 A 
BRANCH 102 103
ATOM    103  S   UNL A   1      39.568  37.612  40.159  1.00  0.00     0.124 S 
ATOM    104  O   UNL A   1      40.927  38.142  40.155  1.00  0.00    -0.237 OA
ATOM    105  O   UNL A   1      38.544  38.487  39.597  1.00  0.00    -0.237 OA
ATOM    106  O   UNL A   1      39.177  36.897  41.370  1.00  0.00    -0.744 OA
ENDBRANCH 102 103
ENDBRANCH  70  95
ENDBRANCH  44  45
ENDBRANCH  36  39
ENDBRANCH  34  35
ENDBRANCH   1  34
TORSDOF 17
ENDMDL
MODEL 2
REMARK VINA RESULT:     -13.0      1.938      3.828
REMARK SMILES Cc1ccc2[nH]cc([C@@H](C(=O)NCCCCNC(=O)c3ccc(-c4c5nc(c(-c6c(F)cc(S(=O)(=O)[O-])cc6F)c6ccc([nH]6)c(-c6c(F)cc(S(=O)(=O)[O-])cc6F)c6nc(c(-c7c(F)cc(S(=O)(=O)[O-])cc7F)c7ccc4[nH]7)C=C6)C=C5)cc3)[NH+]3CCN(c4cccc(Cl)c4)CC3)c2c1
REMARK SMILES IDX 15 1 14 2 13 3 12 4 10 5 11 6 9 8 8 9 1 10 2 11 3 12 100 13
REMARK SMILES IDX 4 14 99 15 5 16 6 17 7 18 86 20 87 21 98 22 88 24 97 25
REMARK SMILES IDX 89 26 90 27 91 28 96 29 92 30 94 31 93 32 95 33 16 34 17 35
REMARK SMILES IDX 18 36 19 38 20 39 21 40 85 41 22 42 84 43 23 44 24 45 25 46
REMARK SMILES IDX 78 47 26 48 83 49 77 50 79 51 27 52 82 53 76 54 75 55 28 57
REMARK SMILES IDX 62 58 41 59 61 60 42 61 45 62 60 63 80 64 43 65 44 66 59 68
REMARK SMILES IDX 81 69 46 70 29 71 30 72 39 73 31 74 32 75 38 76 40 77 33 78
REMARK SMILES IDX 34 79 35 80 36 81 37 82 63 83 64 84 73 85 65 86 66 87 72 88
REMARK SMILES IDX 74 89 67 90 68 91 69 92 70 93 71 94 47 95 48 96 57 97 49 98
REMARK SMILES IDX 50 99 56 100 58 101 51 102 52 103 53 104 54 105 55 106
REMARK H PARENT 12 7 6 19 86 23 17 37 79 56 45 67
REMARK Flexibility Score: inf
ROOT
ATOM      1  C   UNL A   1      38.808  22.700  26.517  1.00  0.00     0.023 C 
ENDROOT
BRANCH   1   2
ATOM      2  C   UNL A   1      37.672  23.474  25.856  1.00  0.00     0.023 C 
BRANCH   2   3
ATOM      3  C   UNL A   1      36.878  22.688  24.813  1.00  0.00     0.116 C 
BRANCH   3   4
ATOM      4  N   UNL A   1      35.993  23.541  24.048  1.00  0.00    -0.351 N 
ATOM      5  C   UNL A   1      34.633  23.455  23.881  1.00  0.00     0.283 C 
ATOM      6  O   UNL A   1      34.131  24.306  23.139  1.00  0.00    -0.268 OA
ATOM      7  H   UNL A   1      36.430  24.290  23.582  1.00  0.00     0.163 HD
BRANCH   5   8
ATOM      8  C   UNL A   1      33.814  22.373  24.667  1.00  0.00     0.307 C 
BRANCH   8   9
ATOM      9  C   UNL A   1      33.084  21.410  23.762  1.00  0.00     0.044 A 
ATOM     10  C   UNL A   1      34.903  16.755  24.933  1.00  0.00     0.044 C 
ATOM     11  C   UNL A   1      33.967  17.690  24.223  1.00  0.00    -0.050 A 
ATOM     12  C   UNL A   1      33.104  17.221  23.231  1.00  0.00     0.005 A 
ATOM     13  C   UNL A   1      34.002  19.063  24.521  1.00  0.00     0.014 A 
ATOM     14  C   UNL A   1      32.295  18.094  22.497  1.00  0.00     0.027 A 
ATOM     15  C   UNL A   1      33.217  19.972  23.775  1.00  0.00     0.009 A 
ATOM     16  C   UNL A   1      32.396  19.462  22.772  1.00  0.00     0.046 A 
ATOM     17  N   UNL A   1      31.794  20.532  22.156  1.00  0.00    -0.361 N 
ATOM     18  C   UNL A   1      32.252  21.703  22.696  1.00  0.00     0.094 A 
ATOM     19  H   UNL A   1      31.131  20.466  21.432  1.00  0.00     0.166 HD
ENDBRANCH   8   9
BRANCH   8  20
ATOM     20  N   UNL A   1      32.957  22.956  25.727  1.00  0.00    -0.318 N 
ATOM     21  C   UNL A   1      33.465  24.107  26.491  1.00  0.00     0.284 C 
ATOM     22  C   UNL A   1      31.553  23.176  25.345  1.00  0.00     0.284 C 
ATOM     23  H   UNL A   1      33.000  22.180  26.387  1.00  0.00     0.349 HD
ATOM     24  C   UNL A   1      33.145  25.521  25.962  1.00  0.00     0.178 C 
ATOM     25  C   UNL A   1      31.216  24.544  24.705  1.00  0.00     0.178 C 
ATOM     26  N   UNL A   1      31.758  25.656  25.499  1.00  0.00    -0.360 N 
BRANCH  26  27
ATOM     27  C   UNL A   1      31.366  26.927  25.074  1.00  0.00     0.038 A 
ATOM     28  C   UNL A   1      30.577  27.134  23.933  1.00  0.00     0.026 A 
ATOM     29  C   UNL A   1      31.774  28.044  25.810  1.00  0.00     0.046 A 
ATOM     30  C   UNL A   1      30.239  28.422  23.511  1.00  0.00     0.004 A 
ATOM     31  C   UNL A   1      31.441  29.330  25.388  1.00  0.00     0.043 A 
ATOM     32  C   UNL A   1      30.680  29.526  24.237  1.00  0.00     0.020 A 
ATOM     33  Cl  UNL A   1      31.988  30.691  26.287  1.00  0.00    -0.084 Cl
ENDBRANCH  26  27
ENDBRANCH   8  20
ENDBRANCH   5   8
ENDBRANCH   3   4
ENDBRANCH   2   3
ENDBRANCH   1   2
BRANCH   1  34
ATOM     34  C   UNL A   1      39.914  23.571  27.086  1.00  0.00     0.116 C 
BRANCH  34  35
ATOM     35  N   UNL A   1      40.714  24.214  26.054  1.00  0.00    -0.352 N 
ATOM     36  C   UNL A   1      41.263  25.474  26.065  1.00  0.00     0.251 C 
ATOM     37  H   UNL A   1      40.883  23.679  25.246  1.00  0.00     0.163 HD
ATOM     38  O   UNL A   1      41.807  25.921  25.066  1.00  0.00    -0.269 OA
BRANCH  36  39
ATOM     39  C   UNL A   1      41.147  26.288  27.292  1.00  0.00     0.039 A 
ATOM     40  C   UNL A   1      42.089  27.291  27.527  1.00  0.00     0.014 A 
ATOM     41  C   UNL A   1      40.083  26.092  28.177  1.00  0.00     0.014 A 
ATOM     42  C   UNL A   1      41.931  28.135  28.626  1.00  0.00     0.010 A 
ATOM     43  C   UNL A   1      39.880  26.986  29.219  1.00  0.00     0.010 A 
ATOM     44  C   UNL A   1      40.809  28.008  29.462  1.00  0.00    -0.014 A 
BRANCH  44  45
ATOM     45  C   UNL A   1      40.606  28.920  30.614  1.00  0.00     0.031 A 
ATOM     46  C   UNL A   1      41.443  28.757  31.853  1.00  0.00     0.074 A 
ATOM     47  C   UNL A   1      39.634  29.851  30.564  1.00  0.00     0.049 A 
ATOM     48  N   UNL A   1      41.387  29.419  32.979  1.00  0.00    -0.248 NA
ATOM     49  C   UNL A   1      42.453  27.686  31.837  1.00  0.00     0.031 C 
ATOM     50  C   UNL A   1      38.717  30.061  29.440  1.00  0.00     0.029 A 
ATOM     51  N   UNL A   1      39.250  30.794  31.483  1.00  0.00    -0.354 N 
ATOM     52  C   UNL A   1      42.341  28.837  33.807  1.00  0.00     0.074 A 
ATOM     53  C   UNL A   1      42.916  27.729  33.076  1.00  0.00     0.031 C 
ATOM     54  C   UNL A   1      37.897  31.086  29.727  1.00  0.00     0.029 A 
ATOM     55  C   UNL A   1      38.207  31.584  31.063  1.00  0.00     0.049 A 
ATOM     56  H   UNL A   1      39.680  30.894  32.363  1.00  0.00     0.167 HD
ATOM     57  C   UNL A   1      42.723  29.210  35.050  1.00  0.00     0.037 A 
ATOM     58  C   UNL A   1      37.576  32.600  31.684  1.00  0.00     0.037 A 
ATOM     59  C   UNL A   1      42.168  30.335  35.756  1.00  0.00     0.049 A 
ATOM     60  C   UNL A   1      38.039  33.015  33.054  1.00  0.00     0.074 A 
ATOM     61  C   UNL A   1      42.526  30.836  36.995  1.00  0.00     0.029 A 
ATOM     62  N   UNL A   1      41.140  31.137  35.280  1.00  0.00    -0.354 N 
ATOM     63  N   UNL A   1      38.988  32.497  33.796  1.00  0.00    -0.248 NA
ATOM     64  C   UNL A   1      37.354  34.162  33.666  1.00  0.00     0.031 C 
ATOM     65  C   UNL A   1      41.690  31.920  37.284  1.00  0.00     0.029 A 
ATOM     66  C   UNL A   1      40.843  32.123  36.206  1.00  0.00     0.049 A 
ATOM     67  H   UNL A   1      40.690  31.022  34.413  1.00  0.00     0.167 HD
ATOM     68  C   UNL A   1      39.035  33.271  34.950  1.00  0.00     0.074 A 
ATOM     69  C   UNL A   1      38.026  34.300  34.801  1.00  0.00     0.031 C 
ATOM     70  C   UNL A   1      39.840  33.143  36.034  1.00  0.00     0.037 A 
BRANCH  57  71
ATOM     71  C   UNL A   1      43.798  28.398  35.720  1.00  0.00     0.058 A 
ATOM     72  C   UNL A   1      43.487  27.327  36.573  1.00  0.00     0.135 A 
ATOM     73  C   UNL A   1      45.153  28.679  35.491  1.00  0.00     0.135 A 
ATOM     74  F   UNL A   1      42.206  27.026  36.843  1.00  0.00    -0.206 F 
ATOM     75  C   UNL A   1      44.480  26.583  37.200  1.00  0.00     0.059 A 
ATOM     76  C   UNL A   1      46.166  27.930  36.085  1.00  0.00     0.059 A 
ATOM     77  F   UNL A   1      45.508  29.694  34.686  1.00  0.00    -0.206 F 
ATOM     78  C   UNL A   1      45.819  26.893  36.950  1.00  0.00     0.060 A 
BRANCH  78  79
ATOM     79  S   UNL A   1      47.096  25.917  37.770  1.00  0.00     0.124 S 
ATOM     80  O   UNL A   1      48.307  26.624  37.364  1.00  0.00    -0.237 OA
ATOM     81  O   UNL A   1      46.730  26.042  39.177  1.00  0.00    -0.237 OA
ATOM     82  O   UNL A   1      46.926  24.585  37.197  1.00  0.00    -0.744 OA
ENDBRANCH  78  79
ENDBRANCH  57  71
BRANCH  58  83
ATOM     83  C   UNL A   1      36.467  33.315  31.000  1.00  0.00     0.058 A 
ATOM     84  C   UNL A   1      35.143  33.184  31.442  1.00  0.00     0.135 A 
ATOM     85  C   UNL A   1      36.709  34.154  29.900  1.00  0.00     0.135 A 
ATOM     86  F   UNL A   1      34.861  32.390  32.487  1.00  0.00    -0.206 F 
ATOM     87  C   UNL A   1      34.093  33.843  30.811  1.00  0.00     0.059 A 
ATOM     88  C   UNL A   1      35.679  34.843  29.267  1.00  0.00     0.059 A 
ATOM     89  F   UNL A   1      37.961  34.328  29.450  1.00  0.00    -0.206 F 
ATOM     90  C   UNL A   1      34.372  34.673  29.724  1.00  0.00     0.060 A 
BRANCH  90  91
ATOM     91  S   UNL A   1      33.010  35.564  28.942  1.00  0.00     0.124 S 
ATOM     92  O   UNL A   1      32.240  36.000  30.101  1.00  0.00    -0.237 OA
ATOM     93  O   UNL A   1      33.710  36.614  28.209  1.00  0.00    -0.237 OA
ATOM     94  O   UNL A   1      32.377  34.544  28.110  1.00  0.00    -0.744 OA
ENDBRANCH  90  91
ENDBRANCH  58  83
BRANCH  70  95
ATOM     95  C   UNL A   1      39.690  34.166  37.126  1.00  0.00     0.058 A 
ATOM     96  C   UNL A   1      38.964  33.895  38.296  1.00  0.00     0.135 A 
ATOM     97  C   UNL A   1      40.317  35.417  37.016  1.00  0.00     0.135 A 
ATOM     98  F   UNL A   1      38.342  32.716  38.449  1.00  0.00    -0.206 F 
ATOM     99  C   UNL A   1      38.838  34.842  39.307  1.00  0.00     0.059 A 
ATOM    100  C   UNL A   1      40.228  36.370  38.026  1.00  0.00     0.059 A 
ATOM    101  F   UNL A   1      41.035  35.721  35.923  1.00  0.00    -0.206 F 
ATOM    102  C   UNL A   1      39.473  36.078  39.161  1.00  0.00     0.060 A 
BRANCH 102 103
ATOM    103  S   UNL A   1      39.319  37.294  40.487  1.00  0.00     0.124 S 
ATOM    104  O   UNL A   1      38.322  38.204  39.934  1.00  0.00    -0.237 OA
ATOM    105  O   UNL A   1      38.877  36.477  41.613  1.00  0.00    -0.237 OA
ATOM    106  O   UNL A   1      40.669  37.837  40.606  1.00  0.00    -0.744 OA
ENDBRANCH 102 103
ENDBRANCH  70  95
ENDBRANCH  44  45
ENDBRANCH  36  39
ENDBRANCH  34  35
ENDBRANCH   1  34
TORSDOF 17
ENDMDL
MODEL 3
REMARK VINA RESULT:     -13.0      6.311      8.729
REMARK SMILES Cc1ccc2[nH]cc([C@@H](C(=O)NCCCCNC(=O)c3ccc(-c4c5nc(c(-c6c(F)cc(S(=O)(=O)[O-])cc6F)c6ccc([nH]6)c(-c6c(F)cc(S(=O)(=O)[O-])cc6F)c6nc(c(-c7c(F)cc(S(=O)(=O)[O-])cc7F)c7ccc4[nH]7)C=C6)C=C5)cc3)[NH+]3CCN(c4cccc(Cl)c4)CC3)c2c1
REMARK SMILES IDX 15 1 14 2 13 3 12 4 10 5 11 6 9 8 8 9 1 10 2 11 3 12 100 13
REMARK SMILES IDX 4 14 99 15 5 16 6 17 7 18 86 20 87 21 98 22 88 24 97 25
REMARK SMILES IDX 89 26 90 27 91 28 96 29 92 30 94 31 93 32 95 33 16 34 17 35
REMARK SMILES IDX 18 36 19 38 20 39 21 40 85 41 22 42 84 43 23 44 24 45 25 46
REMARK SMILES IDX 78 47 26 48 83 49 77 50 79 51 27 52 82 53 76 54 75 55 28 57
REMARK SMILES IDX 62 58 41 59 61 60 42 61 45 62 60 63 80 64 43 65 44 66 59 68
REMARK SMILES IDX 81 69 46 70 29 71 30 72 39 73 31 74 32 75 38 76 40 77 33 78
REMARK SMILES IDX 34 79 35 80 36 81 37 82 63 83 64 84 73 85 65 86 66 87 72 88
REMARK SMILES IDX 74 89 67 90 68 91 69 92 70 93 71 94 47 95 48 96 57 97 49 98
REMARK SMILES IDX 50 99 56 100 58 101 51 102 52 103 53 104 54 105 55 106
REMARK H PARENT 12 7 6 19 86 23 17 37 79 56 45 67
REMARK Flexibility Score: inf
ROOT
ATOM      1  C   UNL A   1      38.122  20.224  25.309  1.00  0.00     0.023 C 
ENDROOT
BRANCH   1   2
ATOM      2  C   UNL A   1      37.421  21.361  24.574  1.00  0.00     0.023 C 
BRANCH   2   3
ATOM      3  C   UNL A   1      36.504  22.222  25.443  1.00  0.00     0.116 C 
BRANCH   3   4
ATOM      4  N   UNL A   1      35.760  23.184  24.659  1.00  0.00    -0.351 N 
ATOM      5  C   UNL A   1      34.423  23.202  24.346  1.00  0.00     0.283 C 
ATOM      6  O   UNL A   1      34.056  24.133  23.623  1.00  0.00    -0.268 OA
ATOM      7  H   UNL A   1      36.288  23.932  24.298  1.00  0.00     0.163 HD
BRANCH   5   8
ATOM      8  C   UNL A   1      33.461  22.126  24.960  1.00  0.00     0.307 C 
BRANCH   8   9
ATOM      9  C   UNL A   1      32.895  21.180  23.928  1.00  0.00     0.044 A 
ATOM     10  C   UNL A   1      34.976  16.601  24.955  1.00  0.00     0.044 C 
ATOM     11  C   UNL A   1      34.034  17.513  24.223  1.00  0.00    -0.050 A 
ATOM     12  C   UNL A   1      33.305  17.054  23.124  1.00  0.00     0.005 A 
ATOM     13  C   UNL A   1      33.930  18.859  24.613  1.00  0.00     0.014 A 
ATOM     14  C   UNL A   1      32.495  17.916  22.376  1.00  0.00     0.027 A 
ATOM     15  C   UNL A   1      33.144  19.759  23.858  1.00  0.00     0.009 A 
ATOM     16  C   UNL A   1      32.459  19.264  22.750  1.00  0.00     0.046 A 
ATOM     17  N   UNL A   1      31.830  20.328  22.152  1.00  0.00    -0.361 N 
ATOM     18  C   UNL A   1      32.141  21.488  22.809  1.00  0.00     0.094 A 
ATOM     19  H   UNL A   1      31.242  20.266  21.366  1.00  0.00     0.166 HD
ENDBRANCH   8   9
BRANCH   8  20
ATOM     20  N   UNL A   1      32.432  22.713  25.852  1.00  0.00    -0.318 N 
ATOM     21  C   UNL A   1      32.813  23.836  26.724  1.00  0.00     0.284 C 
ATOM     22  C   UNL A   1      31.131  22.978  25.216  1.00  0.00     0.284 C 
ATOM     23  H   UNL A   1      32.331  21.925  26.490  1.00  0.00     0.349 HD
ATOM     24  C   UNL A   1      32.633  25.268  26.176  1.00  0.00     0.178 C 
ATOM     25  C   UNL A   1      30.954  24.366  24.555  1.00  0.00     0.178 C 
ATOM     26  N   UNL A   1      31.363  25.450  25.462  1.00  0.00    -0.360 N 
BRANCH  26  27
ATOM     27  C   UNL A   1      31.088  26.737  25.000  1.00  0.00     0.038 A 
ATOM     28  C   UNL A   1      30.273  26.985  23.885  1.00  0.00     0.026 A 
ATOM     29  C   UNL A   1      31.646  27.831  25.668  1.00  0.00     0.046 A 
ATOM     30  C   UNL A   1      30.054  28.285  23.423  1.00  0.00     0.004 A 
ATOM     31  C   UNL A   1      31.433  29.128  25.205  1.00  0.00     0.043 A 
ATOM     32  C   UNL A   1      30.644  29.361  24.081  1.00  0.00     0.020 A 
ATOM     33  Cl  UNL A   1      32.163  30.457  26.021  1.00  0.00    -0.084 Cl
ENDBRANCH  26  27
ENDBRANCH   8  20
ENDBRANCH   5   8
ENDBRANCH   3   4
ENDBRANCH   2   3
ENDBRANCH   1   2
BRANCH   1  34
ATOM     34  C   UNL A   1      39.416  20.622  25.996  1.00  0.00     0.116 C 
BRANCH  34  35
ATOM     35  N   UNL A   1      40.368  19.526  26.089  1.00  0.00    -0.352 N 
ATOM     36  C   UNL A   1      41.729  19.592  26.269  1.00  0.00     0.251 C 
ATOM     37  H   UNL A   1      39.989  18.621  26.013  1.00  0.00     0.163 HD
ATOM     38  O   UNL A   1      42.413  18.583  26.200  1.00  0.00    -0.269 OA
BRANCH  36  39
ATOM     39  C   UNL A   1      42.349  20.913  26.506  1.00  0.00     0.039 A 
ATOM     40  C   UNL A   1      42.626  21.733  25.411  1.00  0.00     0.014 A 
ATOM     41  C   UNL A   1      42.605  21.354  27.806  1.00  0.00     0.014 A 
ATOM     42  C   UNL A   1      43.112  23.022  25.627  1.00  0.00     0.010 A 
ATOM     43  C   UNL A   1      43.006  22.665  28.023  1.00  0.00     0.010 A 
ATOM     44  C   UNL A   1      43.277  23.508  26.935  1.00  0.00    -0.014 A 
BRANCH  44  45
ATOM     45  C   UNL A   1      43.758  24.889  27.183  1.00  0.00     0.031 A 
ATOM     46  C   UNL A   1      45.207  25.227  26.957  1.00  0.00     0.074 A 
ATOM     47  C   UNL A   1      42.908  25.815  27.666  1.00  0.00     0.049 A 
ATOM     48  N   UNL A   1      45.831  26.357  27.160  1.00  0.00    -0.248 NA
ATOM     49  C   UNL A   1      46.075  24.143  26.469  1.00  0.00     0.031 C 
ATOM     50  C   UNL A   1      41.496  25.586  27.986  1.00  0.00     0.029 A 
ATOM     51  N   UNL A   1      43.107  27.136  27.978  1.00  0.00    -0.354 N 
ATOM     52  C   UNL A   1      47.162  26.117  26.840  1.00  0.00     0.074 A 
ATOM     53  C   UNL A   1      47.267  24.717  26.489  1.00  0.00     0.031 C 
ATOM     54  C   UNL A   1      40.952  26.734  28.421  1.00  0.00     0.029 A 
ATOM     55  C   UNL A   1      41.979  27.770  28.442  1.00  0.00     0.049 A 
ATOM     56  H   UNL A   1      43.976  27.587  27.879  1.00  0.00     0.167 HD
ATOM     57  C   UNL A   1      48.197  26.988  26.812  1.00  0.00     0.037 A 
ATOM     58  C   UNL A   1      41.795  29.046  28.836  1.00  0.00     0.037 A 
ATOM     59  C   UNL A   1      48.076  28.387  27.130  1.00  0.00     0.049 A 
ATOM     60  C   UNL A   1      42.954  30.003  28.767  1.00  0.00     0.074 A 
ATOM     61  C   UNL A   1      49.048  29.370  27.074  1.00  0.00     0.029 A 
ATOM     62  N   UNL A   1      46.908  29.002  27.557  1.00  0.00    -0.354 N 
ATOM     63  N   UNL A   1      44.192  29.775  28.397  1.00  0.00    -0.248 NA
ATOM     64  C   UNL A   1      42.688  31.395  29.155  1.00  0.00     0.031 C 
ATOM     65  C   UNL A   1      48.476  30.572  27.502  1.00  0.00     0.029 A 
ATOM     66  C   UNL A   1      47.137  30.349  27.781  1.00  0.00     0.049 A 
ATOM     67  H   UNL A   1      46.044  28.547  27.683  1.00  0.00     0.167 HD
ATOM     68  C   UNL A   1      44.845  30.999  28.481  1.00  0.00     0.074 A 
ATOM     69  C   UNL A   1      43.862  31.966  28.925  1.00  0.00     0.031 C 
ATOM     70  C   UNL A   1      46.142  31.297  28.215  1.00  0.00     0.037 A 
BRANCH  57  71
ATOM     71  C   UNL A   1      49.546  26.454  26.415  1.00  0.00     0.058 A 
ATOM     72  C   UNL A   1      50.039  26.599  25.108  1.00  0.00     0.135 A 
ATOM     73  C   UNL A   1      50.365  25.809  27.355  1.00  0.00     0.135 A 
ATOM     74  F   UNL A   1      49.290  27.192  24.164  1.00  0.00    -0.206 F 
ATOM     75  C   UNL A   1      51.282  26.096  24.739  1.00  0.00     0.059 A 
ATOM     76  C   UNL A   1      51.624  25.322  27.015  1.00  0.00     0.059 A 
ATOM     77  F   UNL A   1      49.942  25.640  28.618  1.00  0.00    -0.206 F 
ATOM     78  C   UNL A   1      52.067  25.457  25.700  1.00  0.00     0.060 A 
BRANCH  78  79
ATOM     79  S   UNL A   1      53.678  24.812  25.205  1.00  0.00     0.124 S 
ATOM     80  O   UNL A   1      53.918  25.546  23.967  1.00  0.00    -0.237 OA
ATOM     81  O   UNL A   1      54.524  25.182  26.336  1.00  0.00    -0.237 OA
ATOM     82  O   UNL A   1      53.437  23.381  25.049  1.00  0.00    -0.744 OA
ENDBRANCH  78  79
ENDBRANCH  57  71
BRANCH  58  83
ATOM     83  C   UNL A   1      40.454  29.496  29.292  1.00  0.00     0.058 A 
ATOM     84  C   UNL A   1      40.195  29.731  30.649  1.00  0.00     0.135 A 
ATOM     85  C   UNL A   1      39.409  29.714  28.380  1.00  0.00     0.135 A 
ATOM     86  F   UNL A   1      41.161  29.533  31.559  1.00  0.00    -0.206 F 
ATOM     87  C   UNL A   1      38.945  30.149  31.093  1.00  0.00     0.059 A 
ATOM     88  C   UNL A   1      38.156  30.156  28.796  1.00  0.00     0.059 A 
ATOM     89  F   UNL A   1      39.611  29.523  27.067  1.00  0.00    -0.206 F 
ATOM     90  C   UNL A   1      37.932  30.361  30.157  1.00  0.00     0.060 A 
BRANCH  90  91
ATOM     91  S   UNL A   1      36.326  30.952  30.737  1.00  0.00     0.124 S 
ATOM     92  O   UNL A   1      35.945  29.899  31.670  1.00  0.00    -0.237 OA
ATOM     93  O   UNL A   1      36.668  32.240  31.331  1.00  0.00    -0.237 OA
ATOM     94  O   UNL A   1      35.535  31.027  29.511  1.00  0.00    -0.744 OA
ENDBRANCH  90  91
ENDBRANCH  58  83
BRANCH  70  95
ATOM     95  C   UNL A   1      46.560  32.734  28.356  1.00  0.00     0.058 A 
ATOM     96  C   UNL A   1      46.441  33.644  27.294  1.00  0.00     0.135 A 
ATOM     97  C   UNL A   1      47.048  33.212  29.581  1.00  0.00     0.135 A 
ATOM     98  F   UNL A   1      45.984  33.235  26.100  1.00  0.00    -0.206 F 
ATOM     99  C   UNL A   1      46.821  34.975  27.434  1.00  0.00     0.059 A 
ATOM    100  C   UNL A   1      47.409  34.545  29.753  1.00  0.00     0.059 A 
ATOM    101  F   UNL A   1      47.169  32.386  30.632  1.00  0.00    -0.206 F 
ATOM    102  C   UNL A   1      47.307  35.415  28.668  1.00  0.00     0.060 A 
BRANCH 102 103
ATOM    103  S   UNL A   1      47.779  37.148  28.845  1.00  0.00     0.124 S 
ATOM    104  O   UNL A   1      46.617  37.827  28.281  1.00  0.00    -0.237 OA
ATOM    105  O   UNL A   1      47.953  37.281  30.288  1.00  0.00    -0.237 OA
ATOM    106  O   UNL A   1      49.007  37.247  28.061  1.00  0.00    -0.744 OA
ENDBRANCH 102 103
ENDBRANCH  70  95
ENDBRANCH  44  45
ENDBRANCH  36  39
ENDBRANCH  34  35
ENDBRANCH   1  34
TORSDOF 17
ENDMDL
