MODEL 1
REMARK VINA RESULT:     -10.7      0.000      0.000
REMARK SMILES CC(C)[C@@H](CO)NC(=O)CC(C)(C)CC(=O)NCCCCNC(=O)c1ccc(-c2c3nc(c(-c4c(F)cc(S(=O)(=O)[O-])cc4F)c4ccc([nH]4)c(-c4c(F)cc(S(=O)(=O)[O-])cc4F)c4nc(c(-c5c(F)cc(S(=O)(=O)[O-])cc5F)c5ccc2[nH]5)C=C4)C=C3)cc1
REMARK SMILES IDX 18 1 17 2 15 3 16 4 14 6 11 7 12 8 13 9 10 10 8 11 7 12 9 14
REMARK SMILES IDX 4 15 2 16 1 17 3 18 5 19 6 20 19 22 20 23 21 24 22 25 23 26
REMARK SMILES IDX 24 28 25 29 26 30 90 31 27 32 89 33 28 34 29 35 30 36 83 37
REMARK SMILES IDX 31 38 88 39 82 40 84 41 32 42 87 43 81 44 80 45 33 47 67 48
REMARK SMILES IDX 46 49 66 50 47 51 50 52 65 53 85 54 48 55 49 56 64 58 86 59
REMARK SMILES IDX 51 60 34 61 35 62 44 63 36 64 37 65 43 66 45 67 38 68 39 69
REMARK SMILES IDX 40 70 41 71 42 72 68 73 69 74 78 75 70 76 71 77 77 78 79 79
REMARK SMILES IDX 72 80 73 81 74 82 75 83 76 84 52 85 53 86 62 87 54 88 55 89
REMARK SMILES IDX 61 90 63 91 56 92 57 93 58 94 59 95 60 96
REMARK H PARENT 17 5 7 13 6 21 22 27 84 46 50 57
REMARK Flexibility Score: inf
ROOT
ATOM      1  C   UNL A   1      36.155  22.900  23.842  1.00  0.00     0.116 C 
ENDROOT
BRANCH   1   2
ATOM      2  N   UNL A   1      35.127  21.952  24.219  1.00  0.00    -0.356 N 
ATOM      3  C   UNL A   1      33.783  22.010  24.004  1.00  0.00     0.220 C 
ATOM      4  O   UNL A   1      33.061  21.187  24.562  1.00  0.00    -0.275 OA
ATOM      5  H   UNL A   1      35.445  21.153  24.699  1.00  0.00     0.163 HD
BRANCH   3   6
ATOM      6  C   UNL A   1      33.228  23.046  23.047  1.00  0.00     0.107 C 
BRANCH   6   7
ATOM      7  C   UNL A   1      32.328  24.169  23.624  1.00  0.00    -0.018 C 
ATOM      8  C   UNL A   1      33.174  24.889  24.688  1.00  0.00     0.012 C 
ATOM      9  C   UNL A   1      31.097  23.688  24.406  1.00  0.00     0.012 C 
BRANCH   7  10
ATOM     10  C   UNL A   1      31.743  25.084  22.514  1.00  0.00     0.107 C 
BRANCH  10  11
ATOM     11  C   UNL A   1      32.538  26.270  21.999  1.00  0.00     0.220 C 
ATOM     12  N   UNL A   1      32.098  27.535  22.231  1.00  0.00    -0.351 N 
ATOM     13  H   UNL A   1      32.576  28.241  21.739  1.00  0.00     0.163 HD
ATOM     14  O   UNL A   1      33.550  26.126  21.316  1.00  0.00    -0.275 OA
BRANCH  12  15
ATOM     15  C   UNL A   1      31.027  27.998  23.098  1.00  0.00     0.110 C 
BRANCH  15  16
ATOM     16  C   UNL A   1      31.547  28.226  24.547  1.00  0.00     0.007 C 
ATOM     17  C   UNL A   1      31.292  29.675  24.976  1.00  0.00     0.009 C 
ATOM     18  C   UNL A   1      30.950  27.284  25.611  1.00  0.00     0.009 C 
ENDBRANCH  15  16
BRANCH  15  19
ATOM     19  C   UNL A   1      30.323  29.225  22.482  1.00  0.00     0.181 C 
BRANCH  19  20
ATOM     20  O   UNL A   1      31.165  29.937  21.582  1.00  0.00    -0.394 OA
ATOM     21  H   UNL A   1      30.741  30.774  21.336  1.00  0.00     0.210 HD
ENDBRANCH  19  20
ENDBRANCH  15  19
ENDBRANCH  12  15
ENDBRANCH  10  11
ENDBRANCH   7  10
ENDBRANCH   6   7
ENDBRANCH   3   6
ENDBRANCH   1   2
BRANCH   1  22
ATOM     22  C   UNL A   1      36.591  23.720  25.054  1.00  0.00     0.023 C 
BRANCH  22  23
ATOM     23  C   UNL A   1      37.789  23.168  25.796  1.00  0.00     0.023 C 
BRANCH  23  24
ATOM     24  C   UNL A   1      38.619  24.236  26.468  1.00  0.00     0.116 C 
BRANCH  24  25
ATOM     25  N   UNL A   1      40.051  24.086  26.225  1.00  0.00    -0.352 N 
ATOM     26  C   UNL A   1      41.072  24.886  26.678  1.00  0.00     0.251 C 
ATOM     27  H   UNL A   1      40.317  23.319  25.668  1.00  0.00     0.163 HD
ATOM     28  O   UNL A   1      42.222  24.732  26.284  1.00  0.00    -0.269 OA
BRANCH  26  29
ATOM     29  C   UNL A   1      40.723  25.956  27.627  1.00  0.00     0.039 A 
ATOM     30  C   UNL A   1      39.774  25.716  28.619  1.00  0.00     0.014 A 
ATOM     31  C   UNL A   1      41.468  27.139  27.610  1.00  0.00     0.014 A 
ATOM     32  C   UNL A   1      39.620  26.647  29.645  1.00  0.00     0.010 A 
ATOM     33  C   UNL A   1      41.412  27.986  28.702  1.00  0.00     0.010 A 
ATOM     34  C   UNL A   1      40.466  27.767  29.714  1.00  0.00    -0.014 A 
BRANCH  34  35
ATOM     35  C   UNL A   1      40.345  28.771  30.796  1.00  0.00     0.031 A 
ATOM     36  C   UNL A   1      41.247  28.657  31.997  1.00  0.00     0.074 A 
ATOM     37  C   UNL A   1      39.389  29.719  30.738  1.00  0.00     0.049 A 
ATOM     38  N   UNL A   1      41.247  29.355  33.101  1.00  0.00    -0.248 NA
ATOM     39  C   UNL A   1      42.249  27.575  31.975  1.00  0.00     0.031 C 
ATOM     40  C   UNL A   1      38.406  29.875  29.664  1.00  0.00     0.029 A 
ATOM     41  N   UNL A   1      39.086  30.731  31.612  1.00  0.00    -0.354 N 
ATOM     42  C   UNL A   1      42.215  28.772  33.911  1.00  0.00     0.074 A 
ATOM     43  C   UNL A   1      42.726  27.620  33.208  1.00  0.00     0.031 C 
ATOM     44  C   UNL A   1      37.636  30.946  29.923  1.00  0.00     0.029 A 
ATOM     45  C   UNL A   1      38.050  31.531  31.194  1.00  0.00     0.049 A 
ATOM     46  H   UNL A   1      39.566  30.872  32.460  1.00  0.00     0.167 HD
ATOM     47  C   UNL A   1      42.671  29.187  35.115  1.00  0.00     0.037 A 
ATOM     48  C   UNL A   1      37.507  32.620  31.771  1.00  0.00     0.037 A 
ATOM     49  C   UNL A   1      42.208  30.378  35.768  1.00  0.00     0.049 A 
ATOM     50  C   UNL A   1      38.078  33.107  33.075  1.00  0.00     0.074 A 
ATOM     51  C   UNL A   1      42.651  30.942  36.950  1.00  0.00     0.029 A 
ATOM     52  N   UNL A   1      41.204  31.203  35.280  1.00  0.00    -0.354 N 
ATOM     53  N   UNL A   1      39.040  32.584  33.799  1.00  0.00    -0.248 NA
ATOM     54  C   UNL A   1      37.505  34.339  33.633  1.00  0.00     0.031 C 
ATOM     55  C   UNL A   1      41.899  32.098  37.187  1.00  0.00     0.029 A 
ATOM     56  C   UNL A   1      41.012  32.271  36.136  1.00  0.00     0.049 A 
ATOM     57  H   UNL A   1      40.702  31.048  34.447  1.00  0.00     0.167 HD
ATOM     58  C   UNL A   1      39.205  33.435  34.885  1.00  0.00     0.074 A 
ATOM     59  C   UNL A   1      38.252  34.514  34.715  1.00  0.00     0.031 C 
ATOM     60  C   UNL A   1      40.064  33.336  35.930  1.00  0.00     0.037 A 
BRANCH  47  61
ATOM     61  C   UNL A   1      43.740  28.359  35.772  1.00  0.00     0.058 A 
ATOM     62  C   UNL A   1      45.103  28.568  35.502  1.00  0.00     0.135 A 
ATOM     63  C   UNL A   1      43.401  27.342  36.678  1.00  0.00     0.135 A 
ATOM     64  F   UNL A   1      45.481  29.512  34.625  1.00  0.00    -0.206 F 
ATOM     65  C   UNL A   1      46.088  27.773  36.075  1.00  0.00     0.059 A 
ATOM     66  C   UNL A   1      44.374  26.555  37.287  1.00  0.00     0.059 A 
ATOM     67  F   UNL A   1      42.114  27.096  36.968  1.00  0.00    -0.206 F 
ATOM     68  C   UNL A   1      45.713  26.766  36.964  1.00  0.00     0.060 A 
BRANCH  68  69
ATOM     69  S   UNL A   1      47.004  25.740  37.698  1.00  0.00     0.124 S 
ATOM     70  O   UNL A   1      47.435  24.950  36.550  1.00  0.00    -0.237 OA
ATOM     71  O   UNL A   1      47.960  26.734  38.178  1.00  0.00    -0.237 OA
ATOM     72  O   UNL A   1      46.298  25.001  38.740  1.00  0.00    -0.744 OA
ENDBRANCH  68  69
ENDBRANCH  47  61
BRANCH  48  73
ATOM     73  C   UNL A   1      36.403  33.352  31.095  1.00  0.00     0.058 A 
ATOM     74  C   UNL A   1      36.646  34.106  29.937  1.00  0.00     0.135 A 
ATOM     75  C   UNL A   1      35.086  33.300  31.575  1.00  0.00     0.135 A 
ATOM     76  F   UNL A   1      37.890  34.188  29.440  1.00  0.00    -0.206 F 
ATOM     77  C   UNL A   1      35.629  34.800  29.290  1.00  0.00     0.059 A 
ATOM     78  C   UNL A   1      34.046  33.968  30.933  1.00  0.00     0.059 A 
ATOM     79  F   UNL A   1      34.797  32.575  32.667  1.00  0.00    -0.206 F 
ATOM     80  C   UNL A   1      34.330  34.723  29.796  1.00  0.00     0.060 A 
BRANCH  80  81
ATOM     81  S   UNL A   1      33.007  35.589  28.921  1.00  0.00     0.124 S 
ATOM     82  O   UNL A   1      32.216  36.112  30.027  1.00  0.00    -0.237 OA
ATOM     83  O   UNL A   1      33.748  36.576  28.142  1.00  0.00    -0.237 OA
ATOM     84  O   UNL A   1      32.377  34.530  28.137  1.00  0.00    -0.744 OA
ENDBRANCH  80  81
ENDBRANCH  48  73
BRANCH  60  85
ATOM     85  C   UNL A   1      40.038  34.440  36.946  1.00  0.00     0.058 A 
ATOM     86  C   UNL A   1      39.178  34.399  38.052  1.00  0.00     0.135 A 
ATOM     87  C   UNL A   1      40.926  35.522  36.839  1.00  0.00     0.135 A 
ATOM     88  F   UNL A   1      38.308  33.385  38.195  1.00  0.00    -0.206 F 
ATOM     89  C   UNL A   1      39.180  35.407  39.009  1.00  0.00     0.059 A 
ATOM     90  C   UNL A   1      40.964  36.529  37.797  1.00  0.00     0.059 A 
ATOM     91  F   UNL A   1      41.778  35.599  35.805  1.00  0.00    -0.206 F 
ATOM     92  C   UNL A   1      40.078  36.468  38.872  1.00  0.00     0.060 A 
BRANCH  92  93
ATOM     93  S   UNL A   1      40.096  37.757  40.136  1.00  0.00     0.124 S 
ATOM     94  O   UNL A   1      40.149  36.965  41.361  1.00  0.00    -0.237 OA
ATOM     95  O   UNL A   1      41.308  38.502  39.808  1.00  0.00    -0.237 OA
ATOM     96  O   UNL A   1      38.846  38.475  39.904  1.00  0.00    -0.744 OA
ENDBRANCH  92  93
ENDBRANCH  60  85
ENDBRANCH  34  35
ENDBRANCH  26  29
ENDBRANCH  24  25
ENDBRANCH  23  24
ENDBRANCH  22  23
ENDBRANCH   1  22
TORSDOF 21
ENDMDL
MODEL 2
REMARK VINA RESULT:     -10.4      1.767      2.999
REMARK SMILES CC(C)[C@@H](CO)NC(=O)CC(C)(C)CC(=O)NCCCCNC(=O)c1ccc(-c2c3nc(c(-c4c(F)cc(S(=O)(=O)[O-])cc4F)c4ccc([nH]4)c(-c4c(F)cc(S(=O)(=O)[O-])cc4F)c4nc(c(-c5c(F)cc(S(=O)(=O)[O-])cc5F)c5ccc2[nH]5)C=C4)C=C3)cc1
REMARK SMILES IDX 18 1 17 2 15 3 16 4 14 6 11 7 12 8 13 9 10 10 8 11 7 12 9 14
REMARK SMILES IDX 4 15 2 16 1 17 3 18 5 19 6 20 19 22 20 23 21 24 22 25 23 26
REMARK SMILES IDX 24 28 25 29 26 30 90 31 27 32 89 33 28 34 29 35 30 36 83 37
REMARK SMILES IDX 31 38 88 39 82 40 84 41 32 42 87 43 81 44 80 45 33 47 67 48
REMARK SMILES IDX 46 49 66 50 47 51 50 52 65 53 85 54 48 55 49 56 64 58 86 59
REMARK SMILES IDX 51 60 34 61 35 62 44 63 36 64 37 65 43 66 45 67 38 68 39 69
REMARK SMILES IDX 40 70 41 71 42 72 68 73 69 74 78 75 70 76 71 77 77 78 79 79
REMARK SMILES IDX 72 80 73 81 74 82 75 83 76 84 52 85 53 86 62 87 54 88 55 89
REMARK SMILES IDX 61 90 63 91 56 92 57 93 58 94 59 95 60 96
REMARK H PARENT 17 5 7 13 6 21 22 27 84 46 50 57
REMARK Flexibility Score: inf
ROOT
ATOM      1  C   UNL A   1      38.938  22.544  25.800  1.00  0.00     0.116 C 
ENDROOT
BRANCH   1   2
ATOM      2  N   UNL A   1      38.202  21.309  25.622  1.00  0.00    -0.356 N 
ATOM      3  C   UNL A   1      37.046  21.088  24.935  1.00  0.00     0.220 C 
ATOM      4  O   UNL A   1      36.489  20.000  25.054  1.00  0.00    -0.275 OA
ATOM      5  H   UNL A   1      38.593  20.518  26.060  1.00  0.00     0.163 HD
BRANCH   3   6
ATOM      6  C   UNL A   1      36.517  22.163  24.007  1.00  0.00     0.107 C 
BRANCH   6   7
ATOM      7  C   UNL A   1      35.208  22.893  24.403  1.00  0.00    -0.018 C 
ATOM      8  C   UNL A   1      34.655  23.511  23.109  1.00  0.00     0.012 C 
ATOM      9  C   UNL A   1      35.386  24.102  25.334  1.00  0.00     0.012 C 
BRANCH   7  10
ATOM     10  C   UNL A   1      34.224  21.965  25.166  1.00  0.00     0.107 C 
BRANCH  10  11
ATOM     11  C   UNL A   1      32.913  21.546  24.527  1.00  0.00     0.220 C 
ATOM     12  N   UNL A   1      31.764  22.204  24.838  1.00  0.00    -0.351 N 
ATOM     13  H   UNL A   1      30.938  21.782  24.508  1.00  0.00     0.163 HD
ATOM     14  O   UNL A   1      32.839  20.580  23.770  1.00  0.00    -0.275 OA
BRANCH  12  15
ATOM     15  C   UNL A   1      31.577  23.436  25.585  1.00  0.00     0.110 C 
BRANCH  15  16
ATOM     16  C   UNL A   1      31.398  24.646  24.623  1.00  0.00     0.007 C 
ATOM     17  C   UNL A   1      30.805  24.175  23.289  1.00  0.00     0.009 C 
ATOM     18  C   UNL A   1      30.529  25.794  25.171  1.00  0.00     0.009 C 
ENDBRANCH  15  16
BRANCH  15  19
ATOM     19  C   UNL A   1      30.438  23.278  26.615  1.00  0.00     0.181 C 
BRANCH  19  20
ATOM     20  O   UNL A   1      29.813  22.001  26.539  1.00  0.00    -0.394 OA
ATOM     21  H   UNL A   1      28.872  22.114  26.334  1.00  0.00     0.210 HD
ENDBRANCH  19  20
ENDBRANCH  15  19
ENDBRANCH  12  15
ENDBRANCH  10  11
ENDBRANCH   7  10
ENDBRANCH   6   7
ENDBRANCH   3   6
ENDBRANCH   1   2
BRANCH   1  22
ATOM     22  C   UNL A   1      39.643  22.551  27.154  1.00  0.00     0.023 C 
BRANCH  22  23
ATOM     23  C   UNL A   1      41.029  21.944  27.151  1.00  0.00     0.023 C 
BRANCH  23  24
ATOM     24  C   UNL A   1      42.132  22.974  27.222  1.00  0.00     0.116 C 
BRANCH  24  25
ATOM     25  N   UNL A   1      42.208  23.812  26.029  1.00  0.00    -0.352 N 
ATOM     26  C   UNL A   1      42.084  25.179  25.950  1.00  0.00     0.251 C 
ATOM     27  H   UNL A   1      42.368  23.343  25.179  1.00  0.00     0.163 HD
ATOM     28  O   UNL A   1      42.026  25.749  24.866  1.00  0.00    -0.269 OA
BRANCH  26  29
ATOM     29  C   UNL A   1      41.986  25.925  27.215  1.00  0.00     0.039 A 
ATOM     30  C   UNL A   1      42.955  26.875  27.531  1.00  0.00     0.014 A 
ATOM     31  C   UNL A   1      40.837  25.777  27.997  1.00  0.00     0.014 A 
ATOM     32  C   UNL A   1      42.734  27.733  28.607  1.00  0.00     0.010 A 
ATOM     33  C   UNL A   1      40.559  26.718  28.971  1.00  0.00     0.010 A 
ATOM     34  C   UNL A   1      41.516  27.686  29.308  1.00  0.00    -0.014 A 
BRANCH  34  35
ATOM     35  C   UNL A   1      41.237  28.589  30.448  1.00  0.00     0.031 A 
ATOM     36  C   UNL A   1      42.073  28.465  31.695  1.00  0.00     0.074 A 
ATOM     37  C   UNL A   1      40.202  29.450  30.394  1.00  0.00     0.049 A 
ATOM     38  N   UNL A   1      41.941  29.073  32.843  1.00  0.00    -0.248 NA
ATOM     39  C   UNL A   1      43.172  27.481  31.663  1.00  0.00     0.031 C 
ATOM     40  C   UNL A   1      39.274  29.599  29.270  1.00  0.00     0.029 A 
ATOM     41  N   UNL A   1      39.753  30.360  31.315  1.00  0.00    -0.354 N 
ATOM     42  C   UNL A   1      42.909  28.519  33.672  1.00  0.00     0.074 A 
ATOM     43  C   UNL A   1      43.568  27.475  32.925  1.00  0.00     0.031 C 
ATOM     44  C   UNL A   1      38.393  30.574  29.552  1.00  0.00     0.029 A 
ATOM     45  C   UNL A   1      38.673  31.095  30.887  1.00  0.00     0.049 A 
ATOM     46  H   UNL A   1      40.166  30.478  32.201  1.00  0.00     0.167 HD
ATOM     47  C   UNL A   1      43.252  28.880  34.931  1.00  0.00     0.037 A 
ATOM     48  C   UNL A   1      37.996  32.083  31.501  1.00  0.00     0.037 A 
ATOM     49  C   UNL A   1      42.640  29.971  35.634  1.00  0.00     0.049 A 
ATOM     50  C   UNL A   1      38.441  32.518  32.872  1.00  0.00     0.074 A 
ATOM     51  C   UNL A   1      42.957  30.480  36.880  1.00  0.00     0.029 A 
ATOM     52  N   UNL A   1      41.594  30.737  35.139  1.00  0.00    -0.354 N 
ATOM     53  N   UNL A   1      39.403  32.029  33.620  1.00  0.00    -0.248 NA
ATOM     54  C   UNL A   1      37.722  33.647  33.477  1.00  0.00     0.031 C 
ATOM     55  C   UNL A   1      42.087  31.542  37.148  1.00  0.00     0.029 A 
ATOM     56  C   UNL A   1      41.252  31.715  36.054  1.00  0.00     0.049 A 
ATOM     57  H   UNL A   1      41.160  30.603  34.266  1.00  0.00     0.167 HD
ATOM     58  C   UNL A   1      39.421  32.806  34.771  1.00  0.00     0.074 A 
ATOM     59  C   UNL A   1      38.383  33.805  34.615  1.00  0.00     0.031 C 
ATOM     60  C   UNL A   1      40.222  32.704  35.861  1.00  0.00     0.037 A 
BRANCH  47  61
ATOM     61  C   UNL A   1      44.352  28.102  35.597  1.00  0.00     0.058 A 
ATOM     62  C   UNL A   1      44.080  26.982  36.400  1.00  0.00     0.135 A 
ATOM     63  C   UNL A   1      45.694  28.482  35.436  1.00  0.00     0.135 A 
ATOM     64  F   UNL A   1      42.813  26.591  36.607  1.00  0.00    -0.206 F 
ATOM     65  C   UNL A   1      45.094  26.291  37.052  1.00  0.00     0.059 A 
ATOM     66  C   UNL A   1      46.728  27.784  36.055  1.00  0.00     0.059 A 
ATOM     67  F   UNL A   1      46.011  29.547  34.683  1.00  0.00    -0.206 F 
ATOM     68  C   UNL A   1      46.416  26.702  36.876  1.00  0.00     0.060 A 
BRANCH  68  69
ATOM     69  S   UNL A   1      47.721  25.795  37.731  1.00  0.00     0.124 S 
ATOM     70  O   UNL A   1      48.470  25.237  36.610  1.00  0.00    -0.237 OA
ATOM     71  O   UNL A   1      48.397  26.850  38.481  1.00  0.00    -0.237 OA
ATOM     72  O   UNL A   1      46.987  24.828  38.541  1.00  0.00    -0.744 OA
ENDBRANCH  68  69
ENDBRANCH  47  61
BRANCH  48  73
ATOM     73  C   UNL A   1      36.871  32.763  30.807  1.00  0.00     0.058 A 
ATOM     74  C   UNL A   1      35.541  32.476  31.146  1.00  0.00     0.135 A 
ATOM     75  C   UNL A   1      37.098  33.723  29.810  1.00  0.00     0.135 A 
ATOM     76  F   UNL A   1      35.273  31.564  32.093  1.00  0.00    -0.206 F 
ATOM     77  C   UNL A   1      34.473  33.100  30.508  1.00  0.00     0.059 A 
ATOM     78  C   UNL A   1      36.047  34.378  29.171  1.00  0.00     0.059 A 
ATOM     79  F   UNL A   1      38.353  34.050  29.463  1.00  0.00    -0.206 F 
ATOM     80  C   UNL A   1      34.738  34.051  29.521  1.00  0.00     0.060 A 
BRANCH  80  81
ATOM     81  S   UNL A   1      33.345  34.890  28.733  1.00  0.00     0.124 S 
ATOM     82  O   UNL A   1      33.992  36.070  28.172  1.00  0.00    -0.237 OA
ATOM     83  O   UNL A   1      32.889  33.893  27.771  1.00  0.00    -0.237 OA
ATOM     84  O   UNL A   1      32.432  35.138  29.846  1.00  0.00    -0.744 OA
ENDBRANCH  80  81
ENDBRANCH  48  73
BRANCH  60  85
ATOM     85  C   UNL A   1      40.031  33.721  36.949  1.00  0.00     0.058 A 
ATOM     86  C   UNL A   1      40.764  34.916  36.974  1.00  0.00     0.135 A 
ATOM     87  C   UNL A   1      39.061  33.519  37.944  1.00  0.00     0.135 A 
ATOM     88  F   UNL A   1      41.704  35.152  36.045  1.00  0.00    -0.206 F 
ATOM     89  C   UNL A   1      40.560  35.869  37.964  1.00  0.00     0.059 A 
ATOM     90  C   UNL A   1      38.822  34.469  38.930  1.00  0.00     0.059 A 
ATOM     91  F   UNL A   1      38.325  32.397  37.955  1.00  0.00    -0.206 F 
ATOM     92  C   UNL A   1      39.586  35.637  38.939  1.00  0.00     0.060 A 
BRANCH  92  93
ATOM     93  S   UNL A   1      39.307  36.894  40.202  1.00  0.00     0.124 S 
ATOM     94  O   UNL A   1      38.732  37.979  39.414  1.00  0.00    -0.237 OA
ATOM     95  O   UNL A   1      38.392  36.221  41.119  1.00  0.00    -0.237 OA
ATOM     96  O   UNL A   1      40.644  37.142  40.733  1.00  0.00    -0.744 OA
ENDBRANCH  92  93
ENDBRANCH  60  85
ENDBRANCH  34  35
ENDBRANCH  26  29
ENDBRANCH  24  25
ENDBRANCH  23  24
ENDBRANCH  22  23
ENDBRANCH   1  22
TORSDOF 21
ENDMDL
MODEL 3
REMARK VINA RESULT:     -10.4      5.021      6.304
REMARK SMILES CC(C)[C@@H](CO)NC(=O)CC(C)(C)CC(=O)NCCCCNC(=O)c1ccc(-c2c3nc(c(-c4c(F)cc(S(=O)(=O)[O-])cc4F)c4ccc([nH]4)c(-c4c(F)cc(S(=O)(=O)[O-])cc4F)c4nc(c(-c5c(F)cc(S(=O)(=O)[O-])cc5F)c5ccc2[nH]5)C=C4)C=C3)cc1
REMARK SMILES IDX 18 1 17 2 15 3 16 4 14 6 11 7 12 8 13 9 10 10 8 11 7 12 9 14
REMARK SMILES IDX 4 15 2 16 1 17 3 18 5 19 6 20 19 22 20 23 21 24 22 25 23 26
REMARK SMILES IDX 24 28 25 29 26 30 90 31 27 32 89 33 28 34 29 35 30 36 83 37
REMARK SMILES IDX 31 38 88 39 82 40 84 41 32 42 87 43 81 44 80 45 33 47 67 48
REMARK SMILES IDX 46 49 66 50 47 51 50 52 65 53 85 54 48 55 49 56 64 58 86 59
REMARK SMILES IDX 51 60 34 61 35 62 44 63 36 64 37 65 43 66 45 67 38 68 39 69
REMARK SMILES IDX 40 70 41 71 42 72 68 73 69 74 78 75 70 76 71 77 77 78 79 79
REMARK SMILES IDX 72 80 73 81 74 82 75 83 76 84 52 85 53 86 62 87 54 88 55 89
REMARK SMILES IDX 61 90 63 91 56 92 57 93 58 94 59 95 60 96
REMARK H PARENT 17 5 7 13 6 21 22 27 84 46 50 57
REMARK Flexibility Score: inf
ROOT
ATOM      1  C   UNL A   1      33.475  23.109  27.227  1.00  0.00     0.116 C 
ENDROOT
BRANCH   1   2
ATOM      2  N   UNL A   1      32.175  22.527  26.961  1.00  0.00    -0.356 N 
ATOM      3  C   UNL A   1      31.114  23.061  26.292  1.00  0.00     0.220 C 
ATOM      4  O   UNL A   1      30.037  22.472  26.331  1.00  0.00    -0.275 OA
ATOM      5  H   UNL A   1      32.039  21.618  27.314  1.00  0.00     0.163 HD
BRANCH   3   6
ATOM      6  C   UNL A   1      31.308  24.326  25.480  1.00  0.00     0.107 C 
BRANCH   6   7
ATOM      7  C   UNL A   1      31.677  24.185  23.981  1.00  0.00    -0.018 C 
ATOM      8  C   UNL A   1      30.373  24.406  23.197  1.00  0.00     0.012 C 
ATOM      9  C   UNL A   1      32.128  22.783  23.545  1.00  0.00     0.012 C 
BRANCH   7  10
ATOM     10  C   UNL A   1      32.857  25.109  23.575  1.00  0.00     0.107 C 
BRANCH  10  11
ATOM     11  C   UNL A   1      32.869  25.787  22.218  1.00  0.00     0.220 C 
ATOM     12  N   UNL A   1      32.338  27.031  22.074  1.00  0.00    -0.351 N 
ATOM     13  H   UNL A   1      32.242  27.340  21.145  1.00  0.00     0.163 HD
ATOM     14  O   UNL A   1      33.296  25.222  21.213  1.00  0.00    -0.275 OA
BRANCH  12  15
ATOM     15  C   UNL A   1      31.890  27.968  23.091  1.00  0.00     0.110 C 
BRANCH  15  16
ATOM     16  C   UNL A   1      33.070  28.854  23.584  1.00  0.00     0.007 C 
ATOM     17  C   UNL A   1      33.410  28.515  25.041  1.00  0.00     0.009 C 
ATOM     18  C   UNL A   1      34.357  28.757  22.743  1.00  0.00     0.009 C 
ENDBRANCH  15  16
BRANCH  15  19
ATOM     19  C   UNL A   1      30.669  28.769  22.590  1.00  0.00     0.181 C 
BRANCH  19  20
ATOM     20  O   UNL A   1      31.033  29.789  21.666  1.00  0.00    -0.394 OA
ATOM     21  H   UNL A   1      31.948  29.652  21.378  1.00  0.00     0.210 HD
ENDBRANCH  19  20
ENDBRANCH  15  19
ENDBRANCH  12  15
ENDBRANCH  10  11
ENDBRANCH   7  10
ENDBRANCH   6   7
ENDBRANCH   3   6
ENDBRANCH   1   2
BRANCH   1  22
ATOM     22  C   UNL A   1      34.573  22.275  26.573  1.00  0.00     0.023 C 
BRANCH  22  23
ATOM     23  C   UNL A   1      35.337  22.980  25.473  1.00  0.00     0.023 C 
BRANCH  23  24
ATOM     24  C   UNL A   1      36.628  23.603  25.949  1.00  0.00     0.116 C 
BRANCH  24  25
ATOM     25  N   UNL A   1      37.708  22.633  26.106  1.00  0.00    -0.352 N 
ATOM     26  C   UNL A   1      39.004  22.870  26.495  1.00  0.00     0.251 C 
ATOM     27  H   UNL A   1      37.480  21.696  25.908  1.00  0.00     0.163 HD
ATOM     28  O   UNL A   1      39.853  21.986  26.450  1.00  0.00    -0.269 OA
BRANCH  26  29
ATOM     29  C   UNL A   1      39.342  24.234  26.934  1.00  0.00     0.039 A 
ATOM     30  C   UNL A   1      39.269  24.560  28.287  1.00  0.00     0.014 A 
ATOM     31  C   UNL A   1      39.879  25.127  26.003  1.00  0.00     0.014 A 
ATOM     32  C   UNL A   1      39.807  25.772  28.719  1.00  0.00     0.010 A 
ATOM     33  C   UNL A   1      40.535  26.258  26.455  1.00  0.00     0.010 A 
ATOM     34  C   UNL A   1      40.478  26.609  27.811  1.00  0.00    -0.014 A 
BRANCH  34  35
ATOM     35  C   UNL A   1      41.076  27.897  28.233  1.00  0.00     0.031 A 
ATOM     36  C   UNL A   1      42.563  28.088  28.091  1.00  0.00     0.074 A 
ATOM     37  C   UNL A   1      40.310  28.846  28.805  1.00  0.00     0.049 A 
ATOM     38  N   UNL A   1      43.311  29.083  28.487  1.00  0.00    -0.248 NA
ATOM     39  C   UNL A   1      43.319  26.985  27.469  1.00  0.00     0.031 C 
ATOM     40  C   UNL A   1      38.872  28.738  29.068  1.00  0.00     0.029 A 
ATOM     41  N   UNL A   1      40.638  30.091  29.274  1.00  0.00    -0.354 N 
ATOM     42  C   UNL A   1      44.617  28.707  28.198  1.00  0.00     0.074 A 
ATOM     43  C   UNL A   1      44.570  27.366  27.667  1.00  0.00     0.031 C 
ATOM     44  C   UNL A   1      38.437  29.886  29.614  1.00  0.00     0.029 A 
ATOM     45  C   UNL A   1      39.567  30.797  29.769  1.00  0.00     0.049 A 
ATOM     46  H   UNL A   1      41.555  30.447  29.260  1.00  0.00     0.167 HD
ATOM     47  C   UNL A   1      45.753  29.432  28.319  1.00  0.00     0.037 A 
ATOM     48  C   UNL A   1      39.508  32.041  30.277  1.00  0.00     0.037 A 
ATOM     49  C   UNL A   1      45.776  30.793  28.777  1.00  0.00     0.049 A 
ATOM     50  C   UNL A   1      40.770  32.858  30.335  1.00  0.00     0.074 A 
ATOM     51  C   UNL A   1      46.854  31.654  28.866  1.00  0.00     0.029 A 
ATOM     52  N   UNL A   1      44.660  31.498  29.203  1.00  0.00    -0.354 N 
ATOM     53  N   UNL A   1      41.991  32.513  29.996  1.00  0.00    -0.248 NA
ATOM     54  C   UNL A   1      40.649  34.236  30.830  1.00  0.00     0.031 C 
ATOM     55  C   UNL A   1      46.391  32.875  29.368  1.00  0.00     0.029 A 
ATOM     56  C   UNL A   1      45.021  32.784  29.559  1.00  0.00     0.049 A 
ATOM     57  H   UNL A   1      43.746  31.134  29.247  1.00  0.00     0.167 HD
ATOM     58  C   UNL A   1      42.778  33.637  30.211  1.00  0.00     0.074 A 
ATOM     59  C   UNL A   1      41.893  34.677  30.698  1.00  0.00     0.031 C 
ATOM     60  C   UNL A   1      44.112  33.799  30.026  1.00  0.00     0.037 A 
BRANCH  47  61
ATOM     61  C   UNL A   1      47.042  28.770  27.922  1.00  0.00     0.058 A 
ATOM     62  C   UNL A   1      47.503  28.793  26.595  1.00  0.00     0.135 A 
ATOM     63  C   UNL A   1      47.825  28.099  28.875  1.00  0.00     0.135 A 
ATOM     64  F   UNL A   1      46.782  29.399  25.639  1.00  0.00    -0.206 F 
ATOM     65  C   UNL A   1      48.672  28.142  26.220  1.00  0.00     0.059 A 
ATOM     66  C   UNL A   1      49.015  27.468  28.527  1.00  0.00     0.059 A 
ATOM     67  F   UNL A   1      47.429  28.042  30.156  1.00  0.00    -0.206 F 
ATOM     68  C   UNL A   1      49.420  27.479  27.193  1.00  0.00     0.060 A 
BRANCH  68  69
ATOM     69  S   UNL A   1      50.935  26.636  26.689  1.00  0.00     0.124 S 
ATOM     70  O   UNL A   1      50.464  25.265  26.525  1.00  0.00    -0.237 OA
ATOM     71  O   UNL A   1      51.290  27.336  25.458  1.00  0.00    -0.237 OA
ATOM     72  O   UNL A   1      51.837  26.860  27.815  1.00  0.00    -0.744 OA
ENDBRANCH  68  69
ENDBRANCH  47  61
BRANCH  48  73
ATOM     73  C   UNL A   1      38.205  32.610  30.715  1.00  0.00     0.058 A 
ATOM     74  C   UNL A   1      37.760  32.449  32.035  1.00  0.00     0.135 A 
ATOM     75  C   UNL A   1      37.390  33.337  29.835  1.00  0.00     0.135 A 
ATOM     76  F   UNL A   1      38.505  31.760  32.914  1.00  0.00    -0.206 F 
ATOM     77  C   UNL A   1      36.545  32.971  32.466  1.00  0.00     0.059 A 
ATOM     78  C   UNL A   1      36.179  33.888  30.247  1.00  0.00     0.059 A 
ATOM     79  F   UNL A   1      37.780  33.537  28.566  1.00  0.00    -0.206 F 
ATOM     80  C   UNL A   1      35.761  33.691  31.562  1.00  0.00     0.060 A 
BRANCH  80  81
ATOM     81  S   UNL A   1      34.206  34.406  32.144  1.00  0.00     0.124 S 
ATOM     82  O   UNL A   1      33.500  34.633  30.889  1.00  0.00    -0.237 OA
ATOM     83  O   UNL A   1      33.677  33.342  32.991  1.00  0.00    -0.237 OA
ATOM     84  O   UNL A   1      34.637  35.606  32.855  1.00  0.00    -0.744 OA
ENDBRANCH  80  81
ENDBRANCH  48  73
BRANCH  60  85
ATOM     85  C   UNL A   1      44.684  35.156  30.313  1.00  0.00     0.058 A 
ATOM     86  C   UNL A   1      44.715  36.162  29.336  1.00  0.00     0.135 A 
ATOM     87  C   UNL A   1      45.154  35.469  31.599  1.00  0.00     0.135 A 
ATOM     88  F   UNL A   1      44.281  35.909  28.091  1.00  0.00    -0.206 F 
ATOM     89  C   UNL A   1      45.216  37.428  29.617  1.00  0.00     0.059 A 
ATOM     90  C   UNL A   1      45.635  36.735  31.909  1.00  0.00     0.059 A 
ATOM     91  F   UNL A   1      45.131  34.544  32.571  1.00  0.00    -0.206 F 
ATOM     92  C   UNL A   1      45.673  37.705  30.907  1.00  0.00     0.060 A 
BRANCH  92  93
ATOM     93  S   UNL A   1      46.292  39.361  31.270  1.00  0.00     0.124 S 
ATOM     94  O   UNL A   1      47.142  39.617  30.112  1.00  0.00    -0.237 OA
ATOM     95  O   UNL A   1      45.064  40.147  31.342  1.00  0.00    -0.237 OA
ATOM     96  O   UNL A   1      46.993  39.189  32.540  1.00  0.00    -0.744 OA
ENDBRANCH  92  93
ENDBRANCH  60  85
ENDBRANCH  34  35
ENDBRANCH  26  29
ENDBRANCH  24  25
ENDBRANCH  23  24
ENDBRANCH  22  23
ENDBRANCH   1  22
TORSDOF 21
ENDMDL
