MODEL 1
REMARK VINA RESULT:     -11.3      0.000      0.000
REMARK SMILES CCCc1cc2c(cc1Cl)C=C(C(=O)NCCCCNC(=O)c1ccc(-c3c4nc(c(-c5c(F)cc(S(=O)(=O)[O-])cc5F)c5ccc([nH]5)c(-c5c(F)cc(S(=O)(=O)[O-])cc5F)c5nc(c(-c6c(F)cc(S(=O)(=O)[O-])cc6F)c6ccc3[nH]6)C=C5)C=C4)cc1)[C@@H](C(F)(F)F)O2
REMARK SMILES IDX 18 1 17 2 16 3 15 4 13 5 14 6 12 8 4 9 5 10 9 11 6 12 8 13
REMARK SMILES IDX 10 14 7 15 94 16 11 17 89 18 3 19 2 20 1 21 90 22 91 23
REMARK SMILES IDX 92 24 93 25 19 26 20 27 21 28 22 30 23 31 24 32 88 33 25 34
REMARK SMILES IDX 87 35 26 36 27 37 28 38 81 39 29 40 86 41 80 42 82 43 30 44
REMARK SMILES IDX 85 45 79 46 78 47 31 49 65 50 44 51 64 52 45 53 48 54 63 55
REMARK SMILES IDX 83 56 46 57 47 58 62 60 84 61 49 62 32 63 33 64 42 65 34 66
REMARK SMILES IDX 35 67 41 68 43 69 36 70 37 71 38 72 39 73 40 74 66 75 67 76
REMARK SMILES IDX 76 77 68 78 69 79 75 80 77 81 70 82 71 83 72 84 73 85 74 86
REMARK SMILES IDX 50 87 51 88 60 89 52 90 53 91 59 92 61 93 54 94 55 95 56 96
REMARK SMILES IDX 57 97 58 98
REMARK H PARENT 15 7 20 29 82 48 48 59
REMARK Flexibility Score: inf
ROOT
ATOM      1  C   UNL A   1      33.848  28.763  25.949  1.00  0.00     0.023 C 
ENDROOT
BRANCH   1   2
ATOM      2  C   UNL A   1      32.949  29.672  25.104  1.00  0.00     0.023 C 
BRANCH   2   3
ATOM      3  C   UNL A   1      31.455  29.484  25.349  1.00  0.00     0.116 C 
BRANCH   3   4
ATOM      4  N   UNL A   1      30.829  28.647  24.340  1.00  0.00    -0.352 N 
ATOM      5  C   UNL A   1      30.914  27.357  23.936  1.00  0.00     0.251 C 
ATOM      6  O   UNL A   1      30.165  27.040  23.006  1.00  0.00    -0.270 OA
ATOM      7  H   UNL A   1      30.169  29.150  23.809  1.00  0.00     0.163 HD
BRANCH   5   8
ATOM      8  C   UNL A   1      31.825  26.329  24.524  1.00  0.00     0.067 C 
ATOM      9  C   UNL A   1      35.554  22.976  25.213  1.00  0.00    -0.026 A 
ATOM     10  C   UNL A   1      34.575  23.557  26.035  1.00  0.00     0.052 A 
ATOM     11  C   UNL A   1      35.593  23.354  23.862  1.00  0.00     0.045 A 
ATOM     12  C   UNL A   1      33.684  24.502  25.531  1.00  0.00     0.128 A 
ATOM     13  C   UNL A   1      34.679  24.288  23.353  1.00  0.00     0.032 A 
ATOM     14  Cl  UNL A   1      36.766  22.711  22.768  1.00  0.00    -0.084 Cl
ATOM     15  C   UNL A   1      33.726  24.873  24.191  1.00  0.00     0.019 A 
ATOM     16  O   UNL A   1      32.836  25.067  26.434  1.00  0.00    -0.475 OA
ATOM     17  C   UNL A   1      32.807  25.895  23.709  1.00  0.00     0.025 C 
ATOM     18  C   UNL A   1      31.667  25.749  25.901  1.00  0.00     0.314 C 
BRANCH   9  19
ATOM     19  C   UNL A   1      36.530  22.009  25.844  1.00  0.00     0.037 C 
BRANCH  19  20
ATOM     20  C   UNL A   1      37.996  22.437  25.707  1.00  0.00     0.001 C 
ATOM     21  C   UNL A   1      38.296  23.811  26.297  1.00  0.00     0.004 C 
ENDBRANCH  19  20
ENDBRANCH   9  19
BRANCH  18  22
ATOM     22  C   UNL A   1      30.462  24.800  26.017  1.00  0.00     0.429 C 
ATOM     23  F   UNL A   1      30.302  24.099  24.866  1.00  0.00    -0.167 F 
ATOM     24  F   UNL A   1      30.604  23.888  27.005  1.00  0.00    -0.167 F 
ATOM     25  F   UNL A   1      29.304  25.459  26.250  1.00  0.00    -0.167 F 
ENDBRANCH  18  22
ENDBRANCH   5   8
ENDBRANCH   3   4
ENDBRANCH   2   3
ENDBRANCH   1   2
BRANCH   1  26
ATOM     26  C   UNL A   1      33.631  28.839  27.461  1.00  0.00     0.116 C 
BRANCH  26  27
ATOM     27  N   UNL A   1      33.688  30.186  28.015  1.00  0.00    -0.352 N 
ATOM     28  C   UNL A   1      34.786  30.811  28.567  1.00  0.00     0.251 C 
ATOM     29  H   UNL A   1      32.852  30.705  27.993  1.00  0.00     0.163 HD
ATOM     30  O   UNL A   1      34.704  31.938  29.042  1.00  0.00    -0.269 OA
BRANCH  28  31
ATOM     31  C   UNL A   1      36.049  30.052  28.625  1.00  0.00     0.039 A 
ATOM     32  C   UNL A   1      36.475  29.511  29.839  1.00  0.00     0.014 A 
ATOM     33  C   UNL A   1      36.881  30.049  27.504  1.00  0.00     0.014 A 
ATOM     34  C   UNL A   1      37.805  29.128  29.980  1.00  0.00     0.010 A 
ATOM     35  C   UNL A   1      38.198  29.610  27.634  1.00  0.00     0.010 A 
ATOM     36  C   UNL A   1      38.687  29.215  28.890  1.00  0.00    -0.014 A 
BRANCH  36  37
ATOM     37  C   UNL A   1      40.138  28.994  29.104  1.00  0.00     0.031 A 
ATOM     38  C   UNL A   1      40.765  27.680  28.712  1.00  0.00     0.074 A 
ATOM     39  C   UNL A   1      40.905  29.992  29.579  1.00  0.00     0.049 A 
ATOM     40  N   UNL A   1      42.002  27.280  28.855  1.00  0.00    -0.248 NA
ATOM     41  C   UNL A   1      39.886  26.683  28.077  1.00  0.00     0.031 C 
ATOM     42  C   UNL A   1      40.423  31.323  29.951  1.00  0.00     0.029 A 
ATOM     43  N   UNL A   1      42.255  30.049  29.805  1.00  0.00    -0.354 N 
ATOM     44  C   UNL A   1      42.046  25.983  28.357  1.00  0.00     0.074 A 
ATOM     45  C   UNL A   1      40.707  25.655  27.917  1.00  0.00     0.031 C 
ATOM     46  C   UNL A   1      41.468  32.079  30.321  1.00  0.00     0.029 A 
ATOM     47  C   UNL A   1      42.683  31.272  30.261  1.00  0.00     0.049 A 
ATOM     48  H   UNL A   1      42.860  29.287  29.655  1.00  0.00     0.167 HD
ATOM     49  C   UNL A   1      43.106  25.144  28.269  1.00  0.00     0.037 A 
ATOM     50  C   UNL A   1      43.914  31.690  30.609  1.00  0.00     0.037 A 
ATOM     51  C   UNL A   1      44.443  25.484  28.673  1.00  0.00     0.049 A 
ATOM     52  C   UNL A   1      45.067  30.732  30.531  1.00  0.00     0.074 A 
ATOM     53  C   UNL A   1      45.585  24.702  28.623  1.00  0.00     0.029 A 
ATOM     54  N   UNL A   1      44.824  26.713  29.191  1.00  0.00    -0.354 N 
ATOM     55  N   UNL A   1      45.077  29.490  30.113  1.00  0.00    -0.248 NA
ATOM     56  C   UNL A   1      46.370  31.227  30.995  1.00  0.00     0.031 C 
ATOM     57  C   UNL A   1      46.653  25.453  29.129  1.00  0.00     0.029 A 
ATOM     58  C   UNL A   1      46.179  26.709  29.472  1.00  0.00     0.049 A 
ATOM     59  H   UNL A   1      44.218  27.475  29.337  1.00  0.00     0.167 HD
ATOM     60  C   UNL A   1      46.384  29.048  30.274  1.00  0.00     0.074 A 
ATOM     61  C   UNL A   1      47.142  30.165  30.803  1.00  0.00     0.031 C 
ATOM     62  C   UNL A   1      46.908  27.824  30.019  1.00  0.00     0.037 A 
BRANCH  49  63
ATOM     63  C   UNL A   1      42.858  23.766  27.726  1.00  0.00     0.058 A 
ATOM     64  C   UNL A   1      42.610  22.676  28.574  1.00  0.00     0.135 A 
ATOM     65  C   UNL A   1      42.831  23.542  26.340  1.00  0.00     0.135 A 
ATOM     66  F   UNL A   1      42.645  22.834  29.906  1.00  0.00    -0.206 F 
ATOM     67  C   UNL A   1      42.356  21.405  28.066  1.00  0.00     0.059 A 
ATOM     68  C   UNL A   1      42.564  22.283  25.809  1.00  0.00     0.059 A 
ATOM     69  F   UNL A   1      43.068  24.552  25.488  1.00  0.00    -0.206 F 
ATOM     70  C   UNL A   1      42.339  21.218  26.682  1.00  0.00     0.060 A 
BRANCH  70  71
ATOM     71  S   UNL A   1      42.009  19.565  26.036  1.00  0.00     0.124 S 
ATOM     72  O   UNL A   1      40.575  19.638  25.773  1.00  0.00    -0.237 OA
ATOM     73  O   UNL A   1      42.867  19.511  24.857  1.00  0.00    -0.237 OA
ATOM     74  O   UNL A   1      42.402  18.687  27.134  1.00  0.00    -0.744 OA
ENDBRANCH  70  71
ENDBRANCH  49  63
BRANCH  50  75
ATOM     75  C   UNL A   1      44.106  33.083  31.080  1.00  0.00     0.058 A 
ATOM     76  C   UNL A   1      44.305  34.129  30.169  1.00  0.00     0.135 A 
ATOM     77  C   UNL A   1      44.048  33.399  32.446  1.00  0.00     0.135 A 
ATOM     78  F   UNL A   1      44.373  33.870  28.855  1.00  0.00    -0.206 F 
ATOM     79  C   UNL A   1      44.436  35.446  30.595  1.00  0.00     0.059 A 
ATOM     80  C   UNL A   1      44.160  34.709  32.895  1.00  0.00     0.059 A 
ATOM     81  F   UNL A   1      43.847  32.429  33.351  1.00  0.00    -0.206 F 
ATOM     82  C   UNL A   1      44.357  35.726  31.961  1.00  0.00     0.060 A 
BRANCH  82  83
ATOM     83  S   UNL A   1      44.444  37.446  32.504  1.00  0.00     0.124 S 
ATOM     84  O   UNL A   1      45.777  37.500  33.093  1.00  0.00    -0.237 OA
ATOM     85  O   UNL A   1      44.269  38.177  31.253  1.00  0.00    -0.237 OA
ATOM     86  O   UNL A   1      43.331  37.554  33.444  1.00  0.00    -0.744 OA
ENDBRANCH  82  83
ENDBRANCH  50  75
BRANCH  62  87
ATOM     87  C   UNL A   1      48.361  27.630  30.328  1.00  0.00     0.058 A 
ATOM     88  C   UNL A   1      48.778  27.190  31.594  1.00  0.00     0.135 A 
ATOM     89  C   UNL A   1      49.342  27.855  29.350  1.00  0.00     0.135 A 
ATOM     90  F   UNL A   1      47.875  26.968  32.563  1.00  0.00    -0.206 F 
ATOM     91  C   UNL A   1      50.123  26.996  31.886  1.00  0.00     0.059 A 
ATOM     92  C   UNL A   1      50.691  27.654  29.616  1.00  0.00     0.059 A 
ATOM     93  F   UNL A   1      48.990  28.270  28.123  1.00  0.00    -0.206 F 
ATOM     94  C   UNL A   1      51.073  27.235  30.892  1.00  0.00     0.060 A 
BRANCH  94  95
ATOM     95  S   UNL A   1      52.817  26.964  31.273  1.00  0.00     0.124 S 
ATOM     96  O   UNL A   1      53.146  28.176  32.016  1.00  0.00    -0.237 OA
ATOM     97  O   UNL A   1      52.783  25.732  32.054  1.00  0.00    -0.237 OA
ATOM     98  O   UNL A   1      53.436  26.845  29.955  1.00  0.00    -0.744 OA
ENDBRANCH  94  95
ENDBRANCH  62  87
ENDBRANCH  36  37
ENDBRANCH  28  31
ENDBRANCH  26  27
ENDBRANCH   1  26
TORSDOF 17
ENDMDL
MODEL 2
REMARK VINA RESULT:     -11.3      1.716      8.408
REMARK SMILES CCCc1cc2c(cc1Cl)C=C(C(=O)NCCCCNC(=O)c1ccc(-c3c4nc(c(-c5c(F)cc(S(=O)(=O)[O-])cc5F)c5ccc([nH]5)c(-c5c(F)cc(S(=O)(=O)[O-])cc5F)c5nc(c(-c6c(F)cc(S(=O)(=O)[O-])cc6F)c6ccc3[nH]6)C=C5)C=C4)cc1)[C@@H](C(F)(F)F)O2
REMARK SMILES IDX 18 1 17 2 16 3 15 4 13 5 14 6 12 8 4 9 5 10 9 11 6 12 8 13
REMARK SMILES IDX 10 14 7 15 94 16 11 17 89 18 3 19 2 20 1 21 90 22 91 23
REMARK SMILES IDX 92 24 93 25 19 26 20 27 21 28 22 30 23 31 24 32 88 33 25 34
REMARK SMILES IDX 87 35 26 36 27 37 28 38 81 39 29 40 86 41 80 42 82 43 30 44
REMARK SMILES IDX 85 45 79 46 78 47 31 49 65 50 44 51 64 52 45 53 48 54 63 55
REMARK SMILES IDX 83 56 46 57 47 58 62 60 84 61 49 62 32 63 33 64 42 65 34 66
REMARK SMILES IDX 35 67 41 68 43 69 36 70 37 71 38 72 39 73 40 74 66 75 67 76
REMARK SMILES IDX 76 77 68 78 69 79 75 80 77 81 70 82 71 83 72 84 73 85 74 86
REMARK SMILES IDX 50 87 51 88 60 89 52 90 53 91 59 92 61 93 54 94 55 95 56 96
REMARK SMILES IDX 57 97 58 98
REMARK H PARENT 15 7 20 29 82 48 48 59
REMARK Flexibility Score: inf
ROOT
ATOM      1  C   UNL A   1      33.188  28.697  27.237  1.00  0.00     0.023 C 
ENDROOT
BRANCH   1   2
ATOM      2  C   UNL A   1      31.760  29.130  26.890  1.00  0.00     0.023 C 
BRANCH   2   3
ATOM      3  C   UNL A   1      31.640  29.918  25.589  1.00  0.00     0.116 C 
BRANCH   3   4
ATOM      4  N   UNL A   1      30.714  29.304  24.652  1.00  0.00    -0.352 N 
ATOM      5  C   UNL A   1      30.686  28.195  23.876  1.00  0.00     0.251 C 
ATOM      6  O   UNL A   1      29.658  28.039  23.209  1.00  0.00    -0.270 OA
ATOM      7  H   UNL A   1      29.890  29.835  24.557  1.00  0.00     0.163 HD
BRANCH   5   8
ATOM      8  C   UNL A   1      31.782  27.184  23.779  1.00  0.00     0.067 C 
ATOM      9  C   UNL A   1      34.866  23.270  24.668  1.00  0.00    -0.026 A 
ATOM     10  C   UNL A   1      34.688  24.175  23.609  1.00  0.00     0.052 A 
ATOM     11  C   UNL A   1      34.035  23.395  25.792  1.00  0.00     0.045 A 
ATOM     12  C   UNL A   1      33.698  25.153  23.661  1.00  0.00     0.128 A 
ATOM     13  C   UNL A   1      33.054  24.397  25.850  1.00  0.00     0.032 A 
ATOM     14  Cl  UNL A   1      34.159  22.325  27.143  1.00  0.00    -0.084 Cl
ATOM     15  C   UNL A   1      32.877  25.275  24.777  1.00  0.00     0.019 A 
ATOM     16  O   UNL A   1      33.553  25.919  22.543  1.00  0.00    -0.475 OA
ATOM     17  C   UNL A   1      31.825  26.281  24.778  1.00  0.00     0.025 C 
ATOM     18  C   UNL A   1      32.819  27.166  22.691  1.00  0.00     0.314 C 
BRANCH   9  19
ATOM     19  C   UNL A   1      35.914  22.192  24.514  1.00  0.00     0.037 C 
BRANCH  19  20
ATOM     20  C   UNL A   1      37.351  22.706  24.659  1.00  0.00     0.001 C 
ATOM     21  C   UNL A   1      37.539  23.701  25.799  1.00  0.00     0.004 C 
ENDBRANCH  19  20
ENDBRANCH   9  19
BRANCH  18  22
ATOM     22  C   UNL A   1      33.838  28.311  22.816  1.00  0.00     0.429 C 
ATOM     23  F   UNL A   1      34.428  28.286  24.039  1.00  0.00    -0.167 F 
ATOM     24  F   UNL A   1      34.836  28.229  21.908  1.00  0.00    -0.167 F 
ATOM     25  F   UNL A   1      33.268  29.530  22.670  1.00  0.00    -0.167 F 
ENDBRANCH  18  22
ENDBRANCH   5   8
ENDBRANCH   3   4
ENDBRANCH   2   3
ENDBRANCH   1   2
BRANCH   1  26
ATOM     26  C   UNL A   1      34.254  29.789  27.138  1.00  0.00     0.116 C 
BRANCH  26  27
ATOM     27  N   UNL A   1      34.280  30.714  28.265  1.00  0.00    -0.352 N 
ATOM     28  C   UNL A   1      35.318  30.917  29.150  1.00  0.00     0.251 C 
ATOM     29  H   UNL A   1      33.467  31.251  28.410  1.00  0.00     0.163 HD
ATOM     30  O   UNL A   1      35.209  31.696  30.089  1.00  0.00    -0.269 OA
BRANCH  28  31
ATOM     31  C   UNL A   1      36.542  30.116  28.964  1.00  0.00     0.039 A 
ATOM     32  C   UNL A   1      37.117  29.468  30.058  1.00  0.00     0.014 A 
ATOM     33  C   UNL A   1      37.201  30.175  27.734  1.00  0.00     0.014 A 
ATOM     34  C   UNL A   1      38.435  29.033  29.972  1.00  0.00     0.010 A 
ATOM     35  C   UNL A   1      38.503  29.684  27.635  1.00  0.00     0.010 A 
ATOM     36  C   UNL A   1      39.152  29.177  28.772  1.00  0.00    -0.014 A 
BRANCH  36  37
ATOM     37  C   UNL A   1      40.608  28.894  28.751  1.00  0.00     0.031 A 
ATOM     38  C   UNL A   1      41.586  29.944  29.211  1.00  0.00     0.074 A 
ATOM     39  C   UNL A   1      41.047  27.674  28.390  1.00  0.00     0.049 A 
ATOM     40  N   UNL A   1      42.894  29.903  29.229  1.00  0.00    -0.248 NA
ATOM     41  C   UNL A   1      41.022  31.207  29.715  1.00  0.00     0.031 C 
ATOM     42  C   UNL A   1      40.195  26.560  27.969  1.00  0.00     0.029 A 
ATOM     43  N   UNL A   1      42.317  27.161  28.346  1.00  0.00    -0.354 N 
ATOM     44  C   UNL A   1      43.309  31.136  29.718  1.00  0.00     0.074 A 
ATOM     45  C   UNL A   1      42.115  31.912  29.974  1.00  0.00     0.031 C 
ATOM     46  C   UNL A   1      40.963  25.483  27.747  1.00  0.00     0.029 A 
ATOM     47  C   UNL A   1      42.362  25.843  27.960  1.00  0.00     0.049 A 
ATOM     48  H   UNL A   1      43.119  27.686  28.568  1.00  0.00     0.167 HD
ATOM     49  C   UNL A   1      44.570  31.580  29.938  1.00  0.00     0.037 A 
ATOM     50  C   UNL A   1      43.414  25.023  27.782  1.00  0.00     0.037 A 
ATOM     51  C   UNL A   1      45.754  30.795  29.717  1.00  0.00     0.049 A 
ATOM     52  C   UNL A   1      44.803  25.547  28.004  1.00  0.00     0.074 A 
ATOM     53  C   UNL A   1      47.077  31.156  29.912  1.00  0.00     0.029 A 
ATOM     54  N   UNL A   1      45.760  29.485  29.265  1.00  0.00    -0.354 N 
ATOM     55  N   UNL A   1      45.177  26.736  28.409  1.00  0.00    -0.248 NA
ATOM     56  C   UNL A   1      45.910  24.626  27.720  1.00  0.00     0.031 C 
ATOM     57  C   UNL A   1      47.884  30.068  29.558  1.00  0.00     0.029 A 
ATOM     58  C   UNL A   1      47.062  29.024  29.167  1.00  0.00     0.049 A 
ATOM     59  H   UNL A   1      44.957  28.959  29.047  1.00  0.00     0.167 HD
ATOM     60  C   UNL A   1      46.567  26.711  28.418  1.00  0.00     0.074 A 
ATOM     61  C   UNL A   1      46.965  25.380  28.004  1.00  0.00     0.031 C 
ATOM     62  C   UNL A   1      47.436  27.704  28.731  1.00  0.00     0.037 A 
BRANCH  49  63
ATOM     63  C   UNL A   1      44.734  32.989  30.432  1.00  0.00     0.058 A 
ATOM     64  C   UNL A   1      44.837  33.280  31.800  1.00  0.00     0.135 A 
ATOM     65  C   UNL A   1      44.826  34.055  29.523  1.00  0.00     0.135 A 
ATOM     66  F   UNL A   1      44.733  32.299  32.710  1.00  0.00    -0.206 F 
ATOM     67  C   UNL A   1      45.013  34.584  32.253  1.00  0.00     0.059 A 
ATOM     68  C   UNL A   1      45.017  35.365  29.952  1.00  0.00     0.059 A 
ATOM     69  F   UNL A   1      44.727  33.827  28.204  1.00  0.00    -0.206 F 
ATOM     70  C   UNL A   1      45.098  35.621  31.321  1.00  0.00     0.060 A 
BRANCH  70  71
ATOM     71  S   UNL A   1      45.327  37.308  31.920  1.00  0.00     0.124 S 
ATOM     72  O   UNL A   1      44.246  37.418  32.895  1.00  0.00    -0.237 OA
ATOM     73  O   UNL A   1      46.677  37.265  32.473  1.00  0.00    -0.237 OA
ATOM     74  O   UNL A   1      45.172  38.120  30.716  1.00  0.00    -0.744 OA
ENDBRANCH  70  71
ENDBRANCH  49  63
BRANCH  50  75
ATOM     75  C   UNL A   1      43.184  23.622  27.352  1.00  0.00     0.058 A 
ATOM     76  C   UNL A   1      42.823  22.636  28.280  1.00  0.00     0.135 A 
ATOM     77  C   UNL A   1      43.276  23.257  26.001  1.00  0.00     0.135 A 
ATOM     78  F   UNL A   1      42.729  22.943  29.583  1.00  0.00    -0.206 F 
ATOM     79  C   UNL A   1      42.555  21.331  27.883  1.00  0.00     0.059 A 
ATOM     80  C   UNL A   1      42.997  21.963  25.578  1.00  0.00     0.059 A 
ATOM     81  F   UNL A   1      43.607  24.173  25.078  1.00  0.00    -0.206 F 
ATOM     82  C   UNL A   1      42.640  21.006  26.528  1.00  0.00     0.060 A 
BRANCH  82  83
ATOM     83  S   UNL A   1      42.211  19.331  26.005  1.00  0.00     0.124 S 
ATOM     84  O   UNL A   1      40.768  19.440  25.828  1.00  0.00    -0.237 OA
ATOM     85  O   UNL A   1      42.995  19.176  24.783  1.00  0.00    -0.237 OA
ATOM     86  O   UNL A   1      42.652  18.510  27.130  1.00  0.00    -0.744 OA
ENDBRANCH  82  83
ENDBRANCH  50  75
BRANCH  62  87
ATOM     87  C   UNL A   1      48.896  27.389  28.615  1.00  0.00     0.058 A 
ATOM     88  C   UNL A   1      49.599  27.645  27.427  1.00  0.00     0.135 A 
ATOM     89  C   UNL A   1      49.606  26.856  29.701  1.00  0.00     0.135 A 
ATOM     90  F   UNL A   1      48.959  28.149  26.359  1.00  0.00    -0.206 F 
ATOM     91  C   UNL A   1      50.956  27.367  27.315  1.00  0.00     0.059 A 
ATOM     92  C   UNL A   1      50.966  26.583  29.615  1.00  0.00     0.059 A 
ATOM     93  F   UNL A   1      48.977  26.600  30.859  1.00  0.00    -0.206 F 
ATOM     94  C   UNL A   1      51.630  26.832  28.413  1.00  0.00     0.060 A 
BRANCH  94  95
ATOM     95  S   UNL A   1      53.397  26.490  28.266  1.00  0.00     0.124 S 
ATOM     96  O   UNL A   1      53.726  26.060  29.621  1.00  0.00    -0.237 OA
ATOM     97  O   UNL A   1      53.434  25.448  27.244  1.00  0.00    -0.237 OA
ATOM     98  O   UNL A   1      53.957  27.776  27.860  1.00  0.00    -0.744 OA
ENDBRANCH  94  95
ENDBRANCH  62  87
ENDBRANCH  36  37
ENDBRANCH  28  31
ENDBRANCH  26  27
ENDBRANCH   1  26
TORSDOF 17
ENDMDL
MODEL 3
REMARK VINA RESULT:     -11.3      1.556      8.297
REMARK SMILES CCCc1cc2c(cc1Cl)C=C(C(=O)NCCCCNC(=O)c1ccc(-c3c4nc(c(-c5c(F)cc(S(=O)(=O)[O-])cc5F)c5ccc([nH]5)c(-c5c(F)cc(S(=O)(=O)[O-])cc5F)c5nc(c(-c6c(F)cc(S(=O)(=O)[O-])cc6F)c6ccc3[nH]6)C=C5)C=C4)cc1)[C@@H](C(F)(F)F)O2
REMARK SMILES IDX 18 1 17 2 16 3 15 4 13 5 14 6 12 8 4 9 5 10 9 11 6 12 8 13
REMARK SMILES IDX 10 14 7 15 94 16 11 17 89 18 3 19 2 20 1 21 90 22 91 23
REMARK SMILES IDX 92 24 93 25 19 26 20 27 21 28 22 30 23 31 24 32 88 33 25 34
REMARK SMILES IDX 87 35 26 36 27 37 28 38 81 39 29 40 86 41 80 42 82 43 30 44
REMARK SMILES IDX 85 45 79 46 78 47 31 49 65 50 44 51 64 52 45 53 48 54 63 55
REMARK SMILES IDX 83 56 46 57 47 58 62 60 84 61 49 62 32 63 33 64 42 65 34 66
REMARK SMILES IDX 35 67 41 68 43 69 36 70 37 71 38 72 39 73 40 74 66 75 67 76
REMARK SMILES IDX 76 77 68 78 69 79 75 80 77 81 70 82 71 83 72 84 73 85 74 86
REMARK SMILES IDX 50 87 51 88 60 89 52 90 53 91 59 92 61 93 54 94 55 95 56 96
REMARK SMILES IDX 57 97 58 98
REMARK H PARENT 15 7 20 29 82 48 48 59
REMARK Flexibility Score: inf
ROOT
ATOM      1  C   UNL A   1      33.211  28.857  27.309  1.00  0.00     0.023 C 
ENDROOT
BRANCH   1   2
ATOM      2  C   UNL A   1      31.865  29.290  26.718  1.00  0.00     0.023 C 
BRANCH   2   3
ATOM      3  C   UNL A   1      31.892  29.544  25.214  1.00  0.00     0.116 C 
BRANCH   3   4
ATOM      4  N   UNL A   1      30.984  28.671  24.488  1.00  0.00    -0.352 N 
ATOM      5  C   UNL A   1      30.865  27.341  24.261  1.00  0.00     0.251 C 
ATOM      6  O   UNL A   1      29.901  27.005  23.566  1.00  0.00    -0.270 OA
ATOM      7  H   UNL A   1      30.267  29.180  24.045  1.00  0.00     0.163 HD
BRANCH   5   8
ATOM      8  C   UNL A   1      31.795  26.292  24.779  1.00  0.00     0.067 C 
ATOM      9  C   UNL A   1      35.597  22.985  25.258  1.00  0.00    -0.026 A 
ATOM     10  C   UNL A   1      34.593  23.476  26.108  1.00  0.00     0.052 A 
ATOM     11  C   UNL A   1      35.644  23.469  23.941  1.00  0.00     0.045 A 
ATOM     12  C   UNL A   1      33.686  24.436  25.666  1.00  0.00     0.128 A 
ATOM     13  C   UNL A   1      34.713  24.419  23.494  1.00  0.00     0.032 A 
ATOM     14  Cl  UNL A   1      36.846  22.943  22.817  1.00  0.00    -0.084 Cl
ATOM     15  C   UNL A   1      33.735  24.912  24.361  1.00  0.00     0.019 A 
ATOM     16  O   UNL A   1      32.812  24.908  26.599  1.00  0.00    -0.475 OA
ATOM     17  C   UNL A   1      32.797  25.947  23.948  1.00  0.00     0.025 C 
ATOM     18  C   UNL A   1      31.633  25.602  26.104  1.00  0.00     0.314 C 
BRANCH   9  19
ATOM     19  C   UNL A   1      36.588  21.995  25.825  1.00  0.00     0.037 C 
BRANCH  19  20
ATOM     20  C   UNL A   1      37.929  22.626  26.221  1.00  0.00     0.001 C 
ATOM     21  C   UNL A   1      39.135  21.733  25.951  1.00  0.00     0.004 C 
ENDBRANCH  19  20
ENDBRANCH   9  19
BRANCH  18  22
ATOM     22  C   UNL A   1      30.451  24.618  26.127  1.00  0.00     0.429 C 
ATOM     23  F   UNL A   1      29.289  25.282  26.349  1.00  0.00    -0.167 F 
ATOM     24  F   UNL A   1      30.297  23.954  24.959  1.00  0.00    -0.167 F 
ATOM     25  F   UNL A   1      30.573  23.685  27.100  1.00  0.00    -0.167 F 
ENDBRANCH  18  22
ENDBRANCH   5   8
ENDBRANCH   3   4
ENDBRANCH   2   3
ENDBRANCH   1   2
BRANCH   1  26
ATOM     26  C   UNL A   1      34.320  29.909  27.271  1.00  0.00     0.116 C 
BRANCH  26  27
ATOM     27  N   UNL A   1      34.409  30.740  28.465  1.00  0.00    -0.352 N 
ATOM     28  C   UNL A   1      35.475  30.835  29.334  1.00  0.00     0.251 C 
ATOM     29  H   UNL A   1      33.621  31.293  28.675  1.00  0.00     0.163 HD
ATOM     30  O   UNL A   1      35.420  31.540  30.335  1.00  0.00    -0.269 OA
BRANCH  28  31
ATOM     31  C   UNL A   1      36.663  30.007  29.053  1.00  0.00     0.039 A 
ATOM     32  C   UNL A   1      37.330  29.375  30.103  1.00  0.00     0.014 A 
ATOM     33  C   UNL A   1      37.202  30.025  27.764  1.00  0.00     0.014 A 
ATOM     34  C   UNL A   1      38.626  28.913  29.902  1.00  0.00     0.010 A 
ATOM     35  C   UNL A   1      38.480  29.508  27.554  1.00  0.00     0.010 A 
ATOM     36  C   UNL A   1      39.227  29.016  28.636  1.00  0.00    -0.014 A 
BRANCH  36  37
ATOM     37  C   UNL A   1      40.670  28.706  28.483  1.00  0.00     0.031 A 
ATOM     38  C   UNL A   1      41.704  29.757  28.797  1.00  0.00     0.074 A 
ATOM     39  C   UNL A   1      41.054  27.464  28.134  1.00  0.00     0.049 A 
ATOM     40  N   UNL A   1      43.006  29.692  28.687  1.00  0.00    -0.248 NA
ATOM     41  C   UNL A   1      41.210  31.050  29.299  1.00  0.00     0.031 C 
ATOM     42  C   UNL A   1      40.149  26.349  27.849  1.00  0.00     0.029 A 
ATOM     43  N   UNL A   1      42.305  26.927  27.986  1.00  0.00    -0.354 N 
ATOM     44  C   UNL A   1      43.485  30.938  29.078  1.00  0.00     0.074 A 
ATOM     45  C   UNL A   1      42.333  31.745  29.417  1.00  0.00     0.031 C 
ATOM     46  C   UNL A   1      40.876  25.249  27.599  1.00  0.00     0.029 A 
ATOM     47  C   UNL A   1      42.293  25.594  27.657  1.00  0.00     0.049 A 
ATOM     48  H   UNL A   1      43.133  27.446  28.105  1.00  0.00     0.167 HD
ATOM     49  C   UNL A   1      44.767  31.368  29.152  1.00  0.00     0.037 A 
ATOM     50  C   UNL A   1      43.311  24.747  27.411  1.00  0.00     0.037 A 
ATOM     51  C   UNL A   1      45.913  30.553  28.849  1.00  0.00     0.049 A 
ATOM     52  C   UNL A   1      44.722  25.255  27.471  1.00  0.00     0.074 A 
ATOM     53  C   UNL A   1      47.253  30.898  28.896  1.00  0.00     0.029 A 
ATOM     54  N   UNL A   1      45.855  29.224  28.457  1.00  0.00    -0.354 N 
ATOM     55  N   UNL A   1      45.152  26.453  27.784  1.00  0.00    -0.248 NA
ATOM     56  C   UNL A   1      45.783  24.302  27.119  1.00  0.00     0.031 C 
ATOM     57  C   UNL A   1      48.006  29.781  28.512  1.00  0.00     0.029 A 
ATOM     58  C   UNL A   1      47.134  28.736  28.250  1.00  0.00     0.049 A 
ATOM     59  H   UNL A   1      45.027  28.705  28.343  1.00  0.00     0.167 HD
ATOM     60  C   UNL A   1      46.535  26.403  27.657  1.00  0.00     0.074 A 
ATOM     61  C   UNL A   1      46.871  25.048  27.264  1.00  0.00     0.031 C 
ATOM     62  C   UNL A   1      47.444  27.392  27.837  1.00  0.00     0.037 A 
BRANCH  49  63
ATOM     63  C   UNL A   1      44.999  32.793  29.565  1.00  0.00     0.058 A 
ATOM     64  C   UNL A   1      45.004  33.837  28.628  1.00  0.00     0.135 A 
ATOM     65  C   UNL A   1      45.182  33.121  30.918  1.00  0.00     0.135 A 
ATOM     66  F   UNL A   1      44.854  33.573  27.321  1.00  0.00    -0.206 F 
ATOM     67  C   UNL A   1      45.195  35.160  29.017  1.00  0.00     0.059 A 
ATOM     68  C   UNL A   1      45.360  34.438  31.331  1.00  0.00     0.059 A 
ATOM     69  F   UNL A   1      45.192  32.156  31.851  1.00  0.00    -0.206 F 
ATOM     70  C   UNL A   1      45.376  35.450  30.371  1.00  0.00     0.060 A 
BRANCH  70  71
ATOM     71  S   UNL A   1      45.623  37.169  30.863  1.00  0.00     0.124 S 
ATOM     72  O   UNL A   1      44.260  37.686  30.804  1.00  0.00    -0.237 OA
ATOM     73  O   UNL A   1      46.192  37.035  32.200  1.00  0.00    -0.237 OA
ATOM     74  O   UNL A   1      46.536  37.685  29.846  1.00  0.00    -0.744 OA
ENDBRANCH  70  71
ENDBRANCH  49  63
BRANCH  50  75
ATOM     75  C   UNL A   1      43.019  23.334  27.069  1.00  0.00     0.058 A 
ATOM     76  C   UNL A   1      43.122  22.879  25.748  1.00  0.00     0.135 A 
ATOM     77  C   UNL A   1      42.677  22.405  28.063  1.00  0.00     0.135 A 
ATOM     78  F   UNL A   1      43.442  23.736  24.766  1.00  0.00    -0.206 F 
ATOM     79  C   UNL A   1      42.900  21.546  25.421  1.00  0.00     0.059 A 
ATOM     80  C   UNL A   1      42.466  21.065  27.763  1.00  0.00     0.059 A 
ATOM     81  F   UNL A   1      42.579  22.796  29.343  1.00  0.00    -0.206 F 
ATOM     82  C   UNL A   1      42.577  20.645  26.438  1.00  0.00     0.060 A 
BRANCH  82  83
ATOM     83  S   UNL A   1      42.370  18.900  26.023  1.00  0.00     0.124 S 
ATOM     84  O   UNL A   1      40.967  18.856  25.631  1.00  0.00    -0.237 OA
ATOM     85  O   UNL A   1      43.341  18.719  24.947  1.00  0.00    -0.237 OA
ATOM     86  O   UNL A   1      42.701  18.221  27.273  1.00  0.00    -0.744 OA
ENDBRANCH  82  83
ENDBRANCH  50  75
BRANCH  62  87
ATOM     87  C   UNL A   1      48.881  27.046  27.591  1.00  0.00     0.058 A 
ATOM     88  C   UNL A   1      49.654  26.421  28.582  1.00  0.00     0.135 A 
ATOM     89  C   UNL A   1      49.483  27.311  26.352  1.00  0.00     0.135 A 
ATOM     90  F   UNL A   1      49.121  26.155  29.786  1.00  0.00    -0.206 F 
ATOM     91  C   UNL A   1      50.984  26.087  28.358  1.00  0.00     0.059 A 
ATOM     92  C   UNL A   1      50.808  26.971  26.102  1.00  0.00     0.059 A 
ATOM     93  F   UNL A   1      48.781  27.901  25.372  1.00  0.00    -0.206 F 
ATOM     94  C   UNL A   1      51.554  26.369  27.116  1.00  0.00     0.060 A 
BRANCH  94  95
ATOM     95  S   UNL A   1      53.277  25.914  26.826  1.00  0.00     0.124 S 
ATOM     96  O   UNL A   1      53.841  26.037  28.167  1.00  0.00    -0.237 OA
ATOM     97  O   UNL A   1      53.163  24.554  26.310  1.00  0.00    -0.237 OA
ATOM     98  O   UNL A   1      53.731  26.909  25.859  1.00  0.00    -0.744 OA
ENDBRANCH  94  95
ENDBRANCH  62  87
ENDBRANCH  36  37
ENDBRANCH  28  31
ENDBRANCH  26  27
ENDBRANCH   1  26
TORSDOF 17
ENDMDL
