MODEL 1
REMARK VINA RESULT:     -12.6      0.000      0.000
REMARK SMILES CN1C(=O)/C(=C\c2ccc(C(=O)Nc3ccc(O)cc3C(=O)NCCCCNC(=O)c3ccc(-c4c5nc(c(-c6c(F)cc(S(=O)(=O)[O-])cc6F)c6ccc([nH]6)c(-c6c(F)cc(S(=O)(=O)[O-])cc6F)c6nc(c(-c7c(F)cc(S(=O)(=O)[O-])cc7F)c7ccc4[nH]7)C=C6)C=C5)cc3)cc2)SC1=S
REMARK SMILES IDX 25 1 24 2 23 3 21 4 22 5 20 7 14 8 15 9 16 10 19 11 17 12
REMARK SMILES IDX 13 13 11 14 12 15 10 17 7 18 8 19 98 20 9 21 97 22 6 23 1 24
REMARK SMILES IDX 2 25 3 26 100 27 4 28 5 29 99 30 101 31 18 32 26 34 27 35
REMARK SMILES IDX 28 36 29 37 30 39 31 40 32 41 96 42 33 43 95 44 34 45 35 46
REMARK SMILES IDX 36 47 89 48 37 49 94 50 88 51 90 52 38 53 93 54 87 55 86 56
REMARK SMILES IDX 39 58 73 59 52 60 72 61 53 62 56 63 71 64 91 65 54 66 55 67
REMARK SMILES IDX 70 69 92 70 57 71 40 72 41 73 50 74 42 75 43 76 49 77 51 78
REMARK SMILES IDX 44 79 45 80 46 81 47 82 48 83 74 84 75 85 84 86 76 87 77 88
REMARK SMILES IDX 83 89 85 90 78 91 79 92 80 93 81 94 82 95 58 96 59 97 68 98
REMARK SMILES IDX 60 99 61 100 67 101 69 102 62 103 63 104 64 105 65 106
REMARK SMILES IDX 66 107
REMARK H PARENT 23 6 13 16 18 33 28 38 90 57 56 68
REMARK Flexibility Score: inf
ROOT
ATOM      1  C   UNL A   1      39.402  21.319  25.710  1.00  0.00     0.023 C 
ENDROOT
BRANCH   1   2
ATOM      2  C   UNL A   1      37.957  21.788  25.782  1.00  0.00     0.116 C 
BRANCH   2   3
ATOM      3  N   UNL A   1      37.420  22.352  24.563  1.00  0.00    -0.352 N 
ATOM      4  C   UNL A   1      36.141  22.764  24.267  1.00  0.00     0.253 C 
ATOM      5  O   UNL A   1      35.944  23.243  23.147  1.00  0.00    -0.269 OA
ATOM      6  H   UNL A   1      38.070  22.457  23.831  1.00  0.00     0.163 HD
BRANCH   4   7
ATOM      7  C   UNL A   1      34.966  22.588  25.186  1.00  0.00     0.067 A 
ATOM      8  C   UNL A   1      33.642  22.229  24.854  1.00  0.00     0.054 A 
ATOM      9  C   UNL A   1      32.636  22.327  25.835  1.00  0.00     0.031 A 
ATOM     10  C   UNL A   1      32.959  22.545  27.172  1.00  0.00     0.048 A 
ATOM     11  C   UNL A   1      35.276  22.770  26.554  1.00  0.00     0.062 A 
ATOM     12  C   UNL A   1      34.286  22.699  27.529  1.00  0.00     0.116 A 
BRANCH   8  13
ATOM     13  N   UNL A   1      33.192  21.609  23.669  1.00  0.00    -0.321 N 
ATOM     14  C   UNL A   1      32.327  22.049  22.687  1.00  0.00     0.255 C 
ATOM     15  O   UNL A   1      31.971  21.255  21.816  1.00  0.00    -0.269 OA
ATOM     16  H   UNL A   1      33.557  20.706  23.517  1.00  0.00     0.170 HD
BRANCH  14  17
ATOM     17  C   UNL A   1      31.853  23.451  22.631  1.00  0.00     0.040 A 
ATOM     18  C   UNL A   1      31.013  26.108  22.559  1.00  0.00    -0.024 A 
ATOM     19  C   UNL A   1      32.242  25.754  21.991  1.00  0.00     0.009 A 
ATOM     20  C   UNL A   1      30.185  25.126  23.105  1.00  0.00     0.009 A 
ATOM     21  C   UNL A   1      32.655  24.419  22.014  1.00  0.00     0.014 A 
ATOM     22  C   UNL A   1      30.649  23.827  23.228  1.00  0.00     0.014 A 
BRANCH  18  23
ATOM     23  C   UNL A   1      30.668  27.509  22.793  1.00  0.00     0.029 C 
ATOM     24  C   UNL A   1      33.244  28.256  26.918  1.00  0.00     0.155 C 
ATOM     25  N   UNL A   1      32.301  28.603  25.867  1.00  0.00    -0.296 N 
ATOM     26  C   UNL A   1      31.905  27.595  25.016  1.00  0.00     0.265 C 
ATOM     27  C   UNL A   1      31.721  29.834  25.678  1.00  0.00     0.148 C 
ATOM     28  O   UNL A   1      32.177  26.419  25.200  1.00  0.00    -0.268 OA
ATOM     29  C   UNL A   1      31.066  28.149  23.905  1.00  0.00     0.081 C 
ATOM     30  S   UNL A   1      30.707  29.802  24.236  1.00  0.00    -0.054 SA
ATOM     31  S   UNL A   1      31.881  31.191  26.633  1.00  0.00    -0.052 S 
ENDBRANCH  18  23
ENDBRANCH  14  17
ENDBRANCH   8  13
BRANCH  12  32
ATOM     32  O   UNL A   1      34.585  22.760  28.856  1.00  0.00    -0.508 OA
ATOM     33  H   UNL A   1      34.283  22.089  29.435  1.00  0.00     0.293 HD
ENDBRANCH  12  32
ENDBRANCH   4   7
ENDBRANCH   2   3
ENDBRANCH   1   2
BRANCH   1  34
ATOM     34  C   UNL A   1      40.349  21.880  26.773  1.00  0.00     0.023 C 
BRANCH  34  35
ATOM     35  C   UNL A   1      40.261  23.377  27.073  1.00  0.00     0.116 C 
BRANCH  35  36
ATOM     36  N   UNL A   1      40.773  24.236  26.013  1.00  0.00    -0.352 N 
ATOM     37  C   UNL A   1      41.152  25.561  26.055  1.00  0.00     0.251 C 
ATOM     38  H   UNL A   1      40.863  23.804  25.133  1.00  0.00     0.163 HD
ATOM     39  O   UNL A   1      41.466  26.149  25.023  1.00  0.00    -0.269 OA
BRANCH  37  40
ATOM     40  C   UNL A   1      41.141  26.290  27.342  1.00  0.00     0.039 A 
ATOM     41  C   UNL A   1      42.171  27.190  27.624  1.00  0.00     0.014 A 
ATOM     42  C   UNL A   1      40.095  26.116  28.251  1.00  0.00     0.014 A 
ATOM     43  C   UNL A   1      42.091  27.998  28.764  1.00  0.00     0.010 A 
ATOM     44  C   UNL A   1      39.973  26.981  29.336  1.00  0.00     0.010 A 
ATOM     45  C   UNL A   1      40.961  27.944  29.597  1.00  0.00    -0.014 A 
BRANCH  45  46
ATOM     46  C   UNL A   1      40.779  28.905  30.719  1.00  0.00     0.031 A 
ATOM     47  C   UNL A   1      41.628  28.799  31.960  1.00  0.00     0.074 A 
ATOM     48  C   UNL A   1      39.797  29.828  30.655  1.00  0.00     0.049 A 
ATOM     49  N   UNL A   1      41.570  29.502  33.061  1.00  0.00    -0.248 NA
ATOM     50  C   UNL A   1      42.656  27.747  31.975  1.00  0.00     0.031 C 
ATOM     51  C   UNL A   1      38.868  30.003  29.534  1.00  0.00     0.029 A 
ATOM     52  N   UNL A   1      39.406  30.792  31.553  1.00  0.00    -0.354 N 
ATOM     53  C   UNL A   1      42.538  28.968  33.905  1.00  0.00     0.074 A 
ATOM     54  C   UNL A   1      43.134  27.851  33.208  1.00  0.00     0.031 C 
ATOM     55  C   UNL A   1      38.043  31.028  29.797  1.00  0.00     0.029 A 
ATOM     56  C   UNL A   1      38.348  31.560  31.121  1.00  0.00     0.049 A 
ATOM     57  H   UNL A   1      39.843  30.922  32.425  1.00  0.00     0.167 HD
ATOM     58  C   UNL A   1      42.910  29.385  35.138  1.00  0.00     0.037 A 
ATOM     59  C   UNL A   1      37.692  32.571  31.724  1.00  0.00     0.037 A 
ATOM     60  C   UNL A   1      42.337  30.521  35.815  1.00  0.00     0.049 A 
ATOM     61  C   UNL A   1      38.125  33.011  33.098  1.00  0.00     0.074 A 
ATOM     62  C   UNL A   1      42.703  31.068  37.032  1.00  0.00     0.029 A 
ATOM     63  N   UNL A   1      41.278  31.278  35.339  1.00  0.00    -0.354 N 
ATOM     64  N   UNL A   1      39.098  32.545  33.844  1.00  0.00    -0.248 NA
ATOM     65  C   UNL A   1      37.375  34.118  33.710  1.00  0.00     0.031 C 
ATOM     66  C   UNL A   1      41.829  32.121  37.319  1.00  0.00     0.029 A 
ATOM     67  C   UNL A   1      40.957  32.269  36.252  1.00  0.00     0.049 A 
ATOM     68  H   UNL A   1      40.821  31.134  34.479  1.00  0.00     0.167 HD
ATOM     69  C   UNL A   1      39.098  33.325  34.997  1.00  0.00     0.074 A 
ATOM     70  C   UNL A   1      38.038  34.297  34.844  1.00  0.00     0.031 C 
ATOM     71  C   UNL A   1      39.907  33.243  36.083  1.00  0.00     0.037 A 
BRANCH  58  72
ATOM     72  C   UNL A   1      43.992  28.614  35.846  1.00  0.00     0.058 A 
ATOM     73  C   UNL A   1      45.351  28.921  35.676  1.00  0.00     0.135 A 
ATOM     74  C   UNL A   1      43.662  27.591  36.751  1.00  0.00     0.135 A 
ATOM     75  F   UNL A   1      45.726  29.880  34.813  1.00  0.00    -0.206 F 
ATOM     76  C   UNL A   1      46.346  28.230  36.360  1.00  0.00     0.059 A 
ATOM     77  C   UNL A   1      44.638  26.907  37.468  1.00  0.00     0.059 A 
ATOM     78  F   UNL A   1      42.378  27.255  36.952  1.00  0.00    -0.206 F 
ATOM     79  C   UNL A   1      45.978  27.226  37.258  1.00  0.00     0.060 A 
BRANCH  79  80
ATOM     80  S   UNL A   1      47.280  26.354  38.154  1.00  0.00     0.124 S 
ATOM     81  O   UNL A   1      48.444  26.630  37.318  1.00  0.00    -0.237 OA
ATOM     82  O   UNL A   1      47.262  27.017  39.453  1.00  0.00    -0.237 OA
ATOM     83  O   UNL A   1      46.824  24.967  38.154  1.00  0.00    -0.744 OA
ENDBRANCH  79  80
ENDBRANCH  58  72
BRANCH  59  84
ATOM     84  C   UNL A   1      36.568  33.261  31.030  1.00  0.00     0.058 A 
ATOM     85  C   UNL A   1      36.811  34.128  29.954  1.00  0.00     0.135 A 
ATOM     86  C   UNL A   1      35.236  33.084  31.435  1.00  0.00     0.135 A 
ATOM     87  F   UNL A   1      38.067  34.338  29.532  1.00  0.00    -0.206 F 
ATOM     88  C   UNL A   1      35.780  34.817  29.323  1.00  0.00     0.059 A 
ATOM     89  C   UNL A   1      34.184  33.738  30.802  1.00  0.00     0.059 A 
ATOM     90  F   UNL A   1      34.946  32.253  32.448  1.00  0.00    -0.206 F 
ATOM     91  C   UNL A   1      34.468  34.616  29.755  1.00  0.00     0.060 A 
BRANCH  91  92
ATOM     92  S   UNL A   1      33.134  35.495  28.913  1.00  0.00     0.124 S 
ATOM     93  O   UNL A   1      33.879  36.447  28.097  1.00  0.00    -0.237 OA
ATOM     94  O   UNL A   1      32.467  34.417  28.189  1.00  0.00    -0.237 OA
ATOM     95  O   UNL A   1      32.365  36.071  30.012  1.00  0.00    -0.744 OA
ENDBRANCH  91  92
ENDBRANCH  59  84
BRANCH  71  96
ATOM     96  C   UNL A   1      39.712  34.259  37.175  1.00  0.00     0.058 A 
ATOM     97  C   UNL A   1      39.068  33.939  38.380  1.00  0.00     0.135 A 
ATOM     98  C   UNL A   1      40.228  35.558  37.033  1.00  0.00     0.135 A 
ATOM     99  F   UNL A   1      38.551  32.714  38.566  1.00  0.00    -0.206 F 
ATOM    100  C   UNL A   1      38.920  34.878  39.396  1.00  0.00     0.059 A 
ATOM    101  C   UNL A   1      40.120  36.503  38.049  1.00  0.00     0.059 A 
ATOM    102  F   UNL A   1      40.863  35.915  35.906  1.00  0.00    -0.206 F 
ATOM    103  C   UNL A   1      39.453  36.157  39.222  1.00  0.00     0.060 A 
BRANCH 103 104
ATOM    104  S   UNL A   1      39.286  37.353  40.563  1.00  0.00     0.124 S 
ATOM    105  O   UNL A   1      38.828  36.506  41.659  1.00  0.00    -0.237 OA
ATOM    106  O   UNL A   1      40.644  37.873  40.689  1.00  0.00    -0.237 OA
ATOM    107  O   UNL A   1      38.302  38.304  40.052  1.00  0.00    -0.744 OA
ENDBRANCH 103 104
ENDBRANCH  71  96
ENDBRANCH  45  46
ENDBRANCH  37  40
ENDBRANCH  35  36
ENDBRANCH  34  35
ENDBRANCH   1  34
TORSDOF 18
ENDMDL
MODEL 2
REMARK VINA RESULT:     -12.4      5.070      9.332
REMARK SMILES CN1C(=O)/C(=C\c2ccc(C(=O)Nc3ccc(O)cc3C(=O)NCCCCNC(=O)c3ccc(-c4c5nc(c(-c6c(F)cc(S(=O)(=O)[O-])cc6F)c6ccc([nH]6)c(-c6c(F)cc(S(=O)(=O)[O-])cc6F)c6nc(c(-c7c(F)cc(S(=O)(=O)[O-])cc7F)c7ccc4[nH]7)C=C6)C=C5)cc3)cc2)SC1=S
REMARK SMILES IDX 25 1 24 2 23 3 21 4 22 5 20 7 14 8 15 9 16 10 19 11 17 12
REMARK SMILES IDX 13 13 11 14 12 15 10 17 7 18 8 19 98 20 9 21 97 22 6 23 1 24
REMARK SMILES IDX 2 25 3 26 100 27 4 28 5 29 99 30 101 31 18 32 26 34 27 35
REMARK SMILES IDX 28 36 29 37 30 39 31 40 32 41 96 42 33 43 95 44 34 45 35 46
REMARK SMILES IDX 36 47 89 48 37 49 94 50 88 51 90 52 38 53 93 54 87 55 86 56
REMARK SMILES IDX 39 58 73 59 52 60 72 61 53 62 56 63 71 64 91 65 54 66 55 67
REMARK SMILES IDX 70 69 92 70 57 71 40 72 41 73 50 74 42 75 43 76 49 77 51 78
REMARK SMILES IDX 44 79 45 80 46 81 47 82 48 83 74 84 75 85 84 86 76 87 77 88
REMARK SMILES IDX 83 89 85 90 78 91 79 92 80 93 81 94 82 95 58 96 59 97 68 98
REMARK SMILES IDX 60 99 61 100 67 101 69 102 62 103 63 104 64 105 65 106
REMARK SMILES IDX 66 107
REMARK H PARENT 23 6 13 16 18 33 28 38 90 57 56 68
REMARK Flexibility Score: inf
ROOT
ATOM      1  C   UNL A   1      42.723  23.165  28.568  1.00  0.00     0.023 C 
ENDROOT
BRANCH   1   2
ATOM      2  C   UNL A   1      44.201  23.134  28.927  1.00  0.00     0.116 C 
BRANCH   2   3
ATOM      3  N   UNL A   1      45.105  22.850  27.834  1.00  0.00    -0.352 N 
ATOM      4  C   UNL A   1      45.789  23.708  27.005  1.00  0.00     0.253 C 
ATOM      5  O   UNL A   1      46.531  23.208  26.155  1.00  0.00    -0.269 OA
ATOM      6  H   UNL A   1      45.255  21.893  27.655  1.00  0.00     0.163 HD
BRANCH   4   7
ATOM      7  C   UNL A   1      45.622  25.201  27.016  1.00  0.00     0.067 A 
ATOM      8  C   UNL A   1      46.029  26.120  28.007  1.00  0.00     0.054 A 
ATOM      9  C   UNL A   1      45.588  27.456  27.930  1.00  0.00     0.031 A 
ATOM     10  C   UNL A   1      44.958  27.935  26.784  1.00  0.00     0.048 A 
ATOM     11  C   UNL A   1      45.016  25.718  25.847  1.00  0.00     0.062 A 
ATOM     12  C   UNL A   1      44.737  27.075  25.725  1.00  0.00     0.116 A 
BRANCH   8  13
ATOM     13  N   UNL A   1      46.986  25.918  29.024  1.00  0.00    -0.321 N 
ATOM     14  C   UNL A   1      48.365  25.870  28.976  1.00  0.00     0.255 C 
ATOM     15  O   UNL A   1      48.978  25.528  29.986  1.00  0.00    -0.269 OA
ATOM     16  H   UNL A   1      46.604  25.787  29.923  1.00  0.00     0.170 HD
BRANCH  14  17
ATOM     17  C   UNL A   1      49.120  26.259  27.763  1.00  0.00     0.040 A 
ATOM     18  C   UNL A   1      50.596  26.968  25.506  1.00  0.00    -0.024 A 
ATOM     19  C   UNL A   1      50.553  25.630  25.913  1.00  0.00     0.009 A 
ATOM     20  C   UNL A   1      49.855  27.933  26.190  1.00  0.00     0.009 A 
ATOM     21  C   UNL A   1      49.801  25.274  27.037  1.00  0.00     0.014 A 
ATOM     22  C   UNL A   1      49.206  27.594  27.366  1.00  0.00     0.014 A 
BRANCH  18  23
ATOM     23  C   UNL A   1      51.568  27.422  24.513  1.00  0.00     0.029 C 
ATOM     24  C   UNL A   1      48.714  27.250  20.509  1.00  0.00     0.155 C 
ATOM     25  N   UNL A   1      49.961  27.419  21.237  1.00  0.00    -0.296 N 
ATOM     26  C   UNL A   1      49.970  27.054  22.566  1.00  0.00     0.265 C 
ATOM     27  C   UNL A   1      51.151  27.856  20.709  1.00  0.00     0.148 C 
ATOM     28  O   UNL A   1      49.050  26.459  23.103  1.00  0.00    -0.268 OA
ATOM     29  C   UNL A   1      51.271  27.440  23.204  1.00  0.00     0.081 C 
ATOM     30  S   UNL A   1      52.363  27.976  21.983  1.00  0.00    -0.054 SA
ATOM     31  S   UNL A   1      51.485  28.216  19.116  1.00  0.00    -0.052 S 
ENDBRANCH  18  23
ENDBRANCH  14  17
ENDBRANCH   8  13
BRANCH  12  32
ATOM     32  O   UNL A   1      44.258  27.605  24.565  1.00  0.00    -0.508 OA
ATOM     33  H   UNL A   1      43.434  28.048  24.558  1.00  0.00     0.293 HD
ENDBRANCH  12  32
ENDBRANCH   4   7
ENDBRANCH   2   3
ENDBRANCH   1   2
BRANCH   1  34
ATOM     34  C   UNL A   1      42.231  22.055  27.636  1.00  0.00     0.023 C 
BRANCH  34  35
ATOM     35  C   UNL A   1      41.955  22.431  26.180  1.00  0.00     0.116 C 
BRANCH  35  36
ATOM     36  N   UNL A   1      40.579  22.216  25.751  1.00  0.00    -0.352 N 
ATOM     37  C   UNL A   1      39.449  22.967  25.992  1.00  0.00     0.251 C 
ATOM     38  H   UNL A   1      40.434  21.410  25.204  1.00  0.00     0.163 HD
ATOM     39  O   UNL A   1      38.347  22.566  25.628  1.00  0.00    -0.269 OA
BRANCH  37  40
ATOM     40  C   UNL A   1      39.559  24.245  26.731  1.00  0.00     0.039 A 
ATOM     41  C   UNL A   1      38.925  24.372  27.970  1.00  0.00     0.014 A 
ATOM     42  C   UNL A   1      40.319  25.300  26.222  1.00  0.00     0.014 A 
ATOM     43  C   UNL A   1      39.149  25.514  28.747  1.00  0.00     0.010 A 
ATOM     44  C   UNL A   1      40.610  26.395  27.034  1.00  0.00     0.010 A 
ATOM     45  C   UNL A   1      40.042  26.507  28.312  1.00  0.00    -0.014 A 
BRANCH  45  46
ATOM     46  C   UNL A   1      40.420  27.648  29.191  1.00  0.00     0.031 A 
ATOM     47  C   UNL A   1      41.692  27.601  29.998  1.00  0.00     0.074 A 
ATOM     48  C   UNL A   1      39.580  28.696  29.322  1.00  0.00     0.049 A 
ATOM     49  N   UNL A   1      42.151  28.467  30.864  1.00  0.00    -0.248 NA
ATOM     50  C   UNL A   1      42.542  26.412  29.832  1.00  0.00     0.031 C 
ATOM     51  C   UNL A   1      38.291  28.841  28.639  1.00  0.00     0.029 A 
ATOM     52  N   UNL A   1      39.677  29.838  30.081  1.00  0.00    -0.354 N 
ATOM     53  C   UNL A   1      43.332  27.922  31.357  1.00  0.00     0.074 A 
ATOM     54  C   UNL A   1      43.491  26.628  30.732  1.00  0.00     0.031 C 
ATOM     55  C   UNL A   1      37.737  30.015  28.983  1.00  0.00     0.029 A 
ATOM     56  C   UNL A   1      38.603  30.690  29.943  1.00  0.00     0.049 A 
ATOM     57  H   UNL A   1      40.443  30.031  30.667  1.00  0.00     0.167 HD
ATOM     58  C   UNL A   1      44.212  28.459  32.234  1.00  0.00     0.037 A 
ATOM     59  C   UNL A   1      38.341  31.875  30.529  1.00  0.00     0.037 A 
ATOM     60  C   UNL A   1      44.067  29.764  32.828  1.00  0.00     0.049 A 
ATOM     61  C   UNL A   1      39.336  32.447  31.504  1.00  0.00     0.074 A 
ATOM     62  C   UNL A   1      44.945  30.428  33.666  1.00  0.00     0.029 A 
ATOM     63  N   UNL A   1      42.973  30.599  32.654  1.00  0.00    -0.354 N 
ATOM     64  N   UNL A   1      40.487  31.953  31.894  1.00  0.00    -0.248 NA
ATOM     65  C   UNL A   1      39.002  33.743  32.114  1.00  0.00     0.031 C 
ATOM     66  C   UNL A   1      44.359  31.640  34.044  1.00  0.00     0.029 A 
ATOM     67  C   UNL A   1      43.142  31.759  33.393  1.00  0.00     0.049 A 
ATOM     68  H   UNL A   1      42.193  30.398  32.088  1.00  0.00     0.167 HD
ATOM     69  C   UNL A   1      41.028  32.892  32.767  1.00  0.00     0.074 A 
ATOM     70  C   UNL A   1      40.084  33.987  32.839  1.00  0.00     0.031 C 
ATOM     71  C   UNL A   1      42.201  32.851  33.446  1.00  0.00     0.037 A 
BRANCH  58  72
ATOM     72  C   UNL A   1      45.420  27.644  32.610  1.00  0.00     0.058 A 
ATOM     73  C   UNL A   1      46.678  27.874  32.029  1.00  0.00     0.135 A 
ATOM     74  C   UNL A   1      45.331  26.658  33.606  1.00  0.00     0.135 A 
ATOM     75  F   UNL A   1      46.819  28.794  31.062  1.00  0.00    -0.206 F 
ATOM     76  C   UNL A   1      47.799  27.141  32.407  1.00  0.00     0.059 A 
ATOM     77  C   UNL A   1      46.445  25.934  34.021  1.00  0.00     0.059 A 
ATOM     78  F   UNL A   1      44.153  26.396  34.195  1.00  0.00    -0.206 F 
ATOM     79  C   UNL A   1      47.673  26.175  33.407  1.00  0.00     0.060 A 
BRANCH  79  80
ATOM     80  S   UNL A   1      49.142  25.250  33.900  1.00  0.00     0.124 S 
ATOM     81  O   UNL A   1      49.702  26.120  34.930  1.00  0.00    -0.237 OA
ATOM     82  O   UNL A   1      48.573  23.993  34.373  1.00  0.00    -0.237 OA
ATOM     83  O   UNL A   1      49.918  25.160  32.667  1.00  0.00    -0.744 OA
ENDBRANCH  79  80
ENDBRANCH  58  72
BRANCH  59  84
ATOM     84  C   UNL A   1      37.094  32.620  30.198  1.00  0.00     0.058 A 
ATOM     85  C   UNL A   1      37.061  33.530  29.130  1.00  0.00     0.135 A 
ATOM     86  C   UNL A   1      35.919  32.455  30.949  1.00  0.00     0.135 A 
ATOM     87  F   UNL A   1      38.160  33.731  28.387  1.00  0.00    -0.206 F 
ATOM     88  C   UNL A   1      35.921  34.270  28.835  1.00  0.00     0.059 A 
ATOM     89  C   UNL A   1      34.757  33.161  30.655  1.00  0.00     0.059 A 
ATOM     90  F   UNL A   1      35.891  31.586  31.971  1.00  0.00    -0.206 F 
ATOM     91  C   UNL A   1      34.772  34.078  29.604  1.00  0.00     0.060 A 
BRANCH  91  92
ATOM     92  S   UNL A   1      33.289  35.024  29.196  1.00  0.00     0.124 S 
ATOM     93  O   UNL A   1      32.690  34.198  28.154  1.00  0.00    -0.237 OA
ATOM     94  O   UNL A   1      32.583  35.052  30.473  1.00  0.00    -0.237 OA
ATOM     95  O   UNL A   1      33.821  36.310  28.754  1.00  0.00    -0.744 OA
ENDBRANCH  91  92
ENDBRANCH  59  84
BRANCH  71  96
ATOM     96  C   UNL A   1      42.560  34.042  34.291  1.00  0.00     0.058 A 
ATOM     97  C   UNL A   1      42.281  34.088  35.665  1.00  0.00     0.135 A 
ATOM     98  C   UNL A   1      43.242  35.132  33.725  1.00  0.00     0.135 A 
ATOM     99  F   UNL A   1      41.626  33.076  36.256  1.00  0.00    -0.206 F 
ATOM    100  C   UNL A   1      42.645  35.182  36.445  1.00  0.00     0.059 A 
ATOM    101  C   UNL A   1      43.643  36.222  34.491  1.00  0.00     0.059 A 
ATOM    102  F   UNL A   1      43.544  35.137  32.417  1.00  0.00    -0.206 F 
ATOM    103  C   UNL A   1      43.329  36.243  35.848  1.00  0.00     0.060 A 
BRANCH 103 104
ATOM    104  S   UNL A   1      43.826  37.639  36.879  1.00  0.00     0.124 S 
ATOM    105  O   UNL A   1      43.799  38.738  35.920  1.00  0.00    -0.237 OA
ATOM    106  O   UNL A   1      42.782  37.663  37.898  1.00  0.00    -0.237 OA
ATOM    107  O   UNL A   1      45.151  37.255  37.357  1.00  0.00    -0.744 OA
ENDBRANCH 103 104
ENDBRANCH  71  96
ENDBRANCH  45  46
ENDBRANCH  37  40
ENDBRANCH  35  36
ENDBRANCH  34  35
ENDBRANCH   1  34
TORSDOF 18
ENDMDL
MODEL 3
REMARK VINA RESULT:     -12.3      5.010      6.837
REMARK SMILES CN1C(=O)/C(=C\c2ccc(C(=O)Nc3ccc(O)cc3C(=O)NCCCCNC(=O)c3ccc(-c4c5nc(c(-c6c(F)cc(S(=O)(=O)[O-])cc6F)c6ccc([nH]6)c(-c6c(F)cc(S(=O)(=O)[O-])cc6F)c6nc(c(-c7c(F)cc(S(=O)(=O)[O-])cc7F)c7ccc4[nH]7)C=C6)C=C5)cc3)cc2)SC1=S
REMARK SMILES IDX 25 1 24 2 23 3 21 4 22 5 20 7 14 8 15 9 16 10 19 11 17 12
REMARK SMILES IDX 13 13 11 14 12 15 10 17 7 18 8 19 98 20 9 21 97 22 6 23 1 24
REMARK SMILES IDX 2 25 3 26 100 27 4 28 5 29 99 30 101 31 18 32 26 34 27 35
REMARK SMILES IDX 28 36 29 37 30 39 31 40 32 41 96 42 33 43 95 44 34 45 35 46
REMARK SMILES IDX 36 47 89 48 37 49 94 50 88 51 90 52 38 53 93 54 87 55 86 56
REMARK SMILES IDX 39 58 73 59 52 60 72 61 53 62 56 63 71 64 91 65 54 66 55 67
REMARK SMILES IDX 70 69 92 70 57 71 40 72 41 73 50 74 42 75 43 76 49 77 51 78
REMARK SMILES IDX 44 79 45 80 46 81 47 82 48 83 74 84 75 85 84 86 76 87 77 88
REMARK SMILES IDX 83 89 85 90 78 91 79 92 80 93 81 94 82 95 58 96 59 97 68 98
REMARK SMILES IDX 60 99 61 100 67 101 69 102 62 103 63 104 64 105 65 106
REMARK SMILES IDX 66 107
REMARK H PARENT 23 6 13 16 18 33 28 38 90 57 56 68
REMARK Flexibility Score: inf
ROOT
ATOM      1  C   UNL A   1      35.539  23.652  24.380  1.00  0.00     0.023 C 
ENDROOT
BRANCH   1   2
ATOM      2  C   UNL A   1      34.997  22.942  23.149  1.00  0.00     0.116 C 
BRANCH   2   3
ATOM      3  N   UNL A   1      34.022  23.682  22.379  1.00  0.00    -0.352 N 
ATOM      4  C   UNL A   1      32.698  23.944  22.644  1.00  0.00     0.253 C 
ATOM      5  O   UNL A   1      32.080  24.634  21.827  1.00  0.00    -0.269 OA
ATOM      6  H   UNL A   1      34.357  24.056  21.532  1.00  0.00     0.163 HD
BRANCH   4   7
ATOM      7  C   UNL A   1      31.945  23.376  23.812  1.00  0.00     0.067 A 
ATOM      8  C   UNL A   1      30.900  23.969  24.553  1.00  0.00     0.054 A 
ATOM      9  C   UNL A   1      30.470  23.359  25.748  1.00  0.00     0.031 A 
ATOM     10  C   UNL A   1      30.891  22.076  26.086  1.00  0.00     0.048 A 
ATOM     11  C   UNL A   1      32.329  22.058  24.155  1.00  0.00     0.062 A 
ATOM     12  C   UNL A   1      31.768  21.410  25.250  1.00  0.00     0.116 A 
BRANCH   8  13
ATOM     13  N   UNL A   1      30.082  25.052  24.167  1.00  0.00    -0.321 N 
ATOM     14  C   UNL A   1      30.139  26.394  24.490  1.00  0.00     0.255 C 
ATOM     15  O   UNL A   1      29.212  27.123  24.143  1.00  0.00    -0.269 OA
ATOM     16  H   UNL A   1      29.341  24.809  23.564  1.00  0.00     0.170 HD
BRANCH  14  17
ATOM     17  C   UNL A   1      31.300  26.979  25.200  1.00  0.00     0.040 A 
ATOM     18  C   UNL A   1      33.445  28.128  26.560  1.00  0.00    -0.024 A 
ATOM     19  C   UNL A   1      32.315  27.715  27.273  1.00  0.00     0.009 A 
ATOM     20  C   UNL A   1      33.524  27.911  25.183  1.00  0.00     0.009 A 
ATOM     21  C   UNL A   1      31.246  27.125  26.592  1.00  0.00     0.014 A 
ATOM     22  C   UNL A   1      32.418  27.432  24.500  1.00  0.00     0.014 A 
BRANCH  18  23
ATOM     23  C   UNL A   1      34.458  28.979  27.181  1.00  0.00     0.029 C 
ATOM     24  C   UNL A   1      31.966  33.221  27.237  1.00  0.00     0.155 C 
ATOM     25  N   UNL A   1      33.132  32.370  27.414  1.00  0.00    -0.296 N 
ATOM     26  C   UNL A   1      33.060  31.089  26.913  1.00  0.00     0.265 C 
ATOM     27  C   UNL A   1      34.324  32.744  27.985  1.00  0.00     0.148 C 
ATOM     28  O   UNL A   1      32.147  30.699  26.202  1.00  0.00    -0.268 OA
ATOM     29  C   UNL A   1      34.270  30.302  27.317  1.00  0.00     0.081 C 
ATOM     30  S   UNL A   1      35.414  31.360  28.052  1.00  0.00    -0.054 SA
ATOM     31  S   UNL A   1      34.760  34.256  28.532  1.00  0.00    -0.052 S 
ENDBRANCH  18  23
ENDBRANCH  14  17
ENDBRANCH   8  13
BRANCH  12  32
ATOM     32  O   UNL A   1      32.043  20.105  25.526  1.00  0.00    -0.508 OA
ATOM     33  H   UNL A   1      31.759  19.432  24.941  1.00  0.00     0.293 HD
ENDBRANCH  12  32
ENDBRANCH   4   7
ENDBRANCH   2   3
ENDBRANCH   1   2
BRANCH   1  34
ATOM     34  C   UNL A   1      37.003  23.375  24.730  1.00  0.00     0.023 C 
BRANCH  34  35
ATOM     35  C   UNL A   1      37.285  22.621  26.030  1.00  0.00     0.116 C 
BRANCH  35  36
ATOM     36  N   UNL A   1      38.471  21.776  25.995  1.00  0.00    -0.352 N 
ATOM     37  C   UNL A   1      39.776  22.070  26.327  1.00  0.00     0.251 C 
ATOM     38  H   UNL A   1      38.318  20.854  25.686  1.00  0.00     0.163 HD
ATOM     39  O   UNL A   1      40.667  21.248  26.132  1.00  0.00    -0.269 OA
BRANCH  37  40
ATOM     40  C   UNL A   1      40.113  23.400  26.884  1.00  0.00     0.039 A 
ATOM     41  C   UNL A   1      40.690  23.481  28.153  1.00  0.00     0.014 A 
ATOM     42  C   UNL A   1      39.898  24.560  26.138  1.00  0.00     0.014 A 
ATOM     43  C   UNL A   1      41.153  24.713  28.625  1.00  0.00     0.010 A 
ATOM     44  C   UNL A   1      40.439  25.769  26.570  1.00  0.00     0.010 A 
ATOM     45  C   UNL A   1      41.088  25.857  27.812  1.00  0.00    -0.014 A 
BRANCH  45  46
ATOM     46  C   UNL A   1      41.720  27.140  28.226  1.00  0.00     0.031 A 
ATOM     47  C   UNL A   1      43.194  27.368  28.011  1.00  0.00     0.074 A 
ATOM     48  C   UNL A   1      40.983  28.072  28.865  1.00  0.00     0.049 A 
ATOM     49  N   UNL A   1      43.931  28.390  28.363  1.00  0.00    -0.248 NA
ATOM     50  C   UNL A   1      43.943  26.295  27.338  1.00  0.00     0.031 C 
ATOM     51  C   UNL A   1      39.557  27.953  29.185  1.00  0.00     0.029 A 
ATOM     52  N   UNL A   1      41.329  29.302  29.371  1.00  0.00    -0.354 N 
ATOM     53  C   UNL A   1      45.228  28.077  27.973  1.00  0.00     0.074 A 
ATOM     54  C   UNL A   1      45.187  26.749  27.402  1.00  0.00     0.031 C 
ATOM     55  C   UNL A   1      39.146  29.074  29.799  1.00  0.00     0.029 A 
ATOM     56  C   UNL A   1      40.282  29.976  29.960  1.00  0.00     0.049 A 
ATOM     57  H   UNL A   1      42.240  29.669  29.316  1.00  0.00     0.167 HD
ATOM     58  C   UNL A   1      46.346  28.835  28.062  1.00  0.00     0.037 A 
ATOM     59  C   UNL A   1      40.241  31.178  30.568  1.00  0.00     0.037 A 
ATOM     60  C   UNL A   1      46.376  30.172  28.599  1.00  0.00     0.049 A 
ATOM     61  C   UNL A   1      41.502  31.998  30.656  1.00  0.00     0.074 A 
ATOM     62  C   UNL A   1      47.445  31.048  28.659  1.00  0.00     0.029 A 
ATOM     63  N   UNL A   1      45.294  30.821  29.173  1.00  0.00    -0.354 N 
ATOM     64  N   UNL A   1      42.701  31.718  30.206  1.00  0.00    -0.248 NA
ATOM     65  C   UNL A   1      41.402  33.301  31.329  1.00  0.00     0.031 C 
ATOM     66  C   UNL A   1      47.024  32.207  29.320  1.00  0.00     0.029 A 
ATOM     67  C   UNL A   1      45.677  32.077  29.617  1.00  0.00     0.049 A 
ATOM     68  H   UNL A   1      44.387  30.447  29.253  1.00  0.00     0.167 HD
ATOM     69  C   UNL A   1      43.489  32.824  30.511  1.00  0.00     0.074 A 
ATOM     70  C   UNL A   1      42.628  33.780  31.173  1.00  0.00     0.031 C 
ATOM     71  C   UNL A   1      44.807  33.028  30.262  1.00  0.00     0.037 A 
BRANCH  58  72
ATOM     72  C   UNL A   1      47.639  28.245  27.566  1.00  0.00     0.058 A 
ATOM     73  C   UNL A   1      48.536  27.595  28.428  1.00  0.00     0.135 A 
ATOM     74  C   UNL A   1      47.958  28.280  26.198  1.00  0.00     0.135 A 
ATOM     75  F   UNL A   1      48.290  27.544  29.748  1.00  0.00    -0.206 F 
ATOM     76  C   UNL A   1      49.712  27.020  27.958  1.00  0.00     0.059 A 
ATOM     77  C   UNL A   1      49.114  27.686  25.701  1.00  0.00     0.059 A 
ATOM     78  F   UNL A   1      47.138  28.889  25.328  1.00  0.00    -0.206 F 
ATOM     79  C   UNL A   1      49.991  27.067  26.591  1.00  0.00     0.060 A 
BRANCH  79  80
ATOM     80  S   UNL A   1      51.511  26.297  25.995  1.00  0.00     0.124 S 
ATOM     81  O   UNL A   1      51.419  24.970  26.597  1.00  0.00    -0.237 OA
ATOM     82  O   UNL A   1      51.338  26.349  24.548  1.00  0.00    -0.237 OA
ATOM     83  O   UNL A   1      52.562  27.156  26.530  1.00  0.00    -0.744 OA
ENDBRANCH  79  80
ENDBRANCH  58  72
BRANCH  59  84
ATOM     84  C   UNL A   1      38.961  31.699  31.123  1.00  0.00     0.058 A 
ATOM     85  C   UNL A   1      38.191  32.629  30.408  1.00  0.00     0.135 A 
ATOM     86  C   UNL A   1      38.489  31.296  32.383  1.00  0.00     0.135 A 
ATOM     87  F   UNL A   1      38.601  33.053  29.203  1.00  0.00    -0.206 F 
ATOM     88  C   UNL A   1      37.017  33.162  30.930  1.00  0.00     0.059 A 
ATOM     89  C   UNL A   1      37.303  31.792  32.914  1.00  0.00     0.059 A 
ATOM     90  F   UNL A   1      39.178  30.397  33.102  1.00  0.00    -0.206 F 
ATOM     91  C   UNL A   1      36.581  32.737  32.185  1.00  0.00     0.060 A 
BRANCH  91  92
ATOM     92  S   UNL A   1      35.042  33.415  32.843  1.00  0.00     0.124 S 
ATOM     93  O   UNL A   1      35.163  33.097  34.261  1.00  0.00    -0.237 OA
ATOM     94  O   UNL A   1      35.156  34.828  32.493  1.00  0.00    -0.237 OA
ATOM     95  O   UNL A   1      34.012  32.679  32.116  1.00  0.00    -0.744 OA
ENDBRANCH  91  92
ENDBRANCH  59  84
BRANCH  71  96
ATOM     96  C   UNL A   1      45.394  34.354  30.664  1.00  0.00     0.058 A 
ATOM     97  C   UNL A   1      45.384  35.460  29.803  1.00  0.00     0.135 A 
ATOM     98  C   UNL A   1      45.926  34.531  31.952  1.00  0.00     0.135 A 
ATOM     99  F   UNL A   1      44.895  35.345  28.558  1.00  0.00    -0.206 F 
ATOM    100  C   UNL A   1      45.903  36.691  30.195  1.00  0.00     0.059 A 
ATOM    101  C   UNL A   1      46.420  35.761  32.377  1.00  0.00     0.059 A 
ATOM    102  F   UNL A   1      45.951  33.508  32.821  1.00  0.00    -0.206 F 
ATOM    103  C   UNL A   1      46.415  36.832  31.486  1.00  0.00     0.060 A 
BRANCH 103 104
ATOM    104  S   UNL A   1      47.050  38.444  31.993  1.00  0.00     0.124 S 
ATOM    105  O   UNL A   1      46.016  39.340  31.489  1.00  0.00    -0.237 OA
ATOM    106  O   UNL A   1      47.120  38.308  33.445  1.00  0.00    -0.237 OA
ATOM    107  O   UNL A   1      48.341  38.530  31.316  1.00  0.00    -0.744 OA
ENDBRANCH 103 104
ENDBRANCH  71  96
ENDBRANCH  45  46
ENDBRANCH  37  40
ENDBRANCH  35  36
ENDBRANCH  34  35
ENDBRANCH   1  34
TORSDOF 18
ENDMDL
