MODEL 1
REMARK VINA RESULT:     -11.7      0.000      0.000
REMARK SMILES COc1cc(Cl)c2c(c1)C=C(C(=O)NCCCCNC(=O)c1ccc(-c3c4nc(c(-c5c(F)cc(S(=O)(=O)[O-])cc5F)c5ccc([nH]5)c(-c5c(F)cc(S(=O)(=O)[O-])cc5F)c5nc(c(-c6c(F)cc(S(=O)(=O)[O-])cc6F)c6ccc3[nH]6)C=C5)C=C4)cc1)[C@@H](C(F)(F)F)O2
REMARK SMILES IDX 17 1 16 2 15 3 14 4 12 5 13 6 11 8 3 9 4 10 9 11 5 12 8 13
REMARK SMILES IDX 6 14 7 15 10 16 93 17 88 18 2 19 1 20 89 21 90 22 91 23
REMARK SMILES IDX 92 24 18 25 19 26 20 27 21 29 22 30 23 31 87 32 24 33 86 34
REMARK SMILES IDX 25 35 26 36 27 37 80 38 28 39 85 40 79 41 81 42 29 43 84 44
REMARK SMILES IDX 78 45 77 46 30 48 64 49 43 50 63 51 44 52 47 53 62 54 82 55
REMARK SMILES IDX 45 56 46 57 61 59 83 60 48 61 31 62 32 63 41 64 33 65 34 66
REMARK SMILES IDX 40 67 42 68 35 69 36 70 37 71 38 72 39 73 65 74 66 75 75 76
REMARK SMILES IDX 67 77 68 78 74 79 76 80 69 81 70 82 71 83 72 84 73 85 49 86
REMARK SMILES IDX 50 87 59 88 51 89 52 90 58 91 60 92 53 93 54 94 55 95 56 96
REMARK SMILES IDX 57 97
REMARK H PARENT 14 7 19 28 81 47 47 58
REMARK Flexibility Score: inf
ROOT
ATOM      1  C   UNL A   1      33.965  28.268  25.757  1.00  0.00     0.023 C 
ENDROOT
BRANCH   1   2
ATOM      2  C   UNL A   1      32.845  28.691  24.800  1.00  0.00     0.023 C 
BRANCH   2   3
ATOM      3  C   UNL A   1      32.058  27.526  24.209  1.00  0.00     0.116 C 
BRANCH   3   4
ATOM      4  N   UNL A   1      31.188  26.904  25.190  1.00  0.00    -0.352 N 
ATOM      5  C   UNL A   1      31.085  25.699  25.794  1.00  0.00     0.251 C 
ATOM      6  O   UNL A   1      30.148  25.586  26.590  1.00  0.00    -0.270 OA
ATOM      7  H   UNL A   1      30.487  27.524  25.497  1.00  0.00     0.163 HD
BRANCH   5   8
ATOM      8  C   UNL A   1      32.002  24.540  25.574  1.00  0.00     0.067 C 
ATOM      9  C   UNL A   1      36.566  22.926  25.588  1.00  0.00     0.121 A 
ATOM     10  C   UNL A   1      36.125  21.648  25.249  1.00  0.00     0.070 A 
ATOM     11  C   UNL A   1      35.630  23.937  25.832  1.00  0.00     0.058 A 
ATOM     12  C   UNL A   1      34.756  21.392  25.132  1.00  0.00     0.087 A 
ATOM     13  C   UNL A   1      34.261  23.689  25.697  1.00  0.00     0.022 A 
ATOM     14  Cl  UNL A   1      34.253  19.794  24.708  1.00  0.00    -0.080 Cl
ATOM     15  C   UNL A   1      33.824  22.414  25.338  1.00  0.00     0.146 A 
ATOM     16  C   UNL A   1      33.282  24.741  25.943  1.00  0.00     0.025 C 
ATOM     17  O   UNL A   1      32.491  22.123  25.227  1.00  0.00    -0.474 OA
ATOM     18  C   UNL A   1      31.606  23.241  24.932  1.00  0.00     0.314 C 
BRANCH   9  19
ATOM     19  O   UNL A   1      37.873  23.303  25.736  1.00  0.00    -0.497 OA
ATOM     20  C   UNL A   1      38.783  22.275  26.114  1.00  0.00     0.278 C 
ENDBRANCH   9  19
BRANCH  18  21
ATOM     21  C   UNL A   1      31.428  23.361  23.406  1.00  0.00     0.429 C 
ATOM     22  F   UNL A   1      30.163  23.745  23.103  1.00  0.00    -0.167 F 
ATOM     23  F   UNL A   1      32.252  24.282  22.856  1.00  0.00    -0.167 F 
ATOM     24  F   UNL A   1      31.660  22.191  22.765  1.00  0.00    -0.167 F 
ENDBRANCH  18  21
ENDBRANCH   5   8
ENDBRANCH   3   4
ENDBRANCH   2   3
ENDBRANCH   1   2
BRANCH   1  25
ATOM     25  C   UNL A   1      33.655  28.428  27.244  1.00  0.00     0.116 C 
BRANCH  25  26
ATOM     26  N   UNL A   1      33.562  29.815  27.678  1.00  0.00    -0.352 N 
ATOM     27  C   UNL A   1      34.567  30.591  28.208  1.00  0.00     0.251 C 
ATOM     28  H   UNL A   1      32.682  30.245  27.581  1.00  0.00     0.163 HD
ATOM     29  O   UNL A   1      34.352  31.737  28.584  1.00  0.00    -0.269 OA
BRANCH  27  30
ATOM     30  C   UNL A   1      35.901  29.983  28.351  1.00  0.00     0.039 A 
ATOM     31  C   UNL A   1      36.789  30.056  27.277  1.00  0.00     0.014 A 
ATOM     32  C   UNL A   1      36.297  29.460  29.585  1.00  0.00     0.014 A 
ATOM     33  C   UNL A   1      38.113  29.665  27.463  1.00  0.00     0.010 A 
ATOM     34  C   UNL A   1      37.628  29.107  29.778  1.00  0.00     0.010 A 
ATOM     35  C   UNL A   1      38.548  29.223  28.723  1.00  0.00    -0.014 A 
BRANCH  35  36
ATOM     36  C   UNL A   1      39.972  28.894  28.957  1.00  0.00     0.031 A 
ATOM     37  C   UNL A   1      40.889  29.924  29.546  1.00  0.00     0.074 A 
ATOM     38  C   UNL A   1      40.439  27.683  28.598  1.00  0.00     0.049 A 
ATOM     39  N   UNL A   1      42.168  29.837  29.800  1.00  0.00    -0.248 NA
ATOM     40  C   UNL A   1      40.294  31.229  29.879  1.00  0.00     0.031 C 
ATOM     41  C   UNL A   1      39.646  26.617  27.979  1.00  0.00     0.029 A 
ATOM     42  N   UNL A   1      41.697  27.144  28.696  1.00  0.00    -0.354 N 
ATOM     43  C   UNL A   1      42.532  31.069  30.324  1.00  0.00     0.074 A 
ATOM     44  C   UNL A   1      41.350  31.905  30.310  1.00  0.00     0.031 C 
ATOM     45  C   UNL A   1      40.432  25.548  27.771  1.00  0.00     0.029 A 
ATOM     46  C   UNL A   1      41.786  25.856  28.223  1.00  0.00     0.049 A 
ATOM     47  H   UNL A   1      42.465  27.634  29.071  1.00  0.00     0.167 HD
ATOM     48  C   UNL A   1      43.737  31.459  30.798  1.00  0.00     0.037 A 
ATOM     49  C   UNL A   1      42.841  25.020  28.167  1.00  0.00     0.037 A 
ATOM     50  C   UNL A   1      44.903  30.618  30.828  1.00  0.00     0.049 A 
ATOM     51  C   UNL A   1      44.169  25.478  28.701  1.00  0.00     0.074 A 
ATOM     52  C   UNL A   1      46.164  30.913  31.317  1.00  0.00     0.029 A 
ATOM     53  N   UNL A   1      44.948  29.315  30.356  1.00  0.00    -0.354 N 
ATOM     54  N   UNL A   1      44.485  26.634  29.233  1.00  0.00    -0.248 NA
ATOM     55  C   UNL A   1      45.283  24.521  28.632  1.00  0.00     0.031 C 
ATOM     56  C   UNL A   1      46.978  29.792  31.125  1.00  0.00     0.029 A 
ATOM     57  C   UNL A   1      46.217  28.792  30.539  1.00  0.00     0.049 A 
ATOM     58  H   UNL A   1      44.192  28.834  29.952  1.00  0.00     0.167 HD
ATOM     59  C   UNL A   1      45.826  26.534  29.586  1.00  0.00     0.074 A 
ATOM     60  C   UNL A   1      46.262  25.205  29.208  1.00  0.00     0.031 C 
ATOM     61  C   UNL A   1      46.622  27.460  30.172  1.00  0.00     0.037 A 
BRANCH  48  62
ATOM     62  C   UNL A   1      43.847  32.850  31.345  1.00  0.00     0.058 A 
ATOM     63  C   UNL A   1      43.663  33.106  32.713  1.00  0.00     0.135 A 
ATOM     64  C   UNL A   1      44.173  33.930  30.510  1.00  0.00     0.135 A 
ATOM     65  F   UNL A   1      43.330  32.109  33.548  1.00  0.00    -0.206 F 
ATOM     66  C   UNL A   1      43.785  34.389  33.233  1.00  0.00     0.059 A 
ATOM     67  C   UNL A   1      44.318  35.219  31.012  1.00  0.00     0.059 A 
ATOM     68  F   UNL A   1      44.351  33.736  29.193  1.00  0.00    -0.206 F 
ATOM     69  C   UNL A   1      44.112  35.440  32.374  1.00  0.00     0.060 A 
BRANCH  69  70
ATOM     70  S   UNL A   1      44.280  37.098  33.067  1.00  0.00     0.124 S 
ATOM     71  O   UNL A   1      45.516  36.969  33.832  1.00  0.00    -0.237 OA
ATOM     72  O   UNL A   1      44.359  37.932  31.872  1.00  0.00    -0.237 OA
ATOM     73  O   UNL A   1      43.065  37.259  33.860  1.00  0.00    -0.744 OA
ENDBRANCH  69  70
ENDBRANCH  48  62
BRANCH  49  74
ATOM     74  C   UNL A   1      42.673  23.649  27.622  1.00  0.00     0.058 A 
ATOM     75  C   UNL A   1      42.417  22.566  28.475  1.00  0.00     0.135 A 
ATOM     76  C   UNL A   1      42.759  23.395  26.246  1.00  0.00     0.135 A 
ATOM     77  F   UNL A   1      42.331  22.762  29.800  1.00  0.00    -0.206 F 
ATOM     78  C   UNL A   1      42.264  21.274  27.985  1.00  0.00     0.059 A 
ATOM     79  C   UNL A   1      42.594  22.114  25.729  1.00  0.00     0.059 A 
ATOM     80  F   UNL A   1      42.987  24.403  25.389  1.00  0.00    -0.206 F 
ATOM     81  C   UNL A   1      42.356  21.058  26.609  1.00  0.00     0.060 A 
BRANCH  81  82
ATOM     82  S   UNL A   1      42.113  19.383  25.976  1.00  0.00     0.124 S 
ATOM     83  O   UNL A   1      42.925  19.406  24.766  1.00  0.00    -0.237 OA
ATOM     84  O   UNL A   1      42.620  18.562  27.071  1.00  0.00    -0.237 OA
ATOM     85  O   UNL A   1      40.669  19.312  25.770  1.00  0.00    -0.744 OA
ENDBRANCH  81  82
ENDBRANCH  49  74
BRANCH  61  86
ATOM     86  C   UNL A   1      48.039  27.070  30.470  1.00  0.00     0.058 A 
ATOM     87  C   UNL A   1      49.074  27.338  29.563  1.00  0.00     0.135 A 
ATOM     88  C   UNL A   1      48.375  26.516  31.714  1.00  0.00     0.135 A 
ATOM     89  F   UNL A   1      48.798  27.861  28.358  1.00  0.00    -0.206 F 
ATOM     90  C   UNL A   1      50.401  27.073  29.883  1.00  0.00     0.059 A 
ATOM     91  C   UNL A   1      49.696  26.258  32.061  1.00  0.00     0.059 A 
ATOM     92  F   UNL A   1      47.417  26.249  32.616  1.00  0.00    -0.206 F 
ATOM     93  C   UNL A   1      50.703  26.539  31.137  1.00  0.00     0.060 A 
BRANCH  93  94
ATOM     94  S   UNL A   1      52.436  26.273  31.571  1.00  0.00     0.124 S 
ATOM     95  O   UNL A   1      52.645  27.298  32.588  1.00  0.00    -0.237 OA
ATOM     96  O   UNL A   1      52.432  24.895  32.050  1.00  0.00    -0.237 OA
ATOM     97  O   UNL A   1      53.137  26.488  30.308  1.00  0.00    -0.744 OA
ENDBRANCH  93  94
ENDBRANCH  61  86
ENDBRANCH  35  36
ENDBRANCH  27  30
ENDBRANCH  25  26
ENDBRANCH   1  25
TORSDOF 16
ENDMDL
MODEL 2
REMARK VINA RESULT:     -11.7      1.661      2.707
REMARK SMILES COc1cc(Cl)c2c(c1)C=C(C(=O)NCCCCNC(=O)c1ccc(-c3c4nc(c(-c5c(F)cc(S(=O)(=O)[O-])cc5F)c5ccc([nH]5)c(-c5c(F)cc(S(=O)(=O)[O-])cc5F)c5nc(c(-c6c(F)cc(S(=O)(=O)[O-])cc6F)c6ccc3[nH]6)C=C5)C=C4)cc1)[C@@H](C(F)(F)F)O2
REMARK SMILES IDX 17 1 16 2 15 3 14 4 12 5 13 6 11 8 3 9 4 10 9 11 5 12 8 13
REMARK SMILES IDX 6 14 7 15 10 16 93 17 88 18 2 19 1 20 89 21 90 22 91 23
REMARK SMILES IDX 92 24 18 25 19 26 20 27 21 29 22 30 23 31 87 32 24 33 86 34
REMARK SMILES IDX 25 35 26 36 27 37 80 38 28 39 85 40 79 41 81 42 29 43 84 44
REMARK SMILES IDX 78 45 77 46 30 48 64 49 43 50 63 51 44 52 47 53 62 54 82 55
REMARK SMILES IDX 45 56 46 57 61 59 83 60 48 61 31 62 32 63 41 64 33 65 34 66
REMARK SMILES IDX 40 67 42 68 35 69 36 70 37 71 38 72 39 73 65 74 66 75 75 76
REMARK SMILES IDX 67 77 68 78 74 79 76 80 69 81 70 82 71 83 72 84 73 85 49 86
REMARK SMILES IDX 50 87 59 88 51 89 52 90 58 91 60 92 53 93 54 94 55 95 56 96
REMARK SMILES IDX 57 97
REMARK H PARENT 14 7 19 28 81 47 47 58
REMARK Flexibility Score: inf
ROOT
ATOM      1  C   UNL A   1      33.035  28.317  26.007  1.00  0.00     0.023 C 
ENDROOT
BRANCH   1   2
ATOM      2  C   UNL A   1      32.740  29.567  25.172  1.00  0.00     0.023 C 
BRANCH   2   3
ATOM      3  C   UNL A   1      31.265  29.955  25.131  1.00  0.00     0.116 C 
BRANCH   3   4
ATOM      4  N   UNL A   1      30.712  29.845  23.793  1.00  0.00    -0.352 N 
ATOM      5  C   UNL A   1      30.486  28.859  22.897  1.00  0.00     0.251 C 
ATOM      6  O   UNL A   1      29.989  29.222  21.827  1.00  0.00    -0.270 OA
ATOM      7  H   UNL A   1      30.426  30.722  23.447  1.00  0.00     0.163 HD
BRANCH   5   8
ATOM      8  C   UNL A   1      30.781  27.410  23.113  1.00  0.00     0.067 C 
ATOM      9  C   UNL A   1      30.572  23.641  26.144  1.00  0.00     0.121 A 
ATOM     10  C   UNL A   1      31.126  22.813  25.168  1.00  0.00     0.070 A 
ATOM     11  C   UNL A   1      30.277  24.972  25.832  1.00  0.00     0.058 A 
ATOM     12  C   UNL A   1      31.405  23.326  23.897  1.00  0.00     0.087 A 
ATOM     13  C   UNL A   1      30.570  25.492  24.569  1.00  0.00     0.022 A 
ATOM     14  Cl  UNL A   1      32.093  22.266  22.718  1.00  0.00    -0.080 Cl
ATOM     15  C   UNL A   1      31.144  24.667  23.601  1.00  0.00     0.146 A 
ATOM     16  C   UNL A   1      30.271  26.881  24.241  1.00  0.00     0.025 C 
ATOM     17  O   UNL A   1      31.417  25.130  22.342  1.00  0.00    -0.474 OA
ATOM     18  C   UNL A   1      31.633  26.564  22.211  1.00  0.00     0.314 C 
BRANCH   9  19
ATOM     19  O   UNL A   1      30.253  23.262  27.418  1.00  0.00    -0.497 OA
ATOM     20  C   UNL A   1      29.015  22.578  27.578  1.00  0.00     0.278 C 
ENDBRANCH   9  19
BRANCH  18  21
ATOM     21  C   UNL A   1      33.137  26.868  22.354  1.00  0.00     0.429 C 
ATOM     22  F   UNL A   1      33.542  26.670  23.633  1.00  0.00    -0.167 F 
ATOM     23  F   UNL A   1      33.906  26.070  21.579  1.00  0.00    -0.167 F 
ATOM     24  F   UNL A   1      33.439  28.146  22.027  1.00  0.00    -0.167 F 
ENDBRANCH  18  21
ENDBRANCH   5   8
ENDBRANCH   3   4
ENDBRANCH   2   3
ENDBRANCH   1   2
BRANCH   1  25
ATOM     25  C   UNL A   1      33.619  28.574  27.395  1.00  0.00     0.116 C 
BRANCH  25  26
ATOM     26  N   UNL A   1      33.552  29.968  27.810  1.00  0.00    -0.352 N 
ATOM     27  C   UNL A   1      34.577  30.740  28.307  1.00  0.00     0.251 C 
ATOM     28  H   UNL A   1      32.676  30.408  27.725  1.00  0.00     0.163 HD
ATOM     29  O   UNL A   1      34.385  31.893  28.671  1.00  0.00    -0.269 OA
BRANCH  27  30
ATOM     30  C   UNL A   1      35.907  30.117  28.432  1.00  0.00     0.039 A 
ATOM     31  C   UNL A   1      36.791  30.206  27.357  1.00  0.00     0.014 A 
ATOM     32  C   UNL A   1      36.302  29.562  29.653  1.00  0.00     0.014 A 
ATOM     33  C   UNL A   1      38.113  29.799  27.530  1.00  0.00     0.010 A 
ATOM     34  C   UNL A   1      37.630  29.192  29.833  1.00  0.00     0.010 A 
ATOM     35  C   UNL A   1      38.548  29.324  28.778  1.00  0.00    -0.014 A 
BRANCH  35  36
ATOM     36  C   UNL A   1      39.969  28.978  29.000  1.00  0.00     0.031 A 
ATOM     37  C   UNL A   1      40.907  30.001  29.566  1.00  0.00     0.074 A 
ATOM     38  C   UNL A   1      40.415  27.756  28.649  1.00  0.00     0.049 A 
ATOM     39  N   UNL A   1      42.188  29.898  29.807  1.00  0.00    -0.248 NA
ATOM     40  C   UNL A   1      40.335  31.318  29.891  1.00  0.00     0.031 C 
ATOM     41  C   UNL A   1      39.600  26.695  28.051  1.00  0.00     0.029 A 
ATOM     42  N   UNL A   1      41.666  27.200  28.738  1.00  0.00    -0.354 N 
ATOM     43  C   UNL A   1      42.576  31.131  30.313  1.00  0.00     0.074 A 
ATOM     44  C   UNL A   1      41.406  31.983  30.302  1.00  0.00     0.031 C 
ATOM     45  C   UNL A   1      40.368  25.612  27.845  1.00  0.00     0.029 A 
ATOM     46  C   UNL A   1      41.731  25.906  28.279  1.00  0.00     0.049 A 
ATOM     47  H   UNL A   1      42.445  27.684  29.099  1.00  0.00     0.167 HD
ATOM     48  C   UNL A   1      43.792  31.509  30.769  1.00  0.00     0.037 A 
ATOM     49  C   UNL A   1      42.773  25.054  28.221  1.00  0.00     0.037 A 
ATOM     50  C   UNL A   1      44.946  30.652  30.795  1.00  0.00     0.049 A 
ATOM     51  C   UNL A   1      44.114  25.499  28.734  1.00  0.00     0.074 A 
ATOM     52  C   UNL A   1      46.216  30.934  31.267  1.00  0.00     0.029 A 
ATOM     53  N   UNL A   1      44.967  29.343  30.337  1.00  0.00    -0.354 N 
ATOM     54  N   UNL A   1      44.453  26.656  29.250  1.00  0.00    -0.248 NA
ATOM     55  C   UNL A   1      45.213  24.525  28.664  1.00  0.00     0.031 C 
ATOM     56  C   UNL A   1      47.012  29.799  31.078  1.00  0.00     0.029 A 
ATOM     57  C   UNL A   1      46.230  28.804  30.512  1.00  0.00     0.049 A 
ATOM     58  H   UNL A   1      44.199  28.868  29.947  1.00  0.00     0.167 HD
ATOM     59  C   UNL A   1      45.796  26.541  29.589  1.00  0.00     0.074 A 
ATOM     60  C   UNL A   1      46.209  25.202  29.221  1.00  0.00     0.031 C 
ATOM     61  C   UNL A   1      46.612  27.462  30.155  1.00  0.00     0.037 A 
BRANCH  48  62
ATOM     62  C   UNL A   1      43.927  32.904  31.299  1.00  0.00     0.058 A 
ATOM     63  C   UNL A   1      44.237  33.975  30.445  1.00  0.00     0.135 A 
ATOM     64  C   UNL A   1      43.711  33.184  32.657  1.00  0.00     0.135 A 
ATOM     65  F   UNL A   1      44.472  33.753  29.142  1.00  0.00    -0.206 F 
ATOM     66  C   UNL A   1      44.342  35.275  30.923  1.00  0.00     0.059 A 
ATOM     67  C   UNL A   1      43.793  34.482  33.153  1.00  0.00     0.059 A 
ATOM     68  F   UNL A   1      43.419  32.192  33.513  1.00  0.00    -0.206 F 
ATOM     69  C   UNL A   1      44.119  35.518  32.280  1.00  0.00     0.060 A 
BRANCH  69  70
ATOM     70  S   UNL A   1      44.246  37.216  32.883  1.00  0.00     0.124 S 
ATOM     71  O   UNL A   1      45.456  37.145  33.696  1.00  0.00    -0.237 OA
ATOM     72  O   UNL A   1      44.359  37.981  31.645  1.00  0.00    -0.237 OA
ATOM     73  O   UNL A   1      43.002  37.406  33.622  1.00  0.00    -0.744 OA
ENDBRANCH  69  70
ENDBRANCH  48  62
BRANCH  49  74
ATOM     74  C   UNL A   1      42.580  23.680  27.692  1.00  0.00     0.058 A 
ATOM     75  C   UNL A   1      42.617  23.433  26.313  1.00  0.00     0.135 A 
ATOM     76  C   UNL A   1      42.364  22.592  28.549  1.00  0.00     0.135 A 
ATOM     77  F   UNL A   1      42.818  24.446  25.455  1.00  0.00    -0.206 F 
ATOM     78  C   UNL A   1      42.432  22.155  25.797  1.00  0.00     0.059 A 
ATOM     79  C   UNL A   1      42.192  21.302  28.059  1.00  0.00     0.059 A 
ATOM     80  F   UNL A   1      42.336  22.777  29.879  1.00  0.00    -0.206 F 
ATOM     81  C   UNL A   1      42.218  21.095  26.680  1.00  0.00     0.060 A 
BRANCH  81  82
ATOM     82  S   UNL A   1      42.022  19.431  26.004  1.00  0.00     0.124 S 
ATOM     83  O   UNL A   1      42.889  19.486  24.833  1.00  0.00    -0.237 OA
ATOM     84  O   UNL A   1      42.486  18.592  27.105  1.00  0.00    -0.237 OA
ATOM     85  O   UNL A   1      40.590  19.350  25.729  1.00  0.00    -0.744 OA
ENDBRANCH  81  82
ENDBRANCH  49  74
BRANCH  61  86
ATOM     86  C   UNL A   1      48.027  27.055  30.442  1.00  0.00     0.058 A 
ATOM     87  C   UNL A   1      49.046  27.255  29.500  1.00  0.00     0.135 A 
ATOM     88  C   UNL A   1      48.379  26.555  31.704  1.00  0.00     0.135 A 
ATOM     89  F   UNL A   1      48.755  27.725  28.278  1.00  0.00    -0.206 F 
ATOM     90  C   UNL A   1      50.374  26.976  29.805  1.00  0.00     0.059 A 
ATOM     91  C   UNL A   1      49.701  26.284  32.035  1.00  0.00     0.059 A 
ATOM     92  F   UNL A   1      47.436  26.353  32.639  1.00  0.00    -0.206 F 
ATOM     93  C   UNL A   1      50.693  26.497  31.077  1.00  0.00     0.060 A 
BRANCH  93  94
ATOM     94  S   UNL A   1      52.429  26.213  31.486  1.00  0.00     0.124 S 
ATOM     95  O   UNL A   1      52.680  27.275  32.454  1.00  0.00    -0.237 OA
ATOM     96  O   UNL A   1      52.407  24.856  32.023  1.00  0.00    -0.237 OA
ATOM     97  O   UNL A   1      53.107  26.360  30.201  1.00  0.00    -0.744 OA
ENDBRANCH  93  94
ENDBRANCH  61  86
ENDBRANCH  35  36
ENDBRANCH  27  30
ENDBRANCH  25  26
ENDBRANCH   1  25
TORSDOF 16
ENDMDL
MODEL 3
REMARK VINA RESULT:     -11.5      1.398      2.098
REMARK SMILES COc1cc(Cl)c2c(c1)C=C(C(=O)NCCCCNC(=O)c1ccc(-c3c4nc(c(-c5c(F)cc(S(=O)(=O)[O-])cc5F)c5ccc([nH]5)c(-c5c(F)cc(S(=O)(=O)[O-])cc5F)c5nc(c(-c6c(F)cc(S(=O)(=O)[O-])cc6F)c6ccc3[nH]6)C=C5)C=C4)cc1)[C@@H](C(F)(F)F)O2
REMARK SMILES IDX 17 1 16 2 15 3 14 4 12 5 13 6 11 8 3 9 4 10 9 11 5 12 8 13
REMARK SMILES IDX 6 14 7 15 10 16 93 17 88 18 2 19 1 20 89 21 90 22 91 23
REMARK SMILES IDX 92 24 18 25 19 26 20 27 21 29 22 30 23 31 87 32 24 33 86 34
REMARK SMILES IDX 25 35 26 36 27 37 80 38 28 39 85 40 79 41 81 42 29 43 84 44
REMARK SMILES IDX 78 45 77 46 30 48 64 49 43 50 63 51 44 52 47 53 62 54 82 55
REMARK SMILES IDX 45 56 46 57 61 59 83 60 48 61 31 62 32 63 41 64 33 65 34 66
REMARK SMILES IDX 40 67 42 68 35 69 36 70 37 71 38 72 39 73 65 74 66 75 75 76
REMARK SMILES IDX 67 77 68 78 74 79 76 80 69 81 70 82 71 83 72 84 73 85 49 86
REMARK SMILES IDX 50 87 59 88 51 89 52 90 58 91 60 92 53 93 54 94 55 95 56 96
REMARK SMILES IDX 57 97
REMARK H PARENT 14 7 19 28 81 47 47 58
REMARK Flexibility Score: inf
ROOT
ATOM      1  C   UNL A   1      32.610  28.171  26.061  1.00  0.00     0.023 C 
ENDROOT
BRANCH   1   2
ATOM      2  C   UNL A   1      31.356  27.348  26.375  1.00  0.00     0.023 C 
BRANCH   2   3
ATOM      3  C   UNL A   1      31.377  25.937  25.796  1.00  0.00     0.116 C 
BRANCH   3   4
ATOM      4  N   UNL A   1      31.661  25.937  24.373  1.00  0.00    -0.352 N 
ATOM      5  C   UNL A   1      32.363  25.172  23.507  1.00  0.00     0.251 C 
ATOM      6  O   UNL A   1      32.351  25.556  22.334  1.00  0.00    -0.270 OA
ATOM      7  H   UNL A   1      31.228  26.696  23.917  1.00  0.00     0.163 HD
BRANCH   5   8
ATOM      8  C   UNL A   1      33.118  23.933  23.864  1.00  0.00     0.067 C 
ATOM      9  C   UNL A   1      32.892  19.218  24.938  1.00  0.00     0.121 A 
ATOM     10  C   UNL A   1      34.282  19.163  25.033  1.00  0.00     0.070 A 
ATOM     11  C   UNL A   1      32.274  20.409  24.540  1.00  0.00     0.058 A 
ATOM     12  C   UNL A   1      35.044  20.302  24.755  1.00  0.00     0.087 A 
ATOM     13  C   UNL A   1      33.031  21.554  24.279  1.00  0.00     0.022 A 
ATOM     14  Cl  UNL A   1      36.763  20.191  24.886  1.00  0.00    -0.080 Cl
ATOM     15  C   UNL A   1      34.421  21.502  24.395  1.00  0.00     0.146 A 
ATOM     16  C   UNL A   1      32.392  22.799  23.872  1.00  0.00     0.025 C 
ATOM     17  O   UNL A   1      35.200  22.592  24.117  1.00  0.00    -0.474 OA
ATOM     18  C   UNL A   1      34.566  23.895  24.260  1.00  0.00     0.314 C 
BRANCH   9  19
ATOM     19  O   UNL A   1      32.037  18.178  25.180  1.00  0.00    -0.497 OA
ATOM     20  C   UNL A   1      32.642  16.935  25.519  1.00  0.00     0.278 C 
ENDBRANCH   9  19
BRANCH  18  21
ATOM     21  C   UNL A   1      34.808  24.426  25.686  1.00  0.00     0.429 C 
ATOM     22  F   UNL A   1      36.029  24.041  26.136  1.00  0.00    -0.167 F 
ATOM     23  F   UNL A   1      34.782  25.776  25.751  1.00  0.00    -0.167 F 
ATOM     24  F   UNL A   1      33.890  23.970  26.569  1.00  0.00    -0.167 F 
ENDBRANCH  18  21
ENDBRANCH   5   8
ENDBRANCH   3   4
ENDBRANCH   2   3
ENDBRANCH   1   2
BRANCH   1  25
ATOM     25  C   UNL A   1      33.499  28.500  27.260  1.00  0.00     0.116 C 
BRANCH  25  26
ATOM     26  N   UNL A   1      33.398  29.883  27.703  1.00  0.00    -0.352 N 
ATOM     27  C   UNL A   1      34.395  30.659  28.247  1.00  0.00     0.251 C 
ATOM     28  H   UNL A   1      32.517  30.311  27.602  1.00  0.00     0.163 HD
ATOM     29  O   UNL A   1      34.172  31.801  28.631  1.00  0.00    -0.269 OA
BRANCH  27  30
ATOM     30  C   UNL A   1      35.730  30.055  28.398  1.00  0.00     0.039 A 
ATOM     31  C   UNL A   1      36.598  30.070  27.305  1.00  0.00     0.014 A 
ATOM     32  C   UNL A   1      36.147  29.594  29.649  1.00  0.00     0.014 A 
ATOM     33  C   UNL A   1      37.924  29.684  27.487  1.00  0.00     0.010 A 
ATOM     34  C   UNL A   1      37.481  29.246  29.836  1.00  0.00     0.010 A 
ATOM     35  C   UNL A   1      38.381  29.305  28.760  1.00  0.00    -0.014 A 
BRANCH  35  36
ATOM     36  C   UNL A   1      39.809  28.984  28.984  1.00  0.00     0.031 A 
ATOM     37  C   UNL A   1      40.725  30.021  29.559  1.00  0.00     0.074 A 
ATOM     38  C   UNL A   1      40.278  27.773  28.628  1.00  0.00     0.049 A 
ATOM     39  N   UNL A   1      42.007  29.942  29.803  1.00  0.00    -0.248 NA
ATOM     40  C   UNL A   1      40.127  31.326  29.889  1.00  0.00     0.031 C 
ATOM     41  C   UNL A   1      39.485  26.700  28.023  1.00  0.00     0.029 A 
ATOM     42  N   UNL A   1      41.539  27.240  28.719  1.00  0.00    -0.354 N 
ATOM     43  C   UNL A   1      42.370  31.179  30.317  1.00  0.00     0.074 A 
ATOM     44  C   UNL A   1      41.184  32.009  30.307  1.00  0.00     0.031 C 
ATOM     45  C   UNL A   1      40.274  25.633  27.814  1.00  0.00     0.029 A 
ATOM     46  C   UNL A   1      41.630  25.949  28.254  1.00  0.00     0.049 A 
ATOM     47  H   UNL A   1      42.308  27.736  29.085  1.00  0.00     0.167 HD
ATOM     48  C   UNL A   1      43.577  31.577  30.779  1.00  0.00     0.037 A 
ATOM     49  C   UNL A   1      42.688  25.118  28.195  1.00  0.00     0.037 A 
ATOM     50  C   UNL A   1      44.747  30.742  30.805  1.00  0.00     0.049 A 
ATOM     51  C   UNL A   1      44.019  25.585  28.715  1.00  0.00     0.074 A 
ATOM     52  C   UNL A   1      46.010  31.045  31.282  1.00  0.00     0.029 A 
ATOM     53  N   UNL A   1      44.794  29.436  30.340  1.00  0.00    -0.354 N 
ATOM     54  N   UNL A   1      44.334  26.746  29.238  1.00  0.00    -0.248 NA
ATOM     55  C   UNL A   1      45.136  24.632  28.643  1.00  0.00     0.031 C 
ATOM     56  C   UNL A   1      46.828  29.926  31.089  1.00  0.00     0.029 A 
ATOM     57  C   UNL A   1      46.066  28.920  30.516  1.00  0.00     0.049 A 
ATOM     58  H   UNL A   1      44.037  28.949  29.945  1.00  0.00     0.167 HD
ATOM     59  C   UNL A   1      45.678  26.654  29.580  1.00  0.00     0.074 A 
ATOM     60  C   UNL A   1      46.117  25.325  29.206  1.00  0.00     0.031 C 
ATOM     61  C   UNL A   1      46.475  27.587  30.153  1.00  0.00     0.037 A 
BRANCH  48  62
ATOM     62  C   UNL A   1      43.685  32.972  31.316  1.00  0.00     0.058 A 
ATOM     63  C   UNL A   1      43.433  33.247  32.670  1.00  0.00     0.135 A 
ATOM     64  C   UNL A   1      44.077  34.035  30.489  1.00  0.00     0.135 A 
ATOM     65  F   UNL A   1      43.036  32.266  33.496  1.00  0.00    -0.206 F 
ATOM     66  C   UNL A   1      43.552  34.533  33.182  1.00  0.00     0.059 A 
ATOM     67  C   UNL A   1      44.220  35.328  30.985  1.00  0.00     0.059 A 
ATOM     68  F   UNL A   1      44.322  33.823  29.186  1.00  0.00    -0.206 F 
ATOM     69  C   UNL A   1      43.946  35.567  32.331  1.00  0.00     0.060 A 
BRANCH  69  70
ATOM     70  S   UNL A   1      44.110  37.230  33.015  1.00  0.00     0.124 S 
ATOM     71  O   UNL A   1      45.469  37.193  33.546  1.00  0.00    -0.237 OA
ATOM     72  O   UNL A   1      43.911  38.074  31.841  1.00  0.00    -0.237 OA
ATOM     73  O   UNL A   1      43.047  37.292  34.014  1.00  0.00    -0.744 OA
ENDBRANCH  69  70
ENDBRANCH  48  62
BRANCH  49  74
ATOM     74  C   UNL A   1      42.522  23.743  27.659  1.00  0.00     0.058 A 
ATOM     75  C   UNL A   1      42.396  22.648  28.526  1.00  0.00     0.135 A 
ATOM     76  C   UNL A   1      42.480  23.497  26.279  1.00  0.00     0.135 A 
ATOM     77  F   UNL A   1      42.436  22.836  29.854  1.00  0.00    -0.206 F 
ATOM     78  C   UNL A   1      42.248  21.352  28.044  1.00  0.00     0.059 A 
ATOM     79  C   UNL A   1      42.316  22.212  25.773  1.00  0.00     0.059 A 
ATOM     80  F   UNL A   1      42.580  24.516  25.411  1.00  0.00    -0.206 F 
ATOM     81  C   UNL A   1      42.210  21.144  26.664  1.00  0.00     0.060 A 
BRANCH  81  82
ATOM     82  S   UNL A   1      41.973  19.463  26.048  1.00  0.00     0.124 S 
ATOM     83  O   UNL A   1      42.828  19.459  24.867  1.00  0.00    -0.237 OA
ATOM     84  O   UNL A   1      42.430  18.652  27.172  1.00  0.00    -0.237 OA
ATOM     85  O   UNL A   1      40.536  19.403  25.789  1.00  0.00    -0.744 OA
ENDBRANCH  81  82
ENDBRANCH  49  74
BRANCH  61  86
ATOM     86  C   UNL A   1      47.896  27.205  30.443  1.00  0.00     0.058 A 
ATOM     87  C   UNL A   1      48.915  27.433  29.508  1.00  0.00     0.135 A 
ATOM     88  C   UNL A   1      48.252  26.700  31.702  1.00  0.00     0.135 A 
ATOM     89  F   UNL A   1      48.620  27.909  28.288  1.00  0.00    -0.206 F 
ATOM     90  C   UNL A   1      50.247  27.178  29.815  1.00  0.00     0.059 A 
ATOM     91  C   UNL A   1      49.578  26.452  32.036  1.00  0.00     0.059 A 
ATOM     92  F   UNL A   1      47.309  26.472  32.631  1.00  0.00    -0.206 F 
ATOM     93  C   UNL A   1      50.570  26.693  31.085  1.00  0.00     0.060 A 
BRANCH  93  94
ATOM     94  S   UNL A   1      52.309  26.439  31.499  1.00  0.00     0.124 S 
ATOM     95  O   UNL A   1      52.326  25.019  31.835  1.00  0.00    -0.237 OA
ATOM     96  O   UNL A   1      52.985  26.806  30.259  1.00  0.00    -0.237 OA
ATOM     97  O   UNL A   1      52.527  27.352  32.617  1.00  0.00    -0.744 OA
ENDBRANCH  93  94
ENDBRANCH  61  86
ENDBRANCH  35  36
ENDBRANCH  27  30
ENDBRANCH  25  26
ENDBRANCH   1  25
TORSDOF 16
ENDMDL
