MODEL 1
REMARK VINA RESULT:     -11.7      0.000      0.000
REMARK SMILES C#Cc1cc(Cl)c2c(c1)C=C(C(=O)NCCCCNC(=O)c1ccc(-c3c4nc(c(-c5c(F)cc(S(=O)(=O)[O-])cc5F)c5ccc([nH]5)c(-c5c(F)cc(S(=O)(=O)[O-])cc5F)c5nc(c(-c6c(F)cc(S(=O)(=O)[O-])cc6F)c6ccc3[nH]6)C=C5)C=C4)cc1)[C@@H](C(F)(F)F)O2
REMARK SMILES IDX 17 1 16 2 15 3 14 4 12 5 13 6 11 8 3 9 4 10 9 11 5 12 8 13
REMARK SMILES IDX 6 14 7 15 10 16 93 17 88 18 2 19 1 20 89 21 90 22 91 23
REMARK SMILES IDX 92 24 18 25 19 26 20 27 21 29 22 30 23 31 87 32 24 33 86 34
REMARK SMILES IDX 25 35 26 36 27 37 80 38 28 39 85 40 79 41 81 42 29 43 84 44
REMARK SMILES IDX 78 45 77 46 30 48 64 49 43 50 63 51 44 52 47 53 62 54 82 55
REMARK SMILES IDX 45 56 46 57 61 59 83 60 48 61 31 62 32 63 41 64 33 65 34 66
REMARK SMILES IDX 40 67 42 68 35 69 36 70 37 71 38 72 39 73 65 74 66 75 75 76
REMARK SMILES IDX 67 77 68 78 74 79 76 80 69 81 70 82 71 83 72 84 73 85 49 86
REMARK SMILES IDX 50 87 59 88 51 89 52 90 58 91 60 92 53 93 54 94 55 95 56 96
REMARK SMILES IDX 57 97
REMARK H PARENT 14 7 19 28 81 47 47 58
REMARK Flexibility Score: inf
ROOT
ATOM      1  C   UNL A   1      34.020  28.274  25.761  1.00  0.00     0.023 C 
ENDROOT
BRANCH   1   2
ATOM      2  C   UNL A   1      32.934  28.704  24.783  1.00  0.00     0.023 C 
BRANCH   2   3
ATOM      3  C   UNL A   1      32.158  27.533  24.197  1.00  0.00     0.116 C 
BRANCH   3   4
ATOM      4  N   UNL A   1      31.265  26.923  25.169  1.00  0.00    -0.352 N 
ATOM      5  C   UNL A   1      31.147  25.720  25.782  1.00  0.00     0.251 C 
ATOM      6  O   UNL A   1      30.240  25.626  26.614  1.00  0.00    -0.270 OA
ATOM      7  H   UNL A   1      30.562  27.548  25.458  1.00  0.00     0.163 HD
BRANCH   5   8
ATOM      8  C   UNL A   1      32.023  24.541  25.512  1.00  0.00     0.067 C 
ATOM      9  C   UNL A   1      36.411  22.507  25.733  1.00  0.00     0.027 A 
ATOM     10  C   UNL A   1      35.875  21.286  25.319  1.00  0.00     0.041 A 
ATOM     11  C   UNL A   1      35.581  23.620  25.905  1.00  0.00     0.029 A 
ATOM     12  C   UNL A   1      34.511  21.180  25.077  1.00  0.00     0.084 A 
ATOM     13  C   UNL A   1      34.207  23.517  25.661  1.00  0.00     0.020 A 
ATOM     14  Cl  UNL A   1      33.877  19.652  24.576  1.00  0.00    -0.080 Cl
ATOM     15  C   UNL A   1      33.679  22.292  25.239  1.00  0.00     0.146 A 
ATOM     16  C   UNL A   1      33.312  24.647  25.889  1.00  0.00     0.025 C 
ATOM     17  O   UNL A   1      32.344  22.113  25.024  1.00  0.00    -0.474 OA
ATOM     18  C   UNL A   1      31.535  23.295  24.836  1.00  0.00     0.314 C 
BRANCH   9  19
ATOM     19  C   UNL A   1      37.812  22.596  25.996  1.00  0.00    -0.070 C 
ATOM     20  C   UNL A   1      38.985  22.705  26.235  1.00  0.00     0.010 C 
ENDBRANCH   9  19
BRANCH  18  21
ATOM     21  C   UNL A   1      31.288  23.505  23.329  1.00  0.00     0.429 C 
ATOM     22  F   UNL A   1      30.009  23.898  23.109  1.00  0.00    -0.167 F 
ATOM     23  F   UNL A   1      32.080  24.464  22.793  1.00  0.00    -0.167 F 
ATOM     24  F   UNL A   1      31.499  22.379  22.612  1.00  0.00    -0.167 F 
ENDBRANCH  18  21
ENDBRANCH   5   8
ENDBRANCH   3   4
ENDBRANCH   2   3
ENDBRANCH   1   2
BRANCH   1  25
ATOM     25  C   UNL A   1      33.655  28.461  27.230  1.00  0.00     0.116 C 
BRANCH  25  26
ATOM     26  N   UNL A   1      33.580  29.860  27.633  1.00  0.00    -0.352 N 
ATOM     27  C   UNL A   1      34.571  30.628  28.197  1.00  0.00     0.251 C 
ATOM     28  H   UNL A   1      32.717  30.310  27.481  1.00  0.00     0.163 HD
ATOM     29  O   UNL A   1      34.336  31.758  28.610  1.00  0.00    -0.269 OA
BRANCH  27  30
ATOM     30  C   UNL A   1      35.913  30.034  28.325  1.00  0.00     0.039 A 
ATOM     31  C   UNL A   1      36.802  30.129  27.254  1.00  0.00     0.014 A 
ATOM     32  C   UNL A   1      36.319  29.502  29.553  1.00  0.00     0.014 A 
ATOM     33  C   UNL A   1      38.129  29.746  27.440  1.00  0.00     0.010 A 
ATOM     34  C   UNL A   1      37.660  29.219  29.762  1.00  0.00     0.010 A 
ATOM     35  C   UNL A   1      38.577  29.328  28.706  1.00  0.00    -0.014 A 
BRANCH  35  36
ATOM     36  C   UNL A   1      39.998  28.971  28.933  1.00  0.00     0.031 A 
ATOM     37  C   UNL A   1      40.928  29.985  29.542  1.00  0.00     0.074 A 
ATOM     38  C   UNL A   1      40.453  27.756  28.571  1.00  0.00     0.049 A 
ATOM     39  N   UNL A   1      42.203  29.878  29.805  1.00  0.00    -0.248 NA
ATOM     40  C   UNL A   1      40.354  31.299  29.878  1.00  0.00     0.031 C 
ATOM     41  C   UNL A   1      39.650  26.705  27.941  1.00  0.00     0.029 A 
ATOM     42  N   UNL A   1      41.700  27.195  28.686  1.00  0.00    -0.354 N 
ATOM     43  C   UNL A   1      42.581  31.102  30.341  1.00  0.00     0.074 A 
ATOM     44  C   UNL A   1      41.421  31.965  30.291  1.00  0.00     0.031 C 
ATOM     45  C   UNL A   1      40.414  25.614  27.767  1.00  0.00     0.029 A 
ATOM     46  C   UNL A   1      41.769  25.900  28.227  1.00  0.00     0.049 A 
ATOM     47  H   UNL A   1      42.474  27.675  29.060  1.00  0.00     0.167 HD
ATOM     48  C   UNL A   1      43.774  31.464  30.864  1.00  0.00     0.037 A 
ATOM     49  C   UNL A   1      42.807  25.041  28.184  1.00  0.00     0.037 A 
ATOM     50  C   UNL A   1      44.918  30.594  30.919  1.00  0.00     0.049 A 
ATOM     51  C   UNL A   1      44.142  25.484  28.723  1.00  0.00     0.074 A 
ATOM     52  C   UNL A   1      46.167  30.854  31.453  1.00  0.00     0.029 A 
ATOM     53  N   UNL A   1      44.957  29.300  30.419  1.00  0.00    -0.354 N 
ATOM     54  N   UNL A   1      44.467  26.629  29.277  1.00  0.00    -0.248 NA
ATOM     55  C   UNL A   1      45.249  24.524  28.634  1.00  0.00     0.031 C 
ATOM     56  C   UNL A   1      46.979  29.741  31.222  1.00  0.00     0.029 A 
ATOM     57  C   UNL A   1      46.219  28.760  30.604  1.00  0.00     0.049 A 
ATOM     58  H   UNL A   1      44.200  28.835  29.995  1.00  0.00     0.167 HD
ATOM     59  C   UNL A   1      45.809  26.516  29.625  1.00  0.00     0.074 A 
ATOM     60  C   UNL A   1      46.229  25.185  29.234  1.00  0.00     0.031 C 
ATOM     61  C   UNL A   1      46.620  27.431  30.212  1.00  0.00     0.037 A 
BRANCH  48  62
ATOM     62  C   UNL A   1      43.900  32.853  31.428  1.00  0.00     0.058 A 
ATOM     63  C   UNL A   1      43.619  33.126  32.777  1.00  0.00     0.135 A 
ATOM     64  C   UNL A   1      44.351  33.913  30.627  1.00  0.00     0.135 A 
ATOM     65  F   UNL A   1      43.164  32.155  33.585  1.00  0.00    -0.206 F 
ATOM     66  C   UNL A   1      43.758  34.404  33.305  1.00  0.00     0.059 A 
ATOM     67  C   UNL A   1      44.531  35.194  31.142  1.00  0.00     0.059 A 
ATOM     68  F   UNL A   1      44.630  33.710  29.329  1.00  0.00    -0.206 F 
ATOM     69  C   UNL A   1      44.220  35.431  32.481  1.00  0.00     0.060 A 
BRANCH  69  70
ATOM     70  S   UNL A   1      44.410  37.079  33.191  1.00  0.00     0.124 S 
ATOM     71  O   UNL A   1      44.617  37.890  31.994  1.00  0.00    -0.237 OA
ATOM     72  O   UNL A   1      43.135  37.269  33.872  1.00  0.00    -0.237 OA
ATOM     73  O   UNL A   1      45.572  36.943  34.063  1.00  0.00    -0.744 OA
ENDBRANCH  69  70
ENDBRANCH  48  62
BRANCH  49  74
ATOM     74  C   UNL A   1      42.613  23.668  27.642  1.00  0.00     0.058 A 
ATOM     75  C   UNL A   1      42.725  23.412  26.268  1.00  0.00     0.135 A 
ATOM     76  C   UNL A   1      42.343  22.579  28.486  1.00  0.00     0.135 A 
ATOM     77  F   UNL A   1      42.974  24.420  25.417  1.00  0.00    -0.206 F 
ATOM     78  C   UNL A   1      42.570  22.131  25.747  1.00  0.00     0.059 A 
ATOM     79  C   UNL A   1      42.212  21.283  27.993  1.00  0.00     0.059 A 
ATOM     80  F   UNL A   1      42.237  22.764  29.811  1.00  0.00    -0.206 F 
ATOM     81  C   UNL A   1      42.323  21.071  26.621  1.00  0.00     0.060 A 
BRANCH  81  82
ATOM     82  S   UNL A   1      42.186  19.405  25.937  1.00  0.00     0.124 S 
ATOM     83  O   UNL A   1      40.753  19.305  25.686  1.00  0.00    -0.237 OA
ATOM     84  O   UNL A   1      43.039  19.493  24.755  1.00  0.00    -0.237 OA
ATOM     85  O   UNL A   1      42.699  18.558  27.009  1.00  0.00    -0.744 OA
ENDBRANCH  81  82
ENDBRANCH  49  74
BRANCH  61  86
ATOM     86  C   UNL A   1      48.045  27.031  30.490  1.00  0.00     0.058 A 
ATOM     87  C   UNL A   1      49.091  27.384  29.624  1.00  0.00     0.135 A 
ATOM     88  C   UNL A   1      48.378  26.366  31.682  1.00  0.00     0.135 A 
ATOM     89  F   UNL A   1      48.829  28.018  28.469  1.00  0.00    -0.206 F 
ATOM     90  C   UNL A   1      50.414  27.075  29.920  1.00  0.00     0.059 A 
ATOM     91  C   UNL A   1      49.698  26.079  32.015  1.00  0.00     0.059 A 
ATOM     92  F   UNL A   1      47.418  26.016  32.553  1.00  0.00    -0.206 F 
ATOM     93  C   UNL A   1      50.709  26.430  31.123  1.00  0.00     0.060 A 
BRANCH  93  94
ATOM     94  S   UNL A   1      52.436  26.079  31.508  1.00  0.00     0.124 S 
ATOM     95  O   UNL A   1      53.045  26.101  30.182  1.00  0.00    -0.237 OA
ATOM     96  O   UNL A   1      52.788  27.190  32.387  1.00  0.00    -0.237 OA
ATOM     97  O   UNL A   1      52.384  24.769  32.151  1.00  0.00    -0.744 OA
ENDBRANCH  93  94
ENDBRANCH  61  86
ENDBRANCH  35  36
ENDBRANCH  27  30
ENDBRANCH  25  26
ENDBRANCH   1  25
TORSDOF 16
ENDMDL
MODEL 2
REMARK VINA RESULT:     -11.5      2.983      9.188
REMARK SMILES C#Cc1cc(Cl)c2c(c1)C=C(C(=O)NCCCCNC(=O)c1ccc(-c3c4nc(c(-c5c(F)cc(S(=O)(=O)[O-])cc5F)c5ccc([nH]5)c(-c5c(F)cc(S(=O)(=O)[O-])cc5F)c5nc(c(-c6c(F)cc(S(=O)(=O)[O-])cc6F)c6ccc3[nH]6)C=C5)C=C4)cc1)[C@@H](C(F)(F)F)O2
REMARK SMILES IDX 17 1 16 2 15 3 14 4 12 5 13 6 11 8 3 9 4 10 9 11 5 12 8 13
REMARK SMILES IDX 6 14 7 15 10 16 93 17 88 18 2 19 1 20 89 21 90 22 91 23
REMARK SMILES IDX 92 24 18 25 19 26 20 27 21 29 22 30 23 31 87 32 24 33 86 34
REMARK SMILES IDX 25 35 26 36 27 37 80 38 28 39 85 40 79 41 81 42 29 43 84 44
REMARK SMILES IDX 78 45 77 46 30 48 64 49 43 50 63 51 44 52 47 53 62 54 82 55
REMARK SMILES IDX 45 56 46 57 61 59 83 60 48 61 31 62 32 63 41 64 33 65 34 66
REMARK SMILES IDX 40 67 42 68 35 69 36 70 37 71 38 72 39 73 65 74 66 75 75 76
REMARK SMILES IDX 67 77 68 78 74 79 76 80 69 81 70 82 71 83 72 84 73 85 49 86
REMARK SMILES IDX 50 87 59 88 51 89 52 90 58 91 60 92 53 93 54 94 55 95 56 96
REMARK SMILES IDX 57 97
REMARK H PARENT 14 7 19 28 81 47 47 58
REMARK Flexibility Score: inf
ROOT
ATOM      1  C   UNL A   1      35.775  23.617  26.100  1.00  0.00     0.023 C 
ENDROOT
BRANCH   1   2
ATOM      2  C   UNL A   1      34.946  22.346  25.958  1.00  0.00     0.023 C 
BRANCH   2   3
ATOM      3  C   UNL A   1      33.616  22.575  25.253  1.00  0.00     0.116 C 
BRANCH   3   4
ATOM      4  N   UNL A   1      33.785  22.856  23.836  1.00  0.00    -0.352 N 
ATOM      5  C   UNL A   1      33.575  23.907  23.006  1.00  0.00     0.251 C 
ATOM      6  O   UNL A   1      33.911  23.740  21.830  1.00  0.00    -0.270 OA
ATOM      7  H   UNL A   1      34.148  22.079  23.354  1.00  0.00     0.163 HD
BRANCH   5   8
ATOM      8  C   UNL A   1      32.975  25.209  23.422  1.00  0.00     0.067 C 
ATOM      9  C   UNL A   1      33.336  29.304  25.979  1.00  0.00     0.027 A 
ATOM     10  C   UNL A   1      32.177  29.795  25.374  1.00  0.00     0.041 A 
ATOM     11  C   UNL A   1      33.838  28.046  25.629  1.00  0.00     0.029 A 
ATOM     12  C   UNL A   1      31.521  29.025  24.421  1.00  0.00     0.084 A 
ATOM     13  C   UNL A   1      33.178  27.269  24.670  1.00  0.00     0.020 A 
ATOM     14  Cl  UNL A   1      30.095  29.665  23.682  1.00  0.00    -0.080 Cl
ATOM     15  C   UNL A   1      32.014  27.764  24.073  1.00  0.00     0.146 A 
ATOM     16  C   UNL A   1      33.713  25.979  24.245  1.00  0.00     0.025 C 
ATOM     17  O   UNL A   1      31.347  27.075  23.103  1.00  0.00    -0.474 OA
ATOM     18  C   UNL A   1      31.613  25.660  22.988  1.00  0.00     0.314 C 
BRANCH   9  19
ATOM     19  C   UNL A   1      34.010  30.113  26.944  1.00  0.00    -0.070 C 
ATOM     20  C   UNL A   1      34.561  30.825  27.741  1.00  0.00     0.010 C 
ENDBRANCH   9  19
BRANCH  18  21
ATOM     21  C   UNL A   1      30.485  24.874  23.685  1.00  0.00     0.429 C 
ATOM     22  F   UNL A   1      29.356  25.623  23.748  1.00  0.00    -0.167 F 
ATOM     23  F   UNL A   1      30.153  23.736  23.031  1.00  0.00    -0.167 F 
ATOM     24  F   UNL A   1      30.811  24.519  24.948  1.00  0.00    -0.167 F 
ENDBRANCH  18  21
ENDBRANCH   5   8
ENDBRANCH   3   4
ENDBRANCH   2   3
ENDBRANCH   1   2
BRANCH   1  25
ATOM     25  C   UNL A   1      36.937  23.724  25.118  1.00  0.00     0.116 C 
BRANCH  25  26
ATOM     26  N   UNL A   1      37.991  22.746  25.362  1.00  0.00    -0.352 N 
ATOM     27  C   UNL A   1      39.160  22.925  26.062  1.00  0.00     0.251 C 
ATOM     28  H   UNL A   1      37.847  21.849  24.981  1.00  0.00     0.163 HD
ATOM     29  O   UNL A   1      40.024  22.056  26.081  1.00  0.00    -0.269 OA
BRANCH  27  30
ATOM     30  C   UNL A   1      39.358  24.210  26.755  1.00  0.00     0.039 A 
ATOM     31  C   UNL A   1      38.906  24.350  28.067  1.00  0.00     0.014 A 
ATOM     32  C   UNL A   1      40.103  25.220  26.138  1.00  0.00     0.014 A 
ATOM     33  C   UNL A   1      39.264  25.487  28.788  1.00  0.00     0.010 A 
ATOM     34  C   UNL A   1      40.540  26.300  26.890  1.00  0.00     0.010 A 
ATOM     35  C   UNL A   1      40.117  26.450  28.219  1.00  0.00    -0.014 A 
BRANCH  35  36
ATOM     36  C   UNL A   1      40.551  27.638  28.993  1.00  0.00     0.031 A 
ATOM     37  C   UNL A   1      41.923  27.659  29.609  1.00  0.00     0.074 A 
ATOM     38  C   UNL A   1      39.709  28.676  29.163  1.00  0.00     0.049 A 
ATOM     39  N   UNL A   1      42.486  28.589  30.334  1.00  0.00    -0.248 NA
ATOM     40  C   UNL A   1      42.767  26.470  29.401  1.00  0.00     0.031 C 
ATOM     41  C   UNL A   1      38.342  28.750  28.641  1.00  0.00     0.029 A 
ATOM     42  N   UNL A   1      39.878  29.871  29.817  1.00  0.00    -0.354 N 
ATOM     43  C   UNL A   1      43.744  28.102  30.662  1.00  0.00     0.074 A 
ATOM     44  C   UNL A   1      43.835  26.762  30.126  1.00  0.00     0.031 C 
ATOM     45  C   UNL A   1      37.816  29.945  28.957  1.00  0.00     0.029 A 
ATOM     46  C   UNL A   1      38.786  30.702  29.742  1.00  0.00     0.049 A 
ATOM     47  H   UNL A   1      40.705  30.109  30.296  1.00  0.00     0.167 HD
ATOM     48  C   UNL A   1      44.749  28.728  31.315  1.00  0.00     0.037 A 
ATOM     49  C   UNL A   1      38.590  31.937  30.248  1.00  0.00     0.037 A 
ATOM     50  C   UNL A   1      44.653  30.066  31.834  1.00  0.00     0.049 A 
ATOM     51  C   UNL A   1      39.705  32.593  31.019  1.00  0.00     0.074 A 
ATOM     52  C   UNL A   1      45.623  30.803  32.488  1.00  0.00     0.029 A 
ATOM     53  N   UNL A   1      43.520  30.866  31.763  1.00  0.00    -0.354 N 
ATOM     54  N   UNL A   1      40.909  32.138  31.273  1.00  0.00    -0.248 NA
ATOM     55  C   UNL A   1      39.437  33.927  31.572  1.00  0.00     0.031 C 
ATOM     56  C   UNL A   1      45.059  32.024  32.867  1.00  0.00     0.029 A 
ATOM     57  C   UNL A   1      43.759  32.077  32.390  1.00  0.00     0.049 A 
ATOM     58  H   UNL A   1      42.674  30.610  31.331  1.00  0.00     0.167 HD
ATOM     59  C   UNL A   1      41.551  33.141  31.993  1.00  0.00     0.074 A 
ATOM     60  C   UNL A   1      40.606  34.232  32.119  1.00  0.00     0.031 C 
ATOM     61  C   UNL A   1      42.808  33.155  32.504  1.00  0.00     0.037 A 
BRANCH  48  62
ATOM     62  C   UNL A   1      46.042  27.979  31.495  1.00  0.00     0.058 A 
ATOM     63  C   UNL A   1      46.275  27.176  32.623  1.00  0.00     0.135 A 
ATOM     64  C   UNL A   1      47.039  28.027  30.508  1.00  0.00     0.135 A 
ATOM     65  F   UNL A   1      45.365  27.110  33.607  1.00  0.00    -0.206 F 
ATOM     66  C   UNL A   1      47.460  26.466  32.778  1.00  0.00     0.059 A 
ATOM     67  C   UNL A   1      48.219  27.297  30.626  1.00  0.00     0.059 A 
ATOM     68  F   UNL A   1      46.872  28.783  29.411  1.00  0.00    -0.206 F 
ATOM     69  C   UNL A   1      48.424  26.528  31.771  1.00  0.00     0.060 A 
BRANCH  69  70
ATOM     70  S   UNL A   1      49.947  25.585  31.984  1.00  0.00     0.124 S 
ATOM     71  O   UNL A   1      50.867  26.617  32.454  1.00  0.00    -0.237 OA
ATOM     72  O   UNL A   1      49.555  24.588  32.974  1.00  0.00    -0.237 OA
ATOM     73  O   UNL A   1      50.218  25.067  30.647  1.00  0.00    -0.744 OA
ENDBRANCH  69  70
ENDBRANCH  48  62
BRANCH  49  74
ATOM     74  C   UNL A   1      37.299  32.640  30.010  1.00  0.00     0.058 A 
ATOM     75  C   UNL A   1      36.190  32.412  30.837  1.00  0.00     0.135 A 
ATOM     76  C   UNL A   1      37.156  33.576  28.973  1.00  0.00     0.135 A 
ATOM     77  F   UNL A   1      36.272  31.521  31.837  1.00  0.00    -0.206 F 
ATOM     78  C   UNL A   1      34.984  33.078  30.643  1.00  0.00     0.059 A 
ATOM     79  C   UNL A   1      35.969  34.277  28.777  1.00  0.00     0.059 A 
ATOM     80  F   UNL A   1      38.189  33.843  28.159  1.00  0.00    -0.206 F 
ATOM     81  C   UNL A   1      34.887  34.017  29.615  1.00  0.00     0.060 A 
BRANCH  81  82
ATOM     82  S   UNL A   1      33.336  34.920  29.415  1.00  0.00     0.124 S 
ATOM     83  O   UNL A   1      32.778  34.851  30.762  1.00  0.00    -0.237 OA
ATOM     84  O   UNL A   1      33.803  36.232  28.982  1.00  0.00    -0.237 OA
ATOM     85  O   UNL A   1      32.626  34.148  28.400  1.00  0.00    -0.744 OA
ENDBRANCH  81  82
ENDBRANCH  49  74
BRANCH  61  86
ATOM     86  C   UNL A   1      43.253  34.393  33.236  1.00  0.00     0.058 A 
ATOM     87  C   UNL A   1      43.805  35.491  32.559  1.00  0.00     0.135 A 
ATOM     88  C   UNL A   1      43.041  34.517  34.620  1.00  0.00     0.135 A 
ATOM     89  F   UNL A   1      44.032  35.426  31.237  1.00  0.00    -0.206 F 
ATOM     90  C   UNL A   1      44.148  36.660  33.229  1.00  0.00     0.059 A 
ATOM     91  C   UNL A   1      43.345  35.689  35.304  1.00  0.00     0.059 A 
ATOM     92  F   UNL A   1      42.504  33.503  35.316  1.00  0.00    -0.206 F 
ATOM     93  C   UNL A   1      43.906  36.753  34.601  1.00  0.00     0.060 A 
BRANCH  93  94
ATOM     94  S   UNL A   1      44.317  38.295  35.443  1.00  0.00     0.124 S 
ATOM     95  O   UNL A   1      43.764  38.062  36.773  1.00  0.00    -0.237 OA
ATOM     96  O   UNL A   1      45.774  38.316  35.356  1.00  0.00    -0.237 OA
ATOM     97  O   UNL A   1      43.631  39.311  34.649  1.00  0.00    -0.744 OA
ENDBRANCH  93  94
ENDBRANCH  61  86
ENDBRANCH  35  36
ENDBRANCH  27  30
ENDBRANCH  25  26
ENDBRANCH   1  25
TORSDOF 16
ENDMDL
MODEL 3
REMARK VINA RESULT:     -11.2      4.730     10.336
REMARK SMILES C#Cc1cc(Cl)c2c(c1)C=C(C(=O)NCCCCNC(=O)c1ccc(-c3c4nc(c(-c5c(F)cc(S(=O)(=O)[O-])cc5F)c5ccc([nH]5)c(-c5c(F)cc(S(=O)(=O)[O-])cc5F)c5nc(c(-c6c(F)cc(S(=O)(=O)[O-])cc6F)c6ccc3[nH]6)C=C5)C=C4)cc1)[C@@H](C(F)(F)F)O2
REMARK SMILES IDX 17 1 16 2 15 3 14 4 12 5 13 6 11 8 3 9 4 10 9 11 5 12 8 13
REMARK SMILES IDX 6 14 7 15 10 16 93 17 88 18 2 19 1 20 89 21 90 22 91 23
REMARK SMILES IDX 92 24 18 25 19 26 20 27 21 29 22 30 23 31 87 32 24 33 86 34
REMARK SMILES IDX 25 35 26 36 27 37 80 38 28 39 85 40 79 41 81 42 29 43 84 44
REMARK SMILES IDX 78 45 77 46 30 48 64 49 43 50 63 51 44 52 47 53 62 54 82 55
REMARK SMILES IDX 45 56 46 57 61 59 83 60 48 61 31 62 32 63 41 64 33 65 34 66
REMARK SMILES IDX 40 67 42 68 35 69 36 70 37 71 38 72 39 73 65 74 66 75 75 76
REMARK SMILES IDX 67 77 68 78 74 79 76 80 69 81 70 82 71 83 72 84 73 85 49 86
REMARK SMILES IDX 50 87 59 88 51 89 52 90 58 91 60 92 53 93 54 94 55 95 56 96
REMARK SMILES IDX 57 97
REMARK H PARENT 14 7 19 28 81 47 47 58
REMARK Flexibility Score: inf
ROOT
ATOM      1  C   UNL A   1      40.278  21.761  26.905  1.00  0.00     0.023 C 
ENDROOT
BRANCH   1   2
ATOM      2  C   UNL A   1      38.999  21.470  26.130  1.00  0.00     0.023 C 
BRANCH   2   3
ATOM      3  C   UNL A   1      38.180  22.720  25.835  1.00  0.00     0.116 C 
BRANCH   3   4
ATOM      4  N   UNL A   1      37.757  22.784  24.445  1.00  0.00    -0.352 N 
ATOM      5  C   UNL A   1      36.605  23.026  23.774  1.00  0.00     0.251 C 
ATOM      6  O   UNL A   1      36.690  23.034  22.543  1.00  0.00    -0.270 OA
ATOM      7  H   UNL A   1      38.505  22.604  23.830  1.00  0.00     0.163 HD
BRANCH   5   8
ATOM      8  C   UNL A   1      35.282  23.272  24.423  1.00  0.00     0.067 C 
ATOM      9  C   UNL A   1      32.200  26.380  26.491  1.00  0.00     0.027 A 
ATOM     10  C   UNL A   1      31.208  25.398  26.508  1.00  0.00     0.041 A 
ATOM     11  C   UNL A   1      33.459  26.103  25.948  1.00  0.00     0.029 A 
ATOM     12  C   UNL A   1      31.476  24.140  25.983  1.00  0.00     0.084 A 
ATOM     13  C   UNL A   1      33.732  24.835  25.419  1.00  0.00     0.020 A 
ATOM     14  Cl  UNL A   1      30.223  22.950  26.009  1.00  0.00    -0.080 Cl
ATOM     15  C   UNL A   1      32.735  23.855  25.446  1.00  0.00     0.146 A 
ATOM     16  C   UNL A   1      35.018  24.539  24.794  1.00  0.00     0.025 C 
ATOM     17  O   UNL A   1      32.923  22.615  24.911  1.00  0.00    -0.474 OA
ATOM     18  C   UNL A   1      34.284  22.185  24.686  1.00  0.00     0.314 C 
BRANCH   9  19
ATOM     19  C   UNL A   1      31.905  27.674  27.019  1.00  0.00    -0.070 C 
ATOM     20  C   UNL A   1      31.619  28.757  27.455  1.00  0.00     0.010 C 
ENDBRANCH   9  19
BRANCH  18  21
ATOM     21  C   UNL A   1      34.718  21.257  25.837  1.00  0.00     0.429 C 
ATOM     22  F   UNL A   1      33.668  20.514  26.268  1.00  0.00    -0.167 F 
ATOM     23  F   UNL A   1      35.683  20.380  25.472  1.00  0.00    -0.167 F 
ATOM     24  F   UNL A   1      35.196  21.943  26.899  1.00  0.00    -0.167 F 
ENDBRANCH  18  21
ENDBRANCH   5   8
ENDBRANCH   3   4
ENDBRANCH   2   3
ENDBRANCH   1   2
BRANCH   1  25
ATOM     25  C   UNL A   1      40.495  23.234  27.234  1.00  0.00     0.116 C 
BRANCH  25  26
ATOM     26  N   UNL A   1      40.969  24.015  26.097  1.00  0.00    -0.352 N 
ATOM     27  C   UNL A   1      41.256  25.359  26.060  1.00  0.00     0.251 C 
ATOM     28  H   UNL A   1      41.101  23.521  25.256  1.00  0.00     0.163 HD
ATOM     29  O   UNL A   1      41.522  25.920  25.004  1.00  0.00    -0.269 OA
BRANCH  27  30
ATOM     30  C   UNL A   1      41.194  26.111  27.326  1.00  0.00     0.039 A 
ATOM     31  C   UNL A   1      42.262  26.937  27.677  1.00  0.00     0.014 A 
ATOM     32  C   UNL A   1      40.023  26.086  28.089  1.00  0.00     0.014 A 
ATOM     33  C   UNL A   1      42.124  27.796  28.765  1.00  0.00     0.010 A 
ATOM     34  C   UNL A   1      39.853  27.012  29.107  1.00  0.00     0.010 A 
ATOM     35  C   UNL A   1      40.905  27.869  29.462  1.00  0.00    -0.014 A 
BRANCH  35  36
ATOM     36  C   UNL A   1      40.724  28.818  30.588  1.00  0.00     0.031 A 
ATOM     37  C   UNL A   1      41.622  28.719  31.791  1.00  0.00     0.074 A 
ATOM     38  C   UNL A   1      39.744  29.740  30.540  1.00  0.00     0.049 A 
ATOM     39  N   UNL A   1      41.617  29.437  32.882  1.00  0.00    -0.248 NA
ATOM     40  C   UNL A   1      42.646  27.661  31.774  1.00  0.00     0.031 C 
ATOM     41  C   UNL A   1      38.791  29.906  29.438  1.00  0.00     0.029 A 
ATOM     42  N   UNL A   1      39.388  30.719  31.434  1.00  0.00    -0.354 N 
ATOM     43  C   UNL A   1      42.635  28.924  33.675  1.00  0.00     0.074 A 
ATOM     44  C   UNL A   1      43.184  27.783  32.978  1.00  0.00     0.031 C 
ATOM     45  C   UNL A   1      37.991  30.952  29.704  1.00  0.00     0.029 A 
ATOM     46  C   UNL A   1      38.340  31.501  31.011  1.00  0.00     0.049 A 
ATOM     47  H   UNL A   1      39.841  30.847  32.299  1.00  0.00     0.167 HD
ATOM     48  C   UNL A   1      43.097  29.384  34.860  1.00  0.00     0.037 A 
ATOM     49  C   UNL A   1      37.730  32.545  31.608  1.00  0.00     0.037 A 
ATOM     50  C   UNL A   1      42.551  30.528  35.540  1.00  0.00     0.049 A 
ATOM     51  C   UNL A   1      38.227  33.006  32.953  1.00  0.00     0.074 A 
ATOM     52  C   UNL A   1      42.964  31.093  36.732  1.00  0.00     0.029 A 
ATOM     53  N   UNL A   1      41.471  31.276  35.094  1.00  0.00    -0.354 N 
ATOM     54  N   UNL A   1      39.227  32.542  33.664  1.00  0.00    -0.248 NA
ATOM     55  C   UNL A   1      37.517  34.130  33.576  1.00  0.00     0.031 C 
ATOM     56  C   UNL A   1      42.098  32.146  37.038  1.00  0.00     0.029 A 
ATOM     57  C   UNL A   1      41.185  32.280  36.004  1.00  0.00     0.049 A 
ATOM     58  H   UNL A   1      40.981  31.118  34.255  1.00  0.00     0.167 HD
ATOM     59  C   UNL A   1      39.282  33.334  34.807  1.00  0.00     0.074 A 
ATOM     60  C   UNL A   1      38.224  34.317  34.682  1.00  0.00     0.031 C 
ATOM     61  C   UNL A   1      40.130  33.253  35.864  1.00  0.00     0.037 A 
BRANCH  48  62
ATOM     62  C   UNL A   1      44.256  28.660  35.489  1.00  0.00     0.058 A 
ATOM     63  C   UNL A   1      44.061  27.610  36.401  1.00  0.00     0.135 A 
ATOM     64  C   UNL A   1      45.577  28.987  35.142  1.00  0.00     0.135 A 
ATOM     65  F   UNL A   1      42.820  27.269  36.784  1.00  0.00    -0.206 F 
ATOM     66  C   UNL A   1      45.131  26.927  36.964  1.00  0.00     0.059 A 
ATOM     67  C   UNL A   1      46.664  28.293  35.666  1.00  0.00     0.059 A 
ATOM     68  F   UNL A   1      45.823  29.986  34.279  1.00  0.00    -0.206 F 
ATOM     69  C   UNL A   1      46.430  27.271  36.586  1.00  0.00     0.060 A 
BRANCH  69  70
ATOM     70  S   UNL A   1      47.805  26.358  37.316  1.00  0.00     0.124 S 
ATOM     71  O   UNL A   1      48.328  27.332  38.270  1.00  0.00    -0.237 OA
ATOM     72  O   UNL A   1      47.132  25.201  37.896  1.00  0.00    -0.237 OA
ATOM     73  O   UNL A   1      48.669  26.073  36.175  1.00  0.00    -0.744 OA
ENDBRANCH  69  70
ENDBRANCH  48  62
BRANCH  49  74
ATOM     74  C   UNL A   1      36.607  33.241  30.922  1.00  0.00     0.058 A 
ATOM     75  C   UNL A   1      35.285  33.087  31.364  1.00  0.00     0.135 A 
ATOM     76  C   UNL A   1      36.833  34.097  29.832  1.00  0.00     0.135 A 
ATOM     77  F   UNL A   1      35.014  32.274  32.396  1.00  0.00    -0.206 F 
ATOM     78  C   UNL A   1      34.226  33.749  30.749  1.00  0.00     0.059 A 
ATOM     79  C   UNL A   1      35.795  34.793  29.219  1.00  0.00     0.059 A 
ATOM     80  F   UNL A   1      38.080  34.291  29.375  1.00  0.00    -0.206 F 
ATOM     81  C   UNL A   1      34.494  34.608  29.681  1.00  0.00     0.060 A 
BRANCH  81  82
ATOM     82  S   UNL A   1      33.118  35.508  28.934  1.00  0.00     0.124 S 
ATOM     83  O   UNL A   1      32.468  34.460  28.156  1.00  0.00    -0.237 OA
ATOM     84  O   UNL A   1      32.391  35.978  30.109  1.00  0.00    -0.237 OA
ATOM     85  O   UNL A   1      33.781  36.550  28.157  1.00  0.00    -0.744 OA
ENDBRANCH  81  82
ENDBRANCH  49  74
BRANCH  61  86
ATOM     86  C   UNL A   1      39.969  34.262  36.970  1.00  0.00     0.058 A 
ATOM     87  C   UNL A   1      40.676  35.474  36.970  1.00  0.00     0.135 A 
ATOM     88  C   UNL A   1      39.030  34.051  37.995  1.00  0.00     0.135 A 
ATOM     89  F   UNL A   1      41.588  35.725  36.017  1.00  0.00    -0.206 F 
ATOM     90  C   UNL A   1      40.472  36.433  37.955  1.00  0.00     0.059 A 
ATOM     91  C   UNL A   1      38.785  35.012  38.970  1.00  0.00     0.059 A 
ATOM     92  F   UNL A   1      38.317  32.915  38.036  1.00  0.00    -0.206 F 
ATOM     93  C   UNL A   1      39.518  36.197  38.947  1.00  0.00     0.060 A 
BRANCH  93  94
ATOM     94  S   UNL A   1      39.236  37.475  40.190  1.00  0.00     0.124 S 
ATOM     95  O   UNL A   1      40.560  38.079  40.298  1.00  0.00    -0.237 OA
ATOM     96  O   UNL A   1      38.212  38.300  39.558  1.00  0.00    -0.237 OA
ATOM     97  O   UNL A   1      38.795  36.721  41.360  1.00  0.00    -0.744 OA
ENDBRANCH  93  94
ENDBRANCH  61  86
ENDBRANCH  35  36
ENDBRANCH  27  30
ENDBRANCH  25  26
ENDBRANCH   1  25
TORSDOF 16
ENDMDL
