MODEL 1
REMARK VINA RESULT:     -13.2      0.000      0.000
REMARK SMILES Cc1ccc(C)c(N2C(=O)S[C@H](CC(=O)Nc3ccc(C(=O)NCCCCNC(=O)c4ccc(-c5c6nc(c(-c7c(F)cc(S(=O)(=O)[O-])cc7F)c7ccc([nH]7)c(-c7c(F)cc(S(=O)(=O)[O-])cc7F)c7nc(c(-c8c(F)cc(S(=O)(=O)[O-])cc8F)c8ccc5[nH]8)C=C7)C=C6)cc4)c(O)c3)C2=O)c1
REMARK SMILES IDX 25 1 24 2 23 3 21 4 22 5 20 7 17 8 18 9 99 10 19 11 97 12
REMARK SMILES IDX 16 13 14 14 15 15 13 17 12 18 8 19 9 20 100 21 10 22 11 23
REMARK SMILES IDX 101 24 7 25 1 26 2 27 3 28 102 29 4 30 5 31 6 32 98 33 26 35
REMARK SMILES IDX 27 36 28 37 29 38 30 40 31 41 32 42 96 43 33 44 95 45 34 46
REMARK SMILES IDX 35 47 36 48 89 49 37 50 94 51 88 52 90 53 38 54 93 55 87 56
REMARK SMILES IDX 86 57 39 59 73 60 52 61 72 62 53 63 56 64 71 65 91 66 54 67
REMARK SMILES IDX 55 68 70 70 92 71 57 72 40 73 41 74 50 75 42 76 43 77 49 78
REMARK SMILES IDX 51 79 44 80 45 81 46 82 47 83 48 84 74 85 75 86 84 87 76 88
REMARK SMILES IDX 77 89 83 90 85 91 78 92 79 93 80 94 81 95 82 96 58 97 59 98
REMARK SMILES IDX 68 99 60 100 61 101 67 102 69 103 62 104 63 105 64 106
REMARK SMILES IDX 65 107 66 108
REMARK H PARENT 23 6 16 16 98 34 28 39 90 58 56 69
REMARK Flexibility Score: inf
ROOT
ATOM      1  C   UNL A   1      40.383  20.809  26.507  1.00  0.00     0.023 C 
ENDROOT
BRANCH   1   2
ATOM      2  C   UNL A   1      38.905  20.851  26.119  1.00  0.00     0.116 C 
BRANCH   2   3
ATOM      3  N   UNL A   1      38.499  21.799  25.105  1.00  0.00    -0.352 N 
ATOM      4  C   UNL A   1      37.298  22.463  24.931  1.00  0.00     0.255 C 
ATOM      5  O   UNL A   1      37.268  23.326  24.054  1.00  0.00    -0.269 OA
ATOM      6  H   UNL A   1      39.187  22.006  24.431  1.00  0.00     0.163 HD
BRANCH   4   7
ATOM      7  C   UNL A   1      36.027  22.109  25.642  1.00  0.00     0.081 A 
ATOM      8  C   UNL A   1      33.381  22.003  26.621  1.00  0.00     0.044 A 
ATOM      9  C   UNL A   1      34.278  22.954  27.081  1.00  0.00     0.027 A 
ATOM     10  C   UNL A   1      33.895  20.930  25.908  1.00  0.00     0.073 A 
ATOM     11  C   UNL A   1      35.563  23.058  26.556  1.00  0.00     0.020 A 
ATOM     12  C   UNL A   1      35.236  20.965  25.485  1.00  0.00     0.130 A 
BRANCH   8  13
ATOM     13  N   UNL A   1      32.016  22.098  26.944  1.00  0.00    -0.326 N 
ATOM     14  C   UNL A   1      31.172  23.166  26.700  1.00  0.00     0.226 C 
ATOM     15  O   UNL A   1      30.117  23.278  27.325  1.00  0.00    -0.275 OA
ATOM     16  H   UNL A   1      31.617  21.317  27.393  1.00  0.00     0.169 HD
BRANCH  14  17
ATOM     17  C   UNL A   1      31.452  24.054  25.489  1.00  0.00     0.125 C 
BRANCH  17  18
ATOM     18  C   UNL A   1      32.250  25.331  25.746  1.00  0.00     0.156 C 
ATOM     19  N   UNL A   1      31.232  27.090  24.472  1.00  0.00    -0.240 N 
ATOM     20  C   UNL A   1      32.189  26.695  23.582  1.00  0.00     0.293 C 
ATOM     21  C   UNL A   1      31.287  26.516  25.732  1.00  0.00     0.248 C 
ATOM     22  O   UNL A   1      32.258  26.927  22.378  1.00  0.00    -0.261 OA
ATOM     23  S   UNL A   1      33.415  25.763  24.424  1.00  0.00    -0.050 SA
ATOM     24  O   UNL A   1      30.652  26.859  26.724  1.00  0.00    -0.273 OA
BRANCH  19  25
ATOM     25  C   UNL A   1      30.497  28.270  24.214  1.00  0.00     0.056 A 
ATOM     26  C   UNL A   1      27.367  29.361  22.301  1.00  0.00     0.044 C 
ATOM     27  C   UNL A   1      28.622  29.384  23.126  1.00  0.00    -0.049 A 
ATOM     28  C   UNL A   1      29.143  30.619  23.529  1.00  0.00     0.004 A 
ATOM     29  C   UNL A   1      29.297  28.206  23.484  1.00  0.00     0.030 A 
ATOM     30  C   UNL A   1      30.332  30.684  24.251  1.00  0.00     0.006 A 
ATOM     31  C   UNL A   1      31.032  29.519  24.589  1.00  0.00    -0.027 A 
ATOM     32  C   UNL A   1      32.340  29.681  25.313  1.00  0.00     0.046 C 
ENDBRANCH  19  25
ENDBRANCH  17  18
ENDBRANCH  14  17
ENDBRANCH   8  13
BRANCH  12  33
ATOM     33  O   UNL A   1      35.728  19.784  25.001  1.00  0.00    -0.507 OA
ATOM     34  H   UNL A   1      35.140  19.131  24.674  1.00  0.00     0.293 HD
ENDBRANCH  12  33
ENDBRANCH   4   7
ENDBRANCH   2   3
ENDBRANCH   1   2
BRANCH   1  35
ATOM     35  C   UNL A   1      41.287  19.642  26.104  1.00  0.00     0.023 C 
BRANCH  35  36
ATOM     36  C   UNL A   1      42.584  19.411  26.866  1.00  0.00     0.116 C 
BRANCH  36  37
ATOM     37  N   UNL A   1      43.808  19.444  26.054  1.00  0.00    -0.352 N 
ATOM     38  C   UNL A   1      44.369  20.486  25.318  1.00  0.00     0.251 C 
ATOM     39  H   UNL A   1      44.310  18.598  26.025  1.00  0.00     0.163 HD
ATOM     40  O   UNL A   1      45.124  20.231  24.384  1.00  0.00    -0.269 OA
BRANCH  38  41
ATOM     41  C   UNL A   1      44.052  21.894  25.654  1.00  0.00     0.039 A 
ATOM     42  C   UNL A   1      43.135  22.687  24.960  1.00  0.00     0.014 A 
ATOM     43  C   UNL A   1      44.716  22.444  26.733  1.00  0.00     0.014 A 
ATOM     44  C   UNL A   1      42.906  23.989  25.422  1.00  0.00     0.010 A 
ATOM     45  C   UNL A   1      44.193  23.504  27.397  1.00  0.00     0.010 A 
ATOM     46  C   UNL A   1      43.446  24.382  26.659  1.00  0.00    -0.014 A 
BRANCH  46  47
ATOM     47  C   UNL A   1      43.215  25.678  27.279  1.00  0.00     0.031 A 
ATOM     48  C   UNL A   1      44.236  26.667  26.909  1.00  0.00     0.074 A 
ATOM     49  C   UNL A   1      42.082  26.042  27.925  1.00  0.00     0.049 A 
ATOM     50  N   UNL A   1      45.273  26.993  27.599  1.00  0.00    -0.248 NA
ATOM     51  C   UNL A   1      44.237  27.179  25.531  1.00  0.00     0.031 C 
ATOM     52  C   UNL A   1      40.819  25.297  28.064  1.00  0.00     0.029 A 
ATOM     53  N   UNL A   1      41.793  27.224  28.538  1.00  0.00    -0.354 N 
ATOM     54  C   UNL A   1      45.891  27.987  26.860  1.00  0.00     0.074 A 
ATOM     55  C   UNL A   1      45.385  27.861  25.519  1.00  0.00     0.031 C 
ATOM     56  C   UNL A   1      39.854  26.113  28.543  1.00  0.00     0.029 A 
ATOM     57  C   UNL A   1      40.460  27.378  28.915  1.00  0.00     0.049 A 
ATOM     58  H   UNL A   1      42.473  27.917  28.702  1.00  0.00     0.167 HD
ATOM     59  C   UNL A   1      46.507  29.023  27.491  1.00  0.00     0.037 A 
ATOM     60  C   UNL A   1      39.903  28.467  29.501  1.00  0.00     0.037 A 
ATOM     61  C   UNL A   1      46.640  28.755  28.907  1.00  0.00     0.049 A 
ATOM     62  C   UNL A   1      41.008  29.201  30.163  1.00  0.00     0.074 A 
ATOM     63  C   UNL A   1      47.278  27.801  29.673  1.00  0.00     0.029 A 
ATOM     64  N   UNL A   1      45.679  29.325  29.707  1.00  0.00    -0.354 N 
ATOM     65  N   UNL A   1      41.687  28.735  31.176  1.00  0.00    -0.248 NA
ATOM     66  C   UNL A   1      41.625  30.321  29.467  1.00  0.00     0.031 C 
ATOM     67  C   UNL A   1      46.441  27.594  30.809  1.00  0.00     0.029 A 
ATOM     68  C   UNL A   1      45.353  28.464  30.724  1.00  0.00     0.049 A 
ATOM     69  H   UNL A   1      45.285  30.218  29.573  1.00  0.00     0.167 HD
ATOM     70  C   UNL A   1      42.978  29.190  30.970  1.00  0.00     0.074 A 
ATOM     71  C   UNL A   1      42.843  30.282  30.013  1.00  0.00     0.031 C 
ATOM     72  C   UNL A   1      44.050  28.445  31.366  1.00  0.00     0.037 A 
BRANCH  59  73
ATOM     73  C   UNL A   1      46.578  30.428  26.941  1.00  0.00     0.058 A 
ATOM     74  C   UNL A   1      47.825  31.083  26.921  1.00  0.00     0.135 A 
ATOM     75  C   UNL A   1      45.454  31.247  26.693  1.00  0.00     0.135 A 
ATOM     76  F   UNL A   1      48.957  30.403  27.161  1.00  0.00    -0.206 F 
ATOM     77  C   UNL A   1      47.940  32.459  26.730  1.00  0.00     0.059 A 
ATOM     78  C   UNL A   1      45.552  32.609  26.440  1.00  0.00     0.059 A 
ATOM     79  F   UNL A   1      44.198  30.798  26.782  1.00  0.00    -0.206 F 
ATOM     80  C   UNL A   1      46.795  33.214  26.501  1.00  0.00     0.060 A 
BRANCH  80  81
ATOM     81  S   UNL A   1      46.927  35.001  26.339  1.00  0.00     0.124 S 
ATOM     82  O   UNL A   1      45.681  35.321  25.653  1.00  0.00    -0.237 OA
ATOM     83  O   UNL A   1      47.021  35.423  27.732  1.00  0.00    -0.237 OA
ATOM     84  O   UNL A   1      48.145  35.177  25.555  1.00  0.00    -0.744 OA
ENDBRANCH  80  81
ENDBRANCH  59  73
BRANCH  60  85
ATOM     85  C   UNL A   1      38.544  29.050  29.344  1.00  0.00     0.058 A 
ATOM     86  C   UNL A   1      37.738  29.317  30.469  1.00  0.00     0.135 A 
ATOM     87  C   UNL A   1      38.142  29.653  28.138  1.00  0.00     0.135 A 
ATOM     88  F   UNL A   1      38.046  28.789  31.663  1.00  0.00    -0.206 F 
ATOM     89  C   UNL A   1      36.652  30.197  30.418  1.00  0.00     0.059 A 
ATOM     90  C   UNL A   1      37.056  30.526  28.060  1.00  0.00     0.059 A 
ATOM     91  F   UNL A   1      38.862  29.494  27.017  1.00  0.00    -0.206 F 
ATOM     92  C   UNL A   1      36.338  30.823  29.214  1.00  0.00     0.060 A 
BRANCH  92  93
ATOM     93  S   UNL A   1      35.086  32.131  29.198  1.00  0.00     0.124 S 
ATOM     94  O   UNL A   1      34.760  32.257  30.614  1.00  0.00    -0.237 OA
ATOM     95  O   UNL A   1      35.817  33.251  28.613  1.00  0.00    -0.237 OA
ATOM     96  O   UNL A   1      34.027  31.579  28.357  1.00  0.00    -0.744 OA
ENDBRANCH  92  93
ENDBRANCH  60  85
BRANCH  72  97
ATOM     97  C   UNL A   1      43.816  27.407  32.437  1.00  0.00     0.058 A 
ATOM     98  C   UNL A   1      43.730  26.020  32.220  1.00  0.00     0.135 A 
ATOM     99  C   UNL A   1      43.760  27.848  33.768  1.00  0.00     0.135 A 
ATOM    100  F   UNL A   1      43.864  25.502  30.991  1.00  0.00    -0.206 F 
ATOM    101  C   UNL A   1      43.553  25.121  33.275  1.00  0.00     0.059 A 
ATOM    102  C   UNL A   1      43.619  26.968  34.837  1.00  0.00     0.059 A 
ATOM    103  F   UNL A   1      43.887  29.156  34.049  1.00  0.00    -0.206 F 
ATOM    104  C   UNL A   1      43.498  25.605  34.582  1.00  0.00     0.060 A 
BRANCH 104 105
ATOM    105  S   UNL A   1      43.338  24.438  35.951  1.00  0.00     0.124 S 
ATOM    106  O   UNL A   1      42.131  23.703  35.591  1.00  0.00    -0.237 OA
ATOM    107  O   UNL A   1      44.586  23.683  35.874  1.00  0.00    -0.237 OA
ATOM    108  O   UNL A   1      43.217  25.302  37.123  1.00  0.00    -0.744 OA
ENDBRANCH 104 105
ENDBRANCH  72  97
ENDBRANCH  46  47
ENDBRANCH  38  41
ENDBRANCH  36  37
ENDBRANCH  35  36
ENDBRANCH   1  35
TORSDOF 19
ENDMDL
MODEL 2
REMARK VINA RESULT:     -13.0      2.665      9.573
REMARK SMILES Cc1ccc(C)c(N2C(=O)S[C@H](CC(=O)Nc3ccc(C(=O)NCCCCNC(=O)c4ccc(-c5c6nc(c(-c7c(F)cc(S(=O)(=O)[O-])cc7F)c7ccc([nH]7)c(-c7c(F)cc(S(=O)(=O)[O-])cc7F)c7nc(c(-c8c(F)cc(S(=O)(=O)[O-])cc8F)c8ccc5[nH]8)C=C7)C=C6)cc4)c(O)c3)C2=O)c1
REMARK SMILES IDX 25 1 24 2 23 3 21 4 22 5 20 7 17 8 18 9 99 10 19 11 97 12
REMARK SMILES IDX 16 13 14 14 15 15 13 17 12 18 8 19 9 20 100 21 10 22 11 23
REMARK SMILES IDX 101 24 7 25 1 26 2 27 3 28 102 29 4 30 5 31 6 32 98 33 26 35
REMARK SMILES IDX 27 36 28 37 29 38 30 40 31 41 32 42 96 43 33 44 95 45 34 46
REMARK SMILES IDX 35 47 36 48 89 49 37 50 94 51 88 52 90 53 38 54 93 55 87 56
REMARK SMILES IDX 86 57 39 59 73 60 52 61 72 62 53 63 56 64 71 65 91 66 54 67
REMARK SMILES IDX 55 68 70 70 92 71 57 72 40 73 41 74 50 75 42 76 43 77 49 78
REMARK SMILES IDX 51 79 44 80 45 81 46 82 47 83 48 84 74 85 75 86 84 87 76 88
REMARK SMILES IDX 77 89 83 90 85 91 78 92 79 93 80 94 81 95 82 96 58 97 59 98
REMARK SMILES IDX 68 99 60 100 61 101 67 102 69 103 62 104 63 105 64 106
REMARK SMILES IDX 65 107 66 108
REMARK H PARENT 23 6 16 16 98 34 28 39 90 58 56 69
REMARK Flexibility Score: inf
ROOT
ATOM      1  C   UNL A   1      34.912  30.067  27.254  1.00  0.00     0.023 C 
ENDROOT
BRANCH   1   2
ATOM      2  C   UNL A   1      34.517  28.862  26.401  1.00  0.00     0.116 C 
BRANCH   2   3
ATOM      3  N   UNL A   1      34.064  29.110  25.049  1.00  0.00    -0.352 N 
ATOM      4  C   UNL A   1      32.859  28.810  24.442  1.00  0.00     0.255 C 
ATOM      5  O   UNL A   1      32.685  29.260  23.309  1.00  0.00    -0.269 OA
ATOM      6  H   UNL A   1      34.717  29.566  24.470  1.00  0.00     0.163 HD
BRANCH   4   7
ATOM      7  C   UNL A   1      31.831  27.883  25.016  1.00  0.00     0.081 A 
ATOM      8  C   UNL A   1      30.379  25.640  25.930  1.00  0.00     0.044 A 
ATOM      9  C   UNL A   1      30.485  25.923  24.578  1.00  0.00     0.027 A 
ATOM     10  C   UNL A   1      30.737  26.639  26.823  1.00  0.00     0.073 A 
ATOM     11  C   UNL A   1      31.255  26.986  24.114  1.00  0.00     0.020 A 
ATOM     12  C   UNL A   1      31.399  27.784  26.344  1.00  0.00     0.130 A 
BRANCH   8  13
ATOM     13  N   UNL A   1      29.850  24.411  26.361  1.00  0.00    -0.326 N 
ATOM     14  C   UNL A   1      30.479  23.180  26.345  1.00  0.00     0.226 C 
ATOM     15  O   UNL A   1      29.816  22.143  26.412  1.00  0.00    -0.275 OA
ATOM     16  H   UNL A   1      28.930  24.429  26.713  1.00  0.00     0.169 HD
BRANCH  14  17
ATOM     17  C   UNL A   1      31.999  23.135  26.487  1.00  0.00     0.125 C 
BRANCH  17  18
ATOM     18  C   UNL A   1      32.703  21.896  25.937  1.00  0.00     0.156 C 
ATOM     19  N   UNL A   1      35.008  22.465  25.596  1.00  0.00    -0.240 N 
ATOM     20  C   UNL A   1      34.527  22.721  24.344  1.00  0.00     0.293 C 
ATOM     21  C   UNL A   1      34.129  21.866  26.484  1.00  0.00     0.248 C 
ATOM     22  O   UNL A   1      35.044  23.379  23.445  1.00  0.00    -0.261 OA
ATOM     23  S   UNL A   1      32.976  21.925  24.144  1.00  0.00    -0.050 SA
ATOM     24  O   UNL A   1      34.404  21.386  27.579  1.00  0.00    -0.273 OA
BRANCH  19  25
ATOM     25  C   UNL A   1      36.406  22.474  25.812  1.00  0.00     0.056 A 
ATOM     26  C   UNL A   1      39.154  24.937  26.824  1.00  0.00     0.044 C 
ATOM     27  C   UNL A   1      38.437  23.693  26.384  1.00  0.00    -0.049 A 
ATOM     28  C   UNL A   1      39.190  22.562  26.050  1.00  0.00     0.004 A 
ATOM     29  C   UNL A   1      37.038  23.640  26.276  1.00  0.00     0.030 A 
ATOM     30  C   UNL A   1      38.566  21.406  25.589  1.00  0.00     0.006 A 
ATOM     31  C   UNL A   1      37.173  21.349  25.448  1.00  0.00    -0.027 A 
ATOM     32  C   UNL A   1      36.584  20.086  24.881  1.00  0.00     0.046 C 
ENDBRANCH  19  25
ENDBRANCH  17  18
ENDBRANCH  14  17
ENDBRANCH   8  13
BRANCH  12  33
ATOM     33  O   UNL A   1      31.505  28.815  27.237  1.00  0.00    -0.507 OA
ATOM     34  H   UNL A   1      30.871  29.505  27.234  1.00  0.00     0.293 HD
ENDBRANCH  12  33
ENDBRANCH   4   7
ENDBRANCH   2   3
ENDBRANCH   1   2
BRANCH   1  35
ATOM     35  C   UNL A   1      33.925  31.197  27.556  1.00  0.00     0.023 C 
BRANCH  35  36
ATOM     36  C   UNL A   1      34.461  32.554  27.990  1.00  0.00     0.116 C 
BRANCH  36  37
ATOM     37  N   UNL A   1      34.327  32.856  29.422  1.00  0.00    -0.352 N 
ATOM     38  C   UNL A   1      35.052  32.377  30.512  1.00  0.00     0.251 C 
ATOM     39  H   UNL A   1      33.614  33.496  29.647  1.00  0.00     0.163 HD
ATOM     40  O   UNL A   1      34.547  32.394  31.631  1.00  0.00    -0.269 OA
BRANCH  38  41
ATOM     41  C   UNL A   1      36.422  31.844  30.323  1.00  0.00     0.039 A 
ATOM     42  C   UNL A   1      37.561  32.632  30.144  1.00  0.00     0.014 A 
ATOM     43  C   UNL A   1      36.564  30.470  30.328  1.00  0.00     0.014 A 
ATOM     44  C   UNL A   1      38.798  31.987  30.022  1.00  0.00     0.010 A 
ATOM     45  C   UNL A   1      37.758  29.902  30.628  1.00  0.00     0.010 A 
ATOM     46  C   UNL A   1      38.878  30.606  30.275  1.00  0.00    -0.014 A 
BRANCH  46  47
ATOM     47  C   UNL A   1      40.115  29.840  30.255  1.00  0.00     0.031 A 
ATOM     48  C   UNL A   1      40.638  29.583  31.603  1.00  0.00     0.074 A 
ATOM     49  C   UNL A   1      40.626  29.213  29.169  1.00  0.00     0.049 A 
ATOM     50  N   UNL A   1      41.556  30.252  32.210  1.00  0.00    -0.248 NA
ATOM     51  C   UNL A   1      39.911  28.634  32.458  1.00  0.00     0.031 C 
ATOM     52  C   UNL A   1      40.036  29.062  27.829  1.00  0.00     0.029 A 
ATOM     53  N   UNL A   1      41.776  28.490  29.065  1.00  0.00    -0.354 N 
ATOM     54  C   UNL A   1      41.727  29.600  33.419  1.00  0.00     0.074 A 
ATOM     55  C   UNL A   1      40.536  28.818  33.623  1.00  0.00     0.031 C 
ATOM     56  C   UNL A   1      40.733  28.146  27.119  1.00  0.00     0.029 A 
ATOM     57  C   UNL A   1      41.915  27.778  27.875  1.00  0.00     0.049 A 
ATOM     58  H   UNL A   1      42.458  28.472  29.776  1.00  0.00     0.167 HD
ATOM     59  C   UNL A   1      42.966  29.508  33.975  1.00  0.00     0.037 A 
ATOM     60  C   UNL A   1      42.938  26.954  27.537  1.00  0.00     0.037 A 
ATOM     61  C   UNL A   1      43.898  30.381  33.295  1.00  0.00     0.049 A 
ATOM     62  C   UNL A   1      44.101  27.367  28.359  1.00  0.00     0.074 A 
ATOM     63  C   UNL A   1      44.001  31.742  33.088  1.00  0.00     0.029 A 
ATOM     64  N   UNL A   1      44.686  29.777  32.345  1.00  0.00    -0.354 N 
ATOM     65  N   UNL A   1      44.704  28.518  28.240  1.00  0.00    -0.248 NA
ATOM     66  C   UNL A   1      44.384  26.645  29.591  1.00  0.00     0.031 C 
ATOM     67  C   UNL A   1      44.583  31.893  31.794  1.00  0.00     0.029 A 
ATOM     68  C   UNL A   1      44.862  30.625  31.281  1.00  0.00     0.049 A 
ATOM     69  H   UNL A   1      45.069  28.872  32.418  1.00  0.00     0.167 HD
ATOM     70  C   UNL A   1      45.068  28.857  29.531  1.00  0.00     0.074 A 
ATOM     71  C   UNL A   1      44.997  27.610  30.281  1.00  0.00     0.031 C 
ATOM     72  C   UNL A   1      45.100  30.164  29.925  1.00  0.00     0.037 A 
BRANCH  59  73
ATOM     73  C   UNL A   1      43.437  28.337  34.804  1.00  0.00     0.058 A 
ATOM     74  C   UNL A   1      43.946  28.585  36.094  1.00  0.00     0.135 A 
ATOM     75  C   UNL A   1      43.665  27.038  34.296  1.00  0.00     0.135 A 
ATOM     76  F   UNL A   1      43.801  29.791  36.665  1.00  0.00    -0.206 F 
ATOM     77  C   UNL A   1      44.680  27.632  36.800  1.00  0.00     0.059 A 
ATOM     78  C   UNL A   1      44.341  26.056  35.007  1.00  0.00     0.059 A 
ATOM     79  F   UNL A   1      43.339  26.682  33.049  1.00  0.00    -0.206 F 
ATOM     80  C   UNL A   1      44.880  26.374  36.242  1.00  0.00     0.060 A 
BRANCH  80  81
ATOM     81  S   UNL A   1      45.898  25.170  37.109  1.00  0.00     0.124 S 
ATOM     82  O   UNL A   1      47.100  25.951  37.378  1.00  0.00    -0.237 OA
ATOM     83  O   UNL A   1      45.067  24.850  38.264  1.00  0.00    -0.237 OA
ATOM     84  O   UNL A   1      46.046  24.094  36.134  1.00  0.00    -0.744 OA
ENDBRANCH  80  81
ENDBRANCH  59  73
BRANCH  60  85
ATOM     85  C   UNL A   1      42.935  25.698  26.741  1.00  0.00     0.058 A 
ATOM     86  C   UNL A   1      43.614  25.621  25.510  1.00  0.00     0.135 A 
ATOM     87  C   UNL A   1      42.549  24.470  27.313  1.00  0.00     0.135 A 
ATOM     88  F   UNL A   1      44.024  26.738  24.892  1.00  0.00    -0.206 F 
ATOM     89  C   UNL A   1      43.969  24.399  24.926  1.00  0.00     0.059 A 
ATOM     90  C   UNL A   1      42.880  23.240  26.744  1.00  0.00     0.059 A 
ATOM     91  F   UNL A   1      41.930  24.431  28.502  1.00  0.00    -0.206 F 
ATOM     92  C   UNL A   1      43.623  23.212  25.569  1.00  0.00     0.060 A 
BRANCH  92  93
ATOM     93  S   UNL A   1      44.277  21.645  24.940  1.00  0.00     0.124 S 
ATOM     94  O   UNL A   1      45.531  21.521  25.676  1.00  0.00    -0.237 OA
ATOM     95  O   UNL A   1      43.228  20.701  25.310  1.00  0.00    -0.237 OA
ATOM     96  O   UNL A   1      44.415  21.885  23.506  1.00  0.00    -0.744 OA
ENDBRANCH  92  93
ENDBRANCH  60  85
BRANCH  72  97
ATOM     97  C   UNL A   1      45.223  31.211  28.844  1.00  0.00     0.058 A 
ATOM     98  C   UNL A   1      44.145  31.860  28.214  1.00  0.00     0.135 A 
ATOM     99  C   UNL A   1      46.514  31.634  28.494  1.00  0.00     0.135 A 
ATOM    100  F   UNL A   1      42.878  31.584  28.552  1.00  0.00    -0.206 F 
ATOM    101  C   UNL A   1      44.347  32.851  27.249  1.00  0.00     0.059 A 
ATOM    102  C   UNL A   1      46.738  32.643  27.562  1.00  0.00     0.059 A 
ATOM    103  F   UNL A   1      47.586  31.091  29.095  1.00  0.00    -0.206 F 
ATOM    104  C   UNL A   1      45.648  33.236  26.929  1.00  0.00     0.060 A 
BRANCH 104 105
ATOM    105  S   UNL A   1      45.908  34.564  25.734  1.00  0.00     0.124 S 
ATOM    106  O   UNL A   1      45.558  35.750  26.508  1.00  0.00    -0.237 OA
ATOM    107  O   UNL A   1      47.323  34.421  25.401  1.00  0.00    -0.237 OA
ATOM    108  O   UNL A   1      44.988  34.232  24.648  1.00  0.00    -0.744 OA
ENDBRANCH 104 105
ENDBRANCH  72  97
ENDBRANCH  46  47
ENDBRANCH  38  41
ENDBRANCH  36  37
ENDBRANCH  35  36
ENDBRANCH   1  35
TORSDOF 19
ENDMDL
MODEL 3
REMARK VINA RESULT:     -12.8      2.138      2.799
REMARK SMILES Cc1ccc(C)c(N2C(=O)S[C@H](CC(=O)Nc3ccc(C(=O)NCCCCNC(=O)c4ccc(-c5c6nc(c(-c7c(F)cc(S(=O)(=O)[O-])cc7F)c7ccc([nH]7)c(-c7c(F)cc(S(=O)(=O)[O-])cc7F)c7nc(c(-c8c(F)cc(S(=O)(=O)[O-])cc8F)c8ccc5[nH]8)C=C7)C=C6)cc4)c(O)c3)C2=O)c1
REMARK SMILES IDX 25 1 24 2 23 3 21 4 22 5 20 7 17 8 18 9 99 10 19 11 97 12
REMARK SMILES IDX 16 13 14 14 15 15 13 17 12 18 8 19 9 20 100 21 10 22 11 23
REMARK SMILES IDX 101 24 7 25 1 26 2 27 3 28 102 29 4 30 5 31 6 32 98 33 26 35
REMARK SMILES IDX 27 36 28 37 29 38 30 40 31 41 32 42 96 43 33 44 95 45 34 46
REMARK SMILES IDX 35 47 36 48 89 49 37 50 94 51 88 52 90 53 38 54 93 55 87 56
REMARK SMILES IDX 86 57 39 59 73 60 52 61 72 62 53 63 56 64 71 65 91 66 54 67
REMARK SMILES IDX 55 68 70 70 92 71 57 72 40 73 41 74 50 75 42 76 43 77 49 78
REMARK SMILES IDX 51 79 44 80 45 81 46 82 47 83 48 84 74 85 75 86 84 87 76 88
REMARK SMILES IDX 77 89 83 90 85 91 78 92 79 93 80 94 81 95 82 96 58 97 59 98
REMARK SMILES IDX 68 99 60 100 61 101 67 102 69 103 62 104 63 105 64 106
REMARK SMILES IDX 65 107 66 108
REMARK H PARENT 23 6 16 16 98 34 28 39 90 58 56 69
REMARK Flexibility Score: inf
ROOT
ATOM      1  C   UNL A   1      40.332  21.279  26.438  1.00  0.00     0.023 C 
ENDROOT
BRANCH   1   2
ATOM      2  C   UNL A   1      38.842  21.145  26.127  1.00  0.00     0.116 C 
BRANCH   2   3
ATOM      3  N   UNL A   1      38.319  21.879  24.995  1.00  0.00    -0.352 N 
ATOM      4  C   UNL A   1      37.061  22.411  24.778  1.00  0.00     0.255 C 
ATOM      5  O   UNL A   1      36.925  23.113  23.776  1.00  0.00    -0.269 OA
ATOM      6  H   UNL A   1      38.961  22.022  24.262  1.00  0.00     0.163 HD
BRANCH   4   7
ATOM      7  C   UNL A   1      35.853  22.086  25.604  1.00  0.00     0.081 A 
ATOM      8  C   UNL A   1      33.305  22.038  26.818  1.00  0.00     0.044 A 
ATOM      9  C   UNL A   1      34.260  22.969  27.193  1.00  0.00     0.027 A 
ATOM     10  C   UNL A   1      33.728  20.953  26.065  1.00  0.00     0.073 A 
ATOM     11  C   UNL A   1      35.494  23.045  26.553  1.00  0.00     0.020 A 
ATOM     12  C   UNL A   1      35.026  20.959  25.522  1.00  0.00     0.130 A 
BRANCH   8  13
ATOM     13  N   UNL A   1      31.977  22.162  27.264  1.00  0.00    -0.326 N 
ATOM     14  C   UNL A   1      31.045  23.100  26.860  1.00  0.00     0.226 C 
ATOM     15  O   UNL A   1      30.054  23.330  27.556  1.00  0.00    -0.275 OA
ATOM     16  H   UNL A   1      31.677  21.508  27.937  1.00  0.00     0.169 HD
BRANCH  14  17
ATOM     17  C   UNL A   1      31.140  23.659  25.442  1.00  0.00     0.125 C 
BRANCH  17  18
ATOM     18  C   UNL A   1      32.131  24.800  25.220  1.00  0.00     0.156 C 
ATOM     19  N   UNL A   1      31.083  26.397  23.769  1.00  0.00    -0.240 N 
ATOM     20  C   UNL A   1      31.758  25.659  22.838  1.00  0.00     0.293 C 
ATOM     21  C   UNL A   1      31.348  26.105  25.098  1.00  0.00     0.248 C 
ATOM     22  O   UNL A   1      31.582  25.612  21.624  1.00  0.00    -0.261 OA
ATOM     23  S   UNL A   1      33.013  24.728  23.636  1.00  0.00    -0.050 SA
ATOM     24  O   UNL A   1      31.001  26.759  26.076  1.00  0.00    -0.273 OA
BRANCH  19  25
ATOM     25  C   UNL A   1      30.464  27.605  23.372  1.00  0.00     0.056 A 
ATOM     26  C   UNL A   1      26.946  28.984  22.773  1.00  0.00     0.044 C 
ATOM     27  C   UNL A   1      28.440  28.860  22.856  1.00  0.00    -0.049 A 
ATOM     28  C   UNL A   1      29.232  29.919  22.400  1.00  0.00     0.004 A 
ATOM     29  C   UNL A   1      29.063  27.705  23.357  1.00  0.00     0.030 A 
ATOM     30  C   UNL A   1      30.621  29.822  22.413  1.00  0.00     0.006 A 
ATOM     31  C   UNL A   1      31.255  28.663  22.882  1.00  0.00    -0.027 A 
ATOM     32  C   UNL A   1      32.757  28.614  22.801  1.00  0.00     0.046 C 
ENDBRANCH  19  25
ENDBRANCH  17  18
ENDBRANCH  14  17
ENDBRANCH   8  13
BRANCH  12  33
ATOM     33  O   UNL A   1      35.446  19.767  24.998  1.00  0.00    -0.507 OA
ATOM     34  H   UNL A   1      35.901  19.750  24.179  1.00  0.00     0.293 HD
ENDBRANCH  12  33
ENDBRANCH   4   7
ENDBRANCH   2   3
ENDBRANCH   1   2
BRANCH   1  35
ATOM     35  C   UNL A   1      40.827  21.893  27.750  1.00  0.00     0.023 C 
BRANCH  35  36
ATOM     36  C   UNL A   1      42.321  22.105  27.952  1.00  0.00     0.116 C 
BRANCH  36  37
ATOM     37  N   UNL A   1      43.105  22.284  26.722  1.00  0.00    -0.352 N 
ATOM     38  C   UNL A   1      43.119  23.340  25.812  1.00  0.00     0.251 C 
ATOM     39  H   UNL A   1      43.716  21.543  26.507  1.00  0.00     0.163 HD
ATOM     40  O   UNL A   1      43.492  23.142  24.660  1.00  0.00    -0.269 OA
BRANCH  38  41
ATOM     41  C   UNL A   1      42.681  24.692  26.230  1.00  0.00     0.039 A 
ATOM     42  C   UNL A   1      41.516  25.321  25.784  1.00  0.00     0.014 A 
ATOM     43  C   UNL A   1      43.492  25.363  27.124  1.00  0.00     0.014 A 
ATOM     44  C   UNL A   1      41.208  26.585  26.301  1.00  0.00     0.010 A 
ATOM     45  C   UNL A   1      42.987  26.350  27.906  1.00  0.00     0.010 A 
ATOM     46  C   UNL A   1      41.961  27.087  27.378  1.00  0.00    -0.014 A 
BRANCH  46  47
ATOM     47  C   UNL A   1      41.690  28.349  28.049  1.00  0.00     0.031 A 
ATOM     48  C   UNL A   1      42.715  29.364  27.771  1.00  0.00     0.074 A 
ATOM     49  C   UNL A   1      40.527  28.671  28.663  1.00  0.00     0.049 A 
ATOM     50  N   UNL A   1      43.719  29.666  28.519  1.00  0.00    -0.248 NA
ATOM     51  C   UNL A   1      42.767  29.942  26.420  1.00  0.00     0.031 C 
ATOM     52  C   UNL A   1      39.268  27.909  28.712  1.00  0.00     0.029 A 
ATOM     53  N   UNL A   1      40.199  29.819  29.319  1.00  0.00    -0.354 N 
ATOM     54  C   UNL A   1      44.356  30.700  27.855  1.00  0.00     0.074 A 
ATOM     55  C   UNL A   1      43.907  30.634  26.489  1.00  0.00     0.031 C 
ATOM     56  C   UNL A   1      38.275  28.692  29.189  1.00  0.00     0.029 A 
ATOM     57  C   UNL A   1      38.851  29.942  29.647  1.00  0.00     0.049 A 
ATOM     58  H   UNL A   1      40.865  30.510  29.545  1.00  0.00     0.167 HD
ATOM     59  C   UNL A   1      44.933  31.710  28.560  1.00  0.00     0.037 A 
ATOM     60  C   UNL A   1      38.257  30.996  30.261  1.00  0.00     0.037 A 
ATOM     61  C   UNL A   1      45.009  31.374  29.966  1.00  0.00     0.049 A 
ATOM     62  C   UNL A   1      39.326  31.707  31.004  1.00  0.00     0.074 A 
ATOM     63  C   UNL A   1      45.626  30.390  30.711  1.00  0.00     0.029 A 
ATOM     64  N   UNL A   1      44.010  31.896  30.752  1.00  0.00    -0.354 N 
ATOM     65  N   UNL A   1      39.967  31.199  32.021  1.00  0.00    -0.248 NA
ATOM     66  C   UNL A   1      39.959  32.866  30.389  1.00  0.00     0.031 C 
ATOM     67  C   UNL A   1      44.745  30.121  31.801  1.00  0.00     0.029 A 
ATOM     68  C   UNL A   1      43.651  30.984  31.711  1.00  0.00     0.049 A 
ATOM     69  H   UNL A   1      43.612  32.791  30.644  1.00  0.00     0.167 HD
ATOM     70  C   UNL A   1      41.260  31.676  31.891  1.00  0.00     0.074 A 
ATOM     71  C   UNL A   1      41.153  32.811  30.983  1.00  0.00     0.031 C 
ATOM     72  C   UNL A   1      42.324  30.921  32.296  1.00  0.00     0.037 A 
BRANCH  59  73
ATOM     73  C   UNL A   1      45.012  33.140  28.082  1.00  0.00     0.058 A 
ATOM     74  C   UNL A   1      46.282  33.719  27.892  1.00  0.00     0.135 A 
ATOM     75  C   UNL A   1      43.922  34.039  28.067  1.00  0.00     0.135 A 
ATOM     76  F   UNL A   1      47.387  32.959  27.906  1.00  0.00    -0.206 F 
ATOM     77  C   UNL A   1      46.459  35.096  27.759  1.00  0.00     0.059 A 
ATOM     78  C   UNL A   1      44.071  35.406  27.875  1.00  0.00     0.059 A 
ATOM     79  F   UNL A   1      42.668  33.660  28.338  1.00  0.00    -0.206 F 
ATOM     80  C   UNL A   1      45.347  35.931  27.762  1.00  0.00     0.060 A 
BRANCH  80  81
ATOM     81  S   UNL A   1      45.575  37.713  27.677  1.00  0.00     0.124 S 
ATOM     82  O   UNL A   1      46.063  38.005  29.020  1.00  0.00    -0.237 OA
ATOM     83  O   UNL A   1      46.547  37.841  26.598  1.00  0.00    -0.237 OA
ATOM     84  O   UNL A   1      44.236  38.207  27.368  1.00  0.00    -0.744 OA
ENDBRANCH  80  81
ENDBRANCH  59  73
BRANCH  60  85
ATOM     85  C   UNL A   1      36.900  31.575  30.075  1.00  0.00     0.058 A 
ATOM     86  C   UNL A   1      36.252  32.250  31.128  1.00  0.00     0.135 A 
ATOM     87  C   UNL A   1      36.354  31.761  28.791  1.00  0.00     0.135 A 
ATOM     88  F   UNL A   1      36.704  32.136  32.386  1.00  0.00    -0.206 F 
ATOM     89  C   UNL A   1      35.184  33.127  30.909  1.00  0.00     0.059 A 
ATOM     90  C   UNL A   1      35.282  32.621  28.549  1.00  0.00     0.059 A 
ATOM     91  F   UNL A   1      36.918  31.193  27.715  1.00  0.00    -0.206 F 
ATOM     92  C   UNL A   1      34.726  33.331  29.608  1.00  0.00     0.060 A 
BRANCH  92  93
ATOM     93  S   UNL A   1      33.506  34.631  29.295  1.00  0.00     0.124 S 
ATOM     94  O   UNL A   1      34.339  35.711  28.776  1.00  0.00    -0.237 OA
ATOM     95  O   UNL A   1      32.616  33.995  28.329  1.00  0.00    -0.237 OA
ATOM     96  O   UNL A   1      32.919  34.871  30.611  1.00  0.00    -0.744 OA
ENDBRANCH  92  93
ENDBRANCH  60  85
BRANCH  72  97
ATOM     97  C   UNL A   1      42.056  29.831  33.305  1.00  0.00     0.058 A 
ATOM     98  C   UNL A   1      41.667  28.515  32.995  1.00  0.00     0.135 A 
ATOM     99  C   UNL A   1      42.293  30.124  34.657  1.00  0.00     0.135 A 
ATOM    100  F   UNL A   1      41.506  28.121  31.724  1.00  0.00    -0.206 F 
ATOM    101  C   UNL A   1      41.479  27.551  33.991  1.00  0.00     0.059 A 
ATOM    102  C   UNL A   1      42.146  29.171  35.660  1.00  0.00     0.059 A 
ATOM    103  F   UNL A   1      42.716  31.348  35.015  1.00  0.00    -0.206 F 
ATOM    104  C   UNL A   1      41.722  27.889  35.321  1.00  0.00     0.060 A 
BRANCH 104 105
ATOM    105  S   UNL A   1      41.547  26.626  36.600  1.00  0.00     0.124 S 
ATOM    106  O   UNL A   1      42.841  26.684  37.271  1.00  0.00    -0.237 OA
ATOM    107  O   UNL A   1      40.409  27.112  37.376  1.00  0.00    -0.237 OA
ATOM    108  O   UNL A   1      41.291  25.404  35.841  1.00  0.00    -0.744 OA
ENDBRANCH 104 105
ENDBRANCH  72  97
ENDBRANCH  46  47
ENDBRANCH  38  41
ENDBRANCH  36  37
ENDBRANCH  35  36
ENDBRANCH   1  35
TORSDOF 19
ENDMDL
