MODEL 1
REMARK VINA RESULT:     -13.9      0.000      0.000
REMARK SMILES O=C(NCCCCNC(=O)[C@H]1Cc2[nH]cnc2CN1C(=O)C[C@]12C[C@H]3C[C@H](C[C@H](C3)C1)C2)c1ccc(-c2c3nc(c(-c4c(F)cc(S(=O)(=O)[O-])cc4F)c4ccc([nH]4)c(-c4c(F)cc(S(=O)(=O)[O-])cc4F)c4nc(c(-c5c(F)cc(S(=O)(=O)[O-])cc5F)c5ccc2[nH]5)C=C4)C=C3)cc1
REMARK SMILES IDX 5 1 4 2 3 3 1 4 2 5 33 7 34 8 98 9 35 10 97 11 36 12 37 13
REMARK SMILES IDX 38 14 91 15 39 16 96 17 90 18 92 19 40 20 95 21 89 22 88 23
REMARK SMILES IDX 41 25 75 26 54 27 74 28 55 29 58 30 73 31 93 32 56 33 57 34
REMARK SMILES IDX 72 36 94 37 59 38 42 39 43 40 52 41 44 42 45 43 51 44 53 45
REMARK SMILES IDX 46 46 47 47 48 48 49 49 50 50 76 51 77 52 86 53 78 54 79 55
REMARK SMILES IDX 85 56 87 57 80 58 81 59 82 60 83 61 84 62 60 63 61 64 70 65
REMARK SMILES IDX 62 66 63 67 69 68 71 69 64 70 65 71 66 72 67 73 68 74 6 75
REMARK SMILES IDX 7 76 8 77 9 78 10 80 11 81 12 82 19 83 13 84 18 85 14 86
REMARK SMILES IDX 17 87 15 88 16 90 20 91 21 92 22 93 23 94 24 95 31 96 32 97
REMARK SMILES IDX 25 98 29 99 27 100 26 101 30 102 28 103
REMARK H PARENT 3 6 92 24 58 35 8 79 14 89
REMARK Flexibility Score: inf
ROOT
ATOM      1  C   UNL A   1      33.024  28.185  27.015  1.00  0.00     0.023 C 
ENDROOT
BRANCH   1   2
ATOM      2  C   UNL A   1      33.217  29.461  26.196  1.00  0.00     0.116 C 
BRANCH   2   3
ATOM      3  N   UNL A   1      33.168  30.718  26.919  1.00  0.00    -0.352 N 
ATOM      4  O   UNL A   1      33.735  32.602  27.938  1.00  0.00    -0.269 OA
ATOM      5  C   UNL A   1      34.099  31.483  27.571  1.00  0.00     0.251 C 
ATOM      6  H   UNL A   1      32.264  31.107  26.948  1.00  0.00     0.163 HD
BRANCH   5   7
ATOM      7  C   UNL A   1      35.466  31.018  27.918  1.00  0.00     0.039 A 
ATOM      8  C   UNL A   1      35.884  29.690  27.875  1.00  0.00     0.014 A 
ATOM      9  C   UNL A   1      36.385  32.006  28.317  1.00  0.00     0.014 A 
ATOM     10  C   UNL A   1      37.141  29.332  28.343  1.00  0.00     0.010 A 
ATOM     11  C   UNL A   1      37.666  31.659  28.735  1.00  0.00     0.010 A 
ATOM     12  C   UNL A   1      38.032  30.315  28.780  1.00  0.00    -0.014 A 
BRANCH  12  13
ATOM     13  C   UNL A   1      39.407  29.896  29.053  1.00  0.00     0.031 A 
ATOM     14  C   UNL A   1      39.771  29.898  30.501  1.00  0.00     0.074 A 
ATOM     15  C   UNL A   1      40.242  29.377  28.133  1.00  0.00     0.049 A 
ATOM     16  N   UNL A   1      40.727  30.535  31.094  1.00  0.00    -0.248 NA
ATOM     17  C   UNL A   1      38.876  29.172  31.418  1.00  0.00     0.031 C 
ATOM     18  C   UNL A   1      39.921  29.031  26.748  1.00  0.00     0.029 A 
ATOM     19  N   UNL A   1      41.524  28.928  28.281  1.00  0.00    -0.354 N 
ATOM     20  C   UNL A   1      40.694  30.110  32.422  1.00  0.00     0.074 A 
ATOM     21  C   UNL A   1      39.445  29.420  32.597  1.00  0.00     0.031 C 
ATOM     22  C   UNL A   1      40.891  28.227  26.261  1.00  0.00     0.029 A 
ATOM     23  C   UNL A   1      41.943  28.089  27.255  1.00  0.00     0.049 A 
ATOM     24  H   UNL A   1      42.097  29.175  29.043  1.00  0.00     0.167 HD
ATOM     25  C   UNL A   1      41.805  30.128  33.209  1.00  0.00     0.037 A 
ATOM     26  C   UNL A   1      43.026  27.269  27.258  1.00  0.00     0.037 A 
ATOM     27  C   UNL A   1      42.797  31.045  32.711  1.00  0.00     0.049 A 
ATOM     28  C   UNL A   1      43.963  27.752  28.303  1.00  0.00     0.074 A 
ATOM     29  C   UNL A   1      42.820  32.392  32.402  1.00  0.00     0.029 A 
ATOM     30  N   UNL A   1      43.941  30.521  32.161  1.00  0.00    -0.354 N 
ATOM     31  N   UNL A   1      44.636  28.867  28.234  1.00  0.00    -0.248 NA
ATOM     32  C   UNL A   1      43.899  27.148  29.625  1.00  0.00     0.031 C 
ATOM     33  C   UNL A   1      43.719  32.511  31.301  1.00  0.00     0.029 A 
ATOM     34  C   UNL A   1      44.216  31.236  31.027  1.00  0.00     0.049 A 
ATOM     35  H   UNL A   1      44.467  29.768  32.517  1.00  0.00     0.167 HD
ATOM     36  C   UNL A   1      44.709  29.318  29.543  1.00  0.00     0.074 A 
ATOM     37  C   UNL A   1      44.359  28.162  30.360  1.00  0.00     0.031 C 
ATOM     38  C   UNL A   1      44.769  30.651  29.826  1.00  0.00     0.037 A 
BRANCH  25  39
ATOM     39  C   UNL A   1      42.151  29.018  34.186  1.00  0.00     0.058 A 
ATOM     40  C   UNL A   1      42.250  27.692  33.711  1.00  0.00     0.135 A 
ATOM     41  C   UNL A   1      42.067  29.152  35.591  1.00  0.00     0.135 A 
ATOM     42  F   UNL A   1      42.344  27.443  32.395  1.00  0.00    -0.206 F 
ATOM     43  C   UNL A   1      42.148  26.587  34.556  1.00  0.00     0.059 A 
ATOM     44  C   UNL A   1      42.025  28.065  36.454  1.00  0.00     0.059 A 
ATOM     45  F   UNL A   1      41.918  30.336  36.195  1.00  0.00    -0.206 F 
ATOM     46  C   UNL A   1      42.006  26.787  35.925  1.00  0.00     0.060 A 
BRANCH  46  47
ATOM     47  S   UNL A   1      41.710  25.378  37.006  1.00  0.00     0.124 S 
ATOM     48  O   UNL A   1      41.507  24.312  36.032  1.00  0.00    -0.237 OA
ATOM     49  O   UNL A   1      42.949  25.319  37.774  1.00  0.00    -0.237 OA
ATOM     50  O   UNL A   1      40.529  25.781  37.763  1.00  0.00    -0.744 OA
ENDBRANCH  46  47
ENDBRANCH  25  39
BRANCH  26  51
ATOM     51  C   UNL A   1      43.179  25.939  26.607  1.00  0.00     0.058 A 
ATOM     52  C   UNL A   1      44.050  25.759  25.517  1.00  0.00     0.135 A 
ATOM     53  C   UNL A   1      42.682  24.762  27.201  1.00  0.00     0.135 A 
ATOM     54  F   UNL A   1      44.593  26.820  24.901  1.00  0.00    -0.206 F 
ATOM     55  C   UNL A   1      44.442  24.490  25.074  1.00  0.00     0.059 A 
ATOM     56  C   UNL A   1      43.040  23.488  26.765  1.00  0.00     0.059 A 
ATOM     57  F   UNL A   1      41.903  24.805  28.292  1.00  0.00    -0.206 F 
ATOM     58  C   UNL A   1      43.943  23.358  25.718  1.00  0.00     0.060 A 
BRANCH  58  59
ATOM     59  S   UNL A   1      44.575  21.725  25.273  1.00  0.00     0.124 S 
ATOM     60  O   UNL A   1      44.517  21.766  23.816  1.00  0.00    -0.237 OA
ATOM     61  O   UNL A   1      45.909  21.738  25.861  1.00  0.00    -0.237 OA
ATOM     62  O   UNL A   1      43.627  20.811  25.907  1.00  0.00    -0.744 OA
ENDBRANCH  58  59
ENDBRANCH  26  51
BRANCH  38  63
ATOM     63  C   UNL A   1      45.193  31.596  28.737  1.00  0.00     0.058 A 
ATOM     64  C   UNL A   1      44.368  32.024  27.682  1.00  0.00     0.135 A 
ATOM     65  C   UNL A   1      46.465  32.182  28.837  1.00  0.00     0.135 A 
ATOM     66  F   UNL A   1      43.100  31.604  27.580  1.00  0.00    -0.206 F 
ATOM     67  C   UNL A   1      44.814  32.949  26.736  1.00  0.00     0.059 A 
ATOM     68  C   UNL A   1      46.916  33.132  27.927  1.00  0.00     0.059 A 
ATOM     69  F   UNL A   1      47.276  31.861  29.860  1.00  0.00    -0.206 F 
ATOM     70  C   UNL A   1      46.090  33.497  26.866  1.00  0.00     0.060 A 
BRANCH  70  71
ATOM     71  S   UNL A   1      46.640  34.747  25.685  1.00  0.00     0.124 S 
ATOM     72  O   UNL A   1      46.495  35.982  26.459  1.00  0.00    -0.237 OA
ATOM     73  O   UNL A   1      48.018  34.337  25.410  1.00  0.00    -0.237 OA
ATOM     74  O   UNL A   1      45.720  34.597  24.571  1.00  0.00    -0.744 OA
ENDBRANCH  70  71
ENDBRANCH  38  63
ENDBRANCH  12  13
ENDBRANCH   5   7
ENDBRANCH   2   3
ENDBRANCH   1   2
BRANCH   1  75
ATOM     75  C   UNL A   1      31.721  27.430  26.772  1.00  0.00     0.023 C 
BRANCH  75  76
ATOM     76  C   UNL A   1      31.830  26.171  25.916  1.00  0.00     0.116 C 
BRANCH  76  77
ATOM     77  N   UNL A   1      31.550  24.951  26.657  1.00  0.00    -0.354 N 
ATOM     78  C   UNL A   1      32.148  23.728  26.713  1.00  0.00     0.243 C 
ATOM     79  H   UNL A   1      30.761  25.024  27.242  1.00  0.00     0.163 HD
ATOM     80  O   UNL A   1      31.528  22.873  27.359  1.00  0.00    -0.273 OA
BRANCH  78  81
ATOM     81  C   UNL A   1      33.462  23.334  25.978  1.00  0.00     0.180 C 
ATOM     82  C   UNL A   1      34.696  22.856  26.808  1.00  0.00     0.091 C 
ATOM     83  N   UNL A   1      33.366  22.608  24.631  1.00  0.00    -0.324 N 
ATOM     84  C   UNL A   1      35.808  22.476  25.904  1.00  0.00     0.042 A 
ATOM     85  C   UNL A   1      34.539  22.862  23.754  1.00  0.00     0.178 C 
ATOM     86  N   UNL A   1      37.062  22.059  26.238  1.00  0.00    -0.348 N 
ATOM     87  C   UNL A   1      35.761  22.482  24.530  1.00  0.00     0.081 A 
ATOM     88  C   UNL A   1      37.736  21.875  25.059  1.00  0.00     0.197 A 
ATOM     89  H   UNL A   1      37.415  21.920  27.146  1.00  0.00     0.167 HD
ATOM     90  N   UNL A   1      36.977  22.126  24.011  1.00  0.00    -0.240 NA
BRANCH  83  91
ATOM     91  C   UNL A   1      32.590  21.511  24.257  1.00  0.00     0.224 C 
ATOM     92  O   UNL A   1      32.056  21.452  23.141  1.00  0.00    -0.275 OA
BRANCH  91  93
ATOM     93  C   UNL A   1      32.291  20.363  25.209  1.00  0.00     0.107 C 
BRANCH  93  94
ATOM     94  C   UNL A   1      32.945  19.004  24.887  1.00  0.00    -0.020 C 
ATOM     95  C   UNL A   1      32.742  18.000  26.031  1.00  0.00     0.011 C 
ATOM     96  C   UNL A   1      34.468  19.119  24.616  1.00  0.00     0.011 C 
ATOM     97  C   UNL A   1      32.285  18.427  23.604  1.00  0.00     0.011 C 
ATOM     98  C   UNL A   1      33.321  16.625  25.708  1.00  0.00    -0.010 C 
ATOM     99  C   UNL A   1      35.061  17.732  24.276  1.00  0.00    -0.010 C 
ATOM    100  C   UNL A   1      32.857  17.040  23.270  1.00  0.00    -0.010 C 
ATOM    101  C   UNL A   1      32.617  16.092  24.455  1.00  0.00     0.007 C 
ATOM    102  C   UNL A   1      34.825  16.771  25.453  1.00  0.00     0.007 C 
ATOM    103  C   UNL A   1      34.367  17.163  23.026  1.00  0.00     0.007 C 
ENDBRANCH  93  94
ENDBRANCH  91  93
ENDBRANCH  83  91
ENDBRANCH  78  81
ENDBRANCH  76  77
ENDBRANCH  75  76
ENDBRANCH   1  75
TORSDOF 17
ENDMDL
MODEL 2
REMARK VINA RESULT:     -13.8      2.332      9.313
REMARK SMILES O=C(NCCCCNC(=O)[C@H]1Cc2[nH]cnc2CN1C(=O)C[C@]12C[C@H]3C[C@H](C[C@H](C3)C1)C2)c1ccc(-c2c3nc(c(-c4c(F)cc(S(=O)(=O)[O-])cc4F)c4ccc([nH]4)c(-c4c(F)cc(S(=O)(=O)[O-])cc4F)c4nc(c(-c5c(F)cc(S(=O)(=O)[O-])cc5F)c5ccc2[nH]5)C=C4)C=C3)cc1
REMARK SMILES IDX 5 1 4 2 3 3 1 4 2 5 33 7 34 8 98 9 35 10 97 11 36 12 37 13
REMARK SMILES IDX 38 14 91 15 39 16 96 17 90 18 92 19 40 20 95 21 89 22 88 23
REMARK SMILES IDX 41 25 75 26 54 27 74 28 55 29 58 30 73 31 93 32 56 33 57 34
REMARK SMILES IDX 72 36 94 37 59 38 42 39 43 40 52 41 44 42 45 43 51 44 53 45
REMARK SMILES IDX 46 46 47 47 48 48 49 49 50 50 76 51 77 52 86 53 78 54 79 55
REMARK SMILES IDX 85 56 87 57 80 58 81 59 82 60 83 61 84 62 60 63 61 64 70 65
REMARK SMILES IDX 62 66 63 67 69 68 71 69 64 70 65 71 66 72 67 73 68 74 6 75
REMARK SMILES IDX 7 76 8 77 9 78 10 80 11 81 12 82 19 83 13 84 18 85 14 86
REMARK SMILES IDX 17 87 15 88 16 90 20 91 21 92 22 93 23 94 24 95 31 96 32 97
REMARK SMILES IDX 25 98 29 99 27 100 26 101 30 102 28 103
REMARK H PARENT 3 6 92 24 58 35 8 79 14 89
REMARK Flexibility Score: inf
ROOT
ATOM      1  C   UNL A   1      40.395  21.090  26.905  1.00  0.00     0.023 C 
ENDROOT
BRANCH   1   2
ATOM      2  C   UNL A   1      41.560  20.129  26.667  1.00  0.00     0.116 C 
BRANCH   2   3
ATOM      3  N   UNL A   1      42.526  20.509  25.653  1.00  0.00    -0.352 N 
ATOM      4  O   UNL A   1      44.158  21.528  24.554  1.00  0.00    -0.269 OA
ATOM      5  C   UNL A   1      43.310  21.613  25.444  1.00  0.00     0.251 C 
ATOM      6  H   UNL A   1      42.645  19.820  24.960  1.00  0.00     0.163 HD
BRANCH   5   7
ATOM      7  C   UNL A   1      43.144  22.902  26.163  1.00  0.00     0.039 A 
ATOM      8  C   UNL A   1      42.380  23.971  25.702  1.00  0.00     0.014 A 
ATOM      9  C   UNL A   1      43.814  23.028  27.394  1.00  0.00     0.014 A 
ATOM     10  C   UNL A   1      42.389  25.185  26.377  1.00  0.00     0.010 A 
ATOM     11  C   UNL A   1      43.782  24.224  28.104  1.00  0.00     0.010 A 
ATOM     12  C   UNL A   1      43.094  25.315  27.575  1.00  0.00    -0.014 A 
BRANCH  12  13
ATOM     13  C   UNL A   1      42.887  26.544  28.343  1.00  0.00     0.031 A 
ATOM     14  C   UNL A   1      43.991  27.540  28.215  1.00  0.00     0.074 A 
ATOM     15  C   UNL A   1      41.740  26.863  28.973  1.00  0.00     0.049 A 
ATOM     16  N   UNL A   1      44.719  28.066  29.146  1.00  0.00    -0.248 NA
ATOM     17  C   UNL A   1      44.404  27.912  26.850  1.00  0.00     0.031 C 
ATOM     18  C   UNL A   1      40.476  26.129  28.927  1.00  0.00     0.029 A 
ATOM     19  N   UNL A   1      41.427  27.986  29.687  1.00  0.00    -0.354 N 
ATOM     20  C   UNL A   1      45.526  29.007  28.505  1.00  0.00     0.074 A 
ATOM     21  C   UNL A   1      45.415  28.743  27.095  1.00  0.00     0.031 C 
ATOM     22  C   UNL A   1      39.487  26.929  29.382  1.00  0.00     0.029 A 
ATOM     23  C   UNL A   1      40.060  28.182  29.845  1.00  0.00     0.049 A 
ATOM     24  H   UNL A   1      42.105  28.598  30.053  1.00  0.00     0.167 HD
ATOM     25  C   UNL A   1      46.019  30.093  29.159  1.00  0.00     0.037 A 
ATOM     26  C   UNL A   1      39.437  29.323  30.239  1.00  0.00     0.037 A 
ATOM     27  C   UNL A   1      46.040  29.894  30.585  1.00  0.00     0.049 A 
ATOM     28  C   UNL A   1      40.434  30.170  30.941  1.00  0.00     0.074 A 
ATOM     29  C   UNL A   1      46.591  28.953  31.436  1.00  0.00     0.029 A 
ATOM     30  N   UNL A   1      45.146  30.601  31.349  1.00  0.00    -0.354 N 
ATOM     31  N   UNL A   1      40.955  29.890  32.103  1.00  0.00    -0.248 NA
ATOM     32  C   UNL A   1      41.134  31.192  30.179  1.00  0.00     0.031 C 
ATOM     33  C   UNL A   1      45.671  28.842  32.520  1.00  0.00     0.029 A 
ATOM     34  C   UNL A   1      44.634  29.743  32.283  1.00  0.00     0.049 A 
ATOM     35  H   UNL A   1      44.915  31.553  31.243  1.00  0.00     0.167 HD
ATOM     36  C   UNL A   1      42.253  30.372  32.035  1.00  0.00     0.074 A 
ATOM     37  C   UNL A   1      42.261  31.273  30.888  1.00  0.00     0.031 C 
ATOM     38  C   UNL A   1      43.262  29.779  32.737  1.00  0.00     0.037 A 
BRANCH  25  39
ATOM     39  C   UNL A   1      46.092  31.477  28.538  1.00  0.00     0.058 A 
ATOM     40  C   UNL A   1      44.948  32.004  27.900  1.00  0.00     0.135 A 
ATOM     41  C   UNL A   1      47.303  32.152  28.261  1.00  0.00     0.135 A 
ATOM     42  F   UNL A   1      43.741  31.451  28.096  1.00  0.00    -0.206 F 
ATOM     43  C   UNL A   1      45.023  33.040  26.969  1.00  0.00     0.059 A 
ATOM     44  C   UNL A   1      47.389  33.223  27.382  1.00  0.00     0.059 A 
ATOM     45  F   UNL A   1      48.482  31.747  28.746  1.00  0.00    -0.206 F 
ATOM     46  C   UNL A   1      46.256  33.622  26.695  1.00  0.00     0.060 A 
BRANCH  46  47
ATOM     47  S   UNL A   1      46.393  34.844  25.380  1.00  0.00     0.124 S 
ATOM     48  O   UNL A   1      46.046  36.067  26.094  1.00  0.00    -0.237 OA
ATOM     49  O   UNL A   1      47.790  34.706  24.982  1.00  0.00    -0.237 OA
ATOM     50  O   UNL A   1      45.418  34.384  24.396  1.00  0.00    -0.744 OA
ENDBRANCH  46  47
ENDBRANCH  25  39
BRANCH  26  51
ATOM     51  C   UNL A   1      38.111  29.847  29.811  1.00  0.00     0.058 A 
ATOM     52  C   UNL A   1      37.211  30.395  30.742  1.00  0.00     0.135 A 
ATOM     53  C   UNL A   1      37.804  30.065  28.453  1.00  0.00     0.135 A 
ATOM     54  F   UNL A   1      37.432  30.259  32.059  1.00  0.00    -0.206 F 
ATOM     55  C   UNL A   1      36.101  31.154  30.352  1.00  0.00     0.059 A 
ATOM     56  C   UNL A   1      36.694  30.798  28.040  1.00  0.00     0.059 A 
ATOM     57  F   UNL A   1      38.626  29.654  27.476  1.00  0.00    -0.206 F 
ATOM     58  C   UNL A   1      35.861  31.365  28.995  1.00  0.00     0.060 A 
BRANCH  58  59
ATOM     59  S   UNL A   1      34.538  32.485  28.484  1.00  0.00     0.124 S 
ATOM     60  O   UNL A   1      33.633  31.582  27.782  1.00  0.00    -0.237 OA
ATOM     61  O   UNL A   1      34.060  33.002  29.761  1.00  0.00    -0.237 OA
ATOM     62  O   UNL A   1      35.226  33.459  27.640  1.00  0.00    -0.744 OA
ENDBRANCH  58  59
ENDBRANCH  26  51
BRANCH  38  63
ATOM     63  C   UNL A   1      42.902  28.900  33.902  1.00  0.00     0.058 A 
ATOM     64  C   UNL A   1      42.646  29.362  35.205  1.00  0.00     0.135 A 
ATOM     65  C   UNL A   1      42.696  27.534  33.653  1.00  0.00     0.135 A 
ATOM     66  F   UNL A   1      42.706  30.668  35.501  1.00  0.00    -0.206 F 
ATOM     67  C   UNL A   1      42.261  28.491  36.226  1.00  0.00     0.059 A 
ATOM     68  C   UNL A   1      42.277  26.655  34.647  1.00  0.00     0.059 A 
ATOM     69  F   UNL A   1      42.861  27.043  32.412  1.00  0.00    -0.206 F 
ATOM     70  C   UNL A   1      42.080  27.139  35.938  1.00  0.00     0.060 A 
BRANCH  70  71
ATOM     71  S   UNL A   1      41.512  26.026  37.240  1.00  0.00     0.124 S 
ATOM     72  O   UNL A   1      42.612  26.097  38.203  1.00  0.00    -0.237 OA
ATOM     73  O   UNL A   1      40.261  26.654  37.669  1.00  0.00    -0.237 OA
ATOM     74  O   UNL A   1      41.358  24.751  36.561  1.00  0.00    -0.744 OA
ENDBRANCH  70  71
ENDBRANCH  38  63
ENDBRANCH  12  13
ENDBRANCH   5   7
ENDBRANCH   2   3
ENDBRANCH   1   2
BRANCH   1  75
ATOM     75  C   UNL A   1      39.450  21.294  25.725  1.00  0.00     0.023 C 
BRANCH  75  76
ATOM     76  C   UNL A   1      38.196  22.117  26.009  1.00  0.00     0.116 C 
BRANCH  76  77
ATOM     77  N   UNL A   1      37.740  22.878  24.857  1.00  0.00    -0.354 N 
ATOM     78  C   UNL A   1      36.627  22.820  24.074  1.00  0.00     0.243 C 
ATOM     79  H   UNL A   1      38.369  23.586  24.586  1.00  0.00     0.163 HD
ATOM     80  O   UNL A   1      36.654  23.548  23.073  1.00  0.00    -0.273 OA
BRANCH  78  81
ATOM     81  C   UNL A   1      35.413  21.873  24.304  1.00  0.00     0.180 C 
ATOM     82  C   UNL A   1      35.663  20.382  24.699  1.00  0.00     0.091 C 
ATOM     83  N   UNL A   1      34.153  22.435  24.971  1.00  0.00    -0.324 N 
ATOM     84  C   UNL A   1      34.373  19.687  24.927  1.00  0.00     0.042 A 
ATOM     85  C   UNL A   1      32.916  21.718  24.563  1.00  0.00     0.178 C 
ATOM     86  N   UNL A   1      34.164  18.376  25.236  1.00  0.00    -0.348 N 
ATOM     87  C   UNL A   1      33.129  20.267  24.860  1.00  0.00     0.081 A 
ATOM     88  C   UNL A   1      32.806  18.205  25.298  1.00  0.00     0.197 A 
ATOM     89  H   UNL A   1      34.852  17.688  25.383  1.00  0.00     0.167 HD
ATOM     90  N   UNL A   1      32.154  19.328  25.072  1.00  0.00    -0.240 NA
BRANCH  83  91
ATOM     91  C   UNL A   1      34.018  23.215  26.119  1.00  0.00     0.224 C 
ATOM     92  O   UNL A   1      34.902  23.241  26.986  1.00  0.00    -0.275 OA
BRANCH  91  93
ATOM     93  C   UNL A   1      32.760  24.019  26.414  1.00  0.00     0.107 C 
BRANCH  93  94
ATOM     94  C   UNL A   1      32.611  25.370  25.685  1.00  0.00    -0.020 C 
ATOM     95  C   UNL A   1      31.807  26.373  26.526  1.00  0.00     0.011 C 
ATOM     96  C   UNL A   1      31.915  25.235  24.306  1.00  0.00     0.011 C 
ATOM     97  C   UNL A   1      34.027  25.959  25.438  1.00  0.00     0.011 C 
ATOM     98  C   UNL A   1      31.703  27.741  25.856  1.00  0.00    -0.010 C 
ATOM     99  C   UNL A   1      31.816  26.615  23.615  1.00  0.00    -0.010 C 
ATOM    100  C   UNL A   1      33.936  27.339  24.767  1.00  0.00    -0.010 C 
ATOM    101  C   UNL A   1      33.123  28.287  25.662  1.00  0.00     0.007 C 
ATOM    102  C   UNL A   1      31.007  27.576  24.502  1.00  0.00     0.007 C 
ATOM    103  C   UNL A   1      33.227  27.197  23.414  1.00  0.00     0.007 C 
ENDBRANCH  93  94
ENDBRANCH  91  93
ENDBRANCH  83  91
ENDBRANCH  78  81
ENDBRANCH  76  77
ENDBRANCH  75  76
ENDBRANCH   1  75
TORSDOF 17
ENDMDL
MODEL 3
REMARK VINA RESULT:     -13.7      2.769      9.252
REMARK SMILES O=C(NCCCCNC(=O)[C@H]1Cc2[nH]cnc2CN1C(=O)C[C@]12C[C@H]3C[C@H](C[C@H](C3)C1)C2)c1ccc(-c2c3nc(c(-c4c(F)cc(S(=O)(=O)[O-])cc4F)c4ccc([nH]4)c(-c4c(F)cc(S(=O)(=O)[O-])cc4F)c4nc(c(-c5c(F)cc(S(=O)(=O)[O-])cc5F)c5ccc2[nH]5)C=C4)C=C3)cc1
REMARK SMILES IDX 5 1 4 2 3 3 1 4 2 5 33 7 34 8 98 9 35 10 97 11 36 12 37 13
REMARK SMILES IDX 38 14 91 15 39 16 96 17 90 18 92 19 40 20 95 21 89 22 88 23
REMARK SMILES IDX 41 25 75 26 54 27 74 28 55 29 58 30 73 31 93 32 56 33 57 34
REMARK SMILES IDX 72 36 94 37 59 38 42 39 43 40 52 41 44 42 45 43 51 44 53 45
REMARK SMILES IDX 46 46 47 47 48 48 49 49 50 50 76 51 77 52 86 53 78 54 79 55
REMARK SMILES IDX 85 56 87 57 80 58 81 59 82 60 83 61 84 62 60 63 61 64 70 65
REMARK SMILES IDX 62 66 63 67 69 68 71 69 64 70 65 71 66 72 67 73 68 74 6 75
REMARK SMILES IDX 7 76 8 77 9 78 10 80 11 81 12 82 19 83 13 84 18 85 14 86
REMARK SMILES IDX 17 87 15 88 16 90 20 91 21 92 22 93 23 94 24 95 31 96 32 97
REMARK SMILES IDX 25 98 29 99 27 100 26 101 30 102 28 103
REMARK H PARENT 3 6 92 24 58 35 8 79 14 89
REMARK Flexibility Score: inf
ROOT
ATOM      1  C   UNL A   1      39.929  20.026  25.990  1.00  0.00     0.023 C 
ENDROOT
BRANCH   1   2
ATOM      2  C   UNL A   1      41.345  19.868  26.543  1.00  0.00     0.116 C 
BRANCH   2   3
ATOM      3  N   UNL A   1      42.439  20.138  25.629  1.00  0.00    -0.352 N 
ATOM      4  O   UNL A   1      44.248  20.997  24.681  1.00  0.00    -0.269 OA
ATOM      5  C   UNL A   1      43.317  21.177  25.469  1.00  0.00     0.251 C 
ATOM      6  H   UNL A   1      42.582  19.413  24.979  1.00  0.00     0.163 HD
BRANCH   5   7
ATOM      7  C   UNL A   1      43.167  22.504  26.119  1.00  0.00     0.039 A 
ATOM      8  C   UNL A   1      42.405  23.552  25.609  1.00  0.00     0.014 A 
ATOM      9  C   UNL A   1      43.853  22.691  27.333  1.00  0.00     0.014 A 
ATOM     10  C   UNL A   1      42.429  24.801  26.217  1.00  0.00     0.010 A 
ATOM     11  C   UNL A   1      43.836  23.925  27.978  1.00  0.00     0.010 A 
ATOM     12  C   UNL A   1      43.149  24.990  27.399  1.00  0.00    -0.014 A 
BRANCH  12  13
ATOM     13  C   UNL A   1      42.958  26.260  28.101  1.00  0.00     0.031 A 
ATOM     14  C   UNL A   1      44.043  27.258  27.868  1.00  0.00     0.074 A 
ATOM     15  C   UNL A   1      41.835  26.603  28.760  1.00  0.00     0.049 A 
ATOM     16  N   UNL A   1      44.802  27.847  28.734  1.00  0.00    -0.248 NA
ATOM     17  C   UNL A   1      44.393  27.553  26.468  1.00  0.00     0.031 C 
ATOM     18  C   UNL A   1      40.580  25.855  28.811  1.00  0.00     0.029 A 
ATOM     19  N   UNL A   1      41.537  27.763  29.420  1.00  0.00    -0.354 N 
ATOM     20  C   UNL A   1      45.569  28.756  28.005  1.00  0.00     0.074 A 
ATOM     21  C   UNL A   1      45.403  28.408  26.620  1.00  0.00     0.031 C 
ATOM     22  C   UNL A   1      39.601  26.670  29.260  1.00  0.00     0.029 A 
ATOM     23  C   UNL A   1      40.176  27.954  29.625  1.00  0.00     0.049 A 
ATOM     24  H   UNL A   1      42.223  28.403  29.720  1.00  0.00     0.167 HD
ATOM     25  C   UNL A   1      46.076  29.884  28.573  1.00  0.00     0.037 A 
ATOM     26  C   UNL A   1      39.555  29.110  29.977  1.00  0.00     0.037 A 
ATOM     27  C   UNL A   1      46.159  29.770  30.006  1.00  0.00     0.049 A 
ATOM     28  C   UNL A   1      40.569  30.008  30.585  1.00  0.00     0.074 A 
ATOM     29  C   UNL A   1      46.758  28.887  30.886  1.00  0.00     0.029 A 
ATOM     30  N   UNL A   1      45.288  30.512  30.764  1.00  0.00    -0.354 N 
ATOM     31  N   UNL A   1      41.143  29.802  31.738  1.00  0.00    -0.248 NA
ATOM     32  C   UNL A   1      41.223  30.990  29.734  1.00  0.00     0.031 C 
ATOM     33  C   UNL A   1      45.886  28.830  32.013  1.00  0.00     0.029 A 
ATOM     34  C   UNL A   1      44.828  29.705  31.769  1.00  0.00     0.049 A 
ATOM     35  H   UNL A   1      45.041  31.453  30.613  1.00  0.00     0.167 HD
ATOM     36  C   UNL A   1      42.430  30.292  31.586  1.00  0.00     0.074 A 
ATOM     37  C   UNL A   1      42.378  31.125  30.390  1.00  0.00     0.031 C 
ATOM     38  C   UNL A   1      43.475  29.753  32.278  1.00  0.00     0.037 A 
BRANCH  25  39
ATOM     39  C   UNL A   1      46.104  31.229  27.869  1.00  0.00     0.058 A 
ATOM     40  C   UNL A   1      47.280  32.009  27.924  1.00  0.00     0.135 A 
ATOM     41  C   UNL A   1      44.945  31.913  27.433  1.00  0.00     0.135 A 
ATOM     42  F   UNL A   1      48.443  31.463  28.314  1.00  0.00    -0.206 F 
ATOM     43  C   UNL A   1      47.277  33.383  27.684  1.00  0.00     0.059 A 
ATOM     44  C   UNL A   1      44.935  33.269  27.133  1.00  0.00     0.059 A 
ATOM     45  F   UNL A   1      43.743  31.332  27.375  1.00  0.00    -0.206 F 
ATOM     46  C   UNL A   1      46.090  34.008  27.318  1.00  0.00     0.060 A 
BRANCH  46  47
ATOM     47  S   UNL A   1      46.037  35.801  27.166  1.00  0.00     0.124 S 
ATOM     48  O   UNL A   1      46.902  36.012  26.011  1.00  0.00    -0.237 OA
ATOM     49  O   UNL A   1      44.614  36.046  26.956  1.00  0.00    -0.237 OA
ATOM     50  O   UNL A   1      46.564  36.260  28.447  1.00  0.00    -0.744 OA
ENDBRANCH  46  47
ENDBRANCH  25  39
BRANCH  26  51
ATOM     51  C   UNL A   1      38.206  29.593  29.577  1.00  0.00     0.058 A 
ATOM     52  C   UNL A   1      37.273  30.024  30.537  1.00  0.00     0.135 A 
ATOM     53  C   UNL A   1      37.894  29.893  28.235  1.00  0.00     0.135 A 
ATOM     54  F   UNL A   1      37.494  29.805  31.842  1.00  0.00    -0.206 F 
ATOM     55  C   UNL A   1      36.127  30.751  30.193  1.00  0.00     0.059 A 
ATOM     56  C   UNL A   1      36.749  30.595  27.866  1.00  0.00     0.059 A 
ATOM     57  F   UNL A   1      38.741  29.597  27.238  1.00  0.00    -0.206 F 
ATOM     58  C   UNL A   1      35.883  31.047  28.852  1.00  0.00     0.060 A 
BRANCH  58  59
ATOM     59  S   UNL A   1      34.505  32.130  28.412  1.00  0.00     0.124 S 
ATOM     60  O   UNL A   1      33.617  31.216  27.703  1.00  0.00    -0.237 OA
ATOM     61  O   UNL A   1      34.042  32.588  29.717  1.00  0.00    -0.237 OA
ATOM     62  O   UNL A   1      35.133  33.157  27.583  1.00  0.00    -0.744 OA
ENDBRANCH  58  59
ENDBRANCH  26  51
BRANCH  38  63
ATOM     63  C   UNL A   1      43.177  28.941  33.507  1.00  0.00     0.058 A 
ATOM     64  C   UNL A   1      43.023  29.472  34.800  1.00  0.00     0.135 A 
ATOM     65  C   UNL A   1      42.921  27.571  33.340  1.00  0.00     0.135 A 
ATOM     66  F   UNL A   1      43.134  30.788  35.026  1.00  0.00    -0.206 F 
ATOM     67  C   UNL A   1      42.690  28.661  35.887  1.00  0.00     0.059 A 
ATOM     68  C   UNL A   1      42.551  26.752  34.402  1.00  0.00     0.059 A 
ATOM     69  F   UNL A   1      42.988  27.017  32.117  1.00  0.00    -0.206 F 
ATOM     70  C   UNL A   1      42.456  27.302  35.678  1.00  0.00     0.060 A 
BRANCH  70  71
ATOM     71  S   UNL A   1      41.954  26.268  37.070  1.00  0.00     0.124 S 
ATOM     72  O   UNL A   1      41.953  24.932  36.472  1.00  0.00    -0.237 OA
ATOM     73  O   UNL A   1      43.014  26.518  38.049  1.00  0.00    -0.237 OA
ATOM     74  O   UNL A   1      40.648  26.790  37.434  1.00  0.00    -0.744 OA
ENDBRANCH  70  71
ENDBRANCH  38  63
ENDBRANCH  12  13
ENDBRANCH   5   7
ENDBRANCH   2   3
ENDBRANCH   1   2
BRANCH   1  75
ATOM     75  C   UNL A   1      39.339  21.431  26.067  1.00  0.00     0.023 C 
BRANCH  75  76
ATOM     76  C   UNL A   1      37.859  21.553  25.714  1.00  0.00     0.116 C 
BRANCH  76  77
ATOM     77  N   UNL A   1      37.625  22.282  24.478  1.00  0.00    -0.354 N 
ATOM     78  C   UNL A   1      36.501  22.717  23.843  1.00  0.00     0.243 C 
ATOM     79  H   UNL A   1      38.454  22.509  23.998  1.00  0.00     0.163 HD
ATOM     80  O   UNL A   1      36.688  23.183  22.711  1.00  0.00    -0.273 OA
BRANCH  78  81
ATOM     81  C   UNL A   1      35.050  22.591  24.393  1.00  0.00     0.180 C 
ATOM     82  C   UNL A   1      34.749  22.999  25.871  1.00  0.00     0.091 C 
ATOM     83  N   UNL A   1      33.876  22.916  23.462  1.00  0.00    -0.324 N 
ATOM     84  C   UNL A   1      33.301  22.858  26.158  1.00  0.00     0.042 A 
ATOM     85  C   UNL A   1      32.637  22.175  23.819  1.00  0.00     0.178 C 
ATOM     86  N   UNL A   1      32.650  23.065  27.338  1.00  0.00    -0.348 N 
ATOM     87  C   UNL A   1      32.338  22.479  25.253  1.00  0.00     0.081 A 
ATOM     88  C   UNL A   1      31.334  22.761  27.113  1.00  0.00     0.197 A 
ATOM     89  H   UNL A   1      33.049  23.371  28.184  1.00  0.00     0.167 HD
ATOM     90  N   UNL A   1      31.115  22.400  25.864  1.00  0.00    -0.240 NA
BRANCH  83  91
ATOM     91  C   UNL A   1      33.676  24.007  22.617  1.00  0.00     0.224 C 
ATOM     92  O   UNL A   1      33.346  23.851  21.433  1.00  0.00    -0.275 OA
BRANCH  91  93
ATOM     93  C   UNL A   1      33.919  25.440  23.068  1.00  0.00     0.107 C 
BRANCH  93  94
ATOM     94  C   UNL A   1      32.739  26.165  23.746  1.00  0.00    -0.020 C 
ATOM     95  C   UNL A   1      31.399  25.503  23.394  1.00  0.00     0.011 C 
ATOM     96  C   UNL A   1      32.649  27.663  23.356  1.00  0.00     0.011 C 
ATOM     97  C   UNL A   1      32.932  26.094  25.286  1.00  0.00     0.011 C 
ATOM     98  C   UNL A   1      30.220  26.160  24.108  1.00  0.00    -0.010 C 
ATOM     99  C   UNL A   1      31.465  28.340  24.084  1.00  0.00    -0.010 C 
ATOM    100  C   UNL A   1      31.749  26.749  26.017  1.00  0.00    -0.010 C 
ATOM    101  C   UNL A   1      30.448  26.037  25.619  1.00  0.00     0.007 C 
ATOM    102  C   UNL A   1      30.155  27.634  23.697  1.00  0.00     0.007 C 
ATOM    103  C   UNL A   1      31.658  28.225  25.606  1.00  0.00     0.007 C 
ENDBRANCH  93  94
ENDBRANCH  91  93
ENDBRANCH  83  91
ENDBRANCH  78  81
ENDBRANCH  76  77
ENDBRANCH  75  76
ENDBRANCH   1  75
TORSDOF 17
ENDMDL
