MODEL 1
REMARK VINA RESULT:     -16.3      0.000      0.000
REMARK SMILES Cc1ccc([C@@]23C[C@@H]4C[C@@H](C[C@@](C(=O)N5CCC(C(=O)NCCCCNC(=O)c6ccc(-c7c8nc(c(-c9c(F)cc(S(=O)(=O)[O-])cc9F)c9ccc([nH]9)c(-c9c(F)cc(S(=O)(=O)[O-])cc9F)c9nc(c(-c%10c(F)cc(S(=O)(=O)[O-])cc%10F)c%10ccc7[nH]%10)C=C9)C=C8)cc6)CC5)(C4)C2)C3)cc1
REMARK SMILES IDX 24 1 23 2 22 3 21 4 19 5 20 6 18 8 13 9 14 10 15 11 16 12
REMARK SMILES IDX 96 13 17 14 95 15 12 16 6 17 7 18 98 19 99 20 8 21 10 22
REMARK SMILES IDX 9 23 97 24 11 25 5 26 1 27 2 28 3 29 101 30 4 31 100 32
REMARK SMILES IDX 25 33 26 34 27 35 28 37 29 38 30 39 94 40 31 41 93 42 32 43
REMARK SMILES IDX 33 44 34 45 87 46 35 47 92 48 86 49 88 50 36 51 91 52 85 53
REMARK SMILES IDX 84 54 37 56 71 57 50 58 70 59 51 60 54 61 69 62 89 63 52 64
REMARK SMILES IDX 53 65 68 67 90 68 55 69 38 70 39 71 48 72 40 73 41 74 47 75
REMARK SMILES IDX 49 76 42 77 43 78 44 79 45 80 46 81 72 82 73 83 82 84 74 85
REMARK SMILES IDX 75 86 81 87 83 88 76 89 77 90 78 91 79 92 80 93 56 94 57 95
REMARK SMILES IDX 66 96 58 97 59 98 65 99 67 100 60 101 61 102 62 103 63 104
REMARK SMILES IDX 64 105
REMARK H PARENT 21 7 26 36 88 55 54 66
REMARK Flexibility Score: inf
ROOT
ATOM      1  C   UNL A   1      32.901  29.593  27.187  1.00  0.00     0.023 C 
ENDROOT
BRANCH   1   2
ATOM      2  C   UNL A   1      32.240  30.118  25.913  1.00  0.00     0.023 C 
BRANCH   2   3
ATOM      3  C   UNL A   1      31.694  29.043  24.963  1.00  0.00     0.116 C 
BRANCH   3   4
ATOM      4  N   UNL A   1      31.144  29.596  23.727  1.00  0.00    -0.356 N 
ATOM      5  C   UNL A   1      30.585  29.007  22.634  1.00  0.00     0.223 C 
ATOM      6  O   UNL A   1      30.206  29.734  21.712  1.00  0.00    -0.275 OA
ATOM      7  H   UNL A   1      31.185  30.578  23.675  1.00  0.00     0.163 HD
BRANCH   5   8
ATOM      8  C   UNL A   1      30.442  27.499  22.516  1.00  0.00     0.082 C 
ATOM      9  C   UNL A   1      31.690  24.695  25.050  1.00  0.00     0.228 C 
ATOM     10  O   UNL A   1      31.057  24.820  26.102  1.00  0.00    -0.274 OA
ATOM     11  N   UNL A   1      31.109  25.060  23.836  1.00  0.00    -0.342 N 
ATOM     12  C   UNL A   1      29.698  25.429  23.821  1.00  0.00     0.120 C 
ATOM     13  C   UNL A   1      31.768  25.341  22.564  1.00  0.00     0.120 C 
ATOM     14  C   UNL A   1      29.536  26.929  23.624  1.00  0.00     0.035 C 
ATOM     15  C   UNL A   1      31.819  26.842  22.352  1.00  0.00     0.035 C 
BRANCH   9  16
ATOM     16  C   UNL A   1      33.091  24.040  25.080  1.00  0.00     0.051 C 
ATOM     17  C   UNL A   1      34.226  21.729  24.958  1.00  0.00    -0.003 C 
ATOM     18  C   UNL A   1      35.109  22.329  23.822  1.00  0.00     0.015 C 
ATOM     19  C   UNL A   1      32.899  22.517  24.966  1.00  0.00     0.028 C 
ATOM     20  C   UNL A   1      34.917  22.001  26.320  1.00  0.00     0.015 C 
ATOM     21  C   UNL A   1      35.382  23.830  24.046  1.00  0.00    -0.009 C 
ATOM     22  C   UNL A   1      35.135  23.514  26.523  1.00  0.00    -0.009 C 
ATOM     23  C   UNL A   1      36.057  24.033  25.409  1.00  0.00     0.007 C 
ATOM     24  C   UNL A   1      34.058  24.607  24.023  1.00  0.00     0.020 C 
ATOM     25  C   UNL A   1      33.786  24.265  26.460  1.00  0.00     0.020 C 
BRANCH  17  26
ATOM     26  C   UNL A   1      33.979  20.223  24.739  1.00  0.00    -0.042 A 
ATOM     27  C   UNL A   1      33.278  15.954  24.350  1.00  0.00     0.044 C 
ATOM     28  C   UNL A   1      33.501  17.431  24.458  1.00  0.00    -0.051 A 
ATOM     29  C   UNL A   1      34.803  17.925  24.497  1.00  0.00     0.004 A 
ATOM     30  C   UNL A   1      32.439  18.334  24.534  1.00  0.00     0.004 A 
ATOM     31  C   UNL A   1      35.033  19.296  24.627  1.00  0.00     0.004 A 
ATOM     32  C   UNL A   1      32.674  19.710  24.667  1.00  0.00     0.004 A 
ENDBRANCH  17  26
ENDBRANCH   9  16
ENDBRANCH   5   8
ENDBRANCH   3   4
ENDBRANCH   2   3
ENDBRANCH   1   2
BRANCH   1  33
ATOM     33  C   UNL A   1      34.420  29.529  27.104  1.00  0.00     0.116 C 
BRANCH  33  34
ATOM     34  N   UNL A   1      35.081  30.784  27.417  1.00  0.00    -0.352 N 
ATOM     35  C   UNL A   1      36.304  30.946  28.045  1.00  0.00     0.251 C 
ATOM     36  H   UNL A   1      34.607  31.607  27.157  1.00  0.00     0.163 HD
ATOM     37  O   UNL A   1      36.672  32.014  28.505  1.00  0.00    -0.269 OA
BRANCH  35  38
ATOM     38  C   UNL A   1      37.220  29.787  28.009  1.00  0.00     0.039 A 
ATOM     39  C   UNL A   1      37.292  29.004  29.167  1.00  0.00     0.014 A 
ATOM     40  C   UNL A   1      38.169  29.665  26.996  1.00  0.00     0.014 A 
ATOM     41  C   UNL A   1      38.418  28.219  29.392  1.00  0.00     0.010 A 
ATOM     42  C   UNL A   1      39.320  28.945  27.255  1.00  0.00     0.010 A 
ATOM     43  C   UNL A   1      39.466  28.266  28.475  1.00  0.00    -0.014 A 
BRANCH  43  44
ATOM     44  C   UNL A   1      40.784  27.697  28.736  1.00  0.00     0.031 A 
ATOM     45  C   UNL A   1      41.040  26.267  28.449  1.00  0.00     0.074 A 
ATOM     46  C   UNL A   1      41.784  28.483  29.190  1.00  0.00     0.049 A 
ATOM     47  N   UNL A   1      42.064  25.610  28.875  1.00  0.00    -0.248 NA
ATOM     48  C   UNL A   1      40.086  25.428  27.727  1.00  0.00     0.031 C 
ATOM     49  C   UNL A   1      43.213  28.182  29.191  1.00  0.00     0.029 A 
ATOM     50  N   UNL A   1      41.671  29.635  29.974  1.00  0.00    -0.354 N 
ATOM     51  C   UNL A   1      42.064  24.381  28.257  1.00  0.00     0.074 A 
ATOM     52  C   UNL A   1      40.749  24.269  27.683  1.00  0.00     0.031 C 
ATOM     53  C   UNL A   1      43.818  28.942  30.115  1.00  0.00     0.029 A 
ATOM     54  C   UNL A   1      42.778  29.642  30.846  1.00  0.00     0.049 A 
ATOM     55  H   UNL A   1      40.956  30.311  29.927  1.00  0.00     0.167 HD
ATOM     56  C   UNL A   1      43.234  23.682  28.188  1.00  0.00     0.037 A 
ATOM     57  C   UNL A   1      42.617  29.590  32.202  1.00  0.00     0.037 A 
ATOM     58  C   UNL A   1      44.201  24.214  29.156  1.00  0.00     0.049 A 
ATOM     59  C   UNL A   1      43.250  28.383  32.854  1.00  0.00     0.074 A 
ATOM     60  C   UNL A   1      45.341  24.992  29.041  1.00  0.00     0.029 A 
ATOM     61  N   UNL A   1      43.890  24.175  30.515  1.00  0.00    -0.354 N 
ATOM     62  N   UNL A   1      43.645  27.321  32.205  1.00  0.00    -0.248 NA
ATOM     63  C   UNL A   1      43.483  28.268  34.291  1.00  0.00     0.031 C 
ATOM     64  C   UNL A   1      45.650  25.506  30.330  1.00  0.00     0.029 A 
ATOM     65  C   UNL A   1      44.729  25.005  31.235  1.00  0.00     0.049 A 
ATOM     66  H   UNL A   1      43.172  23.630  30.908  1.00  0.00     0.167 HD
ATOM     67  C   UNL A   1      44.134  26.391  33.087  1.00  0.00     0.074 A 
ATOM     68  C   UNL A   1      44.042  27.047  34.379  1.00  0.00     0.031 C 
ATOM     69  C   UNL A   1      44.564  25.159  32.677  1.00  0.00     0.037 A 
BRANCH  56  70
ATOM     70  C   UNL A   1      43.594  22.679  27.093  1.00  0.00     0.058 A 
ATOM     71  C   UNL A   1      42.854  21.478  26.952  1.00  0.00     0.135 A 
ATOM     72  C   UNL A   1      44.725  22.749  26.247  1.00  0.00     0.135 A 
ATOM     73  F   UNL A   1      41.745  21.257  27.672  1.00  0.00    -0.206 F 
ATOM     74  C   UNL A   1      43.234  20.433  26.096  1.00  0.00     0.059 A 
ATOM     75  C   UNL A   1      45.105  21.734  25.366  1.00  0.00     0.059 A 
ATOM     76  F   UNL A   1      45.567  23.782  26.247  1.00  0.00    -0.206 F 
ATOM     77  C   UNL A   1      44.373  20.565  25.314  1.00  0.00     0.060 A 
BRANCH  77  78
ATOM     78  S   UNL A   1      44.907  19.209  24.255  1.00  0.00     0.124 S 
ATOM     79  O   UNL A   1      44.132  18.090  24.782  1.00  0.00    -0.237 OA
ATOM     80  O   UNL A   1      44.527  19.680  22.927  1.00  0.00    -0.237 OA
ATOM     81  O   UNL A   1      46.346  19.134  24.495  1.00  0.00    -0.744 OA
ENDBRANCH  77  78
ENDBRANCH  56  70
BRANCH  57  82
ATOM     82  C   UNL A   1      41.405  30.312  32.674  1.00  0.00     0.058 A 
ATOM     83  C   UNL A   1      40.266  29.538  32.967  1.00  0.00     0.135 A 
ATOM     84  C   UNL A   1      41.489  31.584  33.257  1.00  0.00     0.135 A 
ATOM     85  F   UNL A   1      40.125  28.323  32.412  1.00  0.00    -0.206 F 
ATOM     86  C   UNL A   1      39.345  29.924  33.933  1.00  0.00     0.059 A 
ATOM     87  C   UNL A   1      40.567  32.000  34.221  1.00  0.00     0.059 A 
ATOM     88  F   UNL A   1      42.547  32.372  33.009  1.00  0.00    -0.206 F 
ATOM     89  C   UNL A   1      39.547  31.127  34.606  1.00  0.00     0.060 A 
BRANCH  89  90
ATOM     90  S   UNL A   1      38.569  31.435  36.097  1.00  0.00     0.124 S 
ATOM     91  O   UNL A   1      37.388  32.102  35.559  1.00  0.00    -0.237 OA
ATOM     92  O   UNL A   1      38.352  30.078  36.599  1.00  0.00    -0.237 OA
ATOM     93  O   UNL A   1      39.448  32.269  36.908  1.00  0.00    -0.744 OA
ENDBRANCH  89  90
ENDBRANCH  57  82
BRANCH  69  94
ATOM     94  C   UNL A   1      44.945  24.004  33.582  1.00  0.00     0.058 A 
ATOM     95  C   UNL A   1      44.073  22.966  33.959  1.00  0.00     0.135 A 
ATOM     96  C   UNL A   1      46.291  23.840  33.997  1.00  0.00     0.135 A 
ATOM     97  F   UNL A   1      42.801  22.936  33.536  1.00  0.00    -0.206 F 
ATOM     98  C   UNL A   1      44.484  21.885  34.743  1.00  0.00     0.059 A 
ATOM     99  C   UNL A   1      46.734  22.741  34.732  1.00  0.00     0.059 A 
ATOM    100  F   UNL A   1      47.232  24.744  33.689  1.00  0.00    -0.206 F 
ATOM    101  C   UNL A   1      45.817  21.779  35.125  1.00  0.00     0.060 A 
BRANCH 101 102
ATOM    102  S   UNL A   1      46.378  20.350  36.073  1.00  0.00     0.124 S 
ATOM    103  O   UNL A   1      45.625  20.508  37.313  1.00  0.00    -0.237 OA
ATOM    104  O   UNL A   1      45.979  19.224  35.235  1.00  0.00    -0.237 OA
ATOM    105  O   UNL A   1      47.818  20.567  36.174  1.00  0.00    -0.744 OA
ENDBRANCH 101 102
ENDBRANCH  69  94
ENDBRANCH  43  44
ENDBRANCH  35  38
ENDBRANCH  33  34
ENDBRANCH   1  33
TORSDOF 16
ENDMDL
MODEL 2
REMARK VINA RESULT:     -15.4      1.417      2.054
REMARK SMILES Cc1ccc([C@@]23C[C@@H]4C[C@@H](C[C@@](C(=O)N5CCC(C(=O)NCCCCNC(=O)c6ccc(-c7c8nc(c(-c9c(F)cc(S(=O)(=O)[O-])cc9F)c9ccc([nH]9)c(-c9c(F)cc(S(=O)(=O)[O-])cc9F)c9nc(c(-c%10c(F)cc(S(=O)(=O)[O-])cc%10F)c%10ccc7[nH]%10)C=C9)C=C8)cc6)CC5)(C4)C2)C3)cc1
REMARK SMILES IDX 24 1 23 2 22 3 21 4 19 5 20 6 18 8 13 9 14 10 15 11 16 12
REMARK SMILES IDX 96 13 17 14 95 15 12 16 6 17 7 18 98 19 99 20 8 21 10 22
REMARK SMILES IDX 9 23 97 24 11 25 5 26 1 27 2 28 3 29 101 30 4 31 100 32
REMARK SMILES IDX 25 33 26 34 27 35 28 37 29 38 30 39 94 40 31 41 93 42 32 43
REMARK SMILES IDX 33 44 34 45 87 46 35 47 92 48 86 49 88 50 36 51 91 52 85 53
REMARK SMILES IDX 84 54 37 56 71 57 50 58 70 59 51 60 54 61 69 62 89 63 52 64
REMARK SMILES IDX 53 65 68 67 90 68 55 69 38 70 39 71 48 72 40 73 41 74 47 75
REMARK SMILES IDX 49 76 42 77 43 78 44 79 45 80 46 81 72 82 73 83 82 84 74 85
REMARK SMILES IDX 75 86 81 87 83 88 76 89 77 90 78 91 79 92 80 93 56 94 57 95
REMARK SMILES IDX 66 96 58 97 59 98 65 99 67 100 60 101 61 102 62 103 63 104
REMARK SMILES IDX 64 105
REMARK H PARENT 21 7 26 36 88 55 54 66
REMARK Flexibility Score: inf
ROOT
ATOM      1  C   UNL A   1      32.801  30.730  26.306  1.00  0.00     0.023 C 
ENDROOT
BRANCH   1   2
ATOM      2  C   UNL A   1      31.771  29.658  25.950  1.00  0.00     0.023 C 
BRANCH   2   3
ATOM      3  C   UNL A   1      31.049  29.857  24.610  1.00  0.00     0.116 C 
BRANCH   3   4
ATOM      4  N   UNL A   1      30.172  28.742  24.261  1.00  0.00    -0.356 N 
ATOM      5  C   UNL A   1      30.390  27.594  23.563  1.00  0.00     0.223 C 
ATOM      6  O   UNL A   1      29.443  26.817  23.411  1.00  0.00    -0.275 OA
ATOM      7  H   UNL A   1      29.250  28.839  24.593  1.00  0.00     0.163 HD
BRANCH   5   8
ATOM      8  C   UNL A   1      31.745  27.263  22.959  1.00  0.00     0.082 C 
ATOM      9  C   UNL A   1      33.532  23.716  22.700  1.00  0.00     0.228 C 
ATOM     10  O   UNL A   1      32.859  23.002  21.951  1.00  0.00    -0.274 OA
ATOM     11  N   UNL A   1      33.549  25.099  22.518  1.00  0.00    -0.342 N 
ATOM     12  C   UNL A   1      32.899  25.656  21.338  1.00  0.00     0.120 C 
ATOM     13  C   UNL A   1      33.954  26.132  23.467  1.00  0.00     0.120 C 
ATOM     14  C   UNL A   1      31.604  26.359  21.719  1.00  0.00     0.035 C 
ATOM     15  C   UNL A   1      32.714  26.786  24.049  1.00  0.00     0.035 C 
BRANCH   9  16
ATOM     16  C   UNL A   1      34.429  23.057  23.774  1.00  0.00     0.051 C 
ATOM     17  C   UNL A   1      34.755  20.823  25.018  1.00  0.00    -0.003 C 
ATOM     18  C   UNL A   1      36.248  20.906  24.577  1.00  0.00     0.015 C 
ATOM     19  C   UNL A   1      33.930  21.615  23.981  1.00  0.00     0.028 C 
ATOM     20  C   UNL A   1      34.596  21.559  26.374  1.00  0.00     0.015 C 
ATOM     21  C   UNL A   1      36.740  22.366  24.508  1.00  0.00    -0.009 C 
ATOM     22  C   UNL A   1      35.061  23.025  26.252  1.00  0.00    -0.009 C 
ATOM     23  C   UNL A   1      36.550  23.039  25.873  1.00  0.00     0.007 C 
ATOM     24  C   UNL A   1      35.933  23.135  23.453  1.00  0.00     0.020 C 
ATOM     25  C   UNL A   1      34.250  23.757  25.159  1.00  0.00     0.020 C 
BRANCH  17  26
ATOM     26  C   UNL A   1      34.278  19.360  25.108  1.00  0.00    -0.042 A 
ATOM     27  C   UNL A   1      32.839  15.262  25.153  1.00  0.00     0.044 C 
ATOM     28  C   UNL A   1      33.362  16.665  25.153  1.00  0.00    -0.051 A 
ATOM     29  C   UNL A   1      32.580  17.687  25.686  1.00  0.00     0.004 A 
ATOM     30  C   UNL A   1      34.612  16.987  24.620  1.00  0.00     0.004 A 
ATOM     31  C   UNL A   1      33.036  19.007  25.670  1.00  0.00     0.004 A 
ATOM     32  C   UNL A   1      35.066  18.313  24.603  1.00  0.00     0.004 A 
ENDBRANCH  17  26
ENDBRANCH   9  16
ENDBRANCH   5   8
ENDBRANCH   3   4
ENDBRANCH   2   3
ENDBRANCH   1   2
BRANCH   1  33
ATOM     33  C   UNL A   1      33.700  30.348  27.474  1.00  0.00     0.116 C 
BRANCH  33  34
ATOM     34  N   UNL A   1      34.149  31.480  28.266  1.00  0.00    -0.352 N 
ATOM     35  C   UNL A   1      35.196  31.498  29.173  1.00  0.00     0.251 C 
ATOM     36  H   UNL A   1      33.656  32.323  28.146  1.00  0.00     0.163 HD
ATOM     37  O   UNL A   1      35.350  32.396  29.982  1.00  0.00    -0.269 OA
BRANCH  35  38
ATOM     38  C   UNL A   1      36.215  30.438  29.020  1.00  0.00     0.039 A 
ATOM     39  C   UNL A   1      36.439  29.616  30.131  1.00  0.00     0.014 A 
ATOM     40  C   UNL A   1      37.101  30.457  27.946  1.00  0.00     0.014 A 
ATOM     41  C   UNL A   1      37.649  28.938  30.245  1.00  0.00     0.010 A 
ATOM     42  C   UNL A   1      38.331  29.844  28.096  1.00  0.00     0.010 A 
ATOM     43  C   UNL A   1      38.624  29.130  29.269  1.00  0.00    -0.014 A 
BRANCH  43  44
ATOM     44  C   UNL A   1      40.004  28.684  29.418  1.00  0.00     0.031 A 
ATOM     45  C   UNL A   1      40.381  27.306  29.029  1.00  0.00     0.074 A 
ATOM     46  C   UNL A   1      40.949  29.541  29.862  1.00  0.00     0.049 A 
ATOM     47  N   UNL A   1      41.490  26.734  29.355  1.00  0.00    -0.248 NA
ATOM     48  C   UNL A   1      39.470  26.416  28.312  1.00  0.00     0.031 C 
ATOM     49  C   UNL A   1      42.398  29.387  29.763  1.00  0.00     0.029 A 
ATOM     50  N   UNL A   1      40.773  30.630  30.721  1.00  0.00    -0.354 N 
ATOM     51  C   UNL A   1      41.571  25.547  28.662  1.00  0.00     0.074 A 
ATOM     52  C   UNL A   1      40.239  25.334  28.159  1.00  0.00     0.031 C 
ATOM     53  C   UNL A   1      42.983  30.152  30.696  1.00  0.00     0.029 A 
ATOM     54  C   UNL A   1      41.927  30.701  31.528  1.00  0.00     0.049 A 
ATOM     55  H   UNL A   1      39.994  31.231  30.756  1.00  0.00     0.167 HD
ATOM     56  C   UNL A   1      42.797  24.976  28.484  1.00  0.00     0.037 A 
ATOM     57  C   UNL A   1      41.858  30.557  32.884  1.00  0.00     0.037 A 
ATOM     58  C   UNL A   1      43.766  25.548  29.425  1.00  0.00     0.049 A 
ATOM     59  C   UNL A   1      42.647  29.386  33.423  1.00  0.00     0.074 A 
ATOM     60  C   UNL A   1      44.815  26.443  29.294  1.00  0.00     0.029 A 
ATOM     61  N   UNL A   1      43.547  25.402  30.796  1.00  0.00    -0.354 N 
ATOM     62  N   UNL A   1      43.102  28.407  32.688  1.00  0.00    -0.248 NA
ATOM     63  C   UNL A   1      42.980  29.215  34.835  1.00  0.00     0.031 C 
ATOM     64  C   UNL A   1      45.153  26.914  30.592  1.00  0.00     0.029 A 
ATOM     65  C   UNL A   1      44.344  26.271  31.516  1.00  0.00     0.049 A 
ATOM     66  H   UNL A   1      42.912  24.765  31.195  1.00  0.00     0.167 HD
ATOM     67  C   UNL A   1      43.734  27.484  33.481  1.00  0.00     0.074 A 
ATOM     68  C   UNL A   1      43.660  28.055  34.814  1.00  0.00     0.031 C 
ATOM     69  C   UNL A   1      44.257  26.327  32.972  1.00  0.00     0.037 A 
BRANCH  56  70
ATOM     70  C   UNL A   1      43.183  24.077  27.310  1.00  0.00     0.058 A 
ATOM     71  C   UNL A   1      42.816  22.709  27.306  1.00  0.00     0.135 A 
ATOM     72  C   UNL A   1      44.028  24.439  26.235  1.00  0.00     0.135 A 
ATOM     73  F   UNL A   1      42.007  22.203  28.249  1.00  0.00    -0.206 F 
ATOM     74  C   UNL A   1      43.286  21.785  26.359  1.00  0.00     0.059 A 
ATOM     75  C   UNL A   1      44.485  23.544  25.265  1.00  0.00     0.059 A 
ATOM     76  F   UNL A   1      44.510  25.672  26.075  1.00  0.00    -0.206 F 
ATOM     77  C   UNL A   1      44.134  22.211  25.347  1.00  0.00     0.060 A 
BRANCH  77  78
ATOM     78  S   UNL A   1      44.794  21.027  24.160  1.00  0.00     0.124 S 
ATOM     79  O   UNL A   1      44.478  21.669  22.887  1.00  0.00    -0.237 OA
ATOM     80  O   UNL A   1      46.207  20.978  24.518  1.00  0.00    -0.237 OA
ATOM     81  O   UNL A   1      44.043  19.806  24.442  1.00  0.00    -0.744 OA
ENDBRANCH  77  78
ENDBRANCH  56  70
BRANCH  57  82
ATOM     82  C   UNL A   1      40.614  31.125  33.468  1.00  0.00     0.058 A 
ATOM     83  C   UNL A   1      39.608  30.217  33.852  1.00  0.00     0.135 A 
ATOM     84  C   UNL A   1      40.593  32.397  34.056  1.00  0.00     0.135 A 
ATOM     85  F   UNL A   1      39.568  28.994  33.299  1.00  0.00    -0.206 F 
ATOM     86  C   UNL A   1      38.735  30.487  34.899  1.00  0.00     0.059 A 
ATOM     87  C   UNL A   1      39.716  32.697  35.102  1.00  0.00     0.059 A 
ATOM     88  F   UNL A   1      41.520  33.310  33.725  1.00  0.00    -0.206 F 
ATOM     89  C   UNL A   1      38.847  31.705  35.564  1.00  0.00     0.060 A 
BRANCH  89  90
ATOM     90  S   UNL A   1      37.975  31.891  37.140  1.00  0.00     0.124 S 
ATOM     91  O   UNL A   1      39.036  32.363  38.024  1.00  0.00    -0.237 OA
ATOM     92  O   UNL A   1      36.952  32.880  36.801  1.00  0.00    -0.237 OA
ATOM     93  O   UNL A   1      37.482  30.547  37.410  1.00  0.00    -0.744 OA
ENDBRANCH  89  90
ENDBRANCH  57  82
BRANCH  69  94
ATOM     94  C   UNL A   1      44.805  25.168  33.781  1.00  0.00     0.058 A 
ATOM     95  C   UNL A   1      46.171  24.843  33.882  1.00  0.00     0.135 A 
ATOM     96  C   UNL A   1      43.943  24.412  34.613  1.00  0.00     0.135 A 
ATOM     97  F   UNL A   1      47.106  25.556  33.238  1.00  0.00    -0.206 F 
ATOM     98  C   UNL A   1      46.640  23.805  34.692  1.00  0.00     0.059 A 
ATOM     99  C   UNL A   1      44.396  23.409  35.470  1.00  0.00     0.059 A 
ATOM    100  F   UNL A   1      42.620  24.630  34.632  1.00  0.00    -0.206 F 
ATOM    101  C   UNL A   1      45.746  23.093  35.484  1.00  0.00     0.060 A 
BRANCH 101 102
ATOM    102  S   UNL A   1      46.346  21.801  36.591  1.00  0.00     0.124 S 
ATOM    103  O   UNL A   1      45.709  20.615  36.028  1.00  0.00    -0.237 OA
ATOM    104  O   UNL A   1      47.794  21.875  36.427  1.00  0.00    -0.237 OA
ATOM    105  O   UNL A   1      45.849  22.228  37.896  1.00  0.00    -0.744 OA
ENDBRANCH 101 102
ENDBRANCH  69  94
ENDBRANCH  43  44
ENDBRANCH  35  38
ENDBRANCH  33  34
ENDBRANCH   1  33
TORSDOF 16
ENDMDL
MODEL 3
REMARK VINA RESULT:     -14.8      2.159      3.450
REMARK SMILES Cc1ccc([C@@]23C[C@@H]4C[C@@H](C[C@@](C(=O)N5CCC(C(=O)NCCCCNC(=O)c6ccc(-c7c8nc(c(-c9c(F)cc(S(=O)(=O)[O-])cc9F)c9ccc([nH]9)c(-c9c(F)cc(S(=O)(=O)[O-])cc9F)c9nc(c(-c%10c(F)cc(S(=O)(=O)[O-])cc%10F)c%10ccc7[nH]%10)C=C9)C=C8)cc6)CC5)(C4)C2)C3)cc1
REMARK SMILES IDX 24 1 23 2 22 3 21 4 19 5 20 6 18 8 13 9 14 10 15 11 16 12
REMARK SMILES IDX 96 13 17 14 95 15 12 16 6 17 7 18 98 19 99 20 8 21 10 22
REMARK SMILES IDX 9 23 97 24 11 25 5 26 1 27 2 28 3 29 101 30 4 31 100 32
REMARK SMILES IDX 25 33 26 34 27 35 28 37 29 38 30 39 94 40 31 41 93 42 32 43
REMARK SMILES IDX 33 44 34 45 87 46 35 47 92 48 86 49 88 50 36 51 91 52 85 53
REMARK SMILES IDX 84 54 37 56 71 57 50 58 70 59 51 60 54 61 69 62 89 63 52 64
REMARK SMILES IDX 53 65 68 67 90 68 55 69 38 70 39 71 48 72 40 73 41 74 47 75
REMARK SMILES IDX 49 76 42 77 43 78 44 79 45 80 46 81 72 82 73 83 82 84 74 85
REMARK SMILES IDX 75 86 81 87 83 88 76 89 77 90 78 91 79 92 80 93 56 94 57 95
REMARK SMILES IDX 66 96 58 97 59 98 65 99 67 100 60 101 61 102 62 103 63 104
REMARK SMILES IDX 64 105
REMARK H PARENT 21 7 26 36 88 55 54 66
REMARK Flexibility Score: inf
ROOT
ATOM      1  C   UNL A   1      31.744  29.452  26.490  1.00  0.00     0.023 C 
ENDROOT
BRANCH   1   2
ATOM      2  C   UNL A   1      31.994  29.676  24.999  1.00  0.00     0.023 C 
BRANCH   2   3
ATOM      3  C   UNL A   1      30.740  29.920  24.149  1.00  0.00     0.116 C 
BRANCH   3   4
ATOM      4  N   UNL A   1      29.941  28.714  23.946  1.00  0.00    -0.356 N 
ATOM      5  C   UNL A   1      30.287  27.427  23.672  1.00  0.00     0.223 C 
ATOM      6  O   UNL A   1      29.383  26.596  23.540  1.00  0.00    -0.275 OA
ATOM      7  H   UNL A   1      28.970  28.860  24.022  1.00  0.00     0.163 HD
BRANCH   5   8
ATOM      8  C   UNL A   1      31.736  27.000  23.505  1.00  0.00     0.082 C 
ATOM      9  C   UNL A   1      33.179  23.333  22.939  1.00  0.00     0.228 C 
ATOM     10  O   UNL A   1      32.780  22.930  21.843  1.00  0.00    -0.274 OA
ATOM     11  N   UNL A   1      33.381  24.697  23.151  1.00  0.00    -0.342 N 
ATOM     12  C   UNL A   1      33.274  25.603  22.013  1.00  0.00     0.120 C 
ATOM     13  C   UNL A   1      33.485  25.412  24.420  1.00  0.00     0.120 C 
ATOM     14  C   UNL A   1      31.997  26.426  22.099  1.00  0.00     0.035 C 
ATOM     15  C   UNL A   1      32.178  26.133  24.692  1.00  0.00     0.035 C 
BRANCH   9  16
ATOM     16  C   UNL A   1      33.544  22.309  24.039  1.00  0.00     0.051 C 
ATOM     17  C   UNL A   1      35.578  21.407  25.342  1.00  0.00    -0.003 C 
ATOM     18  C   UNL A   1      34.764  21.715  26.635  1.00  0.00     0.015 C 
ATOM     19  C   UNL A   1      35.069  22.368  24.246  1.00  0.00     0.028 C 
ATOM     20  C   UNL A   1      35.237  19.970  24.871  1.00  0.00     0.015 C 
ATOM     21  C   UNL A   1      33.250  21.518  26.416  1.00  0.00    -0.009 C 
ATOM     22  C   UNL A   1      33.721  19.826  24.624  1.00  0.00    -0.009 C 
ATOM     23  C   UNL A   1      32.980  20.083  25.945  1.00  0.00     0.007 C 
ATOM     24  C   UNL A   1      32.750  22.499  25.345  1.00  0.00     0.020 C 
ATOM     25  C   UNL A   1      33.250  20.850  23.567  1.00  0.00     0.020 C 
BRANCH  17  26
ATOM     26  C   UNL A   1      37.091  21.583  25.578  1.00  0.00    -0.042 A 
ATOM     27  C   UNL A   1      41.323  22.004  26.459  1.00  0.00     0.044 C 
ATOM     28  C   UNL A   1      39.872  21.849  26.125  1.00  0.00    -0.051 A 
ATOM     29  C   UNL A   1      39.006  22.923  26.322  1.00  0.00     0.004 A 
ATOM     30  C   UNL A   1      39.352  20.651  25.632  1.00  0.00     0.004 A 
ATOM     31  C   UNL A   1      37.644  22.791  26.045  1.00  0.00     0.004 A 
ATOM     32  C   UNL A   1      37.983  20.521  25.357  1.00  0.00     0.004 A 
ENDBRANCH  17  26
ENDBRANCH   9  16
ENDBRANCH   5   8
ENDBRANCH   3   4
ENDBRANCH   2   3
ENDBRANCH   1   2
BRANCH   1  33
ATOM     33  C   UNL A   1      33.000  29.568  27.344  1.00  0.00     0.116 C 
BRANCH  33  34
ATOM     34  N   UNL A   1      33.396  30.937  27.625  1.00  0.00    -0.352 N 
ATOM     35  C   UNL A   1      34.499  31.351  28.351  1.00  0.00     0.251 C 
ATOM     36  H   UNL A   1      32.817  31.645  27.261  1.00  0.00     0.163 HD
ATOM     37  O   UNL A   1      34.626  32.492  28.763  1.00  0.00    -0.269 OA
BRANCH  35  38
ATOM     38  C   UNL A   1      35.601  30.375  28.486  1.00  0.00     0.039 A 
ATOM     39  C   UNL A   1      35.839  29.867  29.769  1.00  0.00     0.014 A 
ATOM     40  C   UNL A   1      36.529  30.208  27.461  1.00  0.00     0.014 A 
ATOM     41  C   UNL A   1      37.090  29.340  30.074  1.00  0.00     0.010 A 
ATOM     42  C   UNL A   1      37.794  29.754  27.785  1.00  0.00     0.010 A 
ATOM     43  C   UNL A   1      38.089  29.371  29.103  1.00  0.00    -0.014 A 
BRANCH  43  44
ATOM     44  C   UNL A   1      39.491  29.091  29.389  1.00  0.00     0.031 A 
ATOM     45  C   UNL A   1      40.064  27.769  29.047  1.00  0.00     0.074 A 
ATOM     46  C   UNL A   1      40.280  30.052  29.917  1.00  0.00     0.049 A 
ATOM     47  N   UNL A   1      41.196  27.331  29.483  1.00  0.00    -0.248 NA
ATOM     48  C   UNL A   1      39.340  26.782  28.251  1.00  0.00     0.031 C 
ATOM     49  C   UNL A   1      41.739  30.071  29.960  1.00  0.00     0.029 A 
ATOM     50  N   UNL A   1      39.893  31.108  30.748  1.00  0.00    -0.354 N 
ATOM     51  C   UNL A   1      41.485  26.166  28.809  1.00  0.00     0.074 A 
ATOM     52  C   UNL A   1      40.243  25.799  28.180  1.00  0.00     0.031 C 
ATOM     53  C   UNL A   1      42.136  30.895  30.941  1.00  0.00     0.029 A 
ATOM     54  C   UNL A   1      40.947  31.311  31.662  1.00  0.00     0.049 A 
ATOM     55  H   UNL A   1      39.049  31.613  30.703  1.00  0.00     0.167 HD
ATOM     56  C   UNL A   1      42.781  25.745  28.755  1.00  0.00     0.037 A 
ATOM     57  C   UNL A   1      40.764  31.154  33.006  1.00  0.00     0.037 A 
ATOM     58  C   UNL A   1      43.580  26.424  29.783  1.00  0.00     0.049 A 
ATOM     59  C   UNL A   1      41.629  30.081  33.627  1.00  0.00     0.074 A 
ATOM     60  C   UNL A   1      44.523  27.437  29.748  1.00  0.00     0.029 A 
ATOM     61  N   UNL A   1      43.247  26.246  31.126  1.00  0.00    -0.354 N 
ATOM     62  N   UNL A   1      42.266  29.168  32.946  1.00  0.00    -0.248 NA
ATOM     63  C   UNL A   1      41.841  29.944  35.065  1.00  0.00     0.031 C 
ATOM     64  C   UNL A   1      44.674  27.938  31.070  1.00  0.00     0.029 A 
ATOM     65  C   UNL A   1      43.861  27.200  31.914  1.00  0.00     0.049 A 
ATOM     66  H   UNL A   1      42.656  25.536  31.465  1.00  0.00     0.167 HD
ATOM     67  C   UNL A   1      42.924  28.322  33.803  1.00  0.00     0.074 A 
ATOM     68  C   UNL A   1      42.653  28.873  35.119  1.00  0.00     0.031 C 
ATOM     69  C   UNL A   1      43.627  27.237  33.355  1.00  0.00     0.037 A 
BRANCH  56  70
ATOM     70  C   UNL A   1      43.384  24.904  27.630  1.00  0.00     0.058 A 
ATOM     71  C   UNL A   1      44.371  23.929  27.917  1.00  0.00     0.135 A 
ATOM     72  C   UNL A   1      43.159  25.091  26.247  1.00  0.00     0.135 A 
ATOM     73  F   UNL A   1      44.697  23.621  29.181  1.00  0.00    -0.206 F 
ATOM     74  C   UNL A   1      45.097  23.250  26.926  1.00  0.00     0.059 A 
ATOM     75  C   UNL A   1      43.848  24.406  25.243  1.00  0.00     0.059 A 
ATOM     76  F   UNL A   1      42.291  25.983  25.767  1.00  0.00    -0.206 F 
ATOM     77  C   UNL A   1      44.837  23.506  25.587  1.00  0.00     0.060 A 
BRANCH  77  78
ATOM     78  S   UNL A   1      45.801  22.687  24.304  1.00  0.00     0.124 S 
ATOM     79  O   UNL A   1      46.407  21.582  25.041  1.00  0.00    -0.237 OA
ATOM     80  O   UNL A   1      44.779  22.321  23.330  1.00  0.00    -0.237 OA
ATOM     81  O   UNL A   1      46.732  23.723  23.863  1.00  0.00    -0.744 OA
ENDBRANCH  77  78
ENDBRANCH  56  70
BRANCH  57  82
ATOM     82  C   UNL A   1      39.409  31.567  33.463  1.00  0.00     0.058 A 
ATOM     83  C   UNL A   1      39.162  32.948  33.579  1.00  0.00     0.135 A 
ATOM     84  C   UNL A   1      38.300  30.721  33.330  1.00  0.00     0.135 A 
ATOM     85  F   UNL A   1      40.189  33.799  33.736  1.00  0.00    -0.206 F 
ATOM     86  C   UNL A   1      37.894  33.486  33.389  1.00  0.00     0.059 A 
ATOM     87  C   UNL A   1      37.014  31.237  33.150  1.00  0.00     0.059 A 
ATOM     88  F   UNL A   1      38.472  29.394  33.223  1.00  0.00    -0.206 F 
ATOM     89  C   UNL A   1      36.839  32.622  33.103  1.00  0.00     0.060 A 
BRANCH  89  90
ATOM     90  S   UNL A   1      35.296  33.346  32.495  1.00  0.00     0.124 S 
ATOM     91  O   UNL A   1      35.775  34.300  31.500  1.00  0.00    -0.237 OA
ATOM     92  O   UNL A   1      34.604  32.173  31.961  1.00  0.00    -0.237 OA
ATOM     93  O   UNL A   1      34.705  33.930  33.693  1.00  0.00    -0.744 OA
ENDBRANCH  89  90
ENDBRANCH  57  82
BRANCH  69  94
ATOM     94  C   UNL A   1      44.227  26.148  34.220  1.00  0.00     0.058 A 
ATOM     95  C   UNL A   1      43.482  25.159  34.888  1.00  0.00     0.135 A 
ATOM     96  C   UNL A   1      45.634  25.990  34.290  1.00  0.00     0.135 A 
ATOM     97  F   UNL A   1      42.144  25.121  34.807  1.00  0.00    -0.206 F 
ATOM     98  C   UNL A   1      44.081  24.132  35.624  1.00  0.00     0.059 A 
ATOM     99  C   UNL A   1      46.252  24.942  34.972  1.00  0.00     0.059 A 
ATOM    100  F   UNL A   1      46.465  26.850  33.682  1.00  0.00    -0.206 F 
ATOM    101  C   UNL A   1      45.467  24.030  35.660  1.00  0.00     0.060 A 
BRANCH 101 102
ATOM    102  S   UNL A   1      46.253  22.667  36.543  1.00  0.00     0.124 S 
ATOM    103  O   UNL A   1      47.637  22.790  36.096  1.00  0.00    -0.237 OA
ATOM    104  O   UNL A   1      46.012  23.002  37.943  1.00  0.00    -0.237 OA
ATOM    105  O   UNL A   1      45.530  21.497  36.053  1.00  0.00    -0.744 OA
ENDBRANCH 101 102
ENDBRANCH  69  94
ENDBRANCH  43  44
ENDBRANCH  35  38
ENDBRANCH  33  34
ENDBRANCH   1  33
TORSDOF 16
ENDMDL
