MODEL 1
REMARK VINA RESULT:     -12.6      0.000      0.000
REMARK SMILES COc1ccc(-c2ncn(CC(=O)NCCCCNC(=O)c3ccc(-c4c5nc(c(-c6c(F)cc(S(=O)(=O)[O-])cc6F)c6ccc([nH]6)c(-c6c(F)cc(S(=O)(=O)[O-])cc6F)c6nc(c(-c7c(F)cc(S(=O)(=O)[O-])cc7F)c7ccc4[nH]7)C=C6)C=C5)cc3)c2-c2ccc(OC)cc2)cc1
REMARK SMILES IDX 16 1 15 2 14 3 12 4 13 5 11 7 10 8 7 9 8 10 88 11 9 12 6 13
REMARK SMILES IDX 3 14 4 15 98 16 5 17 97 18 2 19 1 20 89 21 90 22 96 23 91 24
REMARK SMILES IDX 95 25 92 26 93 27 94 28 17 29 18 30 19 31 20 32 21 34 22 35
REMARK SMILES IDX 23 36 87 37 24 38 86 39 25 40 26 41 27 42 80 43 28 44 85 45
REMARK SMILES IDX 79 46 81 47 29 48 84 49 78 50 77 51 30 53 64 54 43 55 63 56
REMARK SMILES IDX 44 57 47 58 62 59 82 60 45 61 46 62 61 64 83 65 48 66 31 67
REMARK SMILES IDX 32 68 41 69 33 70 34 71 40 72 42 73 35 74 36 75 37 76 38 77
REMARK SMILES IDX 39 78 65 79 66 80 75 81 67 82 68 83 74 84 76 85 69 86 70 87
REMARK SMILES IDX 71 88 72 89 73 90 49 91 50 92 59 93 51 94 52 95 58 96 60 97
REMARK SMILES IDX 53 98 54 99 55 100 56 101 57 102
REMARK H PARENT 14 6 19 33 81 52 47 63
REMARK Flexibility Score: inf
ROOT
ATOM      1  C   UNL A   1      31.697  28.205  27.169  1.00  0.00     0.023 C 
ENDROOT
BRANCH   1   2
ATOM      2  C   UNL A   1      31.300  27.098  26.186  1.00  0.00     0.116 C 
BRANCH   2   3
ATOM      3  N   UNL A   1      31.169  27.557  24.818  1.00  0.00    -0.355 N 
ATOM      4  C   UNL A   1      31.797  27.124  23.684  1.00  0.00     0.239 C 
ATOM      5  O   UNL A   1      31.421  27.599  22.610  1.00  0.00    -0.273 OA
ATOM      6  H   UNL A   1      30.529  28.293  24.684  1.00  0.00     0.163 HD
BRANCH   4   7
ATOM      7  C   UNL A   1      32.871  26.058  23.721  1.00  0.00     0.223 C 
BRANCH   7   8
ATOM      8  N   UNL A   1      32.378  24.690  23.719  1.00  0.00    -0.321 N 
ATOM      9  C   UNL A   1      32.118  22.531  23.827  1.00  0.00     0.096 A 
ATOM     10  N   UNL A   1      30.960  23.035  23.288  1.00  0.00    -0.236 NA
ATOM     11  C   UNL A   1      33.048  23.534  24.074  1.00  0.00     0.076 A 
ATOM     12  C   UNL A   1      31.157  24.328  23.212  1.00  0.00     0.201 A 
BRANCH   9  13
ATOM     13  C   UNL A   1      32.359  21.110  23.969  1.00  0.00     0.003 A 
ATOM     14  C   UNL A   1      32.604  18.353  24.366  1.00  0.00     0.118 A 
ATOM     15  C   UNL A   1      32.349  18.854  23.089  1.00  0.00     0.047 A 
ATOM     16  C   UNL A   1      32.810  19.231  25.431  1.00  0.00     0.047 A 
ATOM     17  C   UNL A   1      32.215  20.230  22.890  1.00  0.00     0.014 A 
ATOM     18  C   UNL A   1      32.691  20.607  25.229  1.00  0.00     0.014 A 
BRANCH  14  19
ATOM     19  O   UNL A   1      32.690  16.991  24.482  1.00  0.00    -0.497 OA
ATOM     20  C   UNL A   1      33.821  16.438  23.815  1.00  0.00     0.278 C 
ENDBRANCH  14  19
ENDBRANCH   9  13
BRANCH  11  21
ATOM     21  C   UNL A   1      34.455  23.450  24.459  1.00  0.00     0.001 A 
ATOM     22  C   UNL A   1      35.457  23.157  23.534  1.00  0.00     0.014 A 
ATOM     23  C   UNL A   1      34.816  23.688  25.790  1.00  0.00     0.014 A 
ATOM     24  C   UNL A   1      36.787  23.036  23.950  1.00  0.00     0.047 A 
ATOM     25  C   UNL A   1      36.150  23.601  26.199  1.00  0.00     0.047 A 
ATOM     26  C   UNL A   1      37.141  23.262  25.280  1.00  0.00     0.118 A 
BRANCH  26  27
ATOM     27  O   UNL A   1      38.472  23.115  25.553  1.00  0.00    -0.497 OA
ATOM     28  C   UNL A   1      38.901  21.822  25.957  1.00  0.00     0.278 C 
ENDBRANCH  26  27
ENDBRANCH  11  21
ENDBRANCH   7   8
ENDBRANCH   4   7
ENDBRANCH   2   3
ENDBRANCH   1   2
BRANCH   1  29
ATOM     29  C   UNL A   1      32.541  29.358  26.609  1.00  0.00     0.023 C 
BRANCH  29  30
ATOM     30  C   UNL A   1      33.700  29.796  27.490  1.00  0.00     0.116 C 
BRANCH  30  31
ATOM     31  N   UNL A   1      34.041  31.214  27.343  1.00  0.00    -0.352 N 
ATOM     32  C   UNL A   1      35.117  31.895  27.899  1.00  0.00     0.251 C 
ATOM     33  H   UNL A   1      33.434  31.749  26.781  1.00  0.00     0.163 HD
ATOM     34  O   UNL A   1      35.091  33.104  28.043  1.00  0.00    -0.269 OA
BRANCH  32  35
ATOM     35  C   UNL A   1      36.306  31.111  28.285  1.00  0.00     0.039 A 
ATOM     36  C   UNL A   1      36.518  29.794  27.866  1.00  0.00     0.014 A 
ATOM     37  C   UNL A   1      37.248  31.768  29.067  1.00  0.00     0.014 A 
ATOM     38  C   UNL A   1      37.730  29.180  28.183  1.00  0.00     0.010 A 
ATOM     39  C   UNL A   1      38.505  31.252  29.185  1.00  0.00     0.010 A 
ATOM     40  C   UNL A   1      38.724  29.928  28.833  1.00  0.00    -0.014 A 
BRANCH  40  41
ATOM     41  C   UNL A   1      40.064  29.415  29.085  1.00  0.00     0.031 A 
ATOM     42  C   UNL A   1      40.366  29.234  30.530  1.00  0.00     0.074 A 
ATOM     43  C   UNL A   1      40.809  28.872  28.093  1.00  0.00     0.049 A 
ATOM     44  N   UNL A   1      41.129  29.962  31.275  1.00  0.00    -0.248 NA
ATOM     45  C   UNL A   1      39.569  28.254  31.289  1.00  0.00     0.031 C 
ATOM     46  C   UNL A   1      40.429  28.684  26.682  1.00  0.00     0.029 A 
ATOM     47  N   UNL A   1      42.024  28.261  28.147  1.00  0.00    -0.354 N 
ATOM     48  C   UNL A   1      41.135  29.337  32.521  1.00  0.00     0.074 A 
ATOM     49  C   UNL A   1      39.972  28.496  32.540  1.00  0.00     0.031 C 
ATOM     50  C   UNL A   1      41.275  27.814  26.088  1.00  0.00     0.029 A 
ATOM     51  C   UNL A   1      42.359  27.528  27.008  1.00  0.00     0.049 A 
ATOM     52  H   UNL A   1      42.619  28.332  28.928  1.00  0.00     0.167 HD
ATOM     53  C   UNL A   1      42.271  29.306  33.276  1.00  0.00     0.037 A 
ATOM     54  C   UNL A   1      43.454  26.745  26.838  1.00  0.00     0.037 A 
ATOM     55  C   UNL A   1      43.261  30.188  32.703  1.00  0.00     0.049 A 
ATOM     56  C   UNL A   1      44.451  27.198  27.837  1.00  0.00     0.074 A 
ATOM     57  C   UNL A   1      43.428  31.548  32.558  1.00  0.00     0.029 A 
ATOM     58  N   UNL A   1      44.088  29.574  31.796  1.00  0.00    -0.354 N 
ATOM     59  N   UNL A   1      44.994  28.386  27.821  1.00  0.00    -0.248 NA
ATOM     60  C   UNL A   1      44.557  26.483  29.101  1.00  0.00     0.031 C 
ATOM     61  C   UNL A   1      44.187  31.719  31.362  1.00  0.00     0.029 A 
ATOM     62  C   UNL A   1      44.513  30.463  30.848  1.00  0.00     0.049 A 
ATOM     63  H   UNL A   1      44.341  28.623  31.824  1.00  0.00     0.167 HD
ATOM     64  C   UNL A   1      45.116  28.732  29.155  1.00  0.00     0.074 A 
ATOM     65  C   UNL A   1      44.992  27.474  29.884  1.00  0.00     0.031 C 
ATOM     66  C   UNL A   1      44.983  30.033  29.547  1.00  0.00     0.037 A 
BRANCH  53  67
ATOM     67  C   UNL A   1      42.711  28.164  34.184  1.00  0.00     0.058 A 
ATOM     68  C   UNL A   1      42.866  28.425  35.566  1.00  0.00     0.135 A 
ATOM     69  C   UNL A   1      43.270  26.944  33.744  1.00  0.00     0.135 A 
ATOM     70  F   UNL A   1      42.359  29.543  36.112  1.00  0.00    -0.206 F 
ATOM     71  C   UNL A   1      43.605  27.599  36.414  1.00  0.00     0.059 A 
ATOM     72  C   UNL A   1      43.972  26.082  34.583  1.00  0.00     0.059 A 
ATOM     73  F   UNL A   1      43.254  26.557  32.466  1.00  0.00    -0.206 F 
ATOM     74  C   UNL A   1      44.172  26.436  35.906  1.00  0.00     0.060 A 
BRANCH  74  75
ATOM     75  S   UNL A   1      45.208  25.414  36.966  1.00  0.00     0.124 S 
ATOM     76  O   UNL A   1      45.584  26.362  38.008  1.00  0.00    -0.237 OA
ATOM     77  O   UNL A   1      44.282  24.359  37.364  1.00  0.00    -0.237 OA
ATOM     78  O   UNL A   1      46.285  24.992  36.075  1.00  0.00    -0.744 OA
ENDBRANCH  74  75
ENDBRANCH  53  67
BRANCH  54  79
ATOM     79  C   UNL A   1      43.613  25.476  26.080  1.00  0.00     0.058 A 
ATOM     80  C   UNL A   1      44.741  25.242  25.270  1.00  0.00     0.135 A 
ATOM     81  C   UNL A   1      42.823  24.350  26.382  1.00  0.00     0.135 A 
ATOM     82  F   UNL A   1      45.555  26.258  24.940  1.00  0.00    -0.206 F 
ATOM     83  C   UNL A   1      45.104  23.960  24.844  1.00  0.00     0.059 A 
ATOM     84  C   UNL A   1      43.164  23.061  25.966  1.00  0.00     0.059 A 
ATOM     85  F   UNL A   1      41.746  24.461  27.175  1.00  0.00    -0.206 F 
ATOM     86  C   UNL A   1      44.322  22.868  25.221  1.00  0.00     0.060 A 
BRANCH  86  87
ATOM     87  S   UNL A   1      44.891  21.192  24.838  1.00  0.00     0.124 S 
ATOM     88  O   UNL A   1      43.981  20.374  25.633  1.00  0.00    -0.237 OA
ATOM     89  O   UNL A   1      44.709  21.126  23.392  1.00  0.00    -0.237 OA
ATOM     90  O   UNL A   1      46.281  21.195  25.289  1.00  0.00    -0.744 OA
ENDBRANCH  86  87
ENDBRANCH  54  79
BRANCH  66  91
ATOM     91  C   UNL A   1      45.211  31.096  28.510  1.00  0.00     0.058 A 
ATOM     92  C   UNL A   1      44.208  31.713  27.742  1.00  0.00     0.135 A 
ATOM     93  C   UNL A   1      46.519  31.580  28.367  1.00  0.00     0.135 A 
ATOM     94  F   UNL A   1      42.922  31.365  27.879  1.00  0.00    -0.206 F 
ATOM     95  C   UNL A   1      44.503  32.743  26.846  1.00  0.00     0.059 A 
ATOM     96  C   UNL A   1      46.830  32.625  27.505  1.00  0.00     0.059 A 
ATOM     97  F   UNL A   1      47.511  31.064  29.112  1.00  0.00    -0.206 F 
ATOM     98  C   UNL A   1      45.819  33.193  26.737  1.00  0.00     0.060 A 
BRANCH  98  99
ATOM     99  S   UNL A   1      46.196  34.565  25.625  1.00  0.00     0.124 S 
ATOM    100  O   UNL A   1      47.627  34.391  25.398  1.00  0.00    -0.237 OA
ATOM    101  O   UNL A   1      45.334  34.290  24.478  1.00  0.00    -0.237 OA
ATOM    102  O   UNL A   1      45.826  35.745  26.403  1.00  0.00    -0.744 OA
ENDBRANCH  98  99
ENDBRANCH  66  91
ENDBRANCH  40  41
ENDBRANCH  32  35
ENDBRANCH  30  31
ENDBRANCH  29  30
ENDBRANCH   1  29
TORSDOF 19
ENDMDL
MODEL 2
REMARK VINA RESULT:     -12.5      1.664      2.939
REMARK SMILES COc1ccc(-c2ncn(CC(=O)NCCCCNC(=O)c3ccc(-c4c5nc(c(-c6c(F)cc(S(=O)(=O)[O-])cc6F)c6ccc([nH]6)c(-c6c(F)cc(S(=O)(=O)[O-])cc6F)c6nc(c(-c7c(F)cc(S(=O)(=O)[O-])cc7F)c7ccc4[nH]7)C=C6)C=C5)cc3)c2-c2ccc(OC)cc2)cc1
REMARK SMILES IDX 16 1 15 2 14 3 12 4 13 5 11 7 10 8 7 9 8 10 88 11 9 12 6 13
REMARK SMILES IDX 3 14 4 15 98 16 5 17 97 18 2 19 1 20 89 21 90 22 96 23 91 24
REMARK SMILES IDX 95 25 92 26 93 27 94 28 17 29 18 30 19 31 20 32 21 34 22 35
REMARK SMILES IDX 23 36 87 37 24 38 86 39 25 40 26 41 27 42 80 43 28 44 85 45
REMARK SMILES IDX 79 46 81 47 29 48 84 49 78 50 77 51 30 53 64 54 43 55 63 56
REMARK SMILES IDX 44 57 47 58 62 59 82 60 45 61 46 62 61 64 83 65 48 66 31 67
REMARK SMILES IDX 32 68 41 69 33 70 34 71 40 72 42 73 35 74 36 75 37 76 38 77
REMARK SMILES IDX 39 78 65 79 66 80 75 81 67 82 68 83 74 84 76 85 69 86 70 87
REMARK SMILES IDX 71 88 72 89 73 90 49 91 50 92 59 93 51 94 52 95 58 96 60 97
REMARK SMILES IDX 53 98 54 99 55 100 56 101 57 102
REMARK H PARENT 14 6 19 33 81 52 47 63
REMARK Flexibility Score: inf
ROOT
ATOM      1  C   UNL A   1      32.863  29.257  25.124  1.00  0.00     0.023 C 
ENDROOT
BRANCH   1   2
ATOM      2  C   UNL A   1      31.372  28.972  24.911  1.00  0.00     0.116 C 
BRANCH   2   3
ATOM      3  N   UNL A   1      30.903  29.304  23.579  1.00  0.00    -0.355 N 
ATOM      4  C   UNL A   1      30.481  28.485  22.571  1.00  0.00     0.239 C 
ATOM      5  O   UNL A   1      30.012  29.021  21.564  1.00  0.00    -0.273 OA
ATOM      6  H   UNL A   1      30.885  30.265  23.370  1.00  0.00     0.163 HD
BRANCH   4   7
ATOM      7  C   UNL A   1      30.522  26.977  22.692  1.00  0.00     0.223 C 
BRANCH   7   8
ATOM      8  N   UNL A   1      31.857  26.398  22.692  1.00  0.00    -0.321 N 
ATOM      9  C   UNL A   1      33.684  25.285  23.096  1.00  0.00     0.096 A 
ATOM     10  N   UNL A   1      34.004  26.225  22.147  1.00  0.00    -0.236 NA
ATOM     11  C   UNL A   1      32.355  25.388  23.493  1.00  0.00     0.076 A 
ATOM     12  C   UNL A   1      32.895  26.892  21.945  1.00  0.00     0.201 A 
BRANCH   9  13
ATOM     13  C   UNL A   1      34.672  24.410  23.692  1.00  0.00     0.003 A 
ATOM     14  C   UNL A   1      36.399  22.642  25.001  1.00  0.00     0.118 A 
ATOM     15  C   UNL A   1      35.979  22.371  23.698  1.00  0.00     0.047 A 
ATOM     16  C   UNL A   1      36.016  23.831  25.624  1.00  0.00     0.047 A 
ATOM     17  C   UNL A   1      35.108  23.247  23.046  1.00  0.00     0.014 A 
ATOM     18  C   UNL A   1      35.157  24.714  24.967  1.00  0.00     0.014 A 
BRANCH  14  19
ATOM     19  O   UNL A   1      37.226  21.718  25.581  1.00  0.00    -0.497 OA
ATOM     20  C   UNL A   1      38.498  22.249  25.945  1.00  0.00     0.278 C 
ENDBRANCH  14  19
ENDBRANCH   9  13
BRANCH  11  21
ATOM     21  C   UNL A   1      31.639  24.737  24.588  1.00  0.00     0.001 A 
ATOM     22  C   UNL A   1      31.111  25.459  25.658  1.00  0.00     0.014 A 
ATOM     23  C   UNL A   1      31.458  23.349  24.557  1.00  0.00     0.014 A 
ATOM     24  C   UNL A   1      30.475  24.795  26.711  1.00  0.00     0.047 A 
ATOM     25  C   UNL A   1      30.791  22.689  25.594  1.00  0.00     0.047 A 
ATOM     26  C   UNL A   1      30.307  23.411  26.684  1.00  0.00     0.118 A 
BRANCH  26  27
ATOM     27  O   UNL A   1      29.667  22.888  27.772  1.00  0.00    -0.497 OA
ATOM     28  C   UNL A   1      28.427  22.237  27.529  1.00  0.00     0.278 C 
ENDBRANCH  26  27
ENDBRANCH  11  21
ENDBRANCH   7   8
ENDBRANCH   4   7
ENDBRANCH   2   3
ENDBRANCH   1   2
BRANCH   1  29
ATOM     29  C   UNL A   1      33.421  29.008  26.532  1.00  0.00     0.023 C 
BRANCH  29  30
ATOM     30  C   UNL A   1      34.696  29.767  26.863  1.00  0.00     0.116 C 
BRANCH  30  31
ATOM     31  N   UNL A   1      34.456  31.033  27.562  1.00  0.00    -0.352 N 
ATOM     32  C   UNL A   1      34.992  31.453  28.774  1.00  0.00     0.251 C 
ATOM     33  H   UNL A   1      33.842  31.662  27.119  1.00  0.00     0.163 HD
ATOM     34  O   UNL A   1      34.442  32.310  29.442  1.00  0.00    -0.269 OA
BRANCH  32  35
ATOM     35  C   UNL A   1      36.263  30.847  29.216  1.00  0.00     0.039 A 
ATOM     36  C   UNL A   1      36.353  29.540  29.704  1.00  0.00     0.014 A 
ATOM     37  C   UNL A   1      37.399  31.635  29.082  1.00  0.00     0.014 A 
ATOM     38  C   UNL A   1      37.617  29.016  29.980  1.00  0.00     0.010 A 
ATOM     39  C   UNL A   1      38.632  31.056  29.140  1.00  0.00     0.010 A 
ATOM     40  C   UNL A   1      38.753  29.783  29.679  1.00  0.00    -0.014 A 
BRANCH  40  41
ATOM     41  C   UNL A   1      40.111  29.271  29.807  1.00  0.00     0.031 A 
ATOM     42  C   UNL A   1      40.537  29.072  31.218  1.00  0.00     0.074 A 
ATOM     43  C   UNL A   1      40.769  28.745  28.747  1.00  0.00     0.049 A 
ATOM     44  N   UNL A   1      41.360  29.792  31.905  1.00  0.00    -0.248 NA
ATOM     45  C   UNL A   1      39.810  28.079  32.030  1.00  0.00     0.031 C 
ATOM     46  C   UNL A   1      40.269  28.574  27.372  1.00  0.00     0.029 A 
ATOM     47  N   UNL A   1      41.985  28.136  28.688  1.00  0.00    -0.354 N 
ATOM     48  C   UNL A   1      41.474  29.151  33.137  1.00  0.00     0.074 A 
ATOM     49  C   UNL A   1      40.318  28.306  33.244  1.00  0.00     0.031 C 
ATOM     50  C   UNL A   1      41.062  27.714  26.696  1.00  0.00     0.029 A 
ATOM     51  C   UNL A   1      42.222  27.420  27.515  1.00  0.00     0.049 A 
ATOM     52  H   UNL A   1      42.645  28.198  29.416  1.00  0.00     0.167 HD
ATOM     53  C   UNL A   1      42.672  29.113  33.791  1.00  0.00     0.037 A 
ATOM     54  C   UNL A   1      43.300  26.643  27.240  1.00  0.00     0.037 A 
ATOM     55  C   UNL A   1      43.606  30.007  33.147  1.00  0.00     0.049 A 
ATOM     56  C   UNL A   1      44.378  27.086  28.156  1.00  0.00     0.074 A 
ATOM     57  C   UNL A   1      43.757  31.369  33.006  1.00  0.00     0.029 A 
ATOM     58  N   UNL A   1      44.353  29.407  32.163  1.00  0.00    -0.354 N 
ATOM     59  N   UNL A   1      44.915  28.275  28.109  1.00  0.00    -0.248 NA
ATOM     60  C   UNL A   1      44.595  26.354  29.396  1.00  0.00     0.031 C 
ATOM     61  C   UNL A   1      44.410  31.558  31.751  1.00  0.00     0.029 A 
ATOM     62  C   UNL A   1      44.693  30.310  31.194  1.00  0.00     0.049 A 
ATOM     63  H   UNL A   1      44.610  28.456  32.157  1.00  0.00     0.167 HD
ATOM     64  C   UNL A   1      45.151  28.604  29.433  1.00  0.00     0.074 A 
ATOM     65  C   UNL A   1      45.093  27.336  30.152  1.00  0.00     0.031 C 
ATOM     66  C   UNL A   1      45.050  29.899  29.852  1.00  0.00     0.037 A 
BRANCH  53  67
ATOM     67  C   UNL A   1      43.190  27.961  34.641  1.00  0.00     0.058 A 
ATOM     68  C   UNL A   1      43.521  28.219  35.993  1.00  0.00     0.135 A 
ATOM     69  C   UNL A   1      43.660  26.727  34.141  1.00  0.00     0.135 A 
ATOM     70  F   UNL A   1      43.114  29.349  36.593  1.00  0.00    -0.206 F 
ATOM     71  C   UNL A   1      44.338  27.373  36.746  1.00  0.00     0.059 A 
ATOM     72  C   UNL A   1      44.436  25.847  34.890  1.00  0.00     0.059 A 
ATOM     73  F   UNL A   1      43.476  26.340  32.875  1.00  0.00    -0.206 F 
ATOM     74  C   UNL A   1      44.807  26.196  36.176  1.00  0.00     0.060 A 
BRANCH  74  75
ATOM     75  S   UNL A   1      45.939  25.148  37.105  1.00  0.00     0.124 S 
ATOM     76  O   UNL A   1      47.229  25.735  36.760  1.00  0.00    -0.237 OA
ATOM     77  O   UNL A   1      45.486  25.357  38.476  1.00  0.00    -0.237 OA
ATOM     78  O   UNL A   1      45.685  23.817  36.561  1.00  0.00    -0.744 OA
ENDBRANCH  74  75
ENDBRANCH  53  67
BRANCH  54  79
ATOM     79  C   UNL A   1      43.395  25.384  26.454  1.00  0.00     0.058 A 
ATOM     80  C   UNL A   1      44.338  25.238  25.418  1.00  0.00     0.135 A 
ATOM     81  C   UNL A   1      42.785  24.200  26.909  1.00  0.00     0.135 A 
ATOM     82  F   UNL A   1      44.975  26.314  24.930  1.00  0.00    -0.206 F 
ATOM     83  C   UNL A   1      44.705  23.985  24.911  1.00  0.00     0.059 A 
ATOM     84  C   UNL A   1      43.133  22.940  26.417  1.00  0.00     0.059 A 
ATOM     85  F   UNL A   1      41.899  24.229  27.917  1.00  0.00    -0.206 F 
ATOM     86  C   UNL A   1      44.115  22.837  25.438  1.00  0.00     0.060 A 
BRANCH  86  87
ATOM     87  S   UNL A   1      44.724  21.210  24.926  1.00  0.00     0.124 S 
ATOM     88  O   UNL A   1      43.815  20.311  25.630  1.00  0.00    -0.237 OA
ATOM     89  O   UNL A   1      44.571  21.264  23.477  1.00  0.00    -0.237 OA
ATOM     90  O   UNL A   1      46.105  21.199  25.404  1.00  0.00    -0.744 OA
ENDBRANCH  86  87
ENDBRANCH  54  79
BRANCH  66  91
ATOM     91  C   UNL A   1      45.186  30.976  28.813  1.00  0.00     0.058 A 
ATOM     92  C   UNL A   1      46.397  31.430  28.263  1.00  0.00     0.135 A 
ATOM     93  C   UNL A   1      44.001  31.502  28.278  1.00  0.00     0.135 A 
ATOM     94  F   UNL A   1      47.569  30.919  28.661  1.00  0.00    -0.206 F 
ATOM     95  C   UNL A   1      46.427  32.390  27.250  1.00  0.00     0.059 A 
ATOM     96  C   UNL A   1      44.005  32.435  27.249  1.00  0.00     0.059 A 
ATOM     97  F   UNL A   1      42.811  31.069  28.728  1.00  0.00    -0.206 F 
ATOM     98  C   UNL A   1      45.223  32.886  26.748  1.00  0.00     0.060 A 
BRANCH  98  99
ATOM     99  S   UNL A   1      45.253  34.083  25.397  1.00  0.00     0.124 S 
ATOM    100  O   UNL A   1      44.535  35.215  25.974  1.00  0.00    -0.237 OA
ATOM    101  O   UNL A   1      46.684  34.282  25.181  1.00  0.00    -0.237 OA
ATOM    102  O   UNL A   1      44.558  33.391  24.313  1.00  0.00    -0.744 OA
ENDBRANCH  98  99
ENDBRANCH  66  91
ENDBRANCH  40  41
ENDBRANCH  32  35
ENDBRANCH  30  31
ENDBRANCH  29  30
ENDBRANCH   1  29
TORSDOF 19
ENDMDL
MODEL 3
REMARK VINA RESULT:     -11.3      3.046      9.234
REMARK SMILES COc1ccc(-c2ncn(CC(=O)NCCCCNC(=O)c3ccc(-c4c5nc(c(-c6c(F)cc(S(=O)(=O)[O-])cc6F)c6ccc([nH]6)c(-c6c(F)cc(S(=O)(=O)[O-])cc6F)c6nc(c(-c7c(F)cc(S(=O)(=O)[O-])cc7F)c7ccc4[nH]7)C=C6)C=C5)cc3)c2-c2ccc(OC)cc2)cc1
REMARK SMILES IDX 16 1 15 2 14 3 12 4 13 5 11 7 10 8 7 9 8 10 88 11 9 12 6 13
REMARK SMILES IDX 3 14 4 15 98 16 5 17 97 18 2 19 1 20 89 21 90 22 96 23 91 24
REMARK SMILES IDX 95 25 92 26 93 27 94 28 17 29 18 30 19 31 20 32 21 34 22 35
REMARK SMILES IDX 23 36 87 37 24 38 86 39 25 40 26 41 27 42 80 43 28 44 85 45
REMARK SMILES IDX 79 46 81 47 29 48 84 49 78 50 77 51 30 53 64 54 43 55 63 56
REMARK SMILES IDX 44 57 47 58 62 59 82 60 45 61 46 62 61 64 83 65 48 66 31 67
REMARK SMILES IDX 32 68 41 69 33 70 34 71 40 72 42 73 35 74 36 75 37 76 38 77
REMARK SMILES IDX 39 78 65 79 66 80 75 81 67 82 68 83 74 84 76 85 69 86 70 87
REMARK SMILES IDX 71 88 72 89 73 90 49 91 50 92 59 93 51 94 52 95 58 96 60 97
REMARK SMILES IDX 53 98 54 99 55 100 56 101 57 102
REMARK H PARENT 14 6 19 33 81 52 47 63
REMARK Flexibility Score: inf
ROOT
ATOM      1  C   UNL A   1      37.524  21.837  25.745  1.00  0.00     0.023 C 
ENDROOT
BRANCH   1   2
ATOM      2  C   UNL A   1      36.021  22.032  25.518  1.00  0.00     0.116 C 
BRANCH   2   3
ATOM      3  N   UNL A   1      35.703  22.654  24.247  1.00  0.00    -0.355 N 
ATOM      4  C   UNL A   1      34.596  23.362  23.871  1.00  0.00     0.239 C 
ATOM      5  O   UNL A   1      34.616  23.898  22.761  1.00  0.00    -0.273 OA
ATOM      6  H   UNL A   1      36.388  22.552  23.549  1.00  0.00     0.163 HD
BRANCH   4   7
ATOM      7  C   UNL A   1      33.410  23.543  24.794  1.00  0.00     0.223 C 
BRANCH   7   8
ATOM      8  N   UNL A   1      32.242  24.154  24.179  1.00  0.00    -0.321 N 
ATOM      9  C   UNL A   1      30.643  25.475  23.515  1.00  0.00     0.096 A 
ATOM     10  N   UNL A   1      30.295  24.210  23.110  1.00  0.00    -0.236 NA
ATOM     11  C   UNL A   1      31.839  25.476  24.224  1.00  0.00     0.076 A 
ATOM     12  C   UNL A   1      31.260  23.438  23.544  1.00  0.00     0.201 A 
BRANCH   9  13
ATOM     13  C   UNL A   1      29.774  26.619  23.336  1.00  0.00     0.003 A 
ATOM     14  C   UNL A   1      28.109  28.864  23.240  1.00  0.00     0.118 A 
ATOM     15  C   UNL A   1      29.405  28.934  22.727  1.00  0.00     0.047 A 
ATOM     16  C   UNL A   1      27.620  27.654  23.734  1.00  0.00     0.047 A 
ATOM     17  C   UNL A   1      30.242  27.817  22.783  1.00  0.00     0.014 A 
ATOM     18  C   UNL A   1      28.451  26.534  23.778  1.00  0.00     0.014 A 
BRANCH  14  19
ATOM     19  O   UNL A   1      27.363  30.011  23.175  1.00  0.00    -0.497 OA
ATOM     20  C   UNL A   1      27.672  30.821  22.044  1.00  0.00     0.278 C 
ENDBRANCH  14  19
ENDBRANCH   9  13
BRANCH  11  21
ATOM     21  C   UNL A   1      32.487  26.538  24.991  1.00  0.00     0.001 A 
ATOM     22  C   UNL A   1      32.085  26.863  26.287  1.00  0.00     0.014 A 
ATOM     23  C   UNL A   1      33.556  27.239  24.421  1.00  0.00     0.014 A 
ATOM     24  C   UNL A   1      32.698  27.918  26.971  1.00  0.00     0.047 A 
ATOM     25  C   UNL A   1      34.190  28.271  25.119  1.00  0.00     0.047 A 
ATOM     26  C   UNL A   1      33.754  28.624  26.395  1.00  0.00     0.118 A 
BRANCH  26  27
ATOM     27  O   UNL A   1      34.265  29.627  27.169  1.00  0.00    -0.497 OA
ATOM     28  C   UNL A   1      35.641  29.530  27.510  1.00  0.00     0.278 C 
ENDBRANCH  26  27
ENDBRANCH  11  21
ENDBRANCH   7   8
ENDBRANCH   4   7
ENDBRANCH   2   3
ENDBRANCH   1   2
BRANCH   1  29
ATOM     29  C   UNL A   1      38.371  23.107  25.902  1.00  0.00     0.023 C 
BRANCH  29  30
ATOM     30  C   UNL A   1      39.500  23.007  26.916  1.00  0.00     0.116 C 
BRANCH  30  31
ATOM     31  N   UNL A   1      40.741  22.465  26.355  1.00  0.00    -0.352 N 
ATOM     32  C   UNL A   1      41.853  23.167  25.906  1.00  0.00     0.251 C 
ATOM     33  H   UNL A   1      40.793  21.483  26.288  1.00  0.00     0.163 HD
ATOM     34  O   UNL A   1      42.635  22.670  25.116  1.00  0.00    -0.269 OA
BRANCH  32  35
ATOM     35  C   UNL A   1      42.072  24.527  26.436  1.00  0.00     0.039 A 
ATOM     36  C   UNL A   1      41.476  25.664  25.883  1.00  0.00     0.014 A 
ATOM     37  C   UNL A   1      42.880  24.626  27.561  1.00  0.00     0.014 A 
ATOM     38  C   UNL A   1      41.646  26.889  26.529  1.00  0.00     0.010 A 
ATOM     39  C   UNL A   1      42.863  25.768  28.306  1.00  0.00     0.010 A 
ATOM     40  C   UNL A   1      42.333  26.924  27.752  1.00  0.00    -0.014 A 
BRANCH  40  41
ATOM     41  C   UNL A   1      42.445  28.129  28.564  1.00  0.00     0.031 A 
ATOM     42  C   UNL A   1      43.679  28.912  28.292  1.00  0.00     0.074 A 
ATOM     43  C   UNL A   1      41.383  28.621  29.245  1.00  0.00     0.049 A 
ATOM     44  N   UNL A   1      44.733  29.010  29.033  1.00  0.00    -0.248 NA
ATOM     45  C   UNL A   1      43.854  29.491  26.948  1.00  0.00     0.031 C 
ATOM     46  C   UNL A   1      40.009  28.092  29.273  1.00  0.00     0.029 A 
ATOM     47  N   UNL A   1      41.264  29.769  29.967  1.00  0.00    -0.354 N 
ATOM     48  C   UNL A   1      45.568  29.910  28.372  1.00  0.00     0.074 A 
ATOM     49  C   UNL A   1      45.111  29.936  27.012  1.00  0.00     0.031 C 
ATOM     50  C   UNL A   1      39.165  29.025  29.768  1.00  0.00     0.029 A 
ATOM     51  C   UNL A   1      39.952  30.137  30.264  1.00  0.00     0.049 A 
ATOM     52  H   UNL A   1      42.044  30.296  30.258  1.00  0.00     0.167 HD
ATOM     53  C   UNL A   1      46.325  30.800  29.078  1.00  0.00     0.037 A 
ATOM     54  C   UNL A   1      39.547  31.279  30.877  1.00  0.00     0.037 A 
ATOM     55  C   UNL A   1      46.290  30.462  30.482  1.00  0.00     0.049 A 
ATOM     56  C   UNL A   1      40.725  31.799  31.611  1.00  0.00     0.074 A 
ATOM     57  C   UNL A   1      46.778  29.453  31.284  1.00  0.00     0.029 A 
ATOM     58  N   UNL A   1      45.279  31.083  31.173  1.00  0.00    -0.354 N 
ATOM     59  N   UNL A   1      41.284  31.170  32.609  1.00  0.00    -0.248 NA
ATOM     60  C   UNL A   1      41.544  32.830  30.988  1.00  0.00     0.031 C 
ATOM     61  C   UNL A   1      45.852  29.335  32.362  1.00  0.00     0.029 A 
ATOM     62  C   UNL A   1      44.865  30.310  32.222  1.00  0.00     0.049 A 
ATOM     63  H   UNL A   1      44.904  31.964  30.944  1.00  0.00     0.167 HD
ATOM     64  C   UNL A   1      42.638  31.412  32.459  1.00  0.00     0.074 A 
ATOM     65  C   UNL A   1      42.720  32.559  31.561  1.00  0.00     0.031 C 
ATOM     66  C   UNL A   1      43.554  30.465  32.819  1.00  0.00     0.037 A 
BRANCH  53  67
ATOM     67  C   UNL A   1      46.666  32.221  28.649  1.00  0.00     0.058 A 
ATOM     68  C   UNL A   1      48.010  32.650  28.753  1.00  0.00     0.135 A 
ATOM     69  C   UNL A   1      45.727  33.255  28.441  1.00  0.00     0.135 A 
ATOM     70  F   UNL A   1      49.000  31.761  28.931  1.00  0.00    -0.206 F 
ATOM     71  C   UNL A   1      48.376  33.998  28.756  1.00  0.00     0.059 A 
ATOM     72  C   UNL A   1      46.076  34.602  28.394  1.00  0.00     0.059 A 
ATOM     73  F   UNL A   1      44.411  33.036  28.362  1.00  0.00    -0.206 F 
ATOM     74  C   UNL A   1      47.395  34.969  28.596  1.00  0.00     0.060 A 
BRANCH  74  75
ATOM     75  S   UNL A   1      47.842  36.710  28.696  1.00  0.00     0.124 S 
ATOM     76  O   UNL A   1      48.826  36.821  27.625  1.00  0.00    -0.237 OA
ATOM     77  O   UNL A   1      46.559  37.364  28.458  1.00  0.00    -0.237 OA
ATOM     78  O   UNL A   1      48.366  36.844  30.052  1.00  0.00    -0.744 OA
ENDBRANCH  74  75
ENDBRANCH  53  67
BRANCH  54  79
ATOM     79  C   UNL A   1      38.321  32.093  30.666  1.00  0.00     0.058 A 
ATOM     80  C   UNL A   1      38.272  33.104  29.687  1.00  0.00     0.135 A 
ATOM     81  C   UNL A   1      37.082  31.685  31.197  1.00  0.00     0.135 A 
ATOM     82  F   UNL A   1      39.405  33.547  29.120  1.00  0.00    -0.206 F 
ATOM     83  C   UNL A   1      37.065  33.630  29.213  1.00  0.00     0.059 A 
ATOM     84  C   UNL A   1      35.865  32.197  30.742  1.00  0.00     0.059 A 
ATOM     85  F   UNL A   1      37.018  30.703  32.110  1.00  0.00    -0.206 F 
ATOM     86  C   UNL A   1      35.862  33.149  29.729  1.00  0.00     0.060 A 
BRANCH  86  87
ATOM     87  S   UNL A   1      34.299  33.683  28.985  1.00  0.00     0.124 S 
ATOM     88  O   UNL A   1      33.552  34.146  30.150  1.00  0.00    -0.237 OA
ATOM     89  O   UNL A   1      34.736  34.719  28.056  1.00  0.00    -0.237 OA
ATOM     90  O   UNL A   1      33.787  32.465  28.361  1.00  0.00    -0.744 OA
ENDBRANCH  86  87
ENDBRANCH  54  79
BRANCH  66  91
ATOM     91  C   UNL A   1      43.119  29.422  33.810  1.00  0.00     0.058 A 
ATOM     92  C   UNL A   1      42.982  29.622  35.195  1.00  0.00     0.135 A 
ATOM     93  C   UNL A   1      42.724  28.178  33.298  1.00  0.00     0.135 A 
ATOM     94  F   UNL A   1      43.259  30.808  35.752  1.00  0.00    -0.206 F 
ATOM     95  C   UNL A   1      42.505  28.614  36.036  1.00  0.00     0.059 A 
ATOM     96  C   UNL A   1      42.218  27.172  34.111  1.00  0.00     0.059 A 
ATOM     97  F   UNL A   1      42.785  27.947  31.975  1.00  0.00    -0.206 F 
ATOM     98  C   UNL A   1      42.124  27.391  35.482  1.00  0.00     0.060 A 
BRANCH  98  99
ATOM     99  S   UNL A   1      41.451  26.105  36.555  1.00  0.00     0.124 S 
ATOM    100  O   UNL A   1      40.668  25.303  35.620  1.00  0.00    -0.237 OA
ATOM    101  O   UNL A   1      42.655  25.469  37.083  1.00  0.00    -0.237 OA
ATOM    102  O   UNL A   1      40.671  26.855  37.537  1.00  0.00    -0.744 OA
ENDBRANCH  98  99
ENDBRANCH  66  91
ENDBRANCH  40  41
ENDBRANCH  32  35
ENDBRANCH  30  31
ENDBRANCH  29  30
ENDBRANCH   1  29
TORSDOF 19
ENDMDL
