MODEL 1
REMARK VINA RESULT:     -12.1      0.000      0.000
REMARK SMILES C[C@]1(c2nnnn2CCC(=O)NCCCCNC(=O)c2ccc(-c3c4nc(c(-c5c(F)cc(S(=O)(=O)[O-])cc5F)c5ccc([nH]5)c(-c5c(F)cc(S(=O)(=O)[O-])cc5F)c5nc(c(-c6c(F)cc(S(=O)(=O)[O-])cc6F)c6ccc3[nH]6)C=C5)C=C4)cc2)CCCO1
REMARK SMILES IDX 14 1 13 2 12 3 10 4 11 5 9 7 8 8 7 9 3 10 4 11 5 12 6 13
REMARK SMILES IDX 2 14 1 15 86 16 89 17 87 18 88 19 15 20 16 21 17 22 18 23
REMARK SMILES IDX 19 25 20 26 21 27 85 28 22 29 84 30 23 31 24 32 25 33 78 34
REMARK SMILES IDX 26 35 83 36 77 37 79 38 27 39 82 40 76 41 75 42 28 44 62 45
REMARK SMILES IDX 41 46 61 47 42 48 45 49 60 50 80 51 43 52 44 53 59 55 81 56
REMARK SMILES IDX 46 57 29 58 30 59 39 60 31 61 32 62 38 63 40 64 33 65 34 66
REMARK SMILES IDX 35 67 36 68 37 69 63 70 64 71 73 72 65 73 66 74 72 75 74 76
REMARK SMILES IDX 67 77 68 78 69 79 70 80 71 81 47 82 48 83 57 84 49 85 50 86
REMARK SMILES IDX 56 87 58 88 51 89 52 90 53 91 54 92 55 93
REMARK H PARENT 12 6 17 24 79 43 45 54
REMARK Flexibility Score: inf
ROOT
ATOM      1  C   UNL A   1      36.189  21.446  25.792  1.00  0.00     0.023 C 
ENDROOT
BRANCH   1   2
ATOM      2  C   UNL A   1      34.807  21.458  26.441  1.00  0.00     0.116 C 
BRANCH   2   3
ATOM      3  N   UNL A   1      33.984  20.385  25.907  1.00  0.00    -0.356 N 
ATOM      4  C   UNL A   1      33.006  20.433  24.958  1.00  0.00     0.221 C 
ATOM      5  O   UNL A   1      32.246  19.469  24.844  1.00  0.00    -0.275 OA
ATOM      6  H   UNL A   1      34.158  19.494  26.286  1.00  0.00     0.163 HD
BRANCH   4   7
ATOM      7  C   UNL A   1      32.872  21.625  24.028  1.00  0.00     0.124 C 
BRANCH   7   8
ATOM      8  C   UNL A   1      31.534  22.353  24.151  1.00  0.00     0.158 C 
BRANCH   8   9
ATOM      9  N   UNL A   1      31.308  22.997  25.425  1.00  0.00    -0.226 N 
ATOM     10  C   UNL A   1      31.912  24.057  26.061  1.00  0.00     0.183 A 
ATOM     11  N   UNL A   1      31.560  23.976  27.337  1.00  0.00    -0.111 NA
ATOM     12  N   UNL A   1      30.484  23.137  27.377  1.00  0.00    -0.024 NA
ATOM     13  N   UNL A   1      30.282  22.579  26.193  1.00  0.00    -0.045 NA
BRANCH  10  14
ATOM     14  C   UNL A   1      32.391  25.334  25.454  1.00  0.00     0.126 C 
ATOM     15  C   UNL A   1      32.174  26.439  26.516  1.00  0.00     0.051 C 
ATOM     16  C   UNL A   1      33.827  25.318  24.946  1.00  0.00     0.046 C 
ATOM     17  O   UNL A   1      31.609  25.671  24.295  1.00  0.00    -0.367 OA
ATOM     18  C   UNL A   1      33.824  26.519  24.024  1.00  0.00     0.032 C 
ATOM     19  C   UNL A   1      32.438  26.447  23.408  1.00  0.00     0.161 C 
ENDBRANCH  10  14
ENDBRANCH   8   9
ENDBRANCH   7   8
ENDBRANCH   4   7
ENDBRANCH   2   3
ENDBRANCH   1   2
BRANCH   1  20
ATOM     20  C   UNL A   1      36.881  22.769  25.482  1.00  0.00     0.023 C 
BRANCH  20  21
ATOM     21  C   UNL A   1      38.391  22.675  25.437  1.00  0.00     0.116 C 
BRANCH  21  22
ATOM     22  N   UNL A   1      38.977  21.960  26.578  1.00  0.00    -0.352 N 
ATOM     23  C   UNL A   1      40.026  22.394  27.384  1.00  0.00     0.251 C 
ATOM     24  H   UNL A   1      38.589  21.083  26.796  1.00  0.00     0.163 HD
ATOM     25  O   UNL A   1      40.689  21.636  28.059  1.00  0.00    -0.269 OA
BRANCH  23  26
ATOM     26  C   UNL A   1      40.268  23.849  27.402  1.00  0.00     0.039 A 
ATOM     27  C   UNL A   1      39.250  24.784  27.197  1.00  0.00     0.014 A 
ATOM     28  C   UNL A   1      41.532  24.230  27.838  1.00  0.00     0.014 A 
ATOM     29  C   UNL A   1      39.493  26.109  27.557  1.00  0.00     0.010 A 
ATOM     30  C   UNL A   1      41.683  25.473  28.386  1.00  0.00     0.010 A 
ATOM     31  C   UNL A   1      40.701  26.438  28.195  1.00  0.00    -0.014 A 
BRANCH  31  32
ATOM     32  C   UNL A   1      40.925  27.741  28.817  1.00  0.00     0.031 A 
ATOM     33  C   UNL A   1      42.048  28.514  28.217  1.00  0.00     0.074 A 
ATOM     34  C   UNL A   1      40.040  28.290  29.683  1.00  0.00     0.049 A 
ATOM     35  N   UNL A   1      43.234  28.674  28.704  1.00  0.00    -0.248 NA
ATOM     36  C   UNL A   1      41.919  29.000  26.832  1.00  0.00     0.031 C 
ATOM     37  C   UNL A   1      38.740  27.748  30.114  1.00  0.00     0.029 A 
ATOM     38  N   UNL A   1      40.065  29.502  30.302  1.00  0.00    -0.354 N 
ATOM     39  C   UNL A   1      43.894  29.531  27.826  1.00  0.00     0.074 A 
ATOM     40  C   UNL A   1      43.144  29.483  26.601  1.00  0.00     0.031 C 
ATOM     41  C   UNL A   1      38.013  28.710  30.723  1.00  0.00     0.029 A 
ATOM     42  C   UNL A   1      38.865  29.868  30.912  1.00  0.00     0.049 A 
ATOM     43  H   UNL A   1      40.866  30.074  30.320  1.00  0.00     0.167 HD
ATOM     44  C   UNL A   1      44.804  30.433  28.299  1.00  0.00     0.037 A 
ATOM     45  C   UNL A   1      38.593  31.024  31.570  1.00  0.00     0.037 A 
ATOM     46  C   UNL A   1      45.095  30.150  29.686  1.00  0.00     0.049 A 
ATOM     47  C   UNL A   1      39.900  31.578  31.992  1.00  0.00     0.074 A 
ATOM     48  C   UNL A   1      45.737  29.154  30.390  1.00  0.00     0.029 A 
ATOM     49  N   UNL A   1      44.289  30.822  30.572  1.00  0.00    -0.354 N 
ATOM     50  N   UNL A   1      40.680  30.987  32.856  1.00  0.00    -0.248 NA
ATOM     51  C   UNL A   1      40.547  32.570  31.145  1.00  0.00     0.031 C 
ATOM     52  C   UNL A   1      45.066  29.080  31.647  1.00  0.00     0.029 A 
ATOM     53  C   UNL A   1      44.086  30.073  31.697  1.00  0.00     0.049 A 
ATOM     54  H   UNL A   1      43.912  31.718  30.417  1.00  0.00     0.167 HD
ATOM     55  C   UNL A   1      41.960  31.201  32.375  1.00  0.00     0.074 A 
ATOM     56  C   UNL A   1      41.827  32.305  31.428  1.00  0.00     0.031 C 
ATOM     57  C   UNL A   1      42.936  30.264  32.559  1.00  0.00     0.037 A 
BRANCH  44  58
ATOM     58  C   UNL A   1      45.059  31.829  27.743  1.00  0.00     0.058 A 
ATOM     59  C   UNL A   1      46.327  32.105  27.176  1.00  0.00     0.135 A 
ATOM     60  C   UNL A   1      44.269  32.965  28.018  1.00  0.00     0.135 A 
ATOM     61  F   UNL A   1      47.160  31.106  26.845  1.00  0.00    -0.206 F 
ATOM     62  C   UNL A   1      46.812  33.403  27.008  1.00  0.00     0.059 A 
ATOM     63  C   UNL A   1      44.717  34.268  27.814  1.00  0.00     0.059 A 
ATOM     64  F   UNL A   1      43.059  32.886  28.578  1.00  0.00    -0.206 F 
ATOM     65  C   UNL A   1      46.005  34.480  27.353  1.00  0.00     0.060 A 
BRANCH  65  66
ATOM     66  S   UNL A   1      46.662  36.153  27.241  1.00  0.00     0.124 S 
ATOM     67  O   UNL A   1      45.448  36.951  27.359  1.00  0.00    -0.237 OA
ATOM     68  O   UNL A   1      47.572  36.196  28.381  1.00  0.00    -0.237 OA
ATOM     69  O   UNL A   1      47.306  36.172  25.931  1.00  0.00    -0.744 OA
ENDBRANCH  65  66
ENDBRANCH  44  58
BRANCH  45  70
ATOM     70  C   UNL A   1      37.325  31.788  31.662  1.00  0.00     0.058 A 
ATOM     71  C   UNL A   1      36.672  32.006  32.888  1.00  0.00     0.135 A 
ATOM     72  C   UNL A   1      36.887  32.573  30.577  1.00  0.00     0.135 A 
ATOM     73  F   UNL A   1      37.040  31.317  33.978  1.00  0.00    -0.206 F 
ATOM     74  C   UNL A   1      35.672  32.975  33.041  1.00  0.00     0.059 A 
ATOM     75  C   UNL A   1      35.894  33.547  30.705  1.00  0.00     0.059 A 
ATOM     76  F   UNL A   1      37.482  32.474  29.378  1.00  0.00    -0.206 F 
ATOM     77  C   UNL A   1      35.303  33.757  31.947  1.00  0.00     0.060 A 
BRANCH  77  78
ATOM     78  S   UNL A   1      34.124  35.113  32.175  1.00  0.00     0.124 S 
ATOM     79  O   UNL A   1      33.028  34.447  32.869  1.00  0.00    -0.237 OA
ATOM     80  O   UNL A   1      34.895  36.066  32.967  1.00  0.00    -0.237 OA
ATOM     81  O   UNL A   1      33.828  35.538  30.809  1.00  0.00    -0.744 OA
ENDBRANCH  77  78
ENDBRANCH  45  70
BRANCH  57  82
ATOM     82  C   UNL A   1      42.736  29.262  33.663  1.00  0.00     0.058 A 
ATOM     83  C   UNL A   1      42.884  29.526  35.036  1.00  0.00     0.135 A 
ATOM     84  C   UNL A   1      42.257  27.995  33.301  1.00  0.00     0.135 A 
ATOM     85  F   UNL A   1      43.258  30.737  35.469  1.00  0.00    -0.206 F 
ATOM     86  C   UNL A   1      42.598  28.559  36.002  1.00  0.00     0.059 A 
ATOM     87  C   UNL A   1      41.938  27.028  34.247  1.00  0.00     0.059 A 
ATOM     88  F   UNL A   1      42.044  27.702  32.007  1.00  0.00    -0.206 F 
ATOM     89  C   UNL A   1      42.124  27.312  35.597  1.00  0.00     0.060 A 
BRANCH  89  90
ATOM     90  S   UNL A   1      41.692  26.081  36.845  1.00  0.00     0.124 S 
ATOM     91  O   UNL A   1      42.944  25.935  37.580  1.00  0.00    -0.237 OA
ATOM     92  O   UNL A   1      40.603  26.730  37.570  1.00  0.00    -0.237 OA
ATOM     93  O   UNL A   1      41.295  24.918  36.055  1.00  0.00    -0.744 OA
ENDBRANCH  89  90
ENDBRANCH  57  82
ENDBRANCH  31  32
ENDBRANCH  23  26
ENDBRANCH  21  22
ENDBRANCH  20  21
ENDBRANCH   1  20
TORSDOF 17
ENDMDL
MODEL 2
REMARK VINA RESULT:     -11.9      3.055      4.678
REMARK SMILES C[C@]1(c2nnnn2CCC(=O)NCCCCNC(=O)c2ccc(-c3c4nc(c(-c5c(F)cc(S(=O)(=O)[O-])cc5F)c5ccc([nH]5)c(-c5c(F)cc(S(=O)(=O)[O-])cc5F)c5nc(c(-c6c(F)cc(S(=O)(=O)[O-])cc6F)c6ccc3[nH]6)C=C5)C=C4)cc2)CCCO1
REMARK SMILES IDX 14 1 13 2 12 3 10 4 11 5 9 7 8 8 7 9 3 10 4 11 5 12 6 13
REMARK SMILES IDX 2 14 1 15 86 16 89 17 87 18 88 19 15 20 16 21 17 22 18 23
REMARK SMILES IDX 19 25 20 26 21 27 85 28 22 29 84 30 23 31 24 32 25 33 78 34
REMARK SMILES IDX 26 35 83 36 77 37 79 38 27 39 82 40 76 41 75 42 28 44 62 45
REMARK SMILES IDX 41 46 61 47 42 48 45 49 60 50 80 51 43 52 44 53 59 55 81 56
REMARK SMILES IDX 46 57 29 58 30 59 39 60 31 61 32 62 38 63 40 64 33 65 34 66
REMARK SMILES IDX 35 67 36 68 37 69 63 70 64 71 73 72 65 73 66 74 72 75 74 76
REMARK SMILES IDX 67 77 68 78 69 79 70 80 71 81 47 82 48 83 57 84 49 85 50 86
REMARK SMILES IDX 56 87 58 88 51 89 52 90 53 91 54 92 55 93
REMARK H PARENT 12 6 17 24 79 43 45 54
REMARK Flexibility Score: inf
ROOT
ATOM      1  C   UNL A   1      40.722  21.629  27.346  1.00  0.00     0.023 C 
ENDROOT
BRANCH   1   2
ATOM      2  C   UNL A   1      39.545  21.451  26.391  1.00  0.00     0.116 C 
BRANCH   2   3
ATOM      3  N   UNL A   1      38.640  22.585  26.480  1.00  0.00    -0.356 N 
ATOM      4  C   UNL A   1      37.491  22.833  25.789  1.00  0.00     0.221 C 
ATOM      5  O   UNL A   1      37.019  23.972  25.817  1.00  0.00    -0.275 OA
ATOM      6  H   UNL A   1      38.893  23.274  27.136  1.00  0.00     0.163 HD
BRANCH   4   7
ATOM      7  C   UNL A   1      36.776  21.729  25.031  1.00  0.00     0.124 C 
BRANCH   7   8
ATOM      8  C   UNL A   1      35.547  21.184  25.758  1.00  0.00     0.158 C 
BRANCH   8   9
ATOM      9  N   UNL A   1      34.285  21.456  25.108  1.00  0.00    -0.226 N 
ATOM     10  C   UNL A   1      33.497  20.729  24.246  1.00  0.00     0.183 A 
ATOM     11  N   UNL A   1      32.664  21.594  23.683  1.00  0.00    -0.111 NA
ATOM     12  N   UNL A   1      32.699  22.712  24.466  1.00  0.00    -0.024 NA
ATOM     13  N   UNL A   1      33.648  22.611  25.383  1.00  0.00    -0.045 NA
BRANCH  10  14
ATOM     14  C   UNL A   1      33.204  19.266  24.290  1.00  0.00     0.126 C 
ATOM     15  C   UNL A   1      32.366  18.943  23.030  1.00  0.00     0.051 C 
ATOM     16  C   UNL A   1      34.423  18.359  24.402  1.00  0.00     0.046 C 
ATOM     17  O   UNL A   1      32.412  18.941  25.446  1.00  0.00    -0.367 OA
ATOM     18  C   UNL A   1      33.785  17.072  24.880  1.00  0.00     0.032 C 
ATOM     19  C   UNL A   1      32.701  17.578  25.814  1.00  0.00     0.161 C 
ENDBRANCH  10  14
ENDBRANCH   8   9
ENDBRANCH   7   8
ENDBRANCH   4   7
ENDBRANCH   2   3
ENDBRANCH   1   2
BRANCH   1  20
ATOM     20  C   UNL A   1      42.006  20.841  27.106  1.00  0.00     0.023 C 
BRANCH  20  21
ATOM     21  C   UNL A   1      42.163  20.342  25.686  1.00  0.00     0.116 C 
BRANCH  21  22
ATOM     22  N   UNL A   1      43.464  19.717  25.414  1.00  0.00    -0.352 N 
ATOM     23  C   UNL A   1      44.601  20.345  24.914  1.00  0.00     0.251 C 
ATOM     24  H   UNL A   1      43.540  18.756  25.605  1.00  0.00     0.163 HD
ATOM     25  O   UNL A   1      45.505  19.735  24.384  1.00  0.00    -0.269 OA
BRANCH  23  26
ATOM     26  C   UNL A   1      44.667  21.807  25.098  1.00  0.00     0.039 A 
ATOM     27  C   UNL A   1      43.782  22.685  24.468  1.00  0.00     0.014 A 
ATOM     28  C   UNL A   1      45.534  22.236  26.096  1.00  0.00     0.014 A 
ATOM     29  C   UNL A   1      43.698  23.992  24.948  1.00  0.00     0.010 A 
ATOM     30  C   UNL A   1      45.290  23.441  26.695  1.00  0.00     0.010 A 
ATOM     31  C   UNL A   1      44.426  24.349  26.096  1.00  0.00    -0.014 A 
BRANCH  31  32
ATOM     32  C   UNL A   1      44.206  25.613  26.797  1.00  0.00     0.031 A 
ATOM     33  C   UNL A   1      45.240  26.648  26.519  1.00  0.00     0.074 A 
ATOM     34  C   UNL A   1      43.045  25.891  27.434  1.00  0.00     0.049 A 
ATOM     35  N   UNL A   1      46.213  27.005  27.290  1.00  0.00    -0.248 NA
ATOM     36  C   UNL A   1      45.336  27.214  25.163  1.00  0.00     0.031 C 
ATOM     37  C   UNL A   1      41.832  25.059  27.512  1.00  0.00     0.029 A 
ATOM     38  N   UNL A   1      42.656  27.025  28.081  1.00  0.00    -0.354 N 
ATOM     39  C   UNL A   1      46.856  28.052  26.631  1.00  0.00     0.074 A 
ATOM     40  C   UNL A   1      46.444  27.957  25.258  1.00  0.00     0.031 C 
ATOM     41  C   UNL A   1      40.789  25.796  27.954  1.00  0.00     0.029 A 
ATOM     42  C   UNL A   1      41.296  27.084  28.386  1.00  0.00     0.049 A 
ATOM     43  H   UNL A   1      43.285  27.746  28.315  1.00  0.00     0.167 HD
ATOM     44  C   UNL A   1      47.409  29.078  27.344  1.00  0.00     0.037 A 
ATOM     45  C   UNL A   1      40.631  28.098  28.995  1.00  0.00     0.037 A 
ATOM     46  C   UNL A   1      47.421  28.743  28.750  1.00  0.00     0.049 A 
ATOM     47  C   UNL A   1      41.647  28.870  29.745  1.00  0.00     0.074 A 
ATOM     48  C   UNL A   1      48.083  27.843  29.557  1.00  0.00     0.029 A 
ATOM     49  N   UNL A   1      46.303  29.156  29.431  1.00  0.00    -0.354 N 
ATOM     50  N   UNL A   1      42.314  28.380  30.755  1.00  0.00    -0.248 NA
ATOM     51  C   UNL A   1      42.240  30.043  29.118  1.00  0.00     0.031 C 
ATOM     52  C   UNL A   1      47.169  27.525  30.606  1.00  0.00     0.029 A 
ATOM     53  C   UNL A   1      46.011  28.288  30.445  1.00  0.00     0.049 A 
ATOM     54  H   UNL A   1      45.784  29.966  29.217  1.00  0.00     0.167 HD
ATOM     55  C   UNL A   1      43.591  28.893  30.613  1.00  0.00     0.074 A 
ATOM     56  C   UNL A   1      43.444  30.023  29.700  1.00  0.00     0.031 C 
ATOM     57  C   UNL A   1      44.678  28.164  31.002  1.00  0.00     0.037 A 
BRANCH  44  58
ATOM     58  C   UNL A   1      47.473  30.539  26.916  1.00  0.00     0.058 A 
ATOM     59  C   UNL A   1      48.693  31.236  27.087  1.00  0.00     0.135 A 
ATOM     60  C   UNL A   1      46.352  31.355  26.654  1.00  0.00     0.135 A 
ATOM     61  F   UNL A   1      49.836  30.570  27.314  1.00  0.00    -0.206 F 
ATOM     62  C   UNL A   1      48.769  32.629  27.115  1.00  0.00     0.059 A 
ATOM     63  C   UNL A   1      46.415  32.746  26.632  1.00  0.00     0.059 A 
ATOM     64  F   UNL A   1      45.121  30.862  26.494  1.00  0.00    -0.206 F 
ATOM     65  C   UNL A   1      47.616  33.377  26.908  1.00  0.00     0.060 A 
BRANCH  65  66
ATOM     66  S   UNL A   1      47.684  35.171  27.050  1.00  0.00     0.124 S 
ATOM     67  O   UNL A   1      48.845  35.351  27.914  1.00  0.00    -0.237 OA
ATOM     68  O   UNL A   1      47.851  35.576  25.658  1.00  0.00    -0.237 OA
ATOM     69  O   UNL A   1      46.395  35.508  27.645  1.00  0.00    -0.744 OA
ENDBRANCH  65  66
ENDBRANCH  44  58
BRANCH  45  70
ATOM     70  C   UNL A   1      39.240  28.575  28.796  1.00  0.00     0.058 A 
ATOM     71  C   UNL A   1      38.306  28.612  29.846  1.00  0.00     0.135 A 
ATOM     72  C   UNL A   1      38.891  29.283  27.628  1.00  0.00     0.135 A 
ATOM     73  F   UNL A   1      38.566  27.982  31.001  1.00  0.00    -0.206 F 
ATOM     74  C   UNL A   1      37.113  29.343  29.761  1.00  0.00     0.059 A 
ATOM     75  C   UNL A   1      37.710  30.022  27.521  1.00  0.00     0.059 A 
ATOM     76  F   UNL A   1      39.739  29.349  26.590  1.00  0.00    -0.206 F 
ATOM     77  C   UNL A   1      36.833  30.064  28.601  1.00  0.00     0.060 A 
BRANCH  77  78
ATOM     78  S   UNL A   1      35.372  31.133  28.544  1.00  0.00     0.124 S 
ATOM     79  O   UNL A   1      35.825  32.219  27.683  1.00  0.00    -0.237 OA
ATOM     80  O   UNL A   1      34.362  30.247  27.974  1.00  0.00    -0.237 OA
ATOM     81  O   UNL A   1      35.161  31.494  29.944  1.00  0.00    -0.744 OA
ENDBRANCH  77  78
ENDBRANCH  45  70
BRANCH  57  82
ATOM     82  C   UNL A   1      44.450  27.051  31.988  1.00  0.00     0.058 A 
ATOM     83  C   UNL A   1      44.351  25.687  31.663  1.00  0.00     0.135 A 
ATOM     84  C   UNL A   1      44.446  27.389  33.348  1.00  0.00     0.135 A 
ATOM     85  F   UNL A   1      44.430  25.272  30.392  1.00  0.00    -0.206 F 
ATOM     86  C   UNL A   1      44.222  24.707  32.650  1.00  0.00     0.059 A 
ATOM     87  C   UNL A   1      44.348  26.428  34.348  1.00  0.00     0.059 A 
ATOM     88  F   UNL A   1      44.591  28.671  33.722  1.00  0.00    -0.206 F 
ATOM     89  C   UNL A   1      44.223  25.088  33.991  1.00  0.00     0.060 A 
BRANCH  89  90
ATOM     90  S   UNL A   1      44.120  23.820  35.272  1.00  0.00     0.124 S 
ATOM     91  O   UNL A   1      42.764  23.311  35.093  1.00  0.00    -0.237 OA
ATOM     92  O   UNL A   1      45.195  22.905  34.901  1.00  0.00    -0.237 OA
ATOM     93  O   UNL A   1      44.347  24.565  36.509  1.00  0.00    -0.744 OA
ENDBRANCH  89  90
ENDBRANCH  57  82
ENDBRANCH  31  32
ENDBRANCH  23  26
ENDBRANCH  21  22
ENDBRANCH  20  21
ENDBRANCH   1  20
TORSDOF 17
ENDMDL
MODEL 3
REMARK VINA RESULT:     -11.6      2.672      3.757
REMARK SMILES C[C@]1(c2nnnn2CCC(=O)NCCCCNC(=O)c2ccc(-c3c4nc(c(-c5c(F)cc(S(=O)(=O)[O-])cc5F)c5ccc([nH]5)c(-c5c(F)cc(S(=O)(=O)[O-])cc5F)c5nc(c(-c6c(F)cc(S(=O)(=O)[O-])cc6F)c6ccc3[nH]6)C=C5)C=C4)cc2)CCCO1
REMARK SMILES IDX 14 1 13 2 12 3 10 4 11 5 9 7 8 8 7 9 3 10 4 11 5 12 6 13
REMARK SMILES IDX 2 14 1 15 86 16 89 17 87 18 88 19 15 20 16 21 17 22 18 23
REMARK SMILES IDX 19 25 20 26 21 27 85 28 22 29 84 30 23 31 24 32 25 33 78 34
REMARK SMILES IDX 26 35 83 36 77 37 79 38 27 39 82 40 76 41 75 42 28 44 62 45
REMARK SMILES IDX 41 46 61 47 42 48 45 49 60 50 80 51 43 52 44 53 59 55 81 56
REMARK SMILES IDX 46 57 29 58 30 59 39 60 31 61 32 62 38 63 40 64 33 65 34 66
REMARK SMILES IDX 35 67 36 68 37 69 63 70 64 71 73 72 65 73 66 74 72 75 74 76
REMARK SMILES IDX 67 77 68 78 69 79 70 80 71 81 47 82 48 83 57 84 49 85 50 86
REMARK SMILES IDX 56 87 58 88 51 89 52 90 53 91 54 92 55 93
REMARK H PARENT 12 6 17 24 79 43 45 54
REMARK Flexibility Score: inf
ROOT
ATOM      1  C   UNL A   1      40.209  21.513  26.548  1.00  0.00     0.023 C 
ENDROOT
BRANCH   1   2
ATOM      2  C   UNL A   1      38.898  21.476  25.765  1.00  0.00     0.116 C 
BRANCH   2   3
ATOM      3  N   UNL A   1      38.091  22.647  26.067  1.00  0.00    -0.356 N 
ATOM      4  C   UNL A   1      36.778  22.890  25.789  1.00  0.00     0.221 C 
ATOM      5  O   UNL A   1      36.358  24.044  25.887  1.00  0.00    -0.275 OA
ATOM      6  H   UNL A   1      38.561  23.371  26.541  1.00  0.00     0.163 HD
BRANCH   4   7
ATOM      7  C   UNL A   1      35.835  21.763  25.409  1.00  0.00     0.124 C 
BRANCH   7   8
ATOM      8  C   UNL A   1      34.843  22.139  24.308  1.00  0.00     0.158 C 
BRANCH   8   9
ATOM      9  N   UNL A   1      33.457  21.881  24.625  1.00  0.00    -0.226 N 
ATOM     10  C   UNL A   1      32.410  22.697  24.988  1.00  0.00     0.183 A 
ATOM     11  N   UNL A   1      31.485  21.905  25.513  1.00  0.00    -0.111 NA
ATOM     12  N   UNL A   1      31.809  20.637  25.120  1.00  0.00    -0.024 NA
ATOM     13  N   UNL A   1      32.989  20.622  24.519  1.00  0.00    -0.045 NA
BRANCH  10  14
ATOM     14  C   UNL A   1      32.078  24.050  24.451  1.00  0.00     0.126 C 
ATOM     15  C   UNL A   1      33.010  25.054  25.171  1.00  0.00     0.051 C 
ATOM     16  C   UNL A   1      32.164  24.191  22.936  1.00  0.00     0.046 C 
ATOM     17  O   UNL A   1      30.719  24.401  24.764  1.00  0.00    -0.367 OA
ATOM     18  C   UNL A   1      31.353  25.450  22.715  1.00  0.00     0.032 C 
ATOM     19  C   UNL A   1      30.248  25.306  23.745  1.00  0.00     0.161 C 
ENDBRANCH  10  14
ENDBRANCH   8   9
ENDBRANCH   7   8
ENDBRANCH   4   7
ENDBRANCH   2   3
ENDBRANCH   1   2
BRANCH   1  20
ATOM     20  C   UNL A   1      40.920  20.205  26.877  1.00  0.00     0.023 C 
BRANCH  20  21
ATOM     21  C   UNL A   1      42.372  20.378  27.266  1.00  0.00     0.116 C 
BRANCH  21  22
ATOM     22  N   UNL A   1      43.319  19.790  26.310  1.00  0.00    -0.352 N 
ATOM     23  C   UNL A   1      43.979  20.450  25.277  1.00  0.00     0.251 C 
ATOM     24  H   UNL A   1      43.506  18.829  26.409  1.00  0.00     0.163 HD
ATOM     25  O   UNL A   1      44.451  19.867  24.325  1.00  0.00    -0.269 OA
BRANCH  23  26
ATOM     26  C   UNL A   1      44.107  21.913  25.422  1.00  0.00     0.039 A 
ATOM     27  C   UNL A   1      43.286  22.811  24.737  1.00  0.00     0.014 A 
ATOM     28  C   UNL A   1      44.959  22.330  26.438  1.00  0.00     0.014 A 
ATOM     29  C   UNL A   1      43.248  24.134  25.177  1.00  0.00     0.010 A 
ATOM     30  C   UNL A   1      44.751  23.562  26.994  1.00  0.00     0.010 A 
ATOM     31  C   UNL A   1      43.952  24.491  26.340  1.00  0.00    -0.014 A 
BRANCH  31  32
ATOM     32  C   UNL A   1      43.768  25.784  26.997  1.00  0.00     0.031 A 
ATOM     33  C   UNL A   1      44.819  26.786  26.668  1.00  0.00     0.074 A 
ATOM     34  C   UNL A   1      42.621  26.110  27.639  1.00  0.00     0.049 A 
ATOM     35  N   UNL A   1      45.810  27.151  27.412  1.00  0.00    -0.248 NA
ATOM     36  C   UNL A   1      44.907  27.301  25.291  1.00  0.00     0.031 C 
ATOM     37  C   UNL A   1      41.393  25.307  27.763  1.00  0.00     0.029 A 
ATOM     38  N   UNL A   1      42.265  27.274  28.249  1.00  0.00    -0.354 N 
ATOM     39  C   UNL A   1      46.465  28.159  26.708  1.00  0.00     0.074 A 
ATOM     40  C   UNL A   1      46.032  28.023  25.344  1.00  0.00     0.031 C 
ATOM     41  C   UNL A   1      40.371  26.081  28.191  1.00  0.00     0.029 A 
ATOM     42  C   UNL A   1      40.911  27.372  28.570  1.00  0.00     0.049 A 
ATOM     43  H   UNL A   1      42.912  27.990  28.448  1.00  0.00     0.167 HD
ATOM     44  C   UNL A   1      47.048  29.198  27.375  1.00  0.00     0.037 A 
ATOM     45  C   UNL A   1      40.275  28.422  29.149  1.00  0.00     0.037 A 
ATOM     46  C   UNL A   1      47.073  28.914  28.792  1.00  0.00     0.049 A 
ATOM     47  C   UNL A   1      41.318  29.199  29.857  1.00  0.00     0.074 A 
ATOM     48  C   UNL A   1      47.727  28.030  29.623  1.00  0.00     0.029 A 
ATOM     49  N   UNL A   1      45.973  29.375  29.472  1.00  0.00    -0.354 N 
ATOM     50  N   UNL A   1      41.988  28.732  30.876  1.00  0.00    -0.248 NA
ATOM     51  C   UNL A   1      41.926  30.335  29.181  1.00  0.00     0.031 C 
ATOM     52  C   UNL A   1      46.822  27.770  30.695  1.00  0.00     0.029 A 
ATOM     53  C   UNL A   1      45.678  28.551  30.521  1.00  0.00     0.049 A 
ATOM     54  H   UNL A   1      45.468  30.187  29.236  1.00  0.00     0.167 HD
ATOM     55  C   UNL A   1      43.273  29.212  30.698  1.00  0.00     0.074 A 
ATOM     56  C   UNL A   1      43.137  30.312  29.747  1.00  0.00     0.031 C 
ATOM     57  C   UNL A   1      44.351  28.475  31.100  1.00  0.00     0.037 A 
BRANCH  44  58
ATOM     58  C   UNL A   1      47.137  30.641  26.893  1.00  0.00     0.058 A 
ATOM     59  C   UNL A   1      48.378  31.312  27.008  1.00  0.00     0.135 A 
ATOM     60  C   UNL A   1      46.030  31.475  26.631  1.00  0.00     0.135 A 
ATOM     61  F   UNL A   1      49.510  30.626  27.229  1.00  0.00    -0.206 F 
ATOM     62  C   UNL A   1      48.489  32.703  26.983  1.00  0.00     0.059 A 
ATOM     63  C   UNL A   1      46.126  32.863  26.557  1.00  0.00     0.059 A 
ATOM     64  F   UNL A   1      44.783  31.008  26.521  1.00  0.00    -0.206 F 
ATOM     65  C   UNL A   1      47.349  33.472  26.780  1.00  0.00     0.060 A 
BRANCH  65  66
ATOM     66  S   UNL A   1      47.465  35.268  26.854  1.00  0.00     0.124 S 
ATOM     67  O   UNL A   1      46.060  35.653  26.786  1.00  0.00    -0.237 OA
ATOM     68  O   UNL A   1      48.126  35.474  28.139  1.00  0.00    -0.237 OA
ATOM     69  O   UNL A   1      48.269  35.599  25.682  1.00  0.00    -0.744 OA
ENDBRANCH  65  66
ENDBRANCH  44  58
BRANCH  45  70
ATOM     70  C   UNL A   1      38.892  28.921  28.951  1.00  0.00     0.058 A 
ATOM     71  C   UNL A   1      38.008  29.118  30.027  1.00  0.00     0.135 A 
ATOM     72  C   UNL A   1      38.512  29.494  27.722  1.00  0.00     0.135 A 
ATOM     73  F   UNL A   1      38.302  28.624  31.239  1.00  0.00    -0.206 F 
ATOM     74  C   UNL A   1      36.836  29.876  29.903  1.00  0.00     0.059 A 
ATOM     75  C   UNL A   1      37.350  30.256  27.574  1.00  0.00     0.059 A 
ATOM     76  F   UNL A   1      39.313  29.403  26.649  1.00  0.00    -0.206 F 
ATOM     77  C   UNL A   1      36.526  30.460  28.676  1.00  0.00     0.060 A 
BRANCH  77  78
ATOM     78  S   UNL A   1      35.097  31.566  28.549  1.00  0.00     0.124 S 
ATOM     79  O   UNL A   1      34.903  31.971  29.936  1.00  0.00    -0.237 OA
ATOM     80  O   UNL A   1      35.585  32.602  27.644  1.00  0.00    -0.237 OA
ATOM     81  O   UNL A   1      34.050  30.706  27.999  1.00  0.00    -0.744 OA
ENDBRANCH  77  78
ENDBRANCH  45  70
BRANCH  57  82
ATOM     82  C   UNL A   1      44.114  27.403  32.128  1.00  0.00     0.058 A 
ATOM     83  C   UNL A   1      44.060  26.023  31.866  1.00  0.00     0.135 A 
ATOM     84  C   UNL A   1      44.051  27.804  33.470  1.00  0.00     0.135 A 
ATOM     85  F   UNL A   1      44.196  25.552  30.619  1.00  0.00    -0.206 F 
ATOM     86  C   UNL A   1      43.918  25.087  32.892  1.00  0.00     0.059 A 
ATOM     87  C   UNL A   1      43.940  26.889  34.510  1.00  0.00     0.059 A 
ATOM     88  F   UNL A   1      44.151  29.106  33.787  1.00  0.00    -0.206 F 
ATOM     89  C   UNL A   1      43.860  25.531  34.213  1.00  0.00     0.060 A 
BRANCH  89  90
ATOM     90  S   UNL A   1      43.741  24.321  35.548  1.00  0.00     0.124 S 
ATOM     91  O   UNL A   1      42.434  23.721  35.303  1.00  0.00    -0.237 OA
ATOM     92  O   UNL A   1      44.892  23.458  35.300  1.00  0.00    -0.237 OA
ATOM     93  O   UNL A   1      43.835  25.137  36.757  1.00  0.00    -0.744 OA
ENDBRANCH  89  90
ENDBRANCH  57  82
ENDBRANCH  31  32
ENDBRANCH  23  26
ENDBRANCH  21  22
ENDBRANCH  20  21
ENDBRANCH   1  20
TORSDOF 17
ENDMDL
