MODEL 1
REMARK VINA RESULT:     -13.1      0.000      0.000
REMARK SMILES N#C/C(=C/c1ccc(-c2cccc(C(=O)NCCCCNC(=O)c3ccc(-c4c5nc(c(-c6c(F)cc(S(=O)(=O)[O-])cc6F)c6ccc([nH]6)c(-c6c(F)cc(S(=O)(=O)[O-])cc6F)c6nc(c(-c7c(F)cc(S(=O)(=O)[O-])cc7F)c7ccc4[nH]7)C=C6)C=C5)cc3)c2)o1)c1ccc(F)cc1
REMARK SMILES IDX 18 1 17 2 16 3 14 4 15 5 13 7 9 8 10 9 90 10 11 11 12 12
REMARK SMILES IDX 8 13 5 14 6 15 91 16 7 17 4 18 3 19 2 20 1 21 92 22 93 23
REMARK SMILES IDX 98 24 94 25 97 26 95 27 96 28 19 29 20 30 21 31 22 32 23 34
REMARK SMILES IDX 24 35 25 36 89 37 26 38 88 39 27 40 28 41 29 42 82 43 30 44
REMARK SMILES IDX 87 45 81 46 83 47 31 48 86 49 80 50 79 51 32 53 66 54 45 55
REMARK SMILES IDX 65 56 46 57 49 58 64 59 84 60 47 61 48 62 63 64 85 65 50 66
REMARK SMILES IDX 33 67 34 68 43 69 35 70 36 71 42 72 44 73 37 74 38 75 39 76
REMARK SMILES IDX 40 77 41 78 67 79 68 80 77 81 69 82 70 83 76 84 78 85 71 86
REMARK SMILES IDX 72 87 73 88 74 89 75 90 51 91 52 92 61 93 53 94 54 95 60 96
REMARK SMILES IDX 62 97 55 98 56 99 57 100 58 101 59 102
REMARK H PARENT 16 6 21 33 83 52 49 63
REMARK Flexibility Score: inf
ROOT
ATOM      1  C   UNL A   1      38.977  21.264  25.850  1.00  0.00     0.023 C 
ENDROOT
BRANCH   1   2
ATOM      2  C   UNL A   1      37.823  22.244  25.686  1.00  0.00     0.116 C 
BRANCH   2   3
ATOM      3  N   UNL A   1      37.543  22.664  24.319  1.00  0.00    -0.352 N 
ATOM      4  C   UNL A   1      36.354  22.711  23.611  1.00  0.00     0.251 C 
ATOM      5  O   UNL A   1      36.355  23.102  22.447  1.00  0.00    -0.269 OA
ATOM      6  H   UNL A   1      38.332  22.964  23.813  1.00  0.00     0.163 HD
BRANCH   4   7
ATOM      7  C   UNL A   1      35.080  22.232  24.210  1.00  0.00     0.040 A 
ATOM      8  C   UNL A   1      32.898  22.790  25.099  1.00  0.00     0.018 A 
ATOM      9  C   UNL A   1      32.880  21.581  25.801  1.00  0.00     0.012 A 
ATOM     10  C   UNL A   1      33.938  23.024  24.194  1.00  0.00     0.025 A 
ATOM     11  C   UNL A   1      33.931  20.669  25.652  1.00  0.00     0.002 A 
ATOM     12  C   UNL A   1      35.052  21.012  24.891  1.00  0.00     0.014 A 
BRANCH   8  13
ATOM     13  C   UNL A   1      32.005  23.903  25.391  1.00  0.00     0.134 A 
ATOM     14  C   UNL A   1      30.710  25.602  24.769  1.00  0.00     0.128 A 
ATOM     15  C   UNL A   1      30.340  25.224  26.058  1.00  0.00     0.051 A 
ATOM     16  O   UNL A   1      31.720  24.758  24.363  1.00  0.00    -0.457 OA
ATOM     17  C   UNL A   1      31.200  24.190  26.470  1.00  0.00     0.051 A 
BRANCH  14  18
ATOM     18  C   UNL A   1      30.218  26.692  23.991  1.00  0.00     0.067 C 
ATOM     19  C   UNL A   1      30.676  27.944  24.190  1.00  0.00     0.063 C 
BRANCH  19  20
ATOM     20  C   UNL A   1      30.088  29.142  23.464  1.00  0.00     0.100 C 
ATOM     21  N   UNL A   1      29.599  30.136  22.861  1.00  0.00    -0.192 NA
ENDBRANCH  19  20
BRANCH  19  22
ATOM     22  C   UNL A   1      31.787  28.271  25.137  1.00  0.00    -0.007 A 
ATOM     23  C   UNL A   1      33.134  28.125  24.750  1.00  0.00     0.012 A 
ATOM     24  C   UNL A   1      31.505  28.692  26.447  1.00  0.00     0.012 A 
ATOM     25  C   UNL A   1      34.166  28.320  25.671  1.00  0.00     0.040 A 
ATOM     26  C   UNL A   1      32.542  28.910  27.360  1.00  0.00     0.040 A 
ATOM     27  C   UNL A   1      33.860  28.705  26.968  1.00  0.00     0.123 A 
ATOM     28  F   UNL A   1      34.847  28.879  27.856  1.00  0.00    -0.207 F 
ENDBRANCH  19  22
ENDBRANCH  14  18
ENDBRANCH   8  13
ENDBRANCH   4   7
ENDBRANCH   2   3
ENDBRANCH   1   2
BRANCH   1  29
ATOM     29  C   UNL A   1      40.048  21.633  26.867  1.00  0.00     0.023 C 
BRANCH  29  30
ATOM     30  C   UNL A   1      40.179  23.113  27.207  1.00  0.00     0.116 C 
BRANCH  30  31
ATOM     31  N   UNL A   1      40.694  23.934  26.121  1.00  0.00    -0.352 N 
ATOM     32  C   UNL A   1      41.123  25.245  26.132  1.00  0.00     0.251 C 
ATOM     33  H   UNL A   1      40.744  23.485  25.246  1.00  0.00     0.163 HD
ATOM     34  O   UNL A   1      41.478  25.777  25.089  1.00  0.00    -0.269 OA
BRANCH  32  35
ATOM     35  C   UNL A   1      41.104  26.018  27.396  1.00  0.00     0.039 A 
ATOM     36  C   UNL A   1      42.200  26.830  27.702  1.00  0.00     0.014 A 
ATOM     37  C   UNL A   1      40.000  25.981  28.250  1.00  0.00     0.014 A 
ATOM     38  C   UNL A   1      42.144  27.680  28.812  1.00  0.00     0.010 A 
ATOM     39  C   UNL A   1      39.913  26.885  29.305  1.00  0.00     0.010 A 
ATOM     40  C   UNL A   1      40.978  27.753  29.590  1.00  0.00    -0.014 A 
BRANCH  40  41
ATOM     41  C   UNL A   1      40.837  28.751  30.683  1.00  0.00     0.031 A 
ATOM     42  C   UNL A   1      41.695  28.659  31.914  1.00  0.00     0.074 A 
ATOM     43  C   UNL A   1      39.867  29.684  30.609  1.00  0.00     0.049 A 
ATOM     44  N   UNL A   1      41.659  29.383  33.003  1.00  0.00    -0.248 NA
ATOM     45  C   UNL A   1      42.702  27.588  31.939  1.00  0.00     0.031 C 
ATOM     46  C   UNL A   1      38.918  29.833  29.504  1.00  0.00     0.029 A 
ATOM     47  N   UNL A   1      39.502  30.672  31.491  1.00  0.00    -0.354 N 
ATOM     48  C   UNL A   1      42.616  28.841  33.851  1.00  0.00     0.074 A 
ATOM     49  C   UNL A   1      43.183  27.698  33.169  1.00  0.00     0.031 C 
ATOM     50  C   UNL A   1      38.091  30.857  29.767  1.00  0.00     0.029 A 
ATOM     51  C   UNL A   1      38.428  31.419  31.071  1.00  0.00     0.049 A 
ATOM     52  H   UNL A   1      39.967  30.829  32.345  1.00  0.00     0.167 HD
ATOM     53  C   UNL A   1      43.002  29.267  35.080  1.00  0.00     0.037 A 
ATOM     54  C   UNL A   1      37.781  32.439  31.668  1.00  0.00     0.037 A 
ATOM     55  C   UNL A   1      42.458  30.425  35.739  1.00  0.00     0.049 A 
ATOM     56  C   UNL A   1      38.253  32.926  33.009  1.00  0.00     0.074 A 
ATOM     57  C   UNL A   1      42.846  30.993  36.940  1.00  0.00     0.029 A 
ATOM     58  N   UNL A   1      41.406  31.190  35.257  1.00  0.00    -0.354 N 
ATOM     59  N   UNL A   1      39.221  32.457  33.759  1.00  0.00    -0.248 NA
ATOM     60  C   UNL A   1      37.554  34.085  33.580  1.00  0.00     0.031 C 
ATOM     61  C   UNL A   1      42.003  32.079  37.203  1.00  0.00     0.029 A 
ATOM     62  C   UNL A   1      41.116  32.212  36.146  1.00  0.00     0.049 A 
ATOM     63  H   UNL A   1      40.934  31.029  34.408  1.00  0.00     0.167 HD
ATOM     64  C   UNL A   1      39.260  33.273  34.884  1.00  0.00     0.074 A 
ATOM     65  C   UNL A   1      38.226  34.273  34.709  1.00  0.00     0.031 C 
ATOM     66  C   UNL A   1      40.079  33.199  35.962  1.00  0.00     0.037 A 
BRANCH  53  67
ATOM     67  C   UNL A   1      44.063  28.467  35.783  1.00  0.00     0.058 A 
ATOM     68  C   UNL A   1      45.430  28.734  35.604  1.00  0.00     0.135 A 
ATOM     69  C   UNL A   1      43.710  27.415  36.644  1.00  0.00     0.135 A 
ATOM     70  F   UNL A   1      45.824  29.720  34.783  1.00  0.00    -0.206 F 
ATOM     71  C   UNL A   1      46.410  27.957  36.213  1.00  0.00     0.059 A 
ATOM     72  C   UNL A   1      44.674  26.642  37.286  1.00  0.00     0.059 A 
ATOM     73  F   UNL A   1      42.418  27.119  36.855  1.00  0.00    -0.206 F 
ATOM     74  C   UNL A   1      46.021  26.907  37.045  1.00  0.00     0.060 A 
BRANCH  74  75
ATOM     75  S   UNL A   1      47.301  25.883  37.801  1.00  0.00     0.124 S 
ATOM     76  O   UNL A   1      46.754  24.543  37.603  1.00  0.00    -0.237 OA
ATOM     77  O   UNL A   1      48.478  26.210  37.003  1.00  0.00    -0.237 OA
ATOM     78  O   UNL A   1      47.336  26.349  39.183  1.00  0.00    -0.744 OA
ENDBRANCH  74  75
ENDBRANCH  53  67
BRANCH  54  79
ATOM     79  C   UNL A   1      36.634  33.082  30.974  1.00  0.00     0.058 A 
ATOM     80  C   UNL A   1      35.321  32.887  31.425  1.00  0.00     0.135 A 
ATOM     81  C   UNL A   1      36.834  33.951  29.890  1.00  0.00     0.135 A 
ATOM     82  F   UNL A   1      35.081  32.061  32.454  1.00  0.00    -0.206 F 
ATOM     83  C   UNL A   1      34.242  33.534  30.828  1.00  0.00     0.059 A 
ATOM     84  C   UNL A   1      35.774  34.624  29.290  1.00  0.00     0.059 A 
ATOM     85  F   UNL A   1      38.074  34.182  29.433  1.00  0.00    -0.206 F 
ATOM     86  C   UNL A   1      34.481  34.409  29.767  1.00  0.00     0.060 A 
BRANCH  86  87
ATOM     87  S   UNL A   1      33.088  35.317  29.063  1.00  0.00     0.124 S 
ATOM     88  O   UNL A   1      32.238  35.505  30.234  1.00  0.00    -0.237 OA
ATOM     89  O   UNL A   1      33.735  36.518  28.544  1.00  0.00    -0.237 OA
ATOM     90  O   UNL A   1      32.572  34.405  28.047  1.00  0.00    -0.744 OA
ENDBRANCH  86  87
ENDBRANCH  54  79
BRANCH  66  91
ATOM     91  C   UNL A   1      39.906  34.238  37.034  1.00  0.00     0.058 A 
ATOM     92  C   UNL A   1      40.477  35.514  36.919  1.00  0.00     0.135 A 
ATOM     93  C   UNL A   1      39.115  33.972  38.163  1.00  0.00     0.135 A 
ATOM     94  F   UNL A   1      41.249  35.817  35.862  1.00  0.00    -0.206 F 
ATOM     95  C   UNL A   1      40.286  36.487  37.895  1.00  0.00     0.059 A 
ATOM     96  C   UNL A   1      38.890  34.937  39.140  1.00  0.00     0.059 A 
ATOM     97  F   UNL A   1      38.536  32.770  38.316  1.00  0.00    -0.206 F 
ATOM     98  C   UNL A   1      39.489  36.189  39.003  1.00  0.00     0.060 A 
BRANCH  98  99
ATOM     99  S   UNL A   1      39.217  37.469  40.246  1.00  0.00     0.124 S 
ATOM    100  O   UNL A   1      38.273  38.346  39.563  1.00  0.00    -0.237 OA
ATOM    101  O   UNL A   1      38.676  36.707  41.368  1.00  0.00    -0.237 OA
ATOM    102  O   UNL A   1      40.550  38.024  40.459  1.00  0.00    -0.744 OA
ENDBRANCH  98  99
ENDBRANCH  66  91
ENDBRANCH  40  41
ENDBRANCH  32  35
ENDBRANCH  30  31
ENDBRANCH  29  30
ENDBRANCH   1  29
TORSDOF 18
ENDMDL
MODEL 2
REMARK VINA RESULT:     -13.1      1.190      2.081
REMARK SMILES N#C/C(=C/c1ccc(-c2cccc(C(=O)NCCCCNC(=O)c3ccc(-c4c5nc(c(-c6c(F)cc(S(=O)(=O)[O-])cc6F)c6ccc([nH]6)c(-c6c(F)cc(S(=O)(=O)[O-])cc6F)c6nc(c(-c7c(F)cc(S(=O)(=O)[O-])cc7F)c7ccc4[nH]7)C=C6)C=C5)cc3)c2)o1)c1ccc(F)cc1
REMARK SMILES IDX 18 1 17 2 16 3 14 4 15 5 13 7 9 8 10 9 90 10 11 11 12 12
REMARK SMILES IDX 8 13 5 14 6 15 91 16 7 17 4 18 3 19 2 20 1 21 92 22 93 23
REMARK SMILES IDX 98 24 94 25 97 26 95 27 96 28 19 29 20 30 21 31 22 32 23 34
REMARK SMILES IDX 24 35 25 36 89 37 26 38 88 39 27 40 28 41 29 42 82 43 30 44
REMARK SMILES IDX 87 45 81 46 83 47 31 48 86 49 80 50 79 51 32 53 66 54 45 55
REMARK SMILES IDX 65 56 46 57 49 58 64 59 84 60 47 61 48 62 63 64 85 65 50 66
REMARK SMILES IDX 33 67 34 68 43 69 35 70 36 71 42 72 44 73 37 74 38 75 39 76
REMARK SMILES IDX 40 77 41 78 67 79 68 80 77 81 69 82 70 83 76 84 78 85 71 86
REMARK SMILES IDX 72 87 73 88 74 89 75 90 51 91 52 92 61 93 53 94 54 95 60 96
REMARK SMILES IDX 62 97 55 98 56 99 57 100 58 101 59 102
REMARK H PARENT 16 6 21 33 83 52 49 63
REMARK Flexibility Score: inf
ROOT
ATOM      1  C   UNL A   1      37.894  21.735  25.406  1.00  0.00     0.023 C 
ENDROOT
BRANCH   1   2
ATOM      2  C   UNL A   1      36.642  20.869  25.385  1.00  0.00     0.116 C 
BRANCH   2   3
ATOM      3  N   UNL A   1      35.598  21.248  26.329  1.00  0.00    -0.352 N 
ATOM      4  C   UNL A   1      34.275  21.597  26.124  1.00  0.00     0.251 C 
ATOM      5  O   UNL A   1      33.568  21.888  27.085  1.00  0.00    -0.269 OA
ATOM      6  H   UNL A   1      35.883  21.257  27.272  1.00  0.00     0.163 HD
BRANCH   4   7
ATOM      7  C   UNL A   1      33.706  21.694  24.754  1.00  0.00     0.040 A 
ATOM      8  C   UNL A   1      33.002  23.117  22.926  1.00  0.00     0.018 A 
ATOM      9  C   UNL A   1      32.188  22.088  22.444  1.00  0.00     0.012 A 
ATOM     10  C   UNL A   1      33.864  22.847  23.993  1.00  0.00     0.025 A 
ATOM     11  C   UNL A   1      32.188  20.840  23.078  1.00  0.00     0.002 A 
ATOM     12  C   UNL A   1      32.914  20.656  24.258  1.00  0.00     0.014 A 
BRANCH   8  13
ATOM     13  C   UNL A   1      32.870  24.508  22.511  1.00  0.00     0.134 A 
ATOM     14  C   UNL A   1      31.723  26.404  22.321  1.00  0.00     0.128 A 
ATOM     15  C   UNL A   1      33.078  26.705  22.208  1.00  0.00     0.051 A 
ATOM     16  O   UNL A   1      31.614  25.048  22.535  1.00  0.00    -0.457 OA
ATOM     17  C   UNL A   1      33.797  25.496  22.269  1.00  0.00     0.051 A 
BRANCH  14  18
ATOM     18  C   UNL A   1      30.607  27.283  22.183  1.00  0.00     0.067 C 
ATOM     19  C   UNL A   1      30.244  28.101  23.191  1.00  0.00     0.063 C 
BRANCH  19  20
ATOM     20  C   UNL A   1      28.992  28.959  23.120  1.00  0.00     0.100 C 
ATOM     21  N   UNL A   1      27.953  29.671  23.061  1.00  0.00    -0.192 NA
ENDBRANCH  19  20
BRANCH  19  22
ATOM     22  C   UNL A   1      31.024  28.236  24.460  1.00  0.00    -0.007 A 
ATOM     23  C   UNL A   1      31.936  29.294  24.639  1.00  0.00     0.012 A 
ATOM     24  C   UNL A   1      30.888  27.284  25.484  1.00  0.00     0.012 A 
ATOM     25  C   UNL A   1      32.746  29.354  25.776  1.00  0.00     0.040 A 
ATOM     26  C   UNL A   1      31.683  27.359  26.631  1.00  0.00     0.040 A 
ATOM     27  C   UNL A   1      32.615  28.383  26.759  1.00  0.00     0.123 A 
ATOM     28  F   UNL A   1      33.401  28.430  27.842  1.00  0.00    -0.207 F 
ENDBRANCH  19  22
ENDBRANCH  14  18
ENDBRANCH   8  13
ENDBRANCH   4   7
ENDBRANCH   2   3
ENDBRANCH   1   2
BRANCH   1  29
ATOM     29  C   UNL A   1      37.683  23.242  25.424  1.00  0.00     0.023 C 
BRANCH  29  30
ATOM     30  C   UNL A   1      38.528  24.034  26.416  1.00  0.00     0.116 C 
BRANCH  30  31
ATOM     31  N   UNL A   1      39.958  23.781  26.322  1.00  0.00    -0.352 N 
ATOM     32  C   UNL A   1      41.015  24.462  26.889  1.00  0.00     0.251 C 
ATOM     33  H   UNL A   1      40.209  23.005  25.769  1.00  0.00     0.163 HD
ATOM     34  O   UNL A   1      42.162  24.116  26.644  1.00  0.00    -0.269 OA
BRANCH  32  35
ATOM     35  C   UNL A   1      40.757  25.640  27.750  1.00  0.00     0.039 A 
ATOM     36  C   UNL A   1      39.660  25.611  28.616  1.00  0.00     0.014 A 
ATOM     37  C   UNL A   1      41.610  26.745  27.738  1.00  0.00     0.014 A 
ATOM     38  C   UNL A   1      39.481  26.645  29.541  1.00  0.00     0.010 A 
ATOM     39  C   UNL A   1      41.478  27.731  28.712  1.00  0.00     0.010 A 
ATOM     40  C   UNL A   1      40.419  27.685  29.632  1.00  0.00    -0.014 A 
BRANCH  40  41
ATOM     41  C   UNL A   1      40.333  28.714  30.701  1.00  0.00     0.031 A 
ATOM     42  C   UNL A   1      41.175  28.597  31.941  1.00  0.00     0.074 A 
ATOM     43  C   UNL A   1      39.423  29.703  30.600  1.00  0.00     0.049 A 
ATOM     44  N   UNL A   1      41.178  29.346  33.014  1.00  0.00    -0.248 NA
ATOM     45  C   UNL A   1      42.114  27.466  31.998  1.00  0.00     0.031 C 
ATOM     46  C   UNL A   1      38.492  29.886  29.484  1.00  0.00     0.029 A 
ATOM     47  N   UNL A   1      39.114  30.731  31.458  1.00  0.00    -0.354 N 
ATOM     48  C   UNL A   1      42.094  28.765  33.881  1.00  0.00     0.074 A 
ATOM     49  C   UNL A   1      42.593  27.573  33.229  1.00  0.00     0.031 C 
ATOM     50  C   UNL A   1      37.728  30.965  29.719  1.00  0.00     0.029 A 
ATOM     51  C   UNL A   1      38.091  31.534  31.013  1.00  0.00     0.049 A 
ATOM     52  H   UNL A   1      39.583  30.879  32.311  1.00  0.00     0.167 HD
ATOM     53  C   UNL A   1      42.498  29.193  35.102  1.00  0.00     0.037 A 
ATOM     54  C   UNL A   1      37.505  32.605  31.582  1.00  0.00     0.037 A 
ATOM     55  C   UNL A   1      42.023  30.397  35.732  1.00  0.00     0.049 A 
ATOM     56  C   UNL A   1      37.998  33.092  32.916  1.00  0.00     0.074 A 
ATOM     57  C   UNL A   1      42.437  30.967  36.923  1.00  0.00     0.029 A 
ATOM     58  N   UNL A   1      41.023  31.215  35.225  1.00  0.00    -0.354 N 
ATOM     59  N   UNL A   1      38.931  32.581  33.684  1.00  0.00    -0.248 NA
ATOM     60  C   UNL A   1      37.369  34.305  33.456  1.00  0.00     0.031 C 
ATOM     61  C   UNL A   1      41.662  32.109  37.155  1.00  0.00     0.029 A 
ATOM     62  C   UNL A   1      40.792  32.273  36.089  1.00  0.00     0.049 A 
ATOM     63  H   UNL A   1      40.547  31.065  34.376  1.00  0.00     0.167 HD
ATOM     64  C   UNL A   1      39.013  33.418  34.790  1.00  0.00     0.074 A 
ATOM     65  C   UNL A   1      38.044  34.476  34.585  1.00  0.00     0.031 C 
ATOM     66  C   UNL A   1      39.819  33.317  35.876  1.00  0.00     0.037 A 
BRANCH  53  67
ATOM     67  C   UNL A   1      43.503  28.345  35.831  1.00  0.00     0.058 A 
ATOM     68  C   UNL A   1      43.109  27.332  36.720  1.00  0.00     0.135 A 
ATOM     69  C   UNL A   1      44.880  28.551  35.642  1.00  0.00     0.135 A 
ATOM     70  F   UNL A   1      41.807  27.101  36.948  1.00  0.00    -0.206 F 
ATOM     71  C   UNL A   1      44.043  26.587  37.434  1.00  0.00     0.059 A 
ATOM     72  C   UNL A   1      45.831  27.797  36.324  1.00  0.00     0.059 A 
ATOM     73  F   UNL A   1      45.312  29.502  34.800  1.00  0.00    -0.206 F 
ATOM     74  C   UNL A   1      45.401  26.834  37.236  1.00  0.00     0.060 A 
BRANCH  74  75
ATOM     75  S   UNL A   1      46.601  25.885  38.194  1.00  0.00     0.124 S 
ATOM     76  O   UNL A   1      46.905  26.815  39.278  1.00  0.00    -0.237 OA
ATOM     77  O   UNL A   1      45.837  24.701  38.572  1.00  0.00    -0.237 OA
ATOM     78  O   UNL A   1      47.685  25.651  37.245  1.00  0.00    -0.744 OA
ENDBRANCH  74  75
ENDBRANCH  53  67
BRANCH  54  79
ATOM     79  C   UNL A   1      36.405  33.302  30.866  1.00  0.00     0.058 A 
ATOM     80  C   UNL A   1      35.081  33.208  31.316  1.00  0.00     0.135 A 
ATOM     81  C   UNL A   1      36.664  34.124  29.758  1.00  0.00     0.135 A 
ATOM     82  F   UNL A   1      34.784  32.429  32.368  1.00  0.00    -0.206 F 
ATOM     83  C   UNL A   1      34.049  33.907  30.698  1.00  0.00     0.059 A 
ATOM     84  C   UNL A   1      35.653  34.849  29.135  1.00  0.00     0.059 A 
ATOM     85  F   UNL A   1      37.917  34.259  29.299  1.00  0.00    -0.206 F 
ATOM     86  C   UNL A   1      34.347  34.733  29.612  1.00  0.00     0.060 A 
BRANCH  86  87
ATOM     87  S   UNL A   1      33.018  35.711  28.877  1.00  0.00     0.124 S 
ATOM     88  O   UNL A   1      32.286  36.150  30.060  1.00  0.00    -0.237 OA
ATOM     89  O   UNL A   1      33.758  36.747  28.163  1.00  0.00    -0.237 OA
ATOM     90  O   UNL A   1      32.326  34.749  28.026  1.00  0.00    -0.744 OA
ENDBRANCH  86  87
ENDBRANCH  54  79
BRANCH  66  91
ATOM     91  C   UNL A   1      39.704  34.389  36.924  1.00  0.00     0.058 A 
ATOM     92  C   UNL A   1      38.859  34.242  38.034  1.00  0.00     0.135 A 
ATOM     93  C   UNL A   1      40.487  35.552  36.843  1.00  0.00     0.135 A 
ATOM     94  F   UNL A   1      38.084  33.153  38.154  1.00  0.00    -0.206 F 
ATOM     95  C   UNL A   1      38.780  35.220  39.021  1.00  0.00     0.059 A 
ATOM     96  C   UNL A   1      40.442  36.532  37.829  1.00  0.00     0.059 A 
ATOM     97  F   UNL A   1      41.319  35.736  35.806  1.00  0.00    -0.206 F 
ATOM     98  C   UNL A   1      39.577  36.362  38.910  1.00  0.00     0.060 A 
BRANCH  98  99
ATOM     99  S   UNL A   1      39.494  37.608  40.214  1.00  0.00     0.124 S 
ATOM    100  O   UNL A   1      40.784  38.274  40.066  1.00  0.00    -0.237 OA
ATOM    101  O   UNL A   1      38.327  38.394  39.823  1.00  0.00    -0.237 OA
ATOM    102  O   UNL A   1      39.330  36.817  41.429  1.00  0.00    -0.744 OA
ENDBRANCH  98  99
ENDBRANCH  66  91
ENDBRANCH  40  41
ENDBRANCH  32  35
ENDBRANCH  30  31
ENDBRANCH  29  30
ENDBRANCH   1  29
TORSDOF 18
ENDMDL
MODEL 3
REMARK VINA RESULT:     -12.8      2.777      3.676
REMARK SMILES N#C/C(=C/c1ccc(-c2cccc(C(=O)NCCCCNC(=O)c3ccc(-c4c5nc(c(-c6c(F)cc(S(=O)(=O)[O-])cc6F)c6ccc([nH]6)c(-c6c(F)cc(S(=O)(=O)[O-])cc6F)c6nc(c(-c7c(F)cc(S(=O)(=O)[O-])cc7F)c7ccc4[nH]7)C=C6)C=C5)cc3)c2)o1)c1ccc(F)cc1
REMARK SMILES IDX 18 1 17 2 16 3 14 4 15 5 13 7 9 8 10 9 90 10 11 11 12 12
REMARK SMILES IDX 8 13 5 14 6 15 91 16 7 17 4 18 3 19 2 20 1 21 92 22 93 23
REMARK SMILES IDX 98 24 94 25 97 26 95 27 96 28 19 29 20 30 21 31 22 32 23 34
REMARK SMILES IDX 24 35 25 36 89 37 26 38 88 39 27 40 28 41 29 42 82 43 30 44
REMARK SMILES IDX 87 45 81 46 83 47 31 48 86 49 80 50 79 51 32 53 66 54 45 55
REMARK SMILES IDX 65 56 46 57 49 58 64 59 84 60 47 61 48 62 63 64 85 65 50 66
REMARK SMILES IDX 33 67 34 68 43 69 35 70 36 71 42 72 44 73 37 74 38 75 39 76
REMARK SMILES IDX 40 77 41 78 67 79 68 80 77 81 69 82 70 83 76 84 78 85 71 86
REMARK SMILES IDX 72 87 73 88 74 89 75 90 51 91 52 92 61 93 53 94 54 95 60 96
REMARK SMILES IDX 62 97 55 98 56 99 57 100 58 101 59 102
REMARK H PARENT 16 6 21 33 83 52 49 63
REMARK Flexibility Score: inf
ROOT
ATOM      1  C   UNL A   1      36.355  21.553  24.149  1.00  0.00     0.023 C 
ENDROOT
BRANCH   1   2
ATOM      2  C   UNL A   1      36.095  20.477  25.194  1.00  0.00     0.116 C 
BRANCH   2   3
ATOM      3  N   UNL A   1      34.973  19.588  24.916  1.00  0.00    -0.352 N 
ATOM      4  C   UNL A   1      33.608  19.804  24.987  1.00  0.00     0.251 C 
ATOM      5  O   UNL A   1      32.833  18.892  24.707  1.00  0.00    -0.269 OA
ATOM      6  H   UNL A   1      35.230  18.681  24.631  1.00  0.00     0.163 HD
BRANCH   4   7
ATOM      7  C   UNL A   1      33.055  21.099  25.463  1.00  0.00     0.040 A 
ATOM      8  C   UNL A   1      32.338  23.345  24.913  1.00  0.00     0.018 A 
ATOM      9  C   UNL A   1      32.533  23.729  26.243  1.00  0.00     0.012 A 
ATOM     10  C   UNL A   1      32.461  21.993  24.580  1.00  0.00     0.025 A 
ATOM     11  C   UNL A   1      32.921  22.780  27.196  1.00  0.00     0.002 A 
ATOM     12  C   UNL A   1      33.225  21.475  26.798  1.00  0.00     0.014 A 
BRANCH   8  13
ATOM     13  C   UNL A   1      32.202  24.293  23.815  1.00  0.00     0.134 A 
ATOM     14  C   UNL A   1      31.538  26.239  22.965  1.00  0.00     0.128 A 
ATOM     15  C   UNL A   1      32.526  25.718  22.133  1.00  0.00     0.051 A 
ATOM     16  O   UNL A   1      31.370  25.359  24.012  1.00  0.00    -0.457 OA
ATOM     17  C   UNL A   1      32.901  24.460  22.640  1.00  0.00     0.051 A 
BRANCH  14  18
ATOM     18  C   UNL A   1      30.762  27.422  22.784  1.00  0.00     0.067 C 
ATOM     19  C   UNL A   1      30.860  28.451  23.649  1.00  0.00     0.063 C 
BRANCH  19  20
ATOM     20  C   UNL A   1      29.961  29.673  23.552  1.00  0.00     0.100 C 
ATOM     21  N   UNL A   1      29.216  30.687  23.472  1.00  0.00    -0.192 NA
ENDBRANCH  19  20
BRANCH  19  22
ATOM     22  C   UNL A   1      31.844  28.486  24.774  1.00  0.00    -0.007 A 
ATOM     23  C   UNL A   1      31.441  28.214  26.097  1.00  0.00     0.012 A 
ATOM     24  C   UNL A   1      33.185  28.832  24.538  1.00  0.00     0.012 A 
ATOM     25  C   UNL A   1      32.334  28.360  27.160  1.00  0.00     0.040 A 
ATOM     26  C   UNL A   1      34.083  28.955  25.602  1.00  0.00     0.040 A 
ATOM     27  C   UNL A   1      33.646  28.734  26.903  1.00  0.00     0.123 A 
ATOM     28  F   UNL A   1      34.500  28.888  27.923  1.00  0.00    -0.207 F 
ENDBRANCH  19  22
ENDBRANCH  14  18
ENDBRANCH   8  13
ENDBRANCH   4   7
ENDBRANCH   2   3
ENDBRANCH   1   2
BRANCH   1  29
ATOM     29  C   UNL A   1      36.099  22.992  24.572  1.00  0.00     0.023 C 
BRANCH  29  30
ATOM     30  C   UNL A   1      37.176  23.652  25.425  1.00  0.00     0.116 C 
BRANCH  30  31
ATOM     31  N   UNL A   1      38.381  22.852  25.591  1.00  0.00    -0.352 N 
ATOM     32  C   UNL A   1      39.562  23.158  26.235  1.00  0.00     0.251 C 
ATOM     33  H   UNL A   1      38.348  21.957  25.182  1.00  0.00     0.163 HD
ATOM     34  O   UNL A   1      40.487  22.358  26.219  1.00  0.00    -0.269 OA
BRANCH  32  35
ATOM     35  C   UNL A   1      39.723  24.474  26.897  1.00  0.00     0.039 A 
ATOM     36  C   UNL A   1      39.222  24.638  28.192  1.00  0.00     0.014 A 
ATOM     37  C   UNL A   1      40.398  25.522  26.270  1.00  0.00     0.014 A 
ATOM     38  C   UNL A   1      39.489  25.819  28.894  1.00  0.00     0.010 A 
ATOM     39  C   UNL A   1      40.732  26.662  26.997  1.00  0.00     0.010 A 
ATOM     40  C   UNL A   1      40.292  26.817  28.321  1.00  0.00    -0.014 A 
BRANCH  40  41
ATOM     41  C   UNL A   1      40.714  28.013  29.097  1.00  0.00     0.031 A 
ATOM     42  C   UNL A   1      42.050  28.042  29.785  1.00  0.00     0.074 A 
ATOM     43  C   UNL A   1      39.850  29.034  29.264  1.00  0.00     0.049 A 
ATOM     44  N   UNL A   1      42.555  28.957  30.573  1.00  0.00    -0.248 NA
ATOM     45  C   UNL A   1      42.919  26.872  29.591  1.00  0.00     0.031 C 
ATOM     46  C   UNL A   1      38.495  29.096  28.713  1.00  0.00     0.029 A 
ATOM     47  N   UNL A   1      39.975  30.210  29.964  1.00  0.00    -0.354 N 
ATOM     48  C   UNL A   1      43.785  28.463  30.988  1.00  0.00     0.074 A 
ATOM     49  C   UNL A   1      43.929  27.147  30.404  1.00  0.00     0.031 C 
ATOM     50  C   UNL A   1      37.920  30.251  29.083  1.00  0.00     0.029 A 
ATOM     51  C   UNL A   1      38.850  31.000  29.922  1.00  0.00     0.049 A 
ATOM     52  H   UNL A   1      40.793  30.463  30.449  1.00  0.00     0.167 HD
ATOM     53  C   UNL A   1      44.719  29.058  31.771  1.00  0.00     0.037 A 
ATOM     54  C   UNL A   1      38.592  32.190  30.499  1.00  0.00     0.037 A 
ATOM     55  C   UNL A   1      44.585  30.381  32.322  1.00  0.00     0.049 A 
ATOM     56  C   UNL A   1      39.657  32.854  31.325  1.00  0.00     0.074 A 
ATOM     57  C   UNL A   1      45.511  31.110  33.048  1.00  0.00     0.029 A 
ATOM     58  N   UNL A   1      43.451  31.173  32.213  1.00  0.00    -0.354 N 
ATOM     59  N   UNL A   1      40.852  32.412  31.635  1.00  0.00    -0.248 NA
ATOM     60  C   UNL A   1      39.345  34.182  31.870  1.00  0.00     0.031 C 
ATOM     61  C   UNL A   1      44.924  32.327  33.411  1.00  0.00     0.029 A 
ATOM     62  C   UNL A   1      43.645  32.374  32.877  1.00  0.00     0.049 A 
ATOM     63  H   UNL A   1      42.628  30.919  31.736  1.00  0.00     0.167 HD
ATOM     64  C   UNL A   1      41.442  33.413  32.397  1.00  0.00     0.074 A 
ATOM     65  C   UNL A   1      40.476  34.489  32.491  1.00  0.00     0.031 C 
ATOM     66  C   UNL A   1      42.673  33.436  32.968  1.00  0.00     0.037 A 
BRANCH  53  67
ATOM     67  C   UNL A   1      45.965  28.273  32.073  1.00  0.00     0.058 A 
ATOM     68  C   UNL A   1      47.079  28.297  31.219  1.00  0.00     0.135 A 
ATOM     69  C   UNL A   1      46.045  27.480  33.231  1.00  0.00     0.135 A 
ATOM     70  F   UNL A   1      47.052  29.027  30.094  1.00  0.00    -0.206 F 
ATOM     71  C   UNL A   1      48.208  27.525  31.474  1.00  0.00     0.059 A 
ATOM     72  C   UNL A   1      47.176  26.723  33.520  1.00  0.00     0.059 A 
ATOM     73  F   UNL A   1      45.011  27.424  34.084  1.00  0.00    -0.206 F 
ATOM     74  C   UNL A   1      48.243  26.734  32.623  1.00  0.00     0.060 A 
BRANCH  74  75
ATOM     75  S   UNL A   1      49.699  25.711  32.924  1.00  0.00     0.124 S 
ATOM     76  O   UNL A   1      50.634  26.692  33.467  1.00  0.00    -0.237 OA
ATOM     77  O   UNL A   1      49.198  24.721  33.872  1.00  0.00    -0.237 OA
ATOM     78  O   UNL A   1      50.031  25.193  31.600  1.00  0.00    -0.744 OA
ENDBRANCH  74  75
ENDBRANCH  53  67
BRANCH  54  79
ATOM     79  C   UNL A   1      37.271  32.835  30.279  1.00  0.00     0.058 A 
ATOM     80  C   UNL A   1      36.236  32.689  31.213  1.00  0.00     0.135 A 
ATOM     81  C   UNL A   1      37.040  33.660  29.166  1.00  0.00     0.135 A 
ATOM     82  F   UNL A   1      36.409  31.907  32.289  1.00  0.00    -0.206 F 
ATOM     83  C   UNL A   1      35.016  33.341  31.056  1.00  0.00     0.059 A 
ATOM     84  C   UNL A   1      35.837  34.337  28.998  1.00  0.00     0.059 A 
ATOM     85  F   UNL A   1      38.006  33.843  28.254  1.00  0.00    -0.206 F 
ATOM     86  C   UNL A   1      34.830  34.171  29.949  1.00  0.00     0.060 A 
BRANCH  86  87
ATOM     87  S   UNL A   1      33.281  35.088  29.806  1.00  0.00     0.124 S 
ATOM     88  O   UNL A   1      32.557  34.292  28.820  1.00  0.00    -0.237 OA
ATOM     89  O   UNL A   1      32.765  35.036  31.171  1.00  0.00    -0.237 OA
ATOM     90  O   UNL A   1      33.713  36.408  29.359  1.00  0.00    -0.744 OA
ENDBRANCH  86  87
ENDBRANCH  54  79
BRANCH  66  91
ATOM     91  C   UNL A   1      43.057  34.672  33.731  1.00  0.00     0.058 A 
ATOM     92  C   UNL A   1      42.804  34.794  35.106  1.00  0.00     0.135 A 
ATOM     93  C   UNL A   1      43.733  35.723  33.092  1.00  0.00     0.135 A 
ATOM     94  F   UNL A   1      42.154  33.820  35.763  1.00  0.00    -0.206 F 
ATOM     95  C   UNL A   1      43.192  35.924  35.819  1.00  0.00     0.059 A 
ATOM     96  C   UNL A   1      44.151  36.853  33.789  1.00  0.00     0.059 A 
ATOM     97  F   UNL A   1      44.008  35.652  31.780  1.00  0.00    -0.206 F 
ATOM     98  C   UNL A   1      43.866  36.949  35.151  1.00  0.00     0.060 A 
BRANCH  98  99
ATOM     99  S   UNL A   1      44.397  38.396  36.091  1.00  0.00     0.124 S 
ATOM    100  O   UNL A   1      45.847  38.232  36.088  1.00  0.00    -0.237 OA
ATOM    101  O   UNL A   1      43.883  39.500  35.286  1.00  0.00    -0.237 OA
ATOM    102  O   UNL A   1      43.747  38.216  37.385  1.00  0.00    -0.744 OA
ENDBRANCH  98  99
ENDBRANCH  66  91
ENDBRANCH  40  41
ENDBRANCH  32  35
ENDBRANCH  30  31
ENDBRANCH  29  30
ENDBRANCH   1  29
TORSDOF 18
ENDMDL
