MODEL 1
REMARK VINA RESULT:     -13.2      0.000      0.000
REMARK SMILES O=C(CCN1C(=O)/C(=C2/C(=O)N(Cc3ccccc3)c3ccccc32)SC1=S)NCCCCNC(=O)c1ccc(-c2c3nc(c(-c4c(F)cc(S(=O)(=O)[O-])cc4F)c4ccc([nH]4)c(-c4c(F)cc(S(=O)(=O)[O-])cc4F)c4nc(c(-c5c(F)cc(S(=O)(=O)[O-])cc5F)c5ccc2[nH]5)C=C4)C=C3)cc1
REMARK SMILES IDX 31 1 30 2 29 3 1 4 2 5 3 7 4 8 5 9 6 10 27 11 7 12 8 13
REMARK SMILES IDX 26 14 28 15 9 16 10 17 25 18 11 19 12 20 20 21 24 22 21 23
REMARK SMILES IDX 23 24 22 25 13 26 14 27 15 28 19 29 16 30 18 31 17 32 32 33
REMARK SMILES IDX 33 34 34 35 35 36 36 38 37 39 38 40 102 41 39 42 101 43
REMARK SMILES IDX 40 44 41 45 42 46 95 47 43 48 100 49 94 50 96 51 44 52 99 53
REMARK SMILES IDX 93 54 92 55 45 57 79 58 58 59 78 60 59 61 62 62 77 63 97 64
REMARK SMILES IDX 60 65 61 66 76 68 98 69 63 70 46 71 47 72 56 73 48 74 49 75
REMARK SMILES IDX 55 76 57 77 50 78 51 79 52 80 53 81 54 82 80 83 81 84 90 85
REMARK SMILES IDX 82 86 83 87 89 88 91 89 84 90 85 91 86 92 87 93 88 94 64 95
REMARK SMILES IDX 65 96 74 97 66 98 67 99 73 100 75 101 68 102 69 103 70 104
REMARK SMILES IDX 71 105 72 106
REMARK H PARENT 29 6 34 37 96 56 62 67
REMARK Flexibility Score: inf
ROOT
ATOM      1  C   UNL A   1      33.698  28.959  27.506  1.00  0.00     0.023 C 
ENDROOT
BRANCH   1   2
ATOM      2  C   UNL A   1      32.729  29.757  26.635  1.00  0.00     0.116 C 
BRANCH   2   3
ATOM      3  N   UNL A   1      32.924  29.479  25.227  1.00  0.00    -0.356 N 
ATOM      4  O   UNL A   1      30.744  29.807  24.604  1.00  0.00    -0.275 OA
ATOM      5  C   UNL A   1      31.899  29.501  24.319  1.00  0.00     0.221 C 
ATOM      6  H   UNL A   1      33.831  29.266  24.909  1.00  0.00     0.163 HD
BRANCH   5   7
ATOM      7  C   UNL A   1      32.256  28.997  22.942  1.00  0.00     0.122 C 
BRANCH   7   8
ATOM      8  C   UNL A   1      32.110  27.496  22.718  1.00  0.00     0.137 C 
BRANCH   8   9
ATOM      9  N   UNL A   1      31.790  26.610  23.851  1.00  0.00    -0.292 N 
ATOM     10  C   UNL A   1      32.850  25.939  24.449  1.00  0.00     0.267 C 
ATOM     11  C   UNL A   1      30.540  26.182  24.250  1.00  0.00     0.148 C 
ATOM     12  O   UNL A   1      33.990  26.373  24.525  1.00  0.00    -0.268 OA
ATOM     13  C   UNL A   1      32.377  24.666  25.058  1.00  0.00     0.093 C 
ATOM     14  S   UNL A   1      30.719  24.928  25.470  1.00  0.00    -0.053 SA
ATOM     15  S   UNL A   1      29.045  26.684  23.723  1.00  0.00    -0.052 S 
ATOM     16  C   UNL A   1      33.060  23.509  25.118  1.00  0.00     0.069 C 
ATOM     17  C   UNL A   1      32.494  22.228  25.708  1.00  0.00     0.260 C 
ATOM     18  C   UNL A   1      34.416  23.171  24.638  1.00  0.00     0.012 A 
ATOM     19  O   UNL A   1      31.374  22.061  26.152  1.00  0.00    -0.269 OA
ATOM     20  N   UNL A   1      33.516  21.289  25.617  1.00  0.00    -0.303 N 
ATOM     21  C   UNL A   1      34.667  21.853  25.044  1.00  0.00     0.052 A 
ATOM     22  C   UNL A   1      35.360  23.830  23.864  1.00  0.00     0.011 A 
ATOM     23  C   UNL A   1      35.895  21.247  24.832  1.00  0.00     0.027 A 
ATOM     24  C   UNL A   1      36.575  23.198  23.576  1.00  0.00     0.001 A 
ATOM     25  C   UNL A   1      36.851  21.924  24.079  1.00  0.00     0.002 A 
BRANCH  20  26
ATOM     26  C   UNL A   1      33.352  19.886  25.966  1.00  0.00     0.161 C 
BRANCH  26  27
ATOM     27  C   UNL A   1      33.367  18.948  24.767  1.00  0.00    -0.028 A 
ATOM     28  C   UNL A   1      34.306  17.910  24.656  1.00  0.00     0.005 A 
ATOM     29  C   UNL A   1      32.415  19.080  23.743  1.00  0.00     0.005 A 
ATOM     30  C   UNL A   1      34.318  17.050  23.555  1.00  0.00     0.000 A 
ATOM     31  C   UNL A   1      32.411  18.203  22.652  1.00  0.00     0.000 A 
ATOM     32  C   UNL A   1      33.366  17.194  22.553  1.00  0.00     0.000 A 
ENDBRANCH  26  27
ENDBRANCH  20  26
ENDBRANCH   8   9
ENDBRANCH   7   8
ENDBRANCH   5   7
ENDBRANCH   2   3
ENDBRANCH   1   2
BRANCH   1  33
ATOM     33  C   UNL A   1      35.176  29.315  27.325  1.00  0.00     0.023 C 
BRANCH  33  34
ATOM     34  C   UNL A   1      35.652  30.539  28.097  1.00  0.00     0.116 C 
BRANCH  34  35
ATOM     35  N   UNL A   1      35.527  30.392  29.539  1.00  0.00    -0.352 N 
ATOM     36  C   UNL A   1      36.495  30.097  30.474  1.00  0.00     0.251 C 
ATOM     37  H   UNL A   1      34.620  30.524  29.899  1.00  0.00     0.163 HD
ATOM     38  O   UNL A   1      36.177  29.892  31.642  1.00  0.00    -0.269 OA
BRANCH  36  39
ATOM     39  C   UNL A   1      37.911  29.979  30.056  1.00  0.00     0.039 A 
ATOM     40  C   UNL A   1      38.293  30.236  28.738  1.00  0.00     0.014 A 
ATOM     41  C   UNL A   1      38.863  29.562  30.990  1.00  0.00     0.014 A 
ATOM     42  C   UNL A   1      39.570  29.889  28.311  1.00  0.00     0.010 A 
ATOM     43  C   UNL A   1      40.175  29.305  30.578  1.00  0.00     0.010 A 
ATOM     44  C   UNL A   1      40.525  29.408  29.222  1.00  0.00    -0.014 A 
BRANCH  44  45
ATOM     45  C   UNL A   1      41.868  28.994  28.731  1.00  0.00     0.031 A 
ATOM     46  C   UNL A   1      43.031  29.953  28.767  1.00  0.00     0.074 A 
ATOM     47  C   UNL A   1      42.057  27.728  28.310  1.00  0.00     0.049 A 
ATOM     48  N   UNL A   1      44.273  29.762  28.397  1.00  0.00    -0.248 NA
ATOM     49  C   UNL A   1      42.765  31.308  29.278  1.00  0.00     0.031 C 
ATOM     50  C   UNL A   1      41.020  26.698  28.249  1.00  0.00     0.029 A 
ATOM     51  N   UNL A   1      43.191  27.082  27.885  1.00  0.00    -0.354 N 
ATOM     52  C   UNL A   1      44.933  30.964  28.627  1.00  0.00     0.074 A 
ATOM     53  C   UNL A   1      43.942  31.897  29.120  1.00  0.00     0.031 C 
ATOM     54  C   UNL A   1      41.575  25.537  27.871  1.00  0.00     0.029 A 
ATOM     55  C   UNL A   1      42.992  25.752  27.600  1.00  0.00     0.049 A 
ATOM     56  H   UNL A   1      44.064  27.530  27.792  1.00  0.00     0.167 HD
ATOM     57  C   UNL A   1      46.246  31.258  28.466  1.00  0.00     0.037 A 
ATOM     58  C   UNL A   1      43.851  24.811  27.163  1.00  0.00     0.037 A 
ATOM     59  C   UNL A   1      47.233  30.323  27.988  1.00  0.00     0.049 A 
ATOM     60  C   UNL A   1      45.286  25.181  26.919  1.00  0.00     0.074 A 
ATOM     61  C   UNL A   1      48.587  30.527  27.788  1.00  0.00     0.029 A 
ATOM     62  N   UNL A   1      46.973  29.005  27.638  1.00  0.00    -0.354 N 
ATOM     63  N   UNL A   1      45.889  26.326  27.129  1.00  0.00    -0.248 NA
ATOM     64  C   UNL A   1      46.156  24.134  26.366  1.00  0.00     0.031 C 
ATOM     65  C   UNL A   1      49.137  29.348  27.273  1.00  0.00     0.029 A 
ATOM     66  C   UNL A   1      48.137  28.392  27.201  1.00  0.00     0.049 A 
ATOM     67  H   UNL A   1      46.092  28.570  27.693  1.00  0.00     0.167 HD
ATOM     68  C   UNL A   1      47.212  26.135  26.750  1.00  0.00     0.074 A 
ATOM     69  C   UNL A   1      47.325  24.758  26.312  1.00  0.00     0.031 C 
ATOM     70  C   UNL A   1      48.238  27.021  26.761  1.00  0.00     0.037 A 
BRANCH  57  71
ATOM     71  C   UNL A   1      46.695  32.656  28.805  1.00  0.00     0.058 A 
ATOM     72  C   UNL A   1      47.129  32.999  30.097  1.00  0.00     0.135 A 
ATOM     73  C   UNL A   1      46.723  33.659  27.823  1.00  0.00     0.135 A 
ATOM     74  F   UNL A   1      47.111  32.085  31.080  1.00  0.00    -0.206 F 
ATOM     75  C   UNL A   1      47.540  34.291  30.409  1.00  0.00     0.059 A 
ATOM     76  C   UNL A   1      47.157  34.952  28.106  1.00  0.00     0.059 A 
ATOM     77  F   UNL A   1      46.323  33.389  26.570  1.00  0.00    -0.206 F 
ATOM     78  C   UNL A   1      47.549  35.262  29.407  1.00  0.00     0.060 A 
BRANCH  78  79
ATOM     79  S   UNL A   1      48.072  36.936  29.835  1.00  0.00     0.124 S 
ATOM     80  O   UNL A   1      47.259  37.202  31.019  1.00  0.00    -0.237 OA
ATOM     81  O   UNL A   1      49.501  36.765  30.074  1.00  0.00    -0.237 OA
ATOM     82  O   UNL A   1      47.726  37.717  28.650  1.00  0.00    -0.744 OA
ENDBRANCH  78  79
ENDBRANCH  57  71
BRANCH  58  83
ATOM     83  C   UNL A   1      43.365  23.422  26.948  1.00  0.00     0.058 A 
ATOM     84  C   UNL A   1      43.080  22.955  25.657  1.00  0.00     0.135 A 
ATOM     85  C   UNL A   1      43.233  22.521  28.017  1.00  0.00     0.135 A 
ATOM     86  F   UNL A   1      43.187  23.781  24.605  1.00  0.00    -0.206 F 
ATOM     87  C   UNL A   1      42.685  21.641  25.431  1.00  0.00     0.059 A 
ATOM     88  C   UNL A   1      42.868  21.194  27.812  1.00  0.00     0.059 A 
ATOM     89  F   UNL A   1      43.508  22.917  29.269  1.00  0.00    -0.206 F 
ATOM     90  C   UNL A   1      42.595  20.765  26.514  1.00  0.00     0.060 A 
BRANCH  90  91
ATOM     91  S   UNL A   1      42.173  19.039  26.190  1.00  0.00     0.124 S 
ATOM     92  O   UNL A   1      42.417  18.427  27.491  1.00  0.00    -0.237 OA
ATOM     93  O   UNL A   1      40.774  19.142  25.784  1.00  0.00    -0.237 OA
ATOM     94  O   UNL A   1      43.100  18.659  25.128  1.00  0.00    -0.744 OA
ENDBRANCH  90  91
ENDBRANCH  58  83
BRANCH  70  95
ATOM     95  C   UNL A   1      49.583  26.534  26.297  1.00  0.00     0.058 A 
ATOM     96  C   UNL A   1      50.027  26.747  24.983  1.00  0.00     0.135 A 
ATOM     97  C   UNL A   1      50.464  25.906  27.193  1.00  0.00     0.135 A 
ATOM     98  F   UNL A   1      49.221  27.334  24.084  1.00  0.00    -0.206 F 
ATOM     99  C   UNL A   1      51.292  26.343  24.569  1.00  0.00     0.059 A 
ATOM    100  C   UNL A   1      51.744  25.518  26.807  1.00  0.00     0.059 A 
ATOM    101  F   UNL A   1      50.092  25.684  28.464  1.00  0.00    -0.206 F 
ATOM    102  C   UNL A   1      52.146  25.734  25.491  1.00  0.00     0.060 A 
BRANCH 102 103
ATOM    103  S   UNL A   1      53.799  25.255  24.947  1.00  0.00     0.124 S 
ATOM    104  O   UNL A   1      54.631  25.795  26.019  1.00  0.00    -0.237 OA
ATOM    105  O   UNL A   1      53.700  23.800  24.894  1.00  0.00    -0.237 OA
ATOM    106  O   UNL A   1      53.939  25.917  23.653  1.00  0.00    -0.744 OA
ENDBRANCH 102 103
ENDBRANCH  70  95
ENDBRANCH  44  45
ENDBRANCH  36  39
ENDBRANCH  34  35
ENDBRANCH  33  34
ENDBRANCH   1  33
TORSDOF 18
ENDMDL
MODEL 2
REMARK VINA RESULT:     -12.9      1.598      2.759
REMARK SMILES O=C(CCN1C(=O)/C(=C2/C(=O)N(Cc3ccccc3)c3ccccc32)SC1=S)NCCCCNC(=O)c1ccc(-c2c3nc(c(-c4c(F)cc(S(=O)(=O)[O-])cc4F)c4ccc([nH]4)c(-c4c(F)cc(S(=O)(=O)[O-])cc4F)c4nc(c(-c5c(F)cc(S(=O)(=O)[O-])cc5F)c5ccc2[nH]5)C=C4)C=C3)cc1
REMARK SMILES IDX 31 1 30 2 29 3 1 4 2 5 3 7 4 8 5 9 6 10 27 11 7 12 8 13
REMARK SMILES IDX 26 14 28 15 9 16 10 17 25 18 11 19 12 20 20 21 24 22 21 23
REMARK SMILES IDX 23 24 22 25 13 26 14 27 15 28 19 29 16 30 18 31 17 32 32 33
REMARK SMILES IDX 33 34 34 35 35 36 36 38 37 39 38 40 102 41 39 42 101 43
REMARK SMILES IDX 40 44 41 45 42 46 95 47 43 48 100 49 94 50 96 51 44 52 99 53
REMARK SMILES IDX 93 54 92 55 45 57 79 58 58 59 78 60 59 61 62 62 77 63 97 64
REMARK SMILES IDX 60 65 61 66 76 68 98 69 63 70 46 71 47 72 56 73 48 74 49 75
REMARK SMILES IDX 55 76 57 77 50 78 51 79 52 80 53 81 54 82 80 83 81 84 90 85
REMARK SMILES IDX 82 86 83 87 89 88 91 89 84 90 85 91 86 92 87 93 88 94 64 95
REMARK SMILES IDX 65 96 74 97 66 98 67 99 73 100 75 101 68 102 69 103 70 104
REMARK SMILES IDX 71 105 72 106
REMARK H PARENT 29 6 34 37 96 56 62 67
REMARK Flexibility Score: inf
ROOT
ATOM      1  C   UNL A   1      34.437  32.035  28.080  1.00  0.00     0.023 C 
ENDROOT
BRANCH   1   2
ATOM      2  C   UNL A   1      34.471  30.707  27.326  1.00  0.00     0.116 C 
BRANCH   2   3
ATOM      3  N   UNL A   1      33.195  30.023  27.393  1.00  0.00    -0.356 N 
ATOM      4  O   UNL A   1      33.968  27.984  26.690  1.00  0.00    -0.275 OA
ATOM      5  C   UNL A   1      33.040  28.709  27.041  1.00  0.00     0.221 C 
ATOM      6  H   UNL A   1      32.407  30.524  27.706  1.00  0.00     0.163 HD
BRANCH   5   7
ATOM      7  C   UNL A   1      31.611  28.226  26.991  1.00  0.00     0.122 C 
BRANCH   7   8
ATOM      8  C   UNL A   1      30.976  28.154  25.607  1.00  0.00     0.137 C 
BRANCH   8   9
ATOM      9  N   UNL A   1      31.573  27.301  24.564  1.00  0.00    -0.292 N 
ATOM     10  C   UNL A   1      31.567  25.929  24.789  1.00  0.00     0.267 C 
ATOM     11  C   UNL A   1      32.345  27.705  23.495  1.00  0.00     0.148 C 
ATOM     12  O   UNL A   1      30.707  25.334  25.420  1.00  0.00    -0.268 OA
ATOM     13  C   UNL A   1      32.706  25.287  24.078  1.00  0.00     0.093 C 
ATOM     14  S   UNL A   1      33.038  26.291  22.712  1.00  0.00    -0.053 SA
ATOM     15  S   UNL A   1      32.655  29.247  22.952  1.00  0.00    -0.052 S 
ATOM     16  C   UNL A   1      33.424  24.234  24.511  1.00  0.00     0.069 C 
ATOM     17  C   UNL A   1      34.612  23.660  23.758  1.00  0.00     0.260 C 
ATOM     18  C   UNL A   1      33.300  23.433  25.746  1.00  0.00     0.012 A 
ATOM     19  O   UNL A   1      35.092  24.079  22.721  1.00  0.00    -0.269 OA
ATOM     20  N   UNL A   1      35.043  22.571  24.509  1.00  0.00    -0.303 N 
ATOM     21  C   UNL A   1      34.239  22.397  25.647  1.00  0.00     0.052 A 
ATOM     22  C   UNL A   1      32.552  23.556  26.907  1.00  0.00     0.011 A 
ATOM     23  C   UNL A   1      34.329  21.400  26.605  1.00  0.00     0.027 A 
ATOM     24  C   UNL A   1      32.689  22.598  27.919  1.00  0.00     0.001 A 
ATOM     25  C   UNL A   1      33.554  21.513  27.757  1.00  0.00     0.002 A 
BRANCH  20  26
ATOM     26  C   UNL A   1      36.240  21.805  24.199  1.00  0.00     0.161 C 
BRANCH  26  27
ATOM     27  C   UNL A   1      37.439  22.158  25.070  1.00  0.00    -0.028 A 
ATOM     28  C   UNL A   1      37.606  23.445  25.605  1.00  0.00     0.005 A 
ATOM     29  C   UNL A   1      38.404  21.189  25.385  1.00  0.00     0.005 A 
ATOM     30  C   UNL A   1      38.706  23.767  26.404  1.00  0.00     0.000 A 
ATOM     31  C   UNL A   1      39.493  21.504  26.207  1.00  0.00     0.000 A 
ATOM     32  C   UNL A   1      39.650  22.794  26.709  1.00  0.00     0.000 A 
ENDBRANCH  26  27
ENDBRANCH  20  26
ENDBRANCH   8   9
ENDBRANCH   7   8
ENDBRANCH   5   7
ENDBRANCH   2   3
ENDBRANCH   1   2
BRANCH   1  33
ATOM     33  C   UNL A   1      35.725  32.859  27.999  1.00  0.00     0.023 C 
BRANCH  33  34
ATOM     34  C   UNL A   1      36.742  32.591  29.101  1.00  0.00     0.116 C 
BRANCH  34  35
ATOM     35  N   UNL A   1      36.205  31.802  30.199  1.00  0.00    -0.352 N 
ATOM     36  C   UNL A   1      36.630  30.588  30.692  1.00  0.00     0.251 C 
ATOM     37  H   UNL A   1      35.425  32.193  30.657  1.00  0.00     0.163 HD
ATOM     38  O   UNL A   1      35.972  30.012  31.554  1.00  0.00    -0.269 OA
BRANCH  36  39
ATOM     39  C   UNL A   1      37.855  29.959  30.146  1.00  0.00     0.039 A 
ATOM     40  C   UNL A   1      38.834  29.441  30.996  1.00  0.00     0.014 A 
ATOM     41  C   UNL A   1      38.045  29.929  28.762  1.00  0.00     0.014 A 
ATOM     42  C   UNL A   1      40.073  29.079  30.478  1.00  0.00     0.010 A 
ATOM     43  C   UNL A   1      39.258  29.473  28.236  1.00  0.00     0.010 A 
ATOM     44  C   UNL A   1      40.306  29.100  29.093  1.00  0.00    -0.014 A 
BRANCH  44  45
ATOM     45  C   UNL A   1      41.657  28.759  28.569  1.00  0.00     0.031 A 
ATOM     46  C   UNL A   1      42.763  29.784  28.564  1.00  0.00     0.074 A 
ATOM     47  C   UNL A   1      41.908  27.502  28.154  1.00  0.00     0.049 A 
ATOM     48  N   UNL A   1      44.003  29.660  28.163  1.00  0.00    -0.248 NA
ATOM     49  C   UNL A   1      42.433  31.126  29.071  1.00  0.00     0.031 C 
ATOM     50  C   UNL A   1      40.930  26.413  28.130  1.00  0.00     0.029 A 
ATOM     51  N   UNL A   1      43.066  26.918  27.704  1.00  0.00    -0.354 N 
ATOM     52  C   UNL A   1      44.598  30.901  28.365  1.00  0.00     0.074 A 
ATOM     53  C   UNL A   1      43.569  31.781  28.875  1.00  0.00     0.031 C 
ATOM     54  C   UNL A   1      41.542  25.282  27.747  1.00  0.00     0.029 A 
ATOM     55  C   UNL A   1      42.936  25.576  27.436  1.00  0.00     0.049 A 
ATOM     56  H   UNL A   1      43.908  27.414  27.583  1.00  0.00     0.167 HD
ATOM     57  C   UNL A   1      45.888  31.269  28.166  1.00  0.00     0.037 A 
ATOM     58  C   UNL A   1      43.836  24.681  26.985  1.00  0.00     0.037 A 
ATOM     59  C   UNL A   1      46.914  30.387  27.669  1.00  0.00     0.049 A 
ATOM     60  C   UNL A   1      45.240  25.130  26.698  1.00  0.00     0.074 A 
ATOM     61  C   UNL A   1      48.248  30.667  27.430  1.00  0.00     0.029 A 
ATOM     62  N   UNL A   1      46.722  29.052  27.338  1.00  0.00    -0.354 N 
ATOM     63  N   UNL A   1      45.781  26.310  26.882  1.00  0.00    -0.248 NA
ATOM     64  C   UNL A   1      46.154  24.129  26.131  1.00  0.00     0.031 C 
ATOM     65  C   UNL A   1      48.852  29.516  26.911  1.00  0.00     0.029 A 
ATOM     66  C   UNL A   1      47.907  28.503  26.875  1.00  0.00     0.049 A 
ATOM     67  H   UNL A   1      45.869  28.568  27.421  1.00  0.00     0.167 HD
ATOM     68  C   UNL A   1      47.102  26.192  26.469  1.00  0.00     0.074 A 
ATOM     69  C   UNL A   1      47.283  24.819  26.040  1.00  0.00     0.031 C 
ATOM     70  C   UNL A   1      48.075  27.135  26.445  1.00  0.00     0.037 A 
BRANCH  57  71
ATOM     71  C   UNL A   1      46.263  32.694  28.480  1.00  0.00     0.058 A 
ATOM     72  C   UNL A   1      46.189  33.708  27.510  1.00  0.00     0.135 A 
ATOM     73  C   UNL A   1      46.672  33.060  29.773  1.00  0.00     0.135 A 
ATOM     74  F   UNL A   1      45.818  33.414  26.253  1.00  0.00    -0.206 F 
ATOM     75  C   UNL A   1      46.538  35.022  27.801  1.00  0.00     0.059 A 
ATOM     76  C   UNL A   1      46.999  34.376  30.094  1.00  0.00     0.059 A 
ATOM     77  F   UNL A   1      46.758  32.135  30.742  1.00  0.00    -0.206 F 
ATOM     78  C   UNL A   1      46.945  35.347  29.096  1.00  0.00     0.060 A 
BRANCH  78  79
ATOM     79  S   UNL A   1      47.407  37.056  29.450  1.00  0.00     0.124 S 
ATOM     80  O   UNL A   1      48.862  36.994  29.335  1.00  0.00    -0.237 OA
ATOM     81  O   UNL A   1      46.720  37.791  28.394  1.00  0.00    -0.237 OA
ATOM     82  O   UNL A   1      46.896  37.276  30.800  1.00  0.00    -0.744 OA
ENDBRANCH  78  79
ENDBRANCH  57  71
BRANCH  58  83
ATOM     83  C   UNL A   1      43.426  23.265  26.795  1.00  0.00     0.058 A 
ATOM     84  C   UNL A   1      43.251  22.735  25.509  1.00  0.00     0.135 A 
ATOM     85  C   UNL A   1      43.258  22.400  27.889  1.00  0.00     0.135 A 
ATOM     86  F   UNL A   1      43.396  23.524  24.433  1.00  0.00    -0.206 F 
ATOM     87  C   UNL A   1      42.930  21.397  25.311  1.00  0.00     0.059 A 
ATOM     88  C   UNL A   1      42.965  21.051  27.715  1.00  0.00     0.059 A 
ATOM     89  F   UNL A   1      43.427  22.856  29.139  1.00  0.00    -0.206 F 
ATOM     90  C   UNL A   1      42.801  20.560  26.421  1.00  0.00     0.060 A 
BRANCH  90  91
ATOM     91  S   UNL A   1      42.476  18.806  26.141  1.00  0.00     0.124 S 
ATOM     92  O   UNL A   1      42.656  18.256  27.480  1.00  0.00    -0.237 OA
ATOM     93  O   UNL A   1      41.106  18.830  25.637  1.00  0.00    -0.237 OA
ATOM     94  O   UNL A   1      43.490  18.427  25.161  1.00  0.00    -0.744 OA
ENDBRANCH  90  91
ENDBRANCH  58  83
BRANCH  70  95
ATOM     95  C   UNL A   1      49.434  26.722  25.948  1.00  0.00     0.058 A 
ATOM     96  C   UNL A   1      49.862  27.023  24.646  1.00  0.00     0.135 A 
ATOM     97  C   UNL A   1      50.341  26.076  26.804  1.00  0.00     0.135 A 
ATOM     98  F   UNL A   1      49.031  27.631  23.785  1.00  0.00    -0.206 F 
ATOM     99  C   UNL A   1      51.137  26.687  24.205  1.00  0.00     0.059 A 
ATOM    100  C   UNL A   1      51.632  25.754  26.392  1.00  0.00     0.059 A 
ATOM    101  F   UNL A   1      49.985  25.771  28.062  1.00  0.00    -0.206 F 
ATOM    102  C   UNL A   1      52.018  26.057  25.088  1.00  0.00     0.060 A 
BRANCH 102 103
ATOM    103  S   UNL A   1      53.683  25.667  24.512  1.00  0.00     0.124 S 
ATOM    104  O   UNL A   1      54.472  26.710  25.161  1.00  0.00    -0.237 OA
ATOM    105  O   UNL A   1      53.879  24.314  25.021  1.00  0.00    -0.237 OA
ATOM    106  O   UNL A   1      53.576  25.775  23.060  1.00  0.00    -0.744 OA
ENDBRANCH 102 103
ENDBRANCH  70  95
ENDBRANCH  44  45
ENDBRANCH  36  39
ENDBRANCH  34  35
ENDBRANCH  33  34
ENDBRANCH   1  33
TORSDOF 18
ENDMDL
MODEL 3
REMARK VINA RESULT:     -12.4      6.031     11.814
REMARK SMILES O=C(CCN1C(=O)/C(=C2/C(=O)N(Cc3ccccc3)c3ccccc32)SC1=S)NCCCCNC(=O)c1ccc(-c2c3nc(c(-c4c(F)cc(S(=O)(=O)[O-])cc4F)c4ccc([nH]4)c(-c4c(F)cc(S(=O)(=O)[O-])cc4F)c4nc(c(-c5c(F)cc(S(=O)(=O)[O-])cc5F)c5ccc2[nH]5)C=C4)C=C3)cc1
REMARK SMILES IDX 31 1 30 2 29 3 1 4 2 5 3 7 4 8 5 9 6 10 27 11 7 12 8 13
REMARK SMILES IDX 26 14 28 15 9 16 10 17 25 18 11 19 12 20 20 21 24 22 21 23
REMARK SMILES IDX 23 24 22 25 13 26 14 27 15 28 19 29 16 30 18 31 17 32 32 33
REMARK SMILES IDX 33 34 34 35 35 36 36 38 37 39 38 40 102 41 39 42 101 43
REMARK SMILES IDX 40 44 41 45 42 46 95 47 43 48 100 49 94 50 96 51 44 52 99 53
REMARK SMILES IDX 93 54 92 55 45 57 79 58 58 59 78 60 59 61 62 62 77 63 97 64
REMARK SMILES IDX 60 65 61 66 76 68 98 69 63 70 46 71 47 72 56 73 48 74 49 75
REMARK SMILES IDX 55 76 57 77 50 78 51 79 52 80 53 81 54 82 80 83 81 84 90 85
REMARK SMILES IDX 82 86 83 87 89 88 91 89 84 90 85 91 86 92 87 93 88 94 64 95
REMARK SMILES IDX 65 96 74 97 66 98 67 99 73 100 75 101 68 102 69 103 70 104
REMARK SMILES IDX 71 105 72 106
REMARK H PARENT 29 6 34 37 96 56 62 67
REMARK Flexibility Score: inf
ROOT
ATOM      1  C   UNL A   1      41.166  21.494  27.046  1.00  0.00     0.023 C 
ENDROOT
BRANCH   1   2
ATOM      2  C   UNL A   1      40.286  22.321  26.109  1.00  0.00     0.116 C 
BRANCH   2   3
ATOM      3  N   UNL A   1      39.079  21.607  25.743  1.00  0.00    -0.356 N 
ATOM      4  O   UNL A   1      37.653  23.382  26.000  1.00  0.00    -0.275 OA
ATOM      5  C   UNL A   1      37.842  22.196  25.743  1.00  0.00     0.221 C 
ATOM      6  H   UNL A   1      39.151  20.661  25.482  1.00  0.00     0.163 HD
BRANCH   5   7
ATOM      7  C   UNL A   1      36.686  21.251  25.523  1.00  0.00     0.122 C 
BRANCH   7   8
ATOM      8  C   UNL A   1      35.307  21.781  25.901  1.00  0.00     0.137 C 
BRANCH   8   9
ATOM      9  N   UNL A   1      34.345  22.149  24.847  1.00  0.00    -0.292 N 
ATOM     10  C   UNL A   1      34.194  23.503  24.572  1.00  0.00     0.267 C 
ATOM     11  C   UNL A   1      33.403  21.333  24.255  1.00  0.00     0.148 C 
ATOM     12  O   UNL A   1      35.082  24.335  24.681  1.00  0.00    -0.268 OA
ATOM     13  C   UNL A   1      32.829  23.772  24.044  1.00  0.00     0.093 C 
ATOM     14  S   UNL A   1      32.327  22.313  23.267  1.00  0.00    -0.053 SA
ATOM     15  S   UNL A   1      33.210  19.687  24.392  1.00  0.00    -0.052 S 
ATOM     16  C   UNL A   1      32.089  24.872  24.273  1.00  0.00     0.069 C 
ATOM     17  C   UNL A   1      30.676  25.059  23.746  1.00  0.00     0.260 C 
ATOM     18  C   UNL A   1      32.390  26.083  25.064  1.00  0.00     0.012 A 
ATOM     19  O   UNL A   1      30.024  24.257  23.103  1.00  0.00    -0.269 OA
ATOM     20  N   UNL A   1      30.283  26.326  24.164  1.00  0.00    -0.303 N 
ATOM     21  C   UNL A   1      31.308  26.955  24.888  1.00  0.00     0.052 A 
ATOM     22  C   UNL A   1      33.415  26.443  25.927  1.00  0.00     0.011 A 
ATOM     23  C   UNL A   1      31.307  28.233  25.426  1.00  0.00     0.027 A 
ATOM     24  C   UNL A   1      33.387  27.702  26.539  1.00  0.00     0.001 A 
ATOM     25  C   UNL A   1      32.352  28.601  26.270  1.00  0.00     0.002 A 
BRANCH  20  26
ATOM     26  C   UNL A   1      28.943  26.857  23.968  1.00  0.00     0.161 C 
BRANCH  26  27
ATOM     27  C   UNL A   1      28.905  28.153  23.169  1.00  0.00    -0.028 A 
ATOM     28  C   UNL A   1      30.007  28.583  22.412  1.00  0.00     0.005 A 
ATOM     29  C   UNL A   1      27.748  28.947  23.148  1.00  0.00     0.005 A 
ATOM     30  C   UNL A   1      29.971  29.772  21.680  1.00  0.00     0.000 A 
ATOM     31  C   UNL A   1      27.702  30.125  22.393  1.00  0.00     0.000 A 
ATOM     32  C   UNL A   1      28.815  30.543  21.666  1.00  0.00     0.000 A 
ENDBRANCH  26  27
ENDBRANCH  20  26
ENDBRANCH   8   9
ENDBRANCH   7   8
ENDBRANCH   5   7
ENDBRANCH   2   3
ENDBRANCH   1   2
BRANCH   1  33
ATOM     33  C   UNL A   1      41.735  22.259  28.243  1.00  0.00     0.023 C 
BRANCH  33  34
ATOM     34  C   UNL A   1      42.909  23.180  27.932  1.00  0.00     0.116 C 
BRANCH  34  35
ATOM     35  N   UNL A   1      42.862  23.734  26.588  1.00  0.00    -0.352 N 
ATOM     36  C   UNL A   1      42.408  24.964  26.166  1.00  0.00     0.251 C 
ATOM     37  H   UNL A   1      43.207  23.146  25.876  1.00  0.00     0.163 HD
ATOM     38  O   UNL A   1      42.334  25.213  24.966  1.00  0.00    -0.269 OA
BRANCH  36  39
ATOM     39  C   UNL A   1      41.964  25.967  27.162  1.00  0.00     0.039 A 
ATOM     40  C   UNL A   1      42.636  27.183  27.303  1.00  0.00     0.014 A 
ATOM     41  C   UNL A   1      40.886  25.664  27.998  1.00  0.00     0.014 A 
ATOM     42  C   UNL A   1      42.360  27.999  28.395  1.00  0.00     0.010 A 
ATOM     43  C   UNL A   1      40.547  26.534  29.039  1.00  0.00     0.010 A 
ATOM     44  C   UNL A   1      41.320  27.681  29.284  1.00  0.00    -0.014 A 
BRANCH  44  45
ATOM     45  C   UNL A   1      41.080  28.542  30.474  1.00  0.00     0.031 A 
ATOM     46  C   UNL A   1      42.007  28.490  31.662  1.00  0.00     0.074 A 
ATOM     47  C   UNL A   1      40.060  29.423  30.459  1.00  0.00     0.049 A 
ATOM     48  N   UNL A   1      41.963  29.177  32.776  1.00  0.00    -0.248 NA
ATOM     49  C   UNL A   1      43.126  27.536  31.596  1.00  0.00     0.031 C 
ATOM     50  C   UNL A   1      39.106  29.587  29.361  1.00  0.00     0.029 A 
ATOM     51  N   UNL A   1      39.673  30.366  31.379  1.00  0.00    -0.354 N 
ATOM     52  C   UNL A   1      43.040  28.741  33.540  1.00  0.00     0.074 A 
ATOM     53  C   UNL A   1      43.690  27.691  32.785  1.00  0.00     0.031 C 
ATOM     54  C   UNL A   1      38.284  30.609  29.643  1.00  0.00     0.029 A 
ATOM     55  C   UNL A   1      38.608  31.130  30.966  1.00  0.00     0.049 A 
ATOM     56  H   UNL A   1      40.116  30.482  32.251  1.00  0.00     0.167 HD
ATOM     57  C   UNL A   1      43.464  29.189  34.747  1.00  0.00     0.037 A 
ATOM     58  C   UNL A   1      37.958  32.135  31.585  1.00  0.00     0.037 A 
ATOM     59  C   UNL A   1      42.823  30.244  35.490  1.00  0.00     0.049 A 
ATOM     60  C   UNL A   1      38.399  32.562  32.956  1.00  0.00     0.074 A 
ATOM     61  C   UNL A   1      43.175  30.766  36.723  1.00  0.00     0.029 A 
ATOM     62  N   UNL A   1      41.699  30.942  35.069  1.00  0.00    -0.354 N 
ATOM     63  N   UNL A   1      39.411  32.129  33.667  1.00  0.00    -0.248 NA
ATOM     64  C   UNL A   1      37.602  33.607  33.613  1.00  0.00     0.031 C 
ATOM     65  C   UNL A   1      42.238  31.746  37.069  1.00  0.00     0.029 A 
ATOM     66  C   UNL A   1      41.331  31.872  36.028  1.00  0.00     0.049 A 
ATOM     67  H   UNL A   1      41.233  30.797  34.214  1.00  0.00     0.167 HD
ATOM     68  C   UNL A   1      39.383  32.858  34.850  1.00  0.00     0.074 A 
ATOM     69  C   UNL A   1      38.263  33.772  34.751  1.00  0.00     0.031 C 
ATOM     70  C   UNL A   1      40.210  32.775  35.922  1.00  0.00     0.037 A 
BRANCH  57  71
ATOM     71  C   UNL A   1      44.681  28.532  35.347  1.00  0.00     0.058 A 
ATOM     72  C   UNL A   1      44.573  27.440  36.224  1.00  0.00     0.135 A 
ATOM     73  C   UNL A   1      45.972  28.977  35.018  1.00  0.00     0.135 A 
ATOM     74  F   UNL A   1      43.364  26.980  36.584  1.00  0.00    -0.206 F 
ATOM     75  C   UNL A   1      45.696  26.836  36.778  1.00  0.00     0.059 A 
ATOM     76  C   UNL A   1      47.112  28.369  35.540  1.00  0.00     0.059 A 
ATOM     77  F   UNL A   1      46.138  30.014  34.182  1.00  0.00    -0.206 F 
ATOM     78  C   UNL A   1      46.963  27.309  36.433  1.00  0.00     0.060 A 
BRANCH  78  79
ATOM     79  S   UNL A   1      48.408  26.521  37.173  1.00  0.00     0.124 S 
ATOM     80  O   UNL A   1      48.107  25.107  36.967  1.00  0.00    -0.237 OA
ATOM     81  O   UNL A   1      49.502  27.058  36.372  1.00  0.00    -0.237 OA
ATOM     82  O   UNL A   1      48.371  26.972  38.562  1.00  0.00    -0.744 OA
ENDBRANCH  78  79
ENDBRANCH  57  71
BRANCH  58  83
ATOM     83  C   UNL A   1      36.830  32.812  30.892  1.00  0.00     0.058 A 
ATOM     84  C   UNL A   1      35.502  32.525  31.237  1.00  0.00     0.135 A 
ATOM     85  C   UNL A   1      37.056  33.796  29.917  1.00  0.00     0.135 A 
ATOM     86  F   UNL A   1      35.235  31.587  32.160  1.00  0.00    -0.206 F 
ATOM     87  C   UNL A   1      34.437  33.193  30.644  1.00  0.00     0.059 A 
ATOM     88  C   UNL A   1      36.008  34.498  29.331  1.00  0.00     0.059 A 
ATOM     89  F   UNL A   1      38.310  34.116  29.562  1.00  0.00    -0.206 F 
ATOM     90  C   UNL A   1      34.701  34.188  29.701  1.00  0.00     0.060 A 
BRANCH  90  91
ATOM     91  S   UNL A   1      33.310  35.110  29.012  1.00  0.00     0.124 S 
ATOM     92  O   UNL A   1      33.986  36.241  28.387  1.00  0.00    -0.237 OA
ATOM     93  O   UNL A   1      32.722  34.132  28.099  1.00  0.00    -0.237 OA
ATOM     94  O   UNL A   1      32.500  35.426  30.185  1.00  0.00    -0.744 OA
ENDBRANCH  90  91
ENDBRANCH  58  83
BRANCH  70  95
ATOM     95  C   UNL A   1      39.947  33.701  37.077  1.00  0.00     0.058 A 
ATOM     96  C   UNL A   1      40.610  34.933  37.195  1.00  0.00     0.135 A 
ATOM     97  C   UNL A   1      38.975  33.384  38.041  1.00  0.00     0.135 A 
ATOM     98  F   UNL A   1      41.554  35.280  36.307  1.00  0.00    -0.206 F 
ATOM     99  C   UNL A   1      40.328  35.812  38.235  1.00  0.00     0.059 A 
ATOM    100  C   UNL A   1      38.658  34.262  39.074  1.00  0.00     0.059 A 
ATOM    101  F   UNL A   1      38.307  32.223  37.970  1.00  0.00    -0.206 F 
ATOM    102  C   UNL A   1      39.346  35.470  39.167  1.00  0.00     0.060 A 
BRANCH 102 103
ATOM    103  S   UNL A   1      38.963  36.643  40.485  1.00  0.00     0.124 S 
ATOM    104  O   UNL A   1      40.277  36.849  41.087  1.00  0.00    -0.237 OA
ATOM    105  O   UNL A   1      38.421  37.777  39.744  1.00  0.00    -0.237 OA
ATOM    106  O   UNL A   1      38.000  35.924  41.314  1.00  0.00    -0.744 OA
ENDBRANCH 102 103
ENDBRANCH  70  95
ENDBRANCH  44  45
ENDBRANCH  36  39
ENDBRANCH  34  35
ENDBRANCH  33  34
ENDBRANCH   1  33
TORSDOF 18
ENDMDL
