MODEL 1
REMARK VINA RESULT:     -12.2      0.000      0.000
REMARK SMILES O=C(NCCCCNC(=O)c1cccc2c(=O)oc(=O)[nH]c12)c1ccc(-c2c3nc(c(-c4c(F)cc(S(=O)(=O)[O-])cc4F)c4ccc([nH]4)c(-c4c(F)cc(S(=O)(=O)[O-])cc4F)c4nc(c(-c5c(F)cc(S(=O)(=O)[O-])cc5F)c5ccc2[nH]5)C=C4)C=C3)cc1
REMARK SMILES IDX 4 1 3 2 1 3 2 4 23 6 24 7 88 8 25 9 87 10 26 11 27 12 28 13
REMARK SMILES IDX 81 14 29 15 86 16 80 17 82 18 30 19 85 20 79 21 78 22 31 24
REMARK SMILES IDX 65 25 44 26 64 27 45 28 48 29 63 30 83 31 46 32 47 33 62 35
REMARK SMILES IDX 84 36 49 37 32 38 33 39 42 40 34 41 35 42 41 43 43 44 36 45
REMARK SMILES IDX 37 46 38 47 39 48 40 49 66 50 67 51 76 52 68 53 69 54 75 55
REMARK SMILES IDX 77 56 70 57 71 58 72 59 73 60 74 61 50 62 51 63 60 64 52 65
REMARK SMILES IDX 53 66 59 67 61 68 54 69 55 70 56 71 57 72 58 73 5 74 6 75
REMARK SMILES IDX 7 76 8 77 9 78 10 80 11 81 12 82 22 83 13 84 15 85 21 86
REMARK SMILES IDX 14 87 16 88 19 89 17 91 18 92 20 93
REMARK H PARENT 3 5 82 23 48 34 8 79 21 90
REMARK Flexibility Score: inf
ROOT
ATOM      1  C   UNL A   1      42.344  23.275  27.596  1.00  0.00     0.116 C 
ENDROOT
BRANCH   1   2
ATOM      2  N   UNL A   1      42.042  24.077  26.421  1.00  0.00    -0.352 N 
ATOM      3  O   UNL A   1      41.149  25.757  25.230  1.00  0.00    -0.269 OA
ATOM      4  C   UNL A   1      41.491  25.332  26.330  1.00  0.00     0.251 C 
ATOM      5  H   UNL A   1      42.267  23.657  25.560  1.00  0.00     0.163 HD
BRANCH   4   6
ATOM      6  C   UNL A   1      41.298  26.161  27.542  1.00  0.00     0.039 A 
ATOM      7  C   UNL A   1      40.154  25.963  28.319  1.00  0.00     0.014 A 
ATOM      8  C   UNL A   1      42.208  27.163  27.888  1.00  0.00     0.014 A 
ATOM      9  C   UNL A   1      39.933  26.763  29.443  1.00  0.00     0.010 A 
ATOM     10  C   UNL A   1      42.047  27.876  29.071  1.00  0.00     0.010 A 
ATOM     11  C   UNL A   1      40.880  27.725  29.829  1.00  0.00    -0.014 A 
BRANCH  11  12
ATOM     12  C   UNL A   1      40.600  28.671  30.941  1.00  0.00     0.031 A 
ATOM     13  C   UNL A   1      41.437  28.608  32.194  1.00  0.00     0.074 A 
ATOM     14  C   UNL A   1      39.613  29.580  30.833  1.00  0.00     0.049 A 
ATOM     15  N   UNL A   1      41.367  29.343  33.274  1.00  0.00    -0.248 NA
ATOM     16  C   UNL A   1      42.472  27.561  32.256  1.00  0.00     0.031 C 
ATOM     17  C   UNL A   1      38.712  29.719  29.687  1.00  0.00     0.029 A 
ATOM     18  N   UNL A   1      39.210  30.570  31.694  1.00  0.00    -0.354 N 
ATOM     19  C   UNL A   1      42.336  28.840  34.135  1.00  0.00     0.074 A 
ATOM     20  C   UNL A   1      42.918  27.686  33.495  1.00  0.00     0.031 C 
ATOM     21  C   UNL A   1      37.897  30.766  29.893  1.00  0.00     0.029 A 
ATOM     22  C   UNL A   1      38.190  31.350  31.201  1.00  0.00     0.049 A 
ATOM     23  H   UNL A   1      39.613  30.709  32.581  1.00  0.00     0.167 HD
ATOM     24  C   UNL A   1      42.742  29.323  35.332  1.00  0.00     0.037 A 
ATOM     25  C   UNL A   1      37.568  32.419  31.738  1.00  0.00     0.037 A 
ATOM     26  C   UNL A   1      42.189  30.497  35.948  1.00  0.00     0.049 A 
ATOM     27  C   UNL A   1      38.008  32.922  33.087  1.00  0.00     0.074 A 
ATOM     28  C   UNL A   1      42.567  31.107  37.128  1.00  0.00     0.029 A 
ATOM     29  N   UNL A   1      41.136  31.238  35.429  1.00  0.00    -0.354 N 
ATOM     30  N   UNL A   1      38.977  32.480  33.854  1.00  0.00    -0.248 NA
ATOM     31  C   UNL A   1      37.271  34.063  33.648  1.00  0.00     0.031 C 
ATOM     32  C   UNL A   1      41.706  32.183  37.355  1.00  0.00     0.029 A 
ATOM     33  C   UNL A   1      40.824  32.276  36.288  1.00  0.00     0.049 A 
ATOM     34  H   UNL A   1      40.679  31.052  34.577  1.00  0.00     0.167 HD
ATOM     35  C   UNL A   1      38.971  33.292  34.983  1.00  0.00     0.074 A 
ATOM     36  C   UNL A   1      37.916  34.267  34.790  1.00  0.00     0.031 C 
ATOM     37  C   UNL A   1      39.764  33.234  36.081  1.00  0.00     0.037 A 
BRANCH  24  38
ATOM     38  C   UNL A   1      43.848  28.586  36.041  1.00  0.00     0.058 A 
ATOM     39  C   UNL A   1      43.586  27.468  36.850  1.00  0.00     0.135 A 
ATOM     40  C   UNL A   1      45.183  28.996  35.904  1.00  0.00     0.135 A 
ATOM     41  F   UNL A   1      42.326  27.042  37.029  1.00  0.00    -0.206 F 
ATOM     42  C   UNL A   1      44.602  26.812  37.536  1.00  0.00     0.059 A 
ATOM     43  C   UNL A   1      46.221  28.332  36.554  1.00  0.00     0.059 A 
ATOM     44  F   UNL A   1      45.492  30.058  35.143  1.00  0.00    -0.206 F 
ATOM     45  C   UNL A   1      45.917  27.254  37.383  1.00  0.00     0.060 A 
BRANCH  45  46
ATOM     46  S   UNL A   1      47.218  26.402  38.298  1.00  0.00     0.124 S 
ATOM     47  O   UNL A   1      47.886  27.519  38.961  1.00  0.00    -0.237 OA
ATOM     48  O   UNL A   1      46.454  25.514  39.169  1.00  0.00    -0.237 OA
ATOM     49  O   UNL A   1      47.994  25.741  37.254  1.00  0.00    -0.744 OA
ENDBRANCH  45  46
ENDBRANCH  24  38
BRANCH  25  50
ATOM     50  C   UNL A   1      36.493  33.102  30.970  1.00  0.00     0.058 A 
ATOM     51  C   UNL A   1      35.143  32.930  31.312  1.00  0.00     0.135 A 
ATOM     52  C   UNL A   1      36.794  33.989  29.923  1.00  0.00     0.135 A 
ATOM     53  F   UNL A   1      34.804  32.086  32.298  1.00  0.00    -0.206 F 
ATOM     54  C   UNL A   1      34.130  33.618  30.651  1.00  0.00     0.059 A 
ATOM     55  C   UNL A   1      35.800  34.706  29.263  1.00  0.00     0.059 A 
ATOM     56  F   UNL A   1      38.070  34.197  29.564  1.00  0.00    -0.206 F 
ATOM     57  C   UNL A   1      34.470  34.516  29.637  1.00  0.00     0.060 A 
BRANCH  57  58
ATOM     58  S   UNL A   1      33.152  35.469  28.854  1.00  0.00     0.124 S 
ATOM     59  O   UNL A   1      32.467  34.444  28.075  1.00  0.00    -0.237 OA
ATOM     60  O   UNL A   1      32.425  35.986  30.010  1.00  0.00    -0.237 OA
ATOM     61  O   UNL A   1      33.876  36.472  28.078  1.00  0.00    -0.744 OA
ENDBRANCH  57  58
ENDBRANCH  25  50
BRANCH  37  62
ATOM     62  C   UNL A   1      39.523  34.229  37.182  1.00  0.00     0.058 A 
ATOM     63  C   UNL A   1      38.909  33.844  38.383  1.00  0.00     0.135 A 
ATOM     64  C   UNL A   1      40.030  35.536  37.091  1.00  0.00     0.135 A 
ATOM     65  F   UNL A   1      38.402  32.608  38.519  1.00  0.00    -0.206 F 
ATOM     66  C   UNL A   1      38.813  34.718  39.460  1.00  0.00     0.059 A 
ATOM     67  C   UNL A   1      39.969  36.418  38.164  1.00  0.00     0.059 A 
ATOM     68  F   UNL A   1      40.636  35.949  35.967  1.00  0.00    -0.206 F 
ATOM     69  C   UNL A   1      39.360  35.998  39.347  1.00  0.00     0.060 A 
BRANCH  69  70
ATOM     70  S   UNL A   1      39.305  37.085  40.787  1.00  0.00     0.124 S 
ATOM     71  O   UNL A   1      38.595  36.256  41.756  1.00  0.00    -0.237 OA
ATOM     72  O   UNL A   1      40.721  37.308  41.060  1.00  0.00    -0.237 OA
ATOM     73  O   UNL A   1      38.572  38.253  40.307  1.00  0.00    -0.744 OA
ENDBRANCH  69  70
ENDBRANCH  37  62
ENDBRANCH  11  12
ENDBRANCH   4   6
ENDBRANCH   1   2
BRANCH   1  74
ATOM     74  C   UNL A   1      43.839  23.189  27.875  1.00  0.00     0.023 C 
BRANCH  74  75
ATOM     75  C   UNL A   1      44.693  24.208  27.126  1.00  0.00     0.023 C 
BRANCH  75  76
ATOM     76  C   UNL A   1      45.576  23.622  26.029  1.00  0.00     0.116 C 
BRANCH  76  77
ATOM     77  N   UNL A   1      44.859  23.463  24.773  1.00  0.00    -0.352 N 
ATOM     78  C   UNL A   1      44.631  22.318  24.056  1.00  0.00     0.253 C 
ATOM     79  H   UNL A   1      44.489  24.289  24.386  1.00  0.00     0.163 HD
ATOM     80  O   UNL A   1      44.230  22.371  22.897  1.00  0.00    -0.269 OA
BRANCH  78  81
ATOM     81  C   UNL A   1      44.922  21.004  24.660  1.00  0.00     0.064 A 
ATOM     82  C   UNL A   1      46.226  20.490  24.610  1.00  0.00     0.016 A 
ATOM     83  C   UNL A   1      43.902  20.275  25.282  1.00  0.00     0.071 A 
ATOM     84  C   UNL A   1      46.492  19.216  25.108  1.00  0.00     0.002 A 
ATOM     85  C   UNL A   1      44.174  19.016  25.783  1.00  0.00     0.085 A 
ATOM     86  N   UNL A   1      42.607  20.758  25.413  1.00  0.00    -0.289 N 
ATOM     87  C   UNL A   1      45.464  18.473  25.688  1.00  0.00     0.018 A 
ATOM     88  C   UNL A   1      43.083  18.263  26.416  1.00  0.00     0.349 A 
ATOM     89  C   UNL A   1      41.590  20.055  25.986  1.00  0.00     0.419 A 
ATOM     90  H   UNL A   1      42.413  21.661  25.072  1.00  0.00     0.173 HD
ATOM     91  O   UNL A   1      43.308  17.151  26.881  1.00  0.00    -0.246 OA
ATOM     92  O   UNL A   1      41.850  18.813  26.466  1.00  0.00    -0.372 OA
ATOM     93  O   UNL A   1      40.464  20.539  26.060  1.00  0.00    -0.224 OA
ENDBRANCH  78  81
ENDBRANCH  76  77
ENDBRANCH  75  76
ENDBRANCH  74  75
ENDBRANCH   1  74
TORSDOF 14
ENDMDL
MODEL 2
REMARK VINA RESULT:     -12.1      6.163     14.690
REMARK SMILES O=C(NCCCCNC(=O)c1cccc2c(=O)oc(=O)[nH]c12)c1ccc(-c2c3nc(c(-c4c(F)cc(S(=O)(=O)[O-])cc4F)c4ccc([nH]4)c(-c4c(F)cc(S(=O)(=O)[O-])cc4F)c4nc(c(-c5c(F)cc(S(=O)(=O)[O-])cc5F)c5ccc2[nH]5)C=C4)C=C3)cc1
REMARK SMILES IDX 4 1 3 2 1 3 2 4 23 6 24 7 88 8 25 9 87 10 26 11 27 12 28 13
REMARK SMILES IDX 81 14 29 15 86 16 80 17 82 18 30 19 85 20 79 21 78 22 31 24
REMARK SMILES IDX 65 25 44 26 64 27 45 28 48 29 63 30 83 31 46 32 47 33 62 35
REMARK SMILES IDX 84 36 49 37 32 38 33 39 42 40 34 41 35 42 41 43 43 44 36 45
REMARK SMILES IDX 37 46 38 47 39 48 40 49 66 50 67 51 76 52 68 53 69 54 75 55
REMARK SMILES IDX 77 56 70 57 71 58 72 59 73 60 74 61 50 62 51 63 60 64 52 65
REMARK SMILES IDX 53 66 59 67 61 68 54 69 55 70 56 71 57 72 58 73 5 74 6 75
REMARK SMILES IDX 7 76 8 77 9 78 10 80 11 81 12 82 22 83 13 84 15 85 21 86
REMARK SMILES IDX 14 87 16 88 19 89 17 91 18 92 20 93
REMARK H PARENT 3 5 82 23 48 34 8 79 21 90
REMARK Flexibility Score: inf
ROOT
ATOM      1  C   UNL A   1      38.379  33.136  32.544  1.00  0.00     0.116 C 
ENDROOT
BRANCH   1   2
ATOM      2  N   UNL A   1      37.353  32.108  32.614  1.00  0.00    -0.352 N 
ATOM      3  O   UNL A   1      36.250  30.237  32.050  1.00  0.00    -0.269 OA
ATOM      4  C   UNL A   1      37.296  30.880  32.003  1.00  0.00     0.251 C 
ATOM      5  H   UNL A   1      36.583  32.325  33.187  1.00  0.00     0.163 HD
BRANCH   4   6
ATOM      6  C   UNL A   1      38.472  30.338  31.285  1.00  0.00     0.039 A 
ATOM      7  C   UNL A   1      39.480  29.710  32.020  1.00  0.00     0.014 A 
ATOM      8  C   UNL A   1      38.612  30.490  29.903  1.00  0.00     0.014 A 
ATOM      9  C   UNL A   1      40.618  29.229  31.366  1.00  0.00     0.010 A 
ATOM     10  C   UNL A   1      39.686  29.906  29.240  1.00  0.00     0.010 A 
ATOM     11  C   UNL A   1      40.729  29.322  29.970  1.00  0.00    -0.014 A 
BRANCH  11  12
ATOM     12  C   UNL A   1      41.985  28.937  29.274  1.00  0.00     0.031 A 
ATOM     13  C   UNL A   1      43.107  29.939  29.164  1.00  0.00     0.074 A 
ATOM     14  C   UNL A   1      42.125  27.704  28.752  1.00  0.00     0.049 A 
ATOM     15  N   UNL A   1      44.284  29.805  28.610  1.00  0.00    -0.248 NA
ATOM     16  C   UNL A   1      42.865  31.280  29.725  1.00  0.00     0.031 C 
ATOM     17  C   UNL A   1      41.101  26.658  28.764  1.00  0.00     0.029 A 
ATOM     18  N   UNL A   1      43.193  27.117  28.120  1.00  0.00    -0.354 N 
ATOM     19  C   UNL A   1      44.908  31.040  28.749  1.00  0.00     0.074 A 
ATOM     20  C   UNL A   1      43.953  31.934  29.356  1.00  0.00     0.031 C 
ATOM     21  C   UNL A   1      41.607  25.542  28.213  1.00  0.00     0.029 A 
ATOM     22  C   UNL A   1      42.977  25.803  27.775  1.00  0.00     0.049 A 
ATOM     23  H   UNL A   1      44.034  27.591  27.931  1.00  0.00     0.167 HD
ATOM     24  C   UNL A   1      46.180  31.387  28.446  1.00  0.00     0.037 A 
ATOM     25  C   UNL A   1      43.793  24.908  27.182  1.00  0.00     0.037 A 
ATOM     26  C   UNL A   1      47.141  30.482  27.880  1.00  0.00     0.049 A 
ATOM     27  C   UNL A   1      45.194  25.323  26.818  1.00  0.00     0.074 A 
ATOM     28  C   UNL A   1      48.472  30.714  27.589  1.00  0.00     0.029 A 
ATOM     29  N   UNL A   1      46.871  29.170  27.518  1.00  0.00    -0.354 N 
ATOM     30  N   UNL A   1      45.792  26.472  27.026  1.00  0.00    -0.248 NA
ATOM     31  C   UNL A   1      46.029  24.325  26.136  1.00  0.00     0.031 C 
ATOM     32  C   UNL A   1      48.993  29.562  26.997  1.00  0.00     0.029 A 
ATOM     33  C   UNL A   1      48.001  28.593  26.967  1.00  0.00     0.049 A 
ATOM     34  H   UNL A   1      46.004  28.718  27.634  1.00  0.00     0.167 HD
ATOM     35  C   UNL A   1      47.075  26.334  26.507  1.00  0.00     0.074 A 
ATOM     36  C   UNL A   1      47.174  24.982  25.995  1.00  0.00     0.031 C 
ATOM     37  C   UNL A   1      48.079  27.245  26.456  1.00  0.00     0.037 A 
BRANCH  24  38
ATOM     38  C   UNL A   1      46.602  32.804  28.736  1.00  0.00     0.058 A 
ATOM     39  C   UNL A   1      47.130  33.175  29.983  1.00  0.00     0.135 A 
ATOM     40  C   UNL A   1      46.484  33.800  27.753  1.00  0.00     0.135 A 
ATOM     41  F   UNL A   1      47.250  32.266  30.964  1.00  0.00    -0.206 F 
ATOM     42  C   UNL A   1      47.483  34.490  30.263  1.00  0.00     0.059 A 
ATOM     43  C   UNL A   1      46.864  35.117  28.000  1.00  0.00     0.059 A 
ATOM     44  F   UNL A   1      45.986  33.503  26.543  1.00  0.00    -0.206 F 
ATOM     45  C   UNL A   1      47.343  35.455  29.264  1.00  0.00     0.060 A 
BRANCH  45  46
ATOM     46  S   UNL A   1      47.786  37.160  29.654  1.00  0.00     0.124 S 
ATOM     47  O   UNL A   1      46.539  37.860  29.354  1.00  0.00    -0.237 OA
ATOM     48  O   UNL A   1      48.138  37.074  31.068  1.00  0.00    -0.237 OA
ATOM     49  O   UNL A   1      48.894  37.442  28.748  1.00  0.00    -0.744 OA
ENDBRANCH  45  46
ENDBRANCH  24  38
BRANCH  25  50
ATOM     50  C   UNL A   1      43.308  23.523  26.940  1.00  0.00     0.058 A 
ATOM     51  C   UNL A   1      42.968  23.095  25.649  1.00  0.00     0.135 A 
ATOM     52  C   UNL A   1      43.234  22.583  27.981  1.00  0.00     0.135 A 
ATOM     53  F   UNL A   1      43.012  23.958  24.623  1.00  0.00    -0.206 F 
ATOM     54  C   UNL A   1      42.583  21.782  25.393  1.00  0.00     0.059 A 
ATOM     55  C   UNL A   1      42.874  21.259  27.747  1.00  0.00     0.059 A 
ATOM     56  F   UNL A   1      43.558  22.939  29.234  1.00  0.00    -0.206 F 
ATOM     57  C   UNL A   1      42.554  20.868  26.448  1.00  0.00     0.060 A 
BRANCH  57  58
ATOM     58  S   UNL A   1      42.141  19.147  26.084  1.00  0.00     0.124 S 
ATOM     59  O   UNL A   1      43.002  18.872  24.939  1.00  0.00    -0.237 OA
ATOM     60  O   UNL A   1      42.503  18.480  27.331  1.00  0.00    -0.237 OA
ATOM     61  O   UNL A   1      40.710  19.197  25.799  1.00  0.00    -0.744 OA
ENDBRANCH  57  58
ENDBRANCH  25  50
BRANCH  37  62
ATOM     62  C   UNL A   1      49.372  26.837  25.807  1.00  0.00     0.058 A 
ATOM     63  C   UNL A   1      49.648  27.171  24.473  1.00  0.00     0.135 A 
ATOM     64  C   UNL A   1      50.393  26.234  26.560  1.00  0.00     0.135 A 
ATOM     65  F   UNL A   1      48.705  27.742  23.709  1.00  0.00    -0.206 F 
ATOM     66  C   UNL A   1      50.896  26.927  23.909  1.00  0.00     0.059 A 
ATOM     67  C   UNL A   1      51.656  26.006  26.025  1.00  0.00     0.059 A 
ATOM     68  F   UNL A   1      50.181  25.907  27.845  1.00  0.00    -0.206 F 
ATOM     69  C   UNL A   1      51.899  26.359  24.698  1.00  0.00     0.060 A 
BRANCH  69  70
ATOM     70  S   UNL A   1      53.536  26.135  23.973  1.00  0.00     0.124 S 
ATOM     71  O   UNL A   1      54.201  27.377  24.355  1.00  0.00    -0.237 OA
ATOM     72  O   UNL A   1      54.009  24.930  24.646  1.00  0.00    -0.237 OA
ATOM     73  O   UNL A   1      53.261  25.984  22.547  1.00  0.00    -0.744 OA
ENDBRANCH  69  70
ENDBRANCH  37  62
ENDBRANCH  11  12
ENDBRANCH   4   6
ENDBRANCH   1   2
BRANCH   1  74
ATOM     74  C   UNL A   1      38.023  34.251  31.570  1.00  0.00     0.023 C 
BRANCH  74  75
ATOM     75  C   UNL A   1      38.316  33.942  30.105  1.00  0.00     0.023 C 
BRANCH  75  76
ATOM     76  C   UNL A   1      37.106  34.022  29.178  1.00  0.00     0.116 C 
BRANCH  76  77
ATOM     77  N   UNL A   1      36.145  32.961  29.437  1.00  0.00    -0.352 N 
ATOM     78  C   UNL A   1      34.867  33.062  29.920  1.00  0.00     0.253 C 
ATOM     79  H   UNL A   1      36.455  32.048  29.241  1.00  0.00     0.163 HD
ATOM     80  O   UNL A   1      34.265  32.070  30.321  1.00  0.00    -0.269 OA
BRANCH  78  81
ATOM     81  C   UNL A   1      34.220  34.384  30.013  1.00  0.00     0.064 A 
ATOM     82  C   UNL A   1      33.603  34.937  28.880  1.00  0.00     0.016 A 
ATOM     83  C   UNL A   1      34.220  35.084  31.225  1.00  0.00     0.071 A 
ATOM     84  C   UNL A   1      33.060  36.219  28.939  1.00  0.00     0.002 A 
ATOM     85  C   UNL A   1      33.670  36.351  31.280  1.00  0.00     0.085 A 
ATOM     86  N   UNL A   1      34.763  34.562  32.392  1.00  0.00    -0.289 N 
ATOM     87  C   UNL A   1      33.101  36.931  30.138  1.00  0.00     0.018 A 
ATOM     88  C   UNL A   1      33.698  37.071  32.559  1.00  0.00     0.349 A 
ATOM     89  C   UNL A   1      34.803  35.235  33.576  1.00  0.00     0.419 A 
ATOM     90  H   UNL A   1      35.141  33.654  32.361  1.00  0.00     0.173 HD
ATOM     91  O   UNL A   1      33.201  38.191  32.632  1.00  0.00    -0.246 OA
ATOM     92  O   UNL A   1      34.277  36.485  33.630  1.00  0.00    -0.372 OA
ATOM     93  O   UNL A   1      35.308  34.718  34.569  1.00  0.00    -0.224 OA
ENDBRANCH  78  81
ENDBRANCH  76  77
ENDBRANCH  75  76
ENDBRANCH  74  75
ENDBRANCH   1  74
TORSDOF 14
ENDMDL
MODEL 3
REMARK VINA RESULT:     -12.0      3.582      5.148
REMARK SMILES O=C(NCCCCNC(=O)c1cccc2c(=O)oc(=O)[nH]c12)c1ccc(-c2c3nc(c(-c4c(F)cc(S(=O)(=O)[O-])cc4F)c4ccc([nH]4)c(-c4c(F)cc(S(=O)(=O)[O-])cc4F)c4nc(c(-c5c(F)cc(S(=O)(=O)[O-])cc5F)c5ccc2[nH]5)C=C4)C=C3)cc1
REMARK SMILES IDX 4 1 3 2 1 3 2 4 23 6 24 7 88 8 25 9 87 10 26 11 27 12 28 13
REMARK SMILES IDX 81 14 29 15 86 16 80 17 82 18 30 19 85 20 79 21 78 22 31 24
REMARK SMILES IDX 65 25 44 26 64 27 45 28 48 29 63 30 83 31 46 32 47 33 62 35
REMARK SMILES IDX 84 36 49 37 32 38 33 39 42 40 34 41 35 42 41 43 43 44 36 45
REMARK SMILES IDX 37 46 38 47 39 48 40 49 66 50 67 51 76 52 68 53 69 54 75 55
REMARK SMILES IDX 77 56 70 57 71 58 72 59 73 60 74 61 50 62 51 63 60 64 52 65
REMARK SMILES IDX 53 66 59 67 61 68 54 69 55 70 56 71 57 72 58 73 5 74 6 75
REMARK SMILES IDX 7 76 8 77 9 78 10 80 11 81 12 82 22 83 13 84 15 85 21 86
REMARK SMILES IDX 14 87 16 88 19 89 17 91 18 92 20 93
REMARK H PARENT 3 5 82 23 48 34 8 79 21 90
REMARK Flexibility Score: inf
ROOT
ATOM      1  C   UNL A   1      40.467  23.288  27.066  1.00  0.00     0.116 C 
ENDROOT
BRANCH   1   2
ATOM      2  N   UNL A   1      41.127  24.102  26.058  1.00  0.00    -0.352 N 
ATOM      3  O   UNL A   1      41.814  25.974  25.028  1.00  0.00    -0.269 OA
ATOM      4  C   UNL A   1      41.414  25.445  26.062  1.00  0.00     0.251 C 
ATOM      5  H   UNL A   1      41.411  23.618  25.250  1.00  0.00     0.163 HD
BRANCH   4   6
ATOM      6  C   UNL A   1      41.233  26.252  27.290  1.00  0.00     0.039 A 
ATOM      7  C   UNL A   1      40.143  25.981  28.121  1.00  0.00     0.014 A 
ATOM      8  C   UNL A   1      42.098  27.304  27.602  1.00  0.00     0.014 A 
ATOM      9  C   UNL A   1      39.931  26.757  29.263  1.00  0.00     0.010 A 
ATOM     10  C   UNL A   1      41.955  27.997  28.799  1.00  0.00     0.010 A 
ATOM     11  C   UNL A   1      40.837  27.771  29.612  1.00  0.00    -0.014 A 
BRANCH  11  12
ATOM     12  C   UNL A   1      40.557  28.690  30.747  1.00  0.00     0.031 A 
ATOM     13  C   UNL A   1      41.394  28.595  31.998  1.00  0.00     0.074 A 
ATOM     14  C   UNL A   1      39.571  29.602  30.660  1.00  0.00     0.049 A 
ATOM     15  N   UNL A   1      41.324  29.304  33.095  1.00  0.00    -0.248 NA
ATOM     16  C   UNL A   1      42.428  27.546  32.035  1.00  0.00     0.031 C 
ATOM     17  C   UNL A   1      38.672  29.770  29.517  1.00  0.00     0.029 A 
ATOM     18  N   UNL A   1      39.169  30.571  31.544  1.00  0.00    -0.354 N 
ATOM     19  C   UNL A   1      42.292  28.779  33.945  1.00  0.00     0.074 A 
ATOM     20  C   UNL A   1      42.873  27.640  33.277  1.00  0.00     0.031 C 
ATOM     21  C   UNL A   1      37.857  30.812  29.749  1.00  0.00     0.029 A 
ATOM     22  C   UNL A   1      38.150  31.364  31.070  1.00  0.00     0.049 A 
ATOM     23  H   UNL A   1      39.572  30.689  32.435  1.00  0.00     0.167 HD
ATOM     24  C   UNL A   1      42.699  29.233  35.153  1.00  0.00     0.037 A 
ATOM     25  C   UNL A   1      37.529  32.420  31.633  1.00  0.00     0.037 A 
ATOM     26  C   UNL A   1      42.146  30.392  35.797  1.00  0.00     0.049 A 
ATOM     27  C   UNL A   1      37.969  32.890  32.994  1.00  0.00     0.074 A 
ATOM     28  C   UNL A   1      42.525  30.973  36.992  1.00  0.00     0.029 A 
ATOM     29  N   UNL A   1      41.094  31.146  35.295  1.00  0.00    -0.354 N 
ATOM     30  N   UNL A   1      38.937  32.429  33.750  1.00  0.00    -0.248 NA
ATOM     31  C   UNL A   1      37.233  34.017  33.582  1.00  0.00     0.031 C 
ATOM     32  C   UNL A   1      41.664  32.044  37.244  1.00  0.00     0.029 A 
ATOM     33  C   UNL A   1      40.782  32.164  36.180  1.00  0.00     0.049 A 
ATOM     34  H   UNL A   1      40.637  30.981  34.439  1.00  0.00     0.167 HD
ATOM     35  C   UNL A   1      38.931  33.213  34.898  1.00  0.00     0.074 A 
ATOM     36  C   UNL A   1      37.877  34.193  34.729  1.00  0.00     0.031 C 
ATOM     37  C   UNL A   1      39.724  33.128  35.996  1.00  0.00     0.037 A 
BRANCH  24  38
ATOM     38  C   UNL A   1      43.803  28.478  35.844  1.00  0.00     0.058 A 
ATOM     39  C   UNL A   1      45.155  28.787  35.627  1.00  0.00     0.135 A 
ATOM     40  C   UNL A   1      43.505  27.438  36.740  1.00  0.00     0.135 A 
ATOM     41  F   UNL A   1      45.497  29.761  34.769  1.00  0.00    -0.206 F 
ATOM     42  C   UNL A   1      46.175  28.064  36.236  1.00  0.00     0.059 A 
ATOM     43  C   UNL A   1      44.510  26.723  37.388  1.00  0.00     0.059 A 
ATOM     44  F   UNL A   1      42.230  27.100  36.986  1.00  0.00    -0.206 F 
ATOM     45  C   UNL A   1      45.841  27.031  37.113  1.00  0.00     0.060 A 
BRANCH  45  46
ATOM     46  S   UNL A   1      47.179  26.090  37.876  1.00  0.00     0.124 S 
ATOM     47  O   UNL A   1      48.243  27.090  37.928  1.00  0.00    -0.237 OA
ATOM     48  O   UNL A   1      46.600  25.714  39.162  1.00  0.00    -0.237 OA
ATOM     49  O   UNL A   1      47.400  24.991  36.942  1.00  0.00    -0.744 OA
ENDBRANCH  45  46
ENDBRANCH  24  38
BRANCH  25  50
ATOM     50  C   UNL A   1      36.455  33.123  30.882  1.00  0.00     0.058 A 
ATOM     51  C   UNL A   1      35.110  32.996  31.260  1.00  0.00     0.135 A 
ATOM     52  C   UNL A   1      36.754  33.983  29.812  1.00  0.00     0.135 A 
ATOM     53  F   UNL A   1      34.772  32.179  32.268  1.00  0.00    -0.206 F 
ATOM     54  C   UNL A   1      34.101  33.704  30.614  1.00  0.00     0.059 A 
ATOM     55  C   UNL A   1      35.766  34.719  29.166  1.00  0.00     0.059 A 
ATOM     56  F   UNL A   1      38.026  34.148  29.417  1.00  0.00    -0.206 F 
ATOM     57  C   UNL A   1      34.441  34.575  29.577  1.00  0.00     0.060 A 
BRANCH  57  58
ATOM     58  S   UNL A   1      33.131  35.555  28.812  1.00  0.00     0.124 S 
ATOM     59  O   UNL A   1      33.899  36.529  28.044  1.00  0.00    -0.237 OA
ATOM     60  O   UNL A   1      32.416  34.548  28.034  1.00  0.00    -0.237 OA
ATOM     61  O   UNL A   1      32.398  36.090  29.956  1.00  0.00    -0.744 OA
ENDBRANCH  57  58
ENDBRANCH  25  50
BRANCH  37  62
ATOM     62  C   UNL A   1      39.483  34.095  37.120  1.00  0.00     0.058 A 
ATOM     63  C   UNL A   1      38.786  33.706  38.273  1.00  0.00     0.135 A 
ATOM     64  C   UNL A   1      40.068  35.372  37.105  1.00  0.00     0.135 A 
ATOM     65  F   UNL A   1      38.203  32.498  38.336  1.00  0.00    -0.206 F 
ATOM     66  C   UNL A   1      38.684  34.546  39.377  1.00  0.00     0.059 A 
ATOM     67  C   UNL A   1      40.002  36.218  38.207  1.00  0.00     0.059 A 
ATOM     68  F   UNL A   1      40.756  35.788  36.029  1.00  0.00    -0.206 F 
ATOM     69  C   UNL A   1      39.309  35.794  39.340  1.00  0.00     0.060 A 
BRANCH  69  70
ATOM     70  S   UNL A   1      39.241  36.830  40.816  1.00  0.00     0.124 S 
ATOM     71  O   UNL A   1      38.539  35.962  41.756  1.00  0.00    -0.237 OA
ATOM     72  O   UNL A   1      40.655  37.059  41.099  1.00  0.00    -0.237 OA
ATOM     73  O   UNL A   1      38.497  38.007  40.375  1.00  0.00    -0.744 OA
ENDBRANCH  69  70
ENDBRANCH  37  62
ENDBRANCH  11  12
ENDBRANCH   4   6
ENDBRANCH   1   2
BRANCH   1  74
ATOM     74  C   UNL A   1      39.125  22.747  26.592  1.00  0.00     0.023 C 
BRANCH  74  75
ATOM     75  C   UNL A   1      38.136  23.807  26.117  1.00  0.00     0.023 C 
BRANCH  75  76
ATOM     76  C   UNL A   1      36.720  23.297  25.865  1.00  0.00     0.116 C 
BRANCH  76  77
ATOM     77  N   UNL A   1      36.362  23.344  24.455  1.00  0.00    -0.352 N 
ATOM     78  C   UNL A   1      35.158  23.666  23.887  1.00  0.00     0.253 C 
ATOM     79  H   UNL A   1      37.082  23.113  23.825  1.00  0.00     0.163 HD
ATOM     80  O   UNL A   1      34.935  23.424  22.705  1.00  0.00    -0.269 OA
BRANCH  78  81
ATOM     81  C   UNL A   1      34.093  24.263  24.716  1.00  0.00     0.064 A 
ATOM     82  C   UNL A   1      34.153  25.625  25.049  1.00  0.00     0.016 A 
ATOM     83  C   UNL A   1      33.027  23.475  25.166  1.00  0.00     0.071 A 
ATOM     84  C   UNL A   1      33.193  26.177  25.895  1.00  0.00     0.002 A 
ATOM     85  C   UNL A   1      32.073  24.031  25.997  1.00  0.00     0.085 A 
ATOM     86  N   UNL A   1      32.886  22.138  24.820  1.00  0.00    -0.289 N 
ATOM     87  C   UNL A   1      32.157  25.378  26.378  1.00  0.00     0.018 A 
ATOM     88  C   UNL A   1      30.975  23.179  26.470  1.00  0.00     0.349 A 
ATOM     89  C   UNL A   1      31.875  21.342  25.270  1.00  0.00     0.419 A 
ATOM     90  H   UNL A   1      33.554  21.742  24.215  1.00  0.00     0.173 HD
ATOM     91  O   UNL A   1      30.110  23.658  27.196  1.00  0.00    -0.246 OA
ATOM     92  O   UNL A   1      30.945  21.881  26.098  1.00  0.00    -0.372 OA
ATOM     93  O   UNL A   1      31.815  20.162  24.933  1.00  0.00    -0.224 OA
ENDBRANCH  78  81
ENDBRANCH  76  77
ENDBRANCH  75  76
ENDBRANCH  74  75
ENDBRANCH   1  74
TORSDOF 14
ENDMDL
