MODEL 1
REMARK VINA RESULT:     -13.0      0.000      0.000
REMARK SMILES COC(=O)c1sc(SCC(=O)NCCCCNC(=O)c2ccc(-c3c4nc(c(-c5c(F)cc(S(=O)(=O)[O-])cc5F)c5ccc([nH]5)c(-c5c(F)cc(S(=O)(=O)[O-])cc5F)c5nc(c(-c6c(F)cc(S(=O)(=O)[O-])cc6F)c6ccc3[nH]6)C=C5)C=C4)cc2)c(NC(=O)c2ccccc2)c1O
REMARK SMILES IDX 14 1 13 2 12 3 10 4 11 5 9 7 8 8 7 9 5 10 6 11 96 12 86 13
REMARK SMILES IDX 3 14 4 15 2 16 1 17 97 18 87 20 88 21 89 23 90 24 91 25
REMARK SMILES IDX 95 26 92 27 94 28 93 29 15 30 16 31 17 32 18 33 19 35 20 36
REMARK SMILES IDX 21 37 85 38 22 39 84 40 23 41 24 42 25 43 78 44 26 45 83 46
REMARK SMILES IDX 77 47 79 48 27 49 82 50 76 51 75 52 28 54 62 55 41 56 61 57
REMARK SMILES IDX 42 58 45 59 60 60 80 61 43 62 44 63 59 65 81 66 46 67 29 68
REMARK SMILES IDX 30 69 39 70 31 71 32 72 38 73 40 74 33 75 34 76 35 77 36 78
REMARK SMILES IDX 37 79 63 80 64 81 73 82 65 83 66 84 72 85 74 86 67 87 68 88
REMARK SMILES IDX 69 89 70 90 71 91 47 92 48 93 57 94 49 95 50 96 56 97 58 98
REMARK SMILES IDX 51 99 52 100 53 101 54 102 55 103
REMARK H PARENT 12 6 97 19 87 22 17 34 79 53 45 64
REMARK Flexibility Score: inf
ROOT
ATOM      1  C   UNL A   1      41.668  21.384  27.698  1.00  0.00     0.023 C 
ENDROOT
BRANCH   1   2
ATOM      2  C   UNL A   1      40.784  22.034  26.629  1.00  0.00     0.116 C 
BRANCH   2   3
ATOM      3  N   UNL A   1      39.724  21.181  26.150  1.00  0.00    -0.355 N 
ATOM      4  C   UNL A   1      38.471  21.485  25.676  1.00  0.00     0.230 C 
ATOM      5  O   UNL A   1      37.840  20.531  25.210  1.00  0.00    -0.274 OA
ATOM      6  H   UNL A   1      39.933  20.219  26.166  1.00  0.00     0.163 HD
BRANCH   4   7
ATOM      7  C   UNL A   1      37.866  23.142  25.667  1.00  0.00     0.175 C 
BRANCH   7   8
ATOM      8  S   UNL A   1      35.702  24.067  24.627  1.00  0.00    -0.103 SA
BRANCH   8   9
ATOM      9  C   UNL A   1      34.369  22.839  24.098  1.00  0.00     0.089 A 
ATOM     10  C   UNL A   1      32.942  20.777  23.974  1.00  0.00     0.157 A 
ATOM     11  S   UNL A   1      34.156  21.389  25.027  1.00  0.00    -0.116 S 
ATOM     12  C   UNL A   1      32.681  21.681  22.969  1.00  0.00     0.166 A 
ATOM     13  C   UNL A   1      33.454  22.871  23.043  1.00  0.00     0.109 A 
BRANCH  10  14
ATOM     14  C   UNL A   1      32.333  19.482  24.219  1.00  0.00     0.352 C 
ATOM     15  O   UNL A   1      32.040  18.995  25.303  1.00  0.00    -0.245 OA
BRANCH  14  16
ATOM     16  O   UNL A   1      32.098  18.867  23.015  1.00  0.00    -0.465 OA
ATOM     17  C   UNL A   1      32.886  17.705  22.739  1.00  0.00     0.282 C 
ENDBRANCH  14  16
ENDBRANCH  10  14
BRANCH  12  18
ATOM     18  O   UNL A   1      31.791  21.475  21.969  1.00  0.00    -0.504 OA
ATOM     19  H   UNL A   1      31.269  22.185  21.652  1.00  0.00     0.293 HD
ENDBRANCH  12  18
BRANCH  13  20
ATOM     20  N   UNL A   1      33.263  23.854  22.078  1.00  0.00    -0.317 N 
ATOM     21  C   UNL A   1      32.525  24.985  22.229  1.00  0.00     0.255 C 
ATOM     22  H   UNL A   1      33.702  23.718  21.207  1.00  0.00     0.170 HD
ATOM     23  O   UNL A   1      32.076  25.632  21.297  1.00  0.00    -0.269 OA
BRANCH  21  24
ATOM     24  C   UNL A   1      32.248  25.328  23.619  1.00  0.00     0.040 A 
ATOM     25  C   UNL A   1      33.287  26.587  24.349  1.00  0.00     0.014 A 
ATOM     26  C   UNL A   1      30.640  24.885  24.402  1.00  0.00     0.014 A 
ATOM     27  C   UNL A   1      32.750  27.398  25.851  1.00  0.00     0.001 A 
ATOM     28  C   UNL A   1      30.123  25.759  25.894  1.00  0.00     0.001 A 
ATOM     29  C   UNL A   1      31.183  27.015  26.602  1.00  0.00     0.000 A 
ENDBRANCH  21  24
ENDBRANCH  13  20
ENDBRANCH   8   9
ENDBRANCH   7   8
ENDBRANCH   4   7
ENDBRANCH   2   3
ENDBRANCH   1   2
BRANCH   1  30
ATOM     30  C   UNL A   1      42.486  20.157  27.303  1.00  0.00     0.023 C 
BRANCH  30  31
ATOM     31  C   UNL A   1      42.739  20.027  25.816  1.00  0.00     0.116 C 
BRANCH  31  32
ATOM     32  N   UNL A   1      44.146  19.755  25.497  1.00  0.00    -0.352 N 
ATOM     33  C   UNL A   1      45.095  20.660  25.043  1.00  0.00     0.251 C 
ATOM     34  H   UNL A   1      44.450  18.827  25.619  1.00  0.00     0.163 HD
ATOM     35  O   UNL A   1      46.110  20.291  24.470  1.00  0.00    -0.269 OA
BRANCH  33  36
ATOM     36  C   UNL A   1      44.858  22.078  25.347  1.00  0.00     0.039 A 
ATOM     37  C   UNL A   1      43.938  22.884  24.682  1.00  0.00     0.014 A 
ATOM     38  C   UNL A   1      45.533  22.538  26.468  1.00  0.00     0.014 A 
ATOM     39  C   UNL A   1      43.694  24.155  25.200  1.00  0.00     0.010 A 
ATOM     40  C   UNL A   1      45.043  23.612  27.140  1.00  0.00     0.010 A 
ATOM     41  C   UNL A   1      44.259  24.504  26.442  1.00  0.00    -0.014 A 
BRANCH  41  42
ATOM     42  C   UNL A   1      43.966  25.738  27.149  1.00  0.00     0.031 A 
ATOM     43  C   UNL A   1      44.936  26.809  26.820  1.00  0.00     0.074 A 
ATOM     44  C   UNL A   1      42.800  25.932  27.814  1.00  0.00     0.049 A 
ATOM     45  N   UNL A   1      45.940  27.191  27.534  1.00  0.00    -0.248 NA
ATOM     46  C   UNL A   1      44.966  27.331  25.440  1.00  0.00     0.031 C 
ATOM     47  C   UNL A   1      41.628  25.047  27.920  1.00  0.00     0.029 A 
ATOM     48  N   UNL A   1      42.385  27.031  28.504  1.00  0.00    -0.354 N 
ATOM     49  C   UNL A   1      46.523  28.232  26.823  1.00  0.00     0.074 A 
ATOM     50  C   UNL A   1      46.073  28.079  25.466  1.00  0.00     0.031 C 
ATOM     51  C   UNL A   1      40.572  25.725  28.428  1.00  0.00     0.029 A 
ATOM     52  C   UNL A   1      41.026  27.034  28.853  1.00  0.00     0.049 A 
ATOM     53  H   UNL A   1      42.993  27.768  28.742  1.00  0.00     0.167 HD
ATOM     54  C   UNL A   1      47.055  29.299  27.482  1.00  0.00     0.037 A 
ATOM     55  C   UNL A   1      40.354  28.054  29.461  1.00  0.00     0.037 A 
ATOM     56  C   UNL A   1      47.209  28.990  28.887  1.00  0.00     0.049 A 
ATOM     57  C   UNL A   1      41.395  28.898  30.113  1.00  0.00     0.074 A 
ATOM     58  C   UNL A   1      47.917  28.045  29.603  1.00  0.00     0.029 A 
ATOM     59  N   UNL A   1      46.217  29.435  29.729  1.00  0.00    -0.354 N 
ATOM     60  N   UNL A   1      42.165  28.467  31.079  1.00  0.00    -0.248 NA
ATOM     61  C   UNL A   1      41.937  29.991  29.319  1.00  0.00     0.031 C 
ATOM     62  C   UNL A   1      47.028  27.626  30.638  1.00  0.00     0.029 A 
ATOM     63  C   UNL A   1      45.875  28.410  30.575  1.00  0.00     0.049 A 
ATOM     64  H   UNL A   1      45.819  30.335  29.725  1.00  0.00     0.167 HD
ATOM     65  C   UNL A   1      43.437  28.920  30.752  1.00  0.00     0.074 A 
ATOM     66  C   UNL A   1      43.224  29.878  29.664  1.00  0.00     0.031 C 
ATOM     67  C   UNL A   1      44.560  28.258  31.167  1.00  0.00     0.037 A 
BRANCH  54  68
ATOM     68  C   UNL A   1      47.026  30.725  26.978  1.00  0.00     0.058 A 
ATOM     69  C   UNL A   1      48.211  31.488  27.041  1.00  0.00     0.135 A 
ATOM     70  C   UNL A   1      45.850  31.457  26.697  1.00  0.00     0.135 A 
ATOM     71  F   UNL A   1      49.389  30.902  27.301  1.00  0.00    -0.206 F 
ATOM     72  C   UNL A   1      48.215  32.878  26.914  1.00  0.00     0.059 A 
ATOM     73  C   UNL A   1      45.840  32.836  26.518  1.00  0.00     0.059 A 
ATOM     74  F   UNL A   1      44.637  30.896  26.668  1.00  0.00    -0.206 F 
ATOM     75  C   UNL A   1      47.020  33.543  26.663  1.00  0.00     0.060 A 
BRANCH  75  76
ATOM     76  S   UNL A   1      47.014  35.340  26.558  1.00  0.00     0.124 S 
ATOM     77  O   UNL A   1      47.980  35.696  27.590  1.00  0.00    -0.237 OA
ATOM     78  O   UNL A   1      47.440  35.558  25.179  1.00  0.00    -0.237 OA
ATOM     79  O   UNL A   1      45.625  35.689  26.840  1.00  0.00    -0.744 OA
ENDBRANCH  75  76
ENDBRANCH  54  68
BRANCH  55  80
ATOM     80  C   UNL A   1      38.994  28.584  29.129  1.00  0.00     0.058 A 
ATOM     81  C   UNL A   1      37.993  28.744  30.109  1.00  0.00     0.135 A 
ATOM     82  C   UNL A   1      38.751  29.225  27.899  1.00  0.00     0.135 A 
ATOM     83  F   UNL A   1      38.148  28.194  31.324  1.00  0.00    -0.206 F 
ATOM     84  C   UNL A   1      36.842  29.521  29.894  1.00  0.00     0.059 A 
ATOM     85  C   UNL A   1      37.614  30.004  27.661  1.00  0.00     0.059 A 
ATOM     86  F   UNL A   1      39.662  29.187  26.916  1.00  0.00    -0.206 F 
ATOM     87  C   UNL A   1      36.670  30.165  28.669  1.00  0.00     0.060 A 
BRANCH  87  88
ATOM     88  S   UNL A   1      35.269  31.291  28.430  1.00  0.00     0.124 S 
ATOM     89  O   UNL A   1      34.265  30.407  27.847  1.00  0.00    -0.237 OA
ATOM     90  O   UNL A   1      35.001  31.746  29.790  1.00  0.00    -0.237 OA
ATOM     91  O   UNL A   1      35.801  32.310  27.530  1.00  0.00    -0.744 OA
ENDBRANCH  87  88
ENDBRANCH  55  80
BRANCH  67  92
ATOM     92  C   UNL A   1      44.418  27.174  32.212  1.00  0.00     0.058 A 
ATOM     93  C   UNL A   1      44.179  27.386  33.583  1.00  0.00     0.135 A 
ATOM     94  C   UNL A   1      44.345  25.851  31.754  1.00  0.00     0.135 A 
ATOM     95  F   UNL A   1      44.142  28.625  34.092  1.00  0.00    -0.206 F 
ATOM     96  C   UNL A   1      43.903  26.328  34.458  1.00  0.00     0.059 A 
ATOM     97  C   UNL A   1      44.043  24.787  32.599  1.00  0.00     0.059 A 
ATOM     98  F   UNL A   1      44.506  25.584  30.448  1.00  0.00    -0.206 F 
ATOM     99  C   UNL A   1      43.833  25.029  33.954  1.00  0.00     0.060 A 
BRANCH  99 100
ATOM    100  S   UNL A   1      43.415  23.660  35.057  1.00  0.00     0.124 S 
ATOM    101  O   UNL A   1      43.863  22.501  34.292  1.00  0.00    -0.237 OA
ATOM    102  O   UNL A   1      44.191  23.969  36.255  1.00  0.00    -0.237 OA
ATOM    103  O   UNL A   1      41.967  23.779  35.216  1.00  0.00    -0.744 OA
ENDBRANCH  99 100
ENDBRANCH  67  92
ENDBRANCH  41  42
ENDBRANCH  33  36
ENDBRANCH  31  32
ENDBRANCH  30  31
ENDBRANCH   1  30
TORSDOF 21
ENDMDL
MODEL 2
REMARK VINA RESULT:     -12.4      1.410      3.090
REMARK SMILES COC(=O)c1sc(SCC(=O)NCCCCNC(=O)c2ccc(-c3c4nc(c(-c5c(F)cc(S(=O)(=O)[O-])cc5F)c5ccc([nH]5)c(-c5c(F)cc(S(=O)(=O)[O-])cc5F)c5nc(c(-c6c(F)cc(S(=O)(=O)[O-])cc6F)c6ccc3[nH]6)C=C5)C=C4)cc2)c(NC(=O)c2ccccc2)c1O
REMARK SMILES IDX 14 1 13 2 12 3 10 4 11 5 9 7 8 8 7 9 5 10 6 11 96 12 86 13
REMARK SMILES IDX 3 14 4 15 2 16 1 17 97 18 87 20 88 21 89 23 90 24 91 25
REMARK SMILES IDX 95 26 92 27 94 28 93 29 15 30 16 31 17 32 18 33 19 35 20 36
REMARK SMILES IDX 21 37 85 38 22 39 84 40 23 41 24 42 25 43 78 44 26 45 83 46
REMARK SMILES IDX 77 47 79 48 27 49 82 50 76 51 75 52 28 54 62 55 41 56 61 57
REMARK SMILES IDX 42 58 45 59 60 60 80 61 43 62 44 63 59 65 81 66 46 67 29 68
REMARK SMILES IDX 30 69 39 70 31 71 32 72 38 73 40 74 33 75 34 76 35 77 36 78
REMARK SMILES IDX 37 79 63 80 64 81 73 82 65 83 66 84 72 85 74 86 67 87 68 88
REMARK SMILES IDX 69 89 70 90 71 91 47 92 48 93 57 94 49 95 50 96 56 97 58 98
REMARK SMILES IDX 51 99 52 100 53 101 54 102 55 103
REMARK H PARENT 12 6 97 19 87 22 17 34 79 53 45 64
REMARK Flexibility Score: inf
ROOT
ATOM      1  C   UNL A   1      40.841  21.370  27.620  1.00  0.00     0.023 C 
ENDROOT
BRANCH   1   2
ATOM      2  C   UNL A   1      40.192  22.060  26.417  1.00  0.00     0.116 C 
BRANCH   2   3
ATOM      3  N   UNL A   1      39.232  21.238  25.721  1.00  0.00    -0.355 N 
ATOM      4  C   UNL A   1      37.937  21.494  25.343  1.00  0.00     0.230 C 
ATOM      5  O   UNL A   1      37.416  20.628  24.634  1.00  0.00    -0.274 OA
ATOM      6  H   UNL A   1      39.561  20.343  25.475  1.00  0.00     0.163 HD
BRANCH   4   7
ATOM      7  C   UNL A   1      37.128  22.999  25.784  1.00  0.00     0.175 C 
BRANCH   7   8
ATOM      8  S   UNL A   1      34.785  23.342  26.788  1.00  0.00    -0.103 SA
BRANCH   8   9
ATOM      9  C   UNL A   1      33.678  24.675  26.040  1.00  0.00     0.089 A 
ATOM     10  C   UNL A   1      32.917  26.723  24.802  1.00  0.00     0.157 A 
ATOM     11  S   UNL A   1      34.393  25.863  24.997  1.00  0.00    -0.116 S 
ATOM     12  C   UNL A   1      31.901  26.089  25.482  1.00  0.00     0.166 A 
ATOM     13  C   UNL A   1      32.305  24.908  26.160  1.00  0.00     0.109 A 
BRANCH  10  14
ATOM     14  C   UNL A   1      32.863  27.929  23.995  1.00  0.00     0.352 C 
ATOM     15  O   UNL A   1      32.489  29.040  24.347  1.00  0.00    -0.245 OA
BRANCH  14  16
ATOM     16  O   UNL A   1      33.336  27.643  22.739  1.00  0.00    -0.465 OA
ATOM     17  C   UNL A   1      32.605  26.659  22.002  1.00  0.00     0.282 C 
ENDBRANCH  14  16
ENDBRANCH  10  14
BRANCH  12  18
ATOM     18  O   UNL A   1      30.625  26.539  25.541  1.00  0.00    -0.504 OA
ATOM     19  H   UNL A   1      30.368  27.286  25.039  1.00  0.00     0.293 HD
ENDBRANCH  12  18
BRANCH  13  20
ATOM     20  N   UNL A   1      31.354  24.187  26.873  1.00  0.00    -0.317 N 
ATOM     21  C   UNL A   1      30.750  23.041  26.461  1.00  0.00     0.255 C 
ATOM     22  H   UNL A   1      31.094  24.537  27.755  1.00  0.00     0.170 HD
ATOM     23  O   UNL A   1      29.691  22.632  26.908  1.00  0.00    -0.269 OA
BRANCH  21  24
ATOM     24  C   UNL A   1      31.448  22.364  25.373  1.00  0.00     0.040 A 
ATOM     25  C   UNL A   1      32.171  20.776  25.758  1.00  0.00     0.014 A 
ATOM     26  C   UNL A   1      31.166  22.853  23.619  1.00  0.00     0.014 A 
ATOM     27  C   UNL A   1      32.626  19.677  24.421  1.00  0.00     0.001 A 
ATOM     28  C   UNL A   1      31.604  21.694  22.307  1.00  0.00     0.001 A 
ATOM     29  C   UNL A   1      32.326  20.110  22.722  1.00  0.00     0.000 A 
ENDBRANCH  21  24
ENDBRANCH  13  20
ENDBRANCH   8   9
ENDBRANCH   7   8
ENDBRANCH   4   7
ENDBRANCH   2   3
ENDBRANCH   1   2
BRANCH   1  30
ATOM     30  C   UNL A   1      42.111  20.557  27.383  1.00  0.00     0.023 C 
BRANCH  30  31
ATOM     31  C   UNL A   1      42.244  20.003  25.980  1.00  0.00     0.116 C 
BRANCH  31  32
ATOM     32  N   UNL A   1      43.633  19.699  25.615  1.00  0.00    -0.352 N 
ATOM     33  C   UNL A   1      44.581  20.578  25.111  1.00  0.00     0.251 C 
ATOM     34  H   UNL A   1      43.925  18.767  25.740  1.00  0.00     0.163 HD
ATOM     35  O   UNL A   1      45.568  20.180  24.508  1.00  0.00    -0.269 OA
BRANCH  33  36
ATOM     36  C   UNL A   1      44.382  22.006  25.400  1.00  0.00     0.039 A 
ATOM     37  C   UNL A   1      43.476  22.826  24.732  1.00  0.00     0.014 A 
ATOM     38  C   UNL A   1      45.077  22.461  26.510  1.00  0.00     0.014 A 
ATOM     39  C   UNL A   1      43.268  24.108  25.237  1.00  0.00     0.010 A 
ATOM     40  C   UNL A   1      44.619  23.554  27.173  1.00  0.00     0.010 A 
ATOM     41  C   UNL A   1      43.852  24.458  26.470  1.00  0.00    -0.014 A 
BRANCH  41  42
ATOM     42  C   UNL A   1      43.595  25.707  27.165  1.00  0.00     0.031 A 
ATOM     43  C   UNL A   1      44.596  26.745  26.827  1.00  0.00     0.074 A 
ATOM     44  C   UNL A   1      42.434  25.943  27.827  1.00  0.00     0.049 A 
ATOM     45  N   UNL A   1      45.610  27.104  27.538  1.00  0.00    -0.248 NA
ATOM     46  C   UNL A   1      44.643  27.253  25.441  1.00  0.00     0.031 C 
ATOM     47  C   UNL A   1      41.237  25.093  27.939  1.00  0.00     0.029 A 
ATOM     48  N   UNL A   1      42.051  27.060  28.505  1.00  0.00    -0.354 N 
ATOM     49  C   UNL A   1      46.225  28.120  26.817  1.00  0.00     0.074 A 
ATOM     50  C   UNL A   1      45.772  27.967  25.462  1.00  0.00     0.031 C 
ATOM     51  C   UNL A   1      40.200  25.808  28.439  1.00  0.00     0.029 A 
ATOM     52  C   UNL A   1      40.693  27.107  28.852  1.00  0.00     0.049 A 
ATOM     53  H   UNL A   1      42.680  27.781  28.736  1.00  0.00     0.167 HD
ATOM     54  C   UNL A   1      46.787  29.178  27.467  1.00  0.00     0.037 A 
ATOM     55  C   UNL A   1      40.050  28.152  29.449  1.00  0.00     0.037 A 
ATOM     56  C   UNL A   1      46.931  28.879  28.875  1.00  0.00     0.049 A 
ATOM     57  C   UNL A   1      41.115  28.972  30.094  1.00  0.00     0.074 A 
ATOM     58  C   UNL A   1      47.610  27.919  29.601  1.00  0.00     0.029 A 
ATOM     59  N   UNL A   1      45.952  29.361  29.711  1.00  0.00    -0.354 N 
ATOM     60  N   UNL A   1      41.872  28.527  31.065  1.00  0.00    -0.248 NA
ATOM     61  C   UNL A   1      41.691  30.040  29.290  1.00  0.00     0.031 C 
ATOM     62  C   UNL A   1      46.708  27.537  30.639  1.00  0.00     0.029 A 
ATOM     63  C   UNL A   1      45.579  28.355  30.567  1.00  0.00     0.049 A 
ATOM     64  H   UNL A   1      45.581  30.272  29.698  1.00  0.00     0.167 HD
ATOM     65  C   UNL A   1      43.156  28.939  30.736  1.00  0.00     0.074 A 
ATOM     66  C   UNL A   1      42.973  29.892  29.638  1.00  0.00     0.031 C 
ATOM     67  C   UNL A   1      44.259  28.248  31.158  1.00  0.00     0.037 A 
BRANCH  54  68
ATOM     68  C   UNL A   1      46.802  30.599  26.949  1.00  0.00     0.058 A 
ATOM     69  C   UNL A   1      48.014  31.320  26.985  1.00  0.00     0.135 A 
ATOM     70  C   UNL A   1      45.648  31.370  26.679  1.00  0.00     0.135 A 
ATOM     71  F   UNL A   1      49.175  30.693  27.233  1.00  0.00    -0.206 F 
ATOM     72  C   UNL A   1      48.066  32.707  26.844  1.00  0.00     0.059 A 
ATOM     73  C   UNL A   1      45.685  32.747  26.486  1.00  0.00     0.059 A 
ATOM     74  F   UNL A   1      44.416  30.853  26.675  1.00  0.00    -0.206 F 
ATOM     75  C   UNL A   1      46.891  33.412  26.605  1.00  0.00     0.060 A 
BRANCH  75  76
ATOM     76  S   UNL A   1      46.948  35.207  26.482  1.00  0.00     0.124 S 
ATOM     77  O   UNL A   1      45.533  35.537  26.366  1.00  0.00    -0.237 OA
ATOM     78  O   UNL A   1      47.591  35.571  27.740  1.00  0.00    -0.237 OA
ATOM     79  O   UNL A   1      47.753  35.436  25.285  1.00  0.00    -0.744 OA
ENDBRANCH  75  76
ENDBRANCH  54  68
BRANCH  55  80
ATOM     80  C   UNL A   1      38.707  28.719  29.110  1.00  0.00     0.058 A 
ATOM     81  C   UNL A   1      37.709  28.914  30.086  1.00  0.00     0.135 A 
ATOM     82  C   UNL A   1      38.486  29.359  27.875  1.00  0.00     0.135 A 
ATOM     83  F   UNL A   1      37.845  28.369  31.305  1.00  0.00    -0.206 F 
ATOM     84  C   UNL A   1      36.581  29.723  29.863  1.00  0.00     0.059 A 
ATOM     85  C   UNL A   1      37.373  30.168  27.629  1.00  0.00     0.059 A 
ATOM     86  F   UNL A   1      39.398  29.288  26.894  1.00  0.00    -0.206 F 
ATOM     87  C   UNL A   1      36.431  30.363  28.633  1.00  0.00     0.060 A 
BRANCH  87  88
ATOM     88  S   UNL A   1      35.064  31.528  28.383  1.00  0.00     0.124 S 
ATOM     89  O   UNL A   1      34.730  31.902  29.753  1.00  0.00    -0.237 OA
ATOM     90  O   UNL A   1      35.687  32.570  27.574  1.00  0.00    -0.237 OA
ATOM     91  O   UNL A   1      34.057  30.727  27.692  1.00  0.00    -0.744 OA
ENDBRANCH  87  88
ENDBRANCH  55  80
BRANCH  67  92
ATOM     92  C   UNL A   1      44.083  27.179  32.214  1.00  0.00     0.058 A 
ATOM     93  C   UNL A   1      44.084  25.790  31.980  1.00  0.00     0.135 A 
ATOM     94  C   UNL A   1      44.093  27.595  33.552  1.00  0.00     0.135 A 
ATOM     95  F   UNL A   1      44.163  25.302  30.735  1.00  0.00    -0.206 F 
ATOM     96  C   UNL A   1      44.074  24.864  33.030  1.00  0.00     0.059 A 
ATOM     97  C   UNL A   1      44.112  26.694  34.612  1.00  0.00     0.059 A 
ATOM     98  F   UNL A   1      44.150  28.905  33.847  1.00  0.00    -0.206 F 
ATOM     99  C   UNL A   1      44.092  25.327  34.346  1.00  0.00     0.060 A 
BRANCH  99 100
ATOM    100  S   UNL A   1      44.143  24.145  35.712  1.00  0.00     0.124 S 
ATOM    101  O   UNL A   1      45.559  24.145  36.066  1.00  0.00    -0.237 OA
ATOM    102  O   UNL A   1      43.245  24.751  36.691  1.00  0.00    -0.237 OA
ATOM    103  O   UNL A   1      43.651  22.907  35.112  1.00  0.00    -0.744 OA
ENDBRANCH  99 100
ENDBRANCH  67  92
ENDBRANCH  41  42
ENDBRANCH  33  36
ENDBRANCH  31  32
ENDBRANCH  30  31
ENDBRANCH   1  30
TORSDOF 21
ENDMDL
MODEL 3
REMARK VINA RESULT:     -11.2      3.275      9.746
REMARK SMILES COC(=O)c1sc(SCC(=O)NCCCCNC(=O)c2ccc(-c3c4nc(c(-c5c(F)cc(S(=O)(=O)[O-])cc5F)c5ccc([nH]5)c(-c5c(F)cc(S(=O)(=O)[O-])cc5F)c5nc(c(-c6c(F)cc(S(=O)(=O)[O-])cc6F)c6ccc3[nH]6)C=C5)C=C4)cc2)c(NC(=O)c2ccccc2)c1O
REMARK SMILES IDX 14 1 13 2 12 3 10 4 11 5 9 7 8 8 7 9 5 10 6 11 96 12 86 13
REMARK SMILES IDX 3 14 4 15 2 16 1 17 97 18 87 20 88 21 89 23 90 24 91 25
REMARK SMILES IDX 95 26 92 27 94 28 93 29 15 30 16 31 17 32 18 33 19 35 20 36
REMARK SMILES IDX 21 37 85 38 22 39 84 40 23 41 24 42 25 43 78 44 26 45 83 46
REMARK SMILES IDX 77 47 79 48 27 49 82 50 76 51 75 52 28 54 62 55 41 56 61 57
REMARK SMILES IDX 42 58 45 59 60 60 80 61 43 62 44 63 59 65 81 66 46 67 29 68
REMARK SMILES IDX 30 69 39 70 31 71 32 72 38 73 40 74 33 75 34 76 35 77 36 78
REMARK SMILES IDX 37 79 63 80 64 81 73 82 65 83 66 84 72 85 74 86 67 87 68 88
REMARK SMILES IDX 69 89 70 90 71 91 47 92 48 93 57 94 49 95 50 96 56 97 58 98
REMARK SMILES IDX 51 99 52 100 53 101 54 102 55 103
REMARK H PARENT 12 6 97 19 87 22 17 34 79 53 45 64
REMARK Flexibility Score: inf
ROOT
ATOM      1  C   UNL A   1      33.308  34.549  29.070  1.00  0.00     0.023 C 
ENDROOT
BRANCH   1   2
ATOM      2  C   UNL A   1      34.251  34.438  27.868  1.00  0.00     0.116 C 
BRANCH   2   3
ATOM      3  N   UNL A   1      35.326  33.495  28.056  1.00  0.00    -0.355 N 
ATOM      4  C   UNL A   1      35.358  32.130  27.907  1.00  0.00     0.230 C 
ATOM      5  O   UNL A   1      36.476  31.616  28.012  1.00  0.00    -0.274 OA
ATOM      6  H   UNL A   1      36.179  33.896  28.338  1.00  0.00     0.163 HD
BRANCH   4   7
ATOM      7  C   UNL A   1      33.905  31.210  27.511  1.00  0.00     0.175 C 
BRANCH   7   8
ATOM      8  S   UNL A   1      33.633  28.671  27.198  1.00  0.00    -0.103 SA
BRANCH   8   9
ATOM      9  C   UNL A   1      32.466  28.058  25.847  1.00  0.00     0.089 A 
ATOM     10  C   UNL A   1      31.139  27.933  23.719  1.00  0.00     0.157 A 
ATOM     11  S   UNL A   1      32.371  28.948  24.360  1.00  0.00    -0.116 S 
ATOM     12  C   UNL A   1      30.846  26.919  24.603  1.00  0.00     0.166 A 
ATOM     13  C   UNL A   1      31.612  26.952  25.799  1.00  0.00     0.109 A 
BRANCH  10  14
ATOM     14  C   UNL A   1      30.573  28.195  22.408  1.00  0.00     0.352 C 
ATOM     15  O   UNL A   1      30.121  29.254  21.994  1.00  0.00    -0.245 OA
BRANCH  14  16
ATOM     16  O   UNL A   1      30.644  27.048  21.657  1.00  0.00    -0.465 OA
ATOM     17  C   UNL A   1      31.941  26.458  21.533  1.00  0.00     0.282 C 
ENDBRANCH  14  16
ENDBRANCH  10  14
BRANCH  12  18
ATOM     18  O   UNL A   1      29.899  25.974  24.394  1.00  0.00    -0.504 OA
ATOM     19  H   UNL A   1      30.133  25.067  24.402  1.00  0.00     0.293 HD
ENDBRANCH  12  18
BRANCH  13  20
ATOM     20  N   UNL A   1      31.399  25.968  26.757  1.00  0.00    -0.317 N 
ATOM     21  C   UNL A   1      31.757  24.661  26.650  1.00  0.00     0.255 C 
ATOM     22  H   UNL A   1      30.949  26.242  27.589  1.00  0.00     0.170 HD
ATOM     23  O   UNL A   1      31.256  23.764  27.308  1.00  0.00    -0.269 OA
BRANCH  21  24
ATOM     24  C   UNL A   1      32.753  24.405  25.616  1.00  0.00     0.040 A 
ATOM     25  C   UNL A   1      34.465  24.589  26.098  1.00  0.00     0.014 A 
ATOM     26  C   UNL A   1      32.316  23.468  24.091  1.00  0.00     0.014 A 
ATOM     27  C   UNL A   1      35.742  23.863  25.076  1.00  0.00     0.001 A 
ATOM     28  C   UNL A   1      33.637  22.720  23.115  1.00  0.00     0.001 A 
ATOM     29  C   UNL A   1      35.341  22.920  23.622  1.00  0.00     0.000 A 
ENDBRANCH  21  24
ENDBRANCH  13  20
ENDBRANCH   8   9
ENDBRANCH   7   8
ENDBRANCH   4   7
ENDBRANCH   2   3
ENDBRANCH   1   2
BRANCH   1  30
ATOM     30  C   UNL A   1      33.917  34.857  30.435  1.00  0.00     0.023 C 
BRANCH  30  31
ATOM     31  C   UNL A   1      34.442  33.643  31.172  1.00  0.00     0.116 C 
BRANCH  31  32
ATOM     32  N   UNL A   1      34.697  33.904  32.594  1.00  0.00    -0.352 N 
ATOM     33  C   UNL A   1      35.649  33.299  33.402  1.00  0.00     0.251 C 
ATOM     34  H   UNL A   1      34.129  34.584  33.023  1.00  0.00     0.163 HD
ATOM     35  O   UNL A   1      35.554  33.308  34.622  1.00  0.00    -0.269 OA
BRANCH  33  36
ATOM     36  C   UNL A   1      36.815  32.711  32.727  1.00  0.00     0.039 A 
ATOM     37  C   UNL A   1      37.976  33.409  32.408  1.00  0.00     0.014 A 
ATOM     38  C   UNL A   1      36.733  31.338  32.548  1.00  0.00     0.014 A 
ATOM     39  C   UNL A   1      39.064  32.676  31.935  1.00  0.00     0.010 A 
ATOM     40  C   UNL A   1      37.877  30.619  32.421  1.00  0.00     0.010 A 
ATOM     41  C   UNL A   1      38.997  31.270  31.950  1.00  0.00    -0.014 A 
BRANCH  41  42
ATOM     42  C   UNL A   1      40.111  30.400  31.618  1.00  0.00     0.031 A 
ATOM     43  C   UNL A   1      40.911  30.046  32.814  1.00  0.00     0.074 A 
ATOM     44  C   UNL A   1      40.225  29.797  30.408  1.00  0.00     0.049 A 
ATOM     45  N   UNL A   1      42.036  30.565  33.175  1.00  0.00    -0.248 NA
ATOM     46  C   UNL A   1      40.279  29.227  33.867  1.00  0.00     0.031 C 
ATOM     47  C   UNL A   1      39.300  29.824  29.263  1.00  0.00     0.029 A 
ATOM     48  N   UNL A   1      41.198  28.953  29.965  1.00  0.00    -0.354 N 
ATOM     49  C   UNL A   1      42.399  29.888  34.332  1.00  0.00     0.074 A 
ATOM     50  C   UNL A   1      41.187  29.309  34.844  1.00  0.00     0.031 C 
ATOM     51  C   UNL A   1      39.640  28.869  28.365  1.00  0.00     0.029 A 
ATOM     52  C   UNL A   1      40.901  28.282  28.770  1.00  0.00     0.049 A 
ATOM     53  H   UNL A   1      42.047  28.824  30.446  1.00  0.00     0.167 HD
ATOM     54  C   UNL A   1      43.709  29.603  34.577  1.00  0.00     0.037 A 
ATOM     55  C   UNL A   1      41.666  27.323  28.174  1.00  0.00     0.037 A 
ATOM     56  C   UNL A   1      44.560  30.375  33.698  1.00  0.00     0.049 A 
ATOM     57  C   UNL A   1      43.041  27.495  28.726  1.00  0.00     0.074 A 
ATOM     58  C   UNL A   1      44.771  31.724  33.486  1.00  0.00     0.029 A 
ATOM     59  N   UNL A   1      45.016  29.741  32.566  1.00  0.00    -0.354 N 
ATOM     60  N   UNL A   1      43.758  28.573  28.537  1.00  0.00    -0.248 NA
ATOM     61  C   UNL A   1      43.361  26.730  29.922  1.00  0.00     0.031 C 
ATOM     62  C   UNL A   1      44.884  31.860  32.070  1.00  0.00     0.029 A 
ATOM     63  C   UNL A   1      44.852  30.587  31.499  1.00  0.00     0.049 A 
ATOM     64  H   UNL A   1      45.395  28.833  32.528  1.00  0.00     0.167 HD
ATOM     65  C   UNL A   1      44.310  28.858  29.780  1.00  0.00     0.074 A 
ATOM     66  C   UNL A   1      44.045  27.665  30.589  1.00  0.00     0.031 C 
ATOM     67  C   UNL A   1      44.647  30.135  30.136  1.00  0.00     0.037 A 
BRANCH  54  68
ATOM     68  C   UNL A   1      44.204  28.351  35.267  1.00  0.00     0.058 A 
ATOM     69  C   UNL A   1      45.128  28.483  36.325  1.00  0.00     0.135 A 
ATOM     70  C   UNL A   1      44.034  27.037  34.774  1.00  0.00     0.135 A 
ATOM     71  F   UNL A   1      45.372  29.683  36.875  1.00  0.00    -0.206 F 
ATOM     72  C   UNL A   1      45.881  27.409  36.802  1.00  0.00     0.059 A 
ATOM     73  C   UNL A   1      44.738  25.945  35.268  1.00  0.00     0.059 A 
ATOM     74  F   UNL A   1      43.247  26.751  33.732  1.00  0.00    -0.206 F 
ATOM     75  C   UNL A   1      45.685  26.145  36.257  1.00  0.00     0.060 A 
BRANCH  75  76
ATOM     76  S   UNL A   1      46.697  24.771  36.828  1.00  0.00     0.124 S 
ATOM     77  O   UNL A   1      46.613  24.928  38.275  1.00  0.00    -0.237 OA
ATOM     78  O   UNL A   1      45.988  23.626  36.265  1.00  0.00    -0.237 OA
ATOM     79  O   UNL A   1      48.002  25.045  36.235  1.00  0.00    -0.744 OA
ENDBRANCH  75  76
ENDBRANCH  54  68
BRANCH  55  80
ATOM     80  C   UNL A   1      41.214  26.036  27.559  1.00  0.00     0.058 A 
ATOM     81  C   UNL A   1      41.944  25.396  26.537  1.00  0.00     0.135 A 
ATOM     82  C   UNL A   1      40.212  25.257  28.172  1.00  0.00     0.135 A 
ATOM     83  F   UNL A   1      42.939  26.047  25.913  1.00  0.00    -0.206 F 
ATOM     84  C   UNL A   1      41.721  24.057  26.173  1.00  0.00     0.059 A 
ATOM     85  C   UNL A   1      39.971  23.924  27.828  1.00  0.00     0.059 A 
ATOM     86  F   UNL A   1      39.495  25.746  29.195  1.00  0.00    -0.206 F 
ATOM     87  C   UNL A   1      40.741  23.321  26.840  1.00  0.00     0.060 A 
BRANCH  87  88
ATOM     88  S   UNL A   1      40.545  21.553  26.487  1.00  0.00     0.124 S 
ATOM     89  O   UNL A   1      39.236  21.515  25.844  1.00  0.00    -0.237 OA
ATOM     90  O   UNL A   1      41.686  21.280  25.619  1.00  0.00    -0.237 OA
ATOM     91  O   UNL A   1      40.609  20.933  27.807  1.00  0.00    -0.744 OA
ENDBRANCH  87  88
ENDBRANCH  55  80
BRANCH  67  92
ATOM     92  C   UNL A   1      44.665  31.205  29.066  1.00  0.00     0.058 A 
ATOM     93  C   UNL A   1      43.645  32.148  28.836  1.00  0.00     0.135 A 
ATOM     94  C   UNL A   1      45.864  31.384  28.362  1.00  0.00     0.135 A 
ATOM     95  F   UNL A   1      42.499  32.107  29.529  1.00  0.00    -0.206 F 
ATOM     96  C   UNL A   1      43.806  33.204  27.931  1.00  0.00     0.059 A 
ATOM     97  C   UNL A   1      46.057  32.442  27.480  1.00  0.00     0.059 A 
ATOM     98  F   UNL A   1      46.898  30.554  28.577  1.00  0.00    -0.206 F 
ATOM     99  C   UNL A   1      45.021  33.345  27.259  1.00  0.00     0.060 A 
BRANCH  99 100
ATOM    100  S   UNL A   1      45.267  34.740  26.136  1.00  0.00     0.124 S 
ATOM    101  O   UNL A   1      44.018  34.752  25.382  1.00  0.00    -0.237 OA
ATOM    102  O   UNL A   1      45.464  35.857  27.056  1.00  0.00    -0.237 OA
ATOM    103  O   UNL A   1      46.453  34.358  25.372  1.00  0.00    -0.744 OA
ENDBRANCH  99 100
ENDBRANCH  67  92
ENDBRANCH  41  42
ENDBRANCH  33  36
ENDBRANCH  31  32
ENDBRANCH  30  31
ENDBRANCH   1  30
TORSDOF 21
ENDMDL
