MODEL 1
REMARK VINA RESULT:     -11.9      0.000      0.000
REMARK SMILES C[C@@H](Sc1nc(-c2ccc3c(c2)OCO3)ccc1C#N)C(=O)NCCCCNC(=O)c1ccc(-c2c3nc(c(-c4c(F)cc(S(=O)(=O)[O-])cc4F)c4ccc([nH]4)c(-c4c(F)cc(S(=O)(=O)[O-])cc4F)c4nc(c(-c5c(F)cc(S(=O)(=O)[O-])cc5F)c5ccc2[nH]5)C=C4)C=C3)cc1
REMARK SMILES IDX 25 1 24 2 23 3 21 4 22 5 2 7 1 8 3 9 4 10 5 11 18 12 6 13
REMARK SMILES IDX 17 14 16 15 19 16 20 17 7 18 8 19 12 20 9 21 11 22 10 23
REMARK SMILES IDX 13 24 15 25 14 26 26 27 27 28 28 29 29 30 30 32 31 33 32 34
REMARK SMILES IDX 96 35 33 36 95 37 34 38 35 39 36 40 89 41 37 42 94 43 88 44
REMARK SMILES IDX 90 45 38 46 93 47 87 48 86 49 39 51 73 52 52 53 72 54 53 55
REMARK SMILES IDX 56 56 71 57 91 58 54 59 55 60 70 62 92 63 57 64 40 65 41 66
REMARK SMILES IDX 50 67 42 68 43 69 49 70 51 71 44 72 45 73 46 74 47 75 48 76
REMARK SMILES IDX 74 77 75 78 84 79 76 80 77 81 83 82 85 83 78 84 79 85 80 86
REMARK SMILES IDX 81 87 82 88 58 89 59 90 68 91 60 92 61 93 67 94 69 95 62 96
REMARK SMILES IDX 63 97 64 98 65 99 66 100
REMARK H PARENT 23 6 28 31 90 50 56 61
REMARK Flexibility Score: inf
ROOT
ATOM      1  C   UNL A   1      40.178  21.530  26.655  1.00  0.00     0.023 C 
ENDROOT
BRANCH   1   2
ATOM      2  C   UNL A   1      38.907  22.167  26.113  1.00  0.00     0.116 C 
BRANCH   2   3
ATOM      3  N   UNL A   1      37.886  21.188  25.772  1.00  0.00    -0.355 N 
ATOM      4  C   UNL A   1      36.621  21.367  25.278  1.00  0.00     0.233 C 
ATOM      5  O   UNL A   1      35.959  20.360  25.013  1.00  0.00    -0.274 OA
ATOM      6  H   UNL A   1      38.145  20.249  25.918  1.00  0.00     0.163 HD
BRANCH   4   7
ATOM      7  C   UNL A   1      36.005  22.766  25.134  1.00  0.00     0.139 C 
ATOM      8  C   UNL A   1      35.830  23.067  23.649  1.00  0.00     0.030 C 
BRANCH   7   9
ATOM      9  S   UNL A   1      34.540  22.871  26.264  1.00  0.00    -0.092 SA
BRANCH   9  10
ATOM     10  C   UNL A   1      33.202  23.427  25.240  1.00  0.00     0.115 A 
ATOM     11  N   UNL A   1      33.083  24.781  25.210  1.00  0.00    -0.240 NA
ATOM     12  C   UNL A   1      32.228  22.592  24.691  1.00  0.00     0.084 A 
ATOM     13  C   UNL A   1      31.984  25.327  24.638  1.00  0.00     0.072 A 
ATOM     14  C   UNL A   1      31.172  23.173  23.987  1.00  0.00     0.024 A 
ATOM     15  C   UNL A   1      31.044  24.555  23.967  1.00  0.00     0.030 A 
BRANCH  12  16
ATOM     16  C   UNL A   1      32.197  21.175  24.891  1.00  0.00     0.102 C 
ATOM     17  N   UNL A   1      32.147  20.024  25.017  1.00  0.00    -0.192 NA
ENDBRANCH  12  16
BRANCH  13  18
ATOM     18  C   UNL A   1      31.768  26.763  24.866  1.00  0.00     0.004 A 
ATOM     19  C   UNL A   1      31.178  27.560  23.846  1.00  0.00     0.014 A 
ATOM     20  C   UNL A   1      32.132  27.377  26.075  1.00  0.00     0.061 A 
ATOM     21  C   UNL A   1      30.996  28.937  23.999  1.00  0.00     0.051 A 
ATOM     22  C   UNL A   1      31.957  28.743  26.193  1.00  0.00     0.166 A 
ATOM     23  C   UNL A   1      31.412  29.500  25.181  1.00  0.00     0.165 A 
ATOM     24  O   UNL A   1      32.304  29.499  27.270  1.00  0.00    -0.454 OA
ATOM     25  O   UNL A   1      31.349  30.821  25.493  1.00  0.00    -0.454 OA
ATOM     26  C   UNL A   1      31.953  30.817  26.802  1.00  0.00     0.468 C 
ENDBRANCH  13  18
ENDBRANCH   9  10
ENDBRANCH   7   9
ENDBRANCH   4   7
ENDBRANCH   2   3
ENDBRANCH   1   2
BRANCH   1  27
ATOM     27  C   UNL A   1      40.851  22.314  27.776  1.00  0.00     0.023 C 
BRANCH  27  28
ATOM     28  C   UNL A   1      42.112  23.064  27.365  1.00  0.00     0.116 C 
BRANCH  28  29
ATOM     29  N   UNL A   1      41.921  23.897  26.187  1.00  0.00    -0.352 N 
ATOM     30  C   UNL A   1      41.551  25.220  26.116  1.00  0.00     0.251 C 
ATOM     31  H   UNL A   1      42.076  23.453  25.321  1.00  0.00     0.163 HD
ATOM     32  O   UNL A   1      41.286  25.730  25.033  1.00  0.00    -0.269 OA
BRANCH  30  33
ATOM     33  C   UNL A   1      41.444  26.009  27.361  1.00  0.00     0.039 A 
ATOM     34  C   UNL A   1      42.486  26.871  27.708  1.00  0.00     0.014 A 
ATOM     35  C   UNL A   1      40.300  25.931  28.159  1.00  0.00     0.014 A 
ATOM     36  C   UNL A   1      42.347  27.706  28.817  1.00  0.00     0.010 A 
ATOM     37  C   UNL A   1      40.124  26.830  29.206  1.00  0.00     0.010 A 
ATOM     38  C   UNL A   1      41.147  27.726  29.550  1.00  0.00    -0.014 A 
BRANCH  38  39
ATOM     39  C   UNL A   1      40.946  28.679  30.673  1.00  0.00     0.031 A 
ATOM     40  C   UNL A   1      41.766  28.552  31.929  1.00  0.00     0.074 A 
ATOM     41  C   UNL A   1      39.989  29.624  30.584  1.00  0.00     0.049 A 
ATOM     42  N   UNL A   1      41.699  29.253  33.032  1.00  0.00    -0.248 NA
ATOM     43  C   UNL A   1      42.777  27.482  31.960  1.00  0.00     0.031 C 
ATOM     44  C   UNL A   1      39.096  29.817  29.438  1.00  0.00     0.029 A 
ATOM     45  N   UNL A   1      39.599  30.596  31.472  1.00  0.00    -0.354 N 
ATOM     46  C   UNL A   1      42.653  28.708  33.885  1.00  0.00     0.074 A 
ATOM     47  C   UNL A   1      43.236  27.578  33.199  1.00  0.00     0.031 C 
ATOM     48  C   UNL A   1      38.284  30.858  29.683  1.00  0.00     0.029 A 
ATOM     49  C   UNL A   1      38.559  31.375  31.019  1.00  0.00     0.049 A 
ATOM     50  H   UNL A   1      40.023  30.723  32.352  1.00  0.00     0.167 HD
ATOM     51  C   UNL A   1      43.027  29.129  35.117  1.00  0.00     0.037 A 
ATOM     52  C   UNL A   1      37.890  32.381  31.618  1.00  0.00     0.037 A 
ATOM     53  C   UNL A   1      42.442  30.260  35.791  1.00  0.00     0.049 A 
ATOM     54  C   UNL A   1      38.301  32.810  33.001  1.00  0.00     0.074 A 
ATOM     55  C   UNL A   1      42.778  30.793  37.023  1.00  0.00     0.029 A 
ATOM     56  N   UNL A   1      41.395  31.026  35.299  1.00  0.00    -0.354 N 
ATOM     57  N   UNL A   1      39.250  32.325  33.767  1.00  0.00    -0.248 NA
ATOM     58  C   UNL A   1      37.555  33.924  33.602  1.00  0.00     0.031 C 
ATOM     59  C   UNL A   1      41.892  31.837  37.305  1.00  0.00     0.029 A 
ATOM     60  C   UNL A   1      41.053  32.007  36.216  1.00  0.00     0.049 A 
ATOM     61  H   UNL A   1      40.958  30.892  34.426  1.00  0.00     0.167 HD
ATOM     62  C   UNL A   1      39.237  33.097  34.924  1.00  0.00     0.074 A 
ATOM     63  C   UNL A   1      38.196  34.089  34.750  1.00  0.00     0.031 C 
ATOM     64  C   UNL A   1      40.018  32.994  36.029  1.00  0.00     0.037 A 
BRANCH  51  65
ATOM     65  C   UNL A   1      44.119  28.365  35.818  1.00  0.00     0.058 A 
ATOM     66  C   UNL A   1      43.836  27.292  36.680  1.00  0.00     0.135 A 
ATOM     67  C   UNL A   1      45.470  28.681  35.595  1.00  0.00     0.135 A 
ATOM     68  F   UNL A   1      42.564  26.952  36.944  1.00  0.00    -0.206 F 
ATOM     69  C   UNL A   1      44.848  26.581  37.317  1.00  0.00     0.059 A 
ATOM     70  C   UNL A   1      46.500  27.961  36.194  1.00  0.00     0.059 A 
ATOM     71  F   UNL A   1      45.801  29.697  34.783  1.00  0.00    -0.206 F 
ATOM     72  C   UNL A   1      46.178  26.922  37.064  1.00  0.00     0.060 A 
BRANCH  72  73
ATOM     73  S   UNL A   1      47.476  25.978  37.890  1.00  0.00     0.124 S 
ATOM     74  O   UNL A   1      48.651  26.353  37.108  1.00  0.00    -0.237 OA
ATOM     75  O   UNL A   1      47.426  26.505  39.249  1.00  0.00    -0.237 OA
ATOM     76  O   UNL A   1      47.040  24.593  37.740  1.00  0.00    -0.744 OA
ENDBRANCH  72  73
ENDBRANCH  51  65
BRANCH  52  77
ATOM     77  C   UNL A   1      36.766  33.053  30.909  1.00  0.00     0.058 A 
ATOM     78  C   UNL A   1      35.433  32.841  31.292  1.00  0.00     0.135 A 
ATOM     79  C   UNL A   1      37.003  33.926  29.835  1.00  0.00     0.135 A 
ATOM     80  F   UNL A   1      35.149  32.011  32.307  1.00  0.00    -0.206 F 
ATOM     81  C   UNL A   1      34.376  33.452  30.625  1.00  0.00     0.059 A 
ATOM     82  C   UNL A   1      35.966  34.575  29.174  1.00  0.00     0.059 A 
ATOM     83  F   UNL A   1      38.260  34.177  29.437  1.00  0.00    -0.206 F 
ATOM     84  C   UNL A   1      34.653  34.323  29.569  1.00  0.00     0.060 A 
BRANCH  84  85
ATOM     85  S   UNL A   1      33.276  35.145  28.740  1.00  0.00     0.124 S 
ATOM     86  O   UNL A   1      32.454  35.559  29.872  1.00  0.00    -0.237 OA
ATOM     87  O   UNL A   1      33.953  36.216  28.016  1.00  0.00    -0.237 OA
ATOM     88  O   UNL A   1      32.710  34.092  27.902  1.00  0.00    -0.744 OA
ENDBRANCH  84  85
ENDBRANCH  52  77
BRANCH  64  89
ATOM     89  C   UNL A   1      39.811  34.008  37.125  1.00  0.00     0.058 A 
ATOM     90  C   UNL A   1      38.912  33.791  38.181  1.00  0.00     0.135 A 
ATOM     91  C   UNL A   1      40.569  35.191  37.146  1.00  0.00     0.135 A 
ATOM     92  F   UNL A   1      38.157  32.681  38.211  1.00  0.00    -0.206 F 
ATOM     93  C   UNL A   1      38.752  34.723  39.203  1.00  0.00     0.059 A 
ATOM     94  C   UNL A   1      40.452  36.119  38.175  1.00  0.00     0.059 A 
ATOM     95  F   UNL A   1      41.452  35.446  36.166  1.00  0.00    -0.206 F 
ATOM     96  C   UNL A   1      39.530  35.882  39.193  1.00  0.00     0.060 A 
BRANCH  96  97
ATOM     97  S   UNL A   1      39.336  37.064  40.544  1.00  0.00     0.124 S 
ATOM     98  O   UNL A   1      40.689  37.599  40.664  1.00  0.00    -0.237 OA
ATOM     99  O   UNL A   1      38.336  37.983  40.010  1.00  0.00    -0.237 OA
ATOM    100  O   UNL A   1      38.887  36.237  41.660  1.00  0.00    -0.744 OA
ENDBRANCH  96  97
ENDBRANCH  64  89
ENDBRANCH  38  39
ENDBRANCH  30  33
ENDBRANCH  28  29
ENDBRANCH  27  28
ENDBRANCH   1  27
TORSDOF 18
ENDMDL
MODEL 2
REMARK VINA RESULT:     -11.4      3.220      9.867
REMARK SMILES C[C@@H](Sc1nc(-c2ccc3c(c2)OCO3)ccc1C#N)C(=O)NCCCCNC(=O)c1ccc(-c2c3nc(c(-c4c(F)cc(S(=O)(=O)[O-])cc4F)c4ccc([nH]4)c(-c4c(F)cc(S(=O)(=O)[O-])cc4F)c4nc(c(-c5c(F)cc(S(=O)(=O)[O-])cc5F)c5ccc2[nH]5)C=C4)C=C3)cc1
REMARK SMILES IDX 25 1 24 2 23 3 21 4 22 5 2 7 1 8 3 9 4 10 5 11 18 12 6 13
REMARK SMILES IDX 17 14 16 15 19 16 20 17 7 18 8 19 12 20 9 21 11 22 10 23
REMARK SMILES IDX 13 24 15 25 14 26 26 27 27 28 28 29 29 30 30 32 31 33 32 34
REMARK SMILES IDX 96 35 33 36 95 37 34 38 35 39 36 40 89 41 37 42 94 43 88 44
REMARK SMILES IDX 90 45 38 46 93 47 87 48 86 49 39 51 73 52 52 53 72 54 53 55
REMARK SMILES IDX 56 56 71 57 91 58 54 59 55 60 70 62 92 63 57 64 40 65 41 66
REMARK SMILES IDX 50 67 42 68 43 69 49 70 51 71 44 72 45 73 46 74 47 75 48 76
REMARK SMILES IDX 74 77 75 78 84 79 76 80 77 81 83 82 85 83 78 84 79 85 80 86
REMARK SMILES IDX 81 87 82 88 58 89 59 90 68 91 60 92 61 93 67 94 69 95 62 96
REMARK SMILES IDX 63 97 64 98 65 99 66 100
REMARK H PARENT 23 6 28 31 90 50 56 61
REMARK Flexibility Score: inf
ROOT
ATOM      1  C   UNL A   1      32.034  27.177  26.571  1.00  0.00     0.023 C 
ENDROOT
BRANCH   1   2
ATOM      2  C   UNL A   1      31.210  26.030  26.005  1.00  0.00     0.116 C 
BRANCH   2   3
ATOM      3  N   UNL A   1      31.215  24.854  26.863  1.00  0.00    -0.355 N 
ATOM      4  C   UNL A   1      31.871  23.661  26.720  1.00  0.00     0.233 C 
ATOM      5  O   UNL A   1      31.758  22.830  27.626  1.00  0.00    -0.274 OA
ATOM      6  H   UNL A   1      30.660  24.928  27.673  1.00  0.00     0.163 HD
BRANCH   4   7
ATOM      7  C   UNL A   1      32.657  23.322  25.445  1.00  0.00     0.139 C 
ATOM      8  C   UNL A   1      31.861  23.813  24.241  1.00  0.00     0.030 C 
BRANCH   7   9
ATOM      9  S   UNL A   1      34.405  23.889  25.676  1.00  0.00    -0.092 SA
BRANCH   9  10
ATOM     10  C   UNL A   1      35.408  22.483  25.270  1.00  0.00     0.115 A 
ATOM     11  N   UNL A   1      34.678  21.360  25.036  1.00  0.00    -0.240 NA
ATOM     12  C   UNL A   1      36.799  22.445  25.385  1.00  0.00     0.084 A 
ATOM     13  C   UNL A   1      35.323  20.176  24.921  1.00  0.00     0.072 A 
ATOM     14  C   UNL A   1      37.455  21.240  25.129  1.00  0.00     0.024 A 
ATOM     15  C   UNL A   1      36.710  20.091  24.902  1.00  0.00     0.030 A 
BRANCH  12  16
ATOM     16  C   UNL A   1      37.584  23.548  25.847  1.00  0.00     0.102 C 
ATOM     17  N   UNL A   1      38.229  24.418  26.258  1.00  0.00    -0.192 NA
ENDBRANCH  12  16
BRANCH  13  18
ATOM     18  C   UNL A   1      34.487  18.967  24.940  1.00  0.00     0.004 A 
ATOM     19  C   UNL A   1      33.070  19.087  24.957  1.00  0.00     0.014 A 
ATOM     20  C   UNL A   1      35.054  17.682  24.945  1.00  0.00     0.061 A 
ATOM     21  C   UNL A   1      32.236  17.967  25.023  1.00  0.00     0.051 A 
ATOM     22  C   UNL A   1      34.207  16.593  25.029  1.00  0.00     0.166 A 
ATOM     23  C   UNL A   1      32.839  16.734  25.074  1.00  0.00     0.165 A 
ATOM     24  O   UNL A   1      34.592  15.289  25.096  1.00  0.00    -0.454 OA
ATOM     25  O   UNL A   1      32.194  15.542  25.176  1.00  0.00    -0.454 OA
ATOM     26  C   UNL A   1      33.314  14.635  25.231  1.00  0.00     0.468 C 
ENDBRANCH  13  18
ENDBRANCH   9  10
ENDBRANCH   7   9
ENDBRANCH   4   7
ENDBRANCH   2   3
ENDBRANCH   1   2
BRANCH   1  27
ATOM     27  C   UNL A   1      32.759  28.013  25.522  1.00  0.00     0.023 C 
BRANCH  27  28
ATOM     28  C   UNL A   1      34.024  28.704  26.016  1.00  0.00     0.116 C 
BRANCH  28  29
ATOM     29  N   UNL A   1      33.792  30.075  26.447  1.00  0.00    -0.352 N 
ATOM     30  C   UNL A   1      34.475  30.810  27.388  1.00  0.00     0.251 C 
ATOM     31  H   UNL A   1      33.044  30.540  26.007  1.00  0.00     0.163 HD
ATOM     32  O   UNL A   1      34.052  31.906  27.741  1.00  0.00    -0.269 OA
BRANCH  30  33
ATOM     33  C   UNL A   1      35.703  30.252  27.992  1.00  0.00     0.039 A 
ATOM     34  C   UNL A   1      36.914  30.384  27.309  1.00  0.00     0.014 A 
ATOM     35  C   UNL A   1      35.666  29.639  29.247  1.00  0.00     0.014 A 
ATOM     36  C   UNL A   1      38.097  29.965  27.920  1.00  0.00     0.010 A 
ATOM     37  C   UNL A   1      36.854  29.311  29.892  1.00  0.00     0.010 A 
ATOM     38  C   UNL A   1      38.084  29.466  29.234  1.00  0.00    -0.014 A 
BRANCH  38  39
ATOM     39  C   UNL A   1      39.345  29.108  29.934  1.00  0.00     0.031 A 
ATOM     40  C   UNL A   1      39.785  29.885  31.146  1.00  0.00     0.074 A 
ATOM     41  C   UNL A   1      40.122  28.119  29.446  1.00  0.00     0.049 A 
ATOM     42  N   UNL A   1      40.876  29.756  31.857  1.00  0.00    -0.248 NA
ATOM     43  C   UNL A   1      38.894  30.963  31.606  1.00  0.00     0.031 C 
ATOM     44  C   UNL A   1      39.829  27.325  28.250  1.00  0.00     0.029 A 
ATOM     45  N   UNL A   1      41.320  27.616  29.889  1.00  0.00    -0.354 N 
ATOM     46  C   UNL A   1      40.804  30.735  32.841  1.00  0.00     0.074 A 
ATOM     47  C   UNL A   1      39.597  31.493  32.595  1.00  0.00     0.031 C 
ATOM     48  C   UNL A   1      40.804  26.420  28.072  1.00  0.00     0.029 A 
ATOM     49  C   UNL A   1      41.818  26.600  29.106  1.00  0.00     0.049 A 
ATOM     50  H   UNL A   1      41.781  27.952  30.692  1.00  0.00     0.167 HD
ATOM     51  C   UNL A   1      41.651  30.965  33.873  1.00  0.00     0.037 A 
ATOM     52  C   UNL A   1      42.968  25.903  29.198  1.00  0.00     0.037 A 
ATOM     53  C   UNL A   1      42.849  30.201  34.112  1.00  0.00     0.049 A 
ATOM     54  C   UNL A   1      43.912  26.198  30.333  1.00  0.00     0.074 A 
ATOM     55  C   UNL A   1      43.754  30.326  35.152  1.00  0.00     0.029 A 
ATOM     56  N   UNL A   1      43.317  29.178  33.300  1.00  0.00    -0.354 N 
ATOM     57  N   UNL A   1      43.795  27.084  31.294  1.00  0.00    -0.248 NA
ATOM     58  C   UNL A   1      45.141  25.397  30.402  1.00  0.00     0.031 C 
ATOM     59  C   UNL A   1      44.801  29.427  34.932  1.00  0.00     0.029 A 
ATOM     60  C   UNL A   1      44.513  28.685  33.798  1.00  0.00     0.049 A 
ATOM     61  H   UNL A   1      42.866  28.851  32.487  1.00  0.00     0.167 HD
ATOM     62  C   UNL A   1      44.918  26.924  32.099  1.00  0.00     0.074 A 
ATOM     63  C   UNL A   1      45.693  25.846  31.520  1.00  0.00     0.031 C 
ATOM     64  C   UNL A   1      45.274  27.606  33.217  1.00  0.00     0.037 A 
BRANCH  51  65
ATOM     65  C   UNL A   1      41.316  32.086  34.821  1.00  0.00     0.058 A 
ATOM     66  C   UNL A   1      40.461  31.895  35.919  1.00  0.00     0.135 A 
ATOM     67  C   UNL A   1      41.888  33.358  34.655  1.00  0.00     0.135 A 
ATOM     68  F   UNL A   1      39.872  30.705  36.122  1.00  0.00    -0.206 F 
ATOM     69  C   UNL A   1      40.162  32.931  36.799  1.00  0.00     0.059 A 
ATOM     70  C   UNL A   1      41.632  34.398  35.543  1.00  0.00     0.059 A 
ATOM     71  F   UNL A   1      42.712  33.600  33.623  1.00  0.00    -0.206 F 
ATOM     72  C   UNL A   1      40.756  34.179  36.605  1.00  0.00     0.060 A 
BRANCH  72  73
ATOM     73  S   UNL A   1      40.366  35.504  37.765  1.00  0.00     0.124 S 
ATOM     74  O   UNL A   1      41.661  35.723  38.404  1.00  0.00    -0.237 OA
ATOM     75  O   UNL A   1      39.910  36.569  36.879  1.00  0.00    -0.237 OA
ATOM     76  O   UNL A   1      39.338  34.919  38.620  1.00  0.00    -0.744 OA
ENDBRANCH  72  73
ENDBRANCH  51  65
BRANCH  52  77
ATOM     77  C   UNL A   1      43.287  24.856  28.189  1.00  0.00     0.058 A 
ATOM     78  C   UNL A   1      42.933  23.514  28.394  1.00  0.00     0.135 A 
ATOM     79  C   UNL A   1      43.952  25.177  26.994  1.00  0.00     0.135 A 
ATOM     80  F   UNL A   1      42.303  23.150  29.521  1.00  0.00    -0.206 F 
ATOM     81  C   UNL A   1      43.242  22.526  27.463  1.00  0.00     0.059 A 
ATOM     82  C   UNL A   1      44.242  24.214  26.034  1.00  0.00     0.059 A 
ATOM     83  F   UNL A   1      44.301  26.448  26.740  1.00  0.00    -0.206 F 
ATOM     84  C   UNL A   1      43.893  22.888  26.282  1.00  0.00     0.060 A 
BRANCH  84  85
ATOM     85  S   UNL A   1      44.249  21.606  25.062  1.00  0.00     0.124 S 
ATOM     86  O   UNL A   1      45.621  21.248  25.401  1.00  0.00    -0.237 OA
ATOM     87  O   UNL A   1      43.233  20.604  25.369  1.00  0.00    -0.237 OA
ATOM     88  O   UNL A   1      44.073  22.296  23.787  1.00  0.00    -0.744 OA
ENDBRANCH  84  85
ENDBRANCH  52  77
BRANCH  64  89
ATOM     89  C   UNL A   1      46.536  27.182  33.920  1.00  0.00     0.058 A 
ATOM     90  C   UNL A   1      47.785  27.747  33.617  1.00  0.00     0.135 A 
ATOM     91  C   UNL A   1      46.484  26.232  34.955  1.00  0.00     0.135 A 
ATOM     92  F   UNL A   1      47.897  28.655  32.634  1.00  0.00    -0.206 F 
ATOM     93  C   UNL A   1      48.940  27.366  34.295  1.00  0.00     0.059 A 
ATOM     94  C   UNL A   1      47.618  25.864  35.670  1.00  0.00     0.059 A 
ATOM     95  F   UNL A   1      45.315  25.666  35.295  1.00  0.00    -0.206 F 
ATOM     96  C   UNL A   1      48.845  26.427  35.323  1.00  0.00     0.060 A 
BRANCH  96  97
ATOM     97  S   UNL A   1      50.346  25.970  36.217  1.00  0.00     0.124 S 
ATOM     98  O   UNL A   1      50.901  24.934  35.351  1.00  0.00    -0.237 OA
ATOM     99  O   UNL A   1      51.082  27.230  36.250  1.00  0.00    -0.237 OA
ATOM    100  O   UNL A   1      49.847  25.508  37.508  1.00  0.00    -0.744 OA
ENDBRANCH  96  97
ENDBRANCH  64  89
ENDBRANCH  38  39
ENDBRANCH  30  33
ENDBRANCH  28  29
ENDBRANCH  27  28
ENDBRANCH   1  27
TORSDOF 18
ENDMDL
MODEL 3
REMARK VINA RESULT:     -11.4      3.104      9.018
REMARK SMILES C[C@@H](Sc1nc(-c2ccc3c(c2)OCO3)ccc1C#N)C(=O)NCCCCNC(=O)c1ccc(-c2c3nc(c(-c4c(F)cc(S(=O)(=O)[O-])cc4F)c4ccc([nH]4)c(-c4c(F)cc(S(=O)(=O)[O-])cc4F)c4nc(c(-c5c(F)cc(S(=O)(=O)[O-])cc5F)c5ccc2[nH]5)C=C4)C=C3)cc1
REMARK SMILES IDX 25 1 24 2 23 3 21 4 22 5 2 7 1 8 3 9 4 10 5 11 18 12 6 13
REMARK SMILES IDX 17 14 16 15 19 16 20 17 7 18 8 19 12 20 9 21 11 22 10 23
REMARK SMILES IDX 13 24 15 25 14 26 26 27 27 28 28 29 29 30 30 32 31 33 32 34
REMARK SMILES IDX 96 35 33 36 95 37 34 38 35 39 36 40 89 41 37 42 94 43 88 44
REMARK SMILES IDX 90 45 38 46 93 47 87 48 86 49 39 51 73 52 52 53 72 54 53 55
REMARK SMILES IDX 56 56 71 57 91 58 54 59 55 60 70 62 92 63 57 64 40 65 41 66
REMARK SMILES IDX 50 67 42 68 43 69 49 70 51 71 44 72 45 73 46 74 47 75 48 76
REMARK SMILES IDX 74 77 75 78 84 79 76 80 77 81 83 82 85 83 78 84 79 85 80 86
REMARK SMILES IDX 81 87 82 88 58 89 59 90 68 91 60 92 61 93 67 94 69 95 62 96
REMARK SMILES IDX 63 97 64 98 65 99 66 100
REMARK H PARENT 23 6 28 31 90 50 56 61
REMARK Flexibility Score: inf
ROOT
ATOM      1  C   UNL A   1      33.096  26.511  25.988  1.00  0.00     0.023 C 
ENDROOT
BRANCH   1   2
ATOM      2  C   UNL A   1      34.084  25.748  25.118  1.00  0.00     0.116 C 
BRANCH   2   3
ATOM      3  N   UNL A   1      33.916  26.022  23.699  1.00  0.00    -0.355 N 
ATOM      4  C   UNL A   1      33.798  25.161  22.641  1.00  0.00     0.233 C 
ATOM      5  O   UNL A   1      33.605  25.646  21.523  1.00  0.00    -0.274 OA
ATOM      6  H   UNL A   1      33.880  26.978  23.462  1.00  0.00     0.163 HD
BRANCH   4   7
ATOM      7  C   UNL A   1      33.983  23.646  22.812  1.00  0.00     0.139 C 
ATOM      8  C   UNL A   1      34.840  23.400  24.049  1.00  0.00     0.030 C 
BRANCH   7   9
ATOM      9  S   UNL A   1      32.319  22.842  22.682  1.00  0.00    -0.092 SA
BRANCH   9  10
ATOM     10  C   UNL A   1      31.307  23.671  23.880  1.00  0.00     0.115 A 
ATOM     11  N   UNL A   1      30.779  24.835  23.416  1.00  0.00    -0.240 NA
ATOM     12  C   UNL A   1      31.219  23.309  25.225  1.00  0.00     0.084 A 
ATOM     13  C   UNL A   1      30.161  25.664  24.288  1.00  0.00     0.072 A 
ATOM     14  C   UNL A   1      30.461  24.110  26.082  1.00  0.00     0.024 A 
ATOM     15  C   UNL A   1      29.933  25.304  25.611  1.00  0.00     0.030 A 
BRANCH  12  16
ATOM     16  C   UNL A   1      31.942  22.216  25.798  1.00  0.00     0.102 C 
ATOM     17  N   UNL A   1      32.512  21.304  26.230  1.00  0.00    -0.192 NA
ENDBRANCH  12  16
BRANCH  13  18
ATOM     18  C   UNL A   1      29.849  27.016  23.804  1.00  0.00     0.004 A 
ATOM     19  C   UNL A   1      30.902  27.947  23.580  1.00  0.00     0.014 A 
ATOM     20  C   UNL A   1      28.528  27.421  23.555  1.00  0.00     0.061 A 
ATOM     21  C   UNL A   1      30.651  29.258  23.164  1.00  0.00     0.051 A 
ATOM     22  C   UNL A   1      28.307  28.728  23.163  1.00  0.00     0.166 A 
ATOM     23  C   UNL A   1      29.339  29.621  22.980  1.00  0.00     0.165 A 
ATOM     24  O   UNL A   1      27.091  29.295  22.932  1.00  0.00    -0.454 OA
ATOM     25  O   UNL A   1      28.903  30.855  22.615  1.00  0.00    -0.454 OA
ATOM     26  C   UNL A   1      27.476  30.650  22.627  1.00  0.00     0.468 C 
ENDBRANCH  13  18
ENDBRANCH   9  10
ENDBRANCH   7   9
ENDBRANCH   4   7
ENDBRANCH   2   3
ENDBRANCH   1   2
BRANCH   1  27
ATOM     27  C   UNL A   1      33.689  27.715  26.712  1.00  0.00     0.023 C 
BRANCH  27  28
ATOM     28  C   UNL A   1      34.107  28.866  25.805  1.00  0.00     0.116 C 
BRANCH  28  29
ATOM     29  N   UNL A   1      33.789  30.173  26.361  1.00  0.00    -0.352 N 
ATOM     30  C   UNL A   1      34.397  30.840  27.399  1.00  0.00     0.251 C 
ATOM     31  H   UNL A   1      33.035  30.645  25.938  1.00  0.00     0.163 HD
ATOM     32  O   UNL A   1      33.906  31.873  27.842  1.00  0.00    -0.269 OA
BRANCH  30  33
ATOM     33  C   UNL A   1      35.629  30.282  27.996  1.00  0.00     0.039 A 
ATOM     34  C   UNL A   1      36.841  30.441  27.320  1.00  0.00     0.014 A 
ATOM     35  C   UNL A   1      35.594  29.643  29.237  1.00  0.00     0.014 A 
ATOM     36  C   UNL A   1      38.026  30.022  27.926  1.00  0.00     0.010 A 
ATOM     37  C   UNL A   1      36.783  29.313  29.879  1.00  0.00     0.010 A 
ATOM     38  C   UNL A   1      38.013  29.495  29.229  1.00  0.00    -0.014 A 
BRANCH  38  39
ATOM     39  C   UNL A   1      39.276  29.135  29.926  1.00  0.00     0.031 A 
ATOM     40  C   UNL A   1      39.721  29.912  31.136  1.00  0.00     0.074 A 
ATOM     41  C   UNL A   1      40.050  28.144  29.437  1.00  0.00     0.049 A 
ATOM     42  N   UNL A   1      40.813  29.782  31.844  1.00  0.00    -0.248 NA
ATOM     43  C   UNL A   1      38.833  30.992  31.598  1.00  0.00     0.031 C 
ATOM     44  C   UNL A   1      39.752  27.350  28.243  1.00  0.00     0.029 A 
ATOM     45  N   UNL A   1      41.248  27.640  29.877  1.00  0.00    -0.354 N 
ATOM     46  C   UNL A   1      40.745  30.762  32.829  1.00  0.00     0.074 A 
ATOM     47  C   UNL A   1      39.539  31.522  32.585  1.00  0.00     0.031 C 
ATOM     48  C   UNL A   1      40.726  26.444  28.062  1.00  0.00     0.029 A 
ATOM     49  C   UNL A   1      41.742  26.622  29.093  1.00  0.00     0.049 A 
ATOM     50  H   UNL A   1      41.712  27.975  30.679  1.00  0.00     0.167 HD
ATOM     51  C   UNL A   1      41.596  30.991  33.857  1.00  0.00     0.037 A 
ATOM     52  C   UNL A   1      42.892  25.924  29.184  1.00  0.00     0.037 A 
ATOM     53  C   UNL A   1      42.793  30.225  34.094  1.00  0.00     0.049 A 
ATOM     54  C   UNL A   1      43.839  26.218  30.316  1.00  0.00     0.074 A 
ATOM     55  C   UNL A   1      43.701  30.350  35.132  1.00  0.00     0.029 A 
ATOM     56  N   UNL A   1      43.257  29.201  33.281  1.00  0.00    -0.354 N 
ATOM     57  N   UNL A   1      43.726  27.105  31.276  1.00  0.00    -0.248 NA
ATOM     58  C   UNL A   1      45.067  25.415  30.382  1.00  0.00     0.031 C 
ATOM     59  C   UNL A   1      44.746  29.448  34.910  1.00  0.00     0.029 A 
ATOM     60  C   UNL A   1      44.453  28.706  33.777  1.00  0.00     0.049 A 
ATOM     61  H   UNL A   1      42.803  28.874  32.470  1.00  0.00     0.167 HD
ATOM     62  C   UNL A   1      44.851  26.943  32.078  1.00  0.00     0.074 A 
ATOM     63  C   UNL A   1      45.623  25.864  31.498  1.00  0.00     0.031 C 
ATOM     64  C   UNL A   1      45.211  27.626  33.194  1.00  0.00     0.037 A 
BRANCH  51  65
ATOM     65  C   UNL A   1      41.265  32.113  34.806  1.00  0.00     0.058 A 
ATOM     66  C   UNL A   1      40.425  31.921  35.916  1.00  0.00     0.135 A 
ATOM     67  C   UNL A   1      41.826  33.389  34.628  1.00  0.00     0.135 A 
ATOM     68  F   UNL A   1      39.847  30.728  36.130  1.00  0.00    -0.206 F 
ATOM     69  C   UNL A   1      40.130  32.958  36.795  1.00  0.00     0.059 A 
ATOM     70  C   UNL A   1      41.574  34.431  35.515  1.00  0.00     0.059 A 
ATOM     71  F   UNL A   1      42.635  33.632  33.584  1.00  0.00    -0.206 F 
ATOM     72  C   UNL A   1      40.713  34.209  36.588  1.00  0.00     0.060 A 
BRANCH  72  73
ATOM     73  S   UNL A   1      40.330  35.537  37.749  1.00  0.00     0.124 S 
ATOM     74  O   UNL A   1      39.969  36.623  36.842  1.00  0.00    -0.237 OA
ATOM     75  O   UNL A   1      39.231  34.966  38.521  1.00  0.00    -0.237 OA
ATOM     76  O   UNL A   1      41.579  35.722  38.482  1.00  0.00    -0.744 OA
ENDBRANCH  72  73
ENDBRANCH  51  65
BRANCH  52  77
ATOM     77  C   UNL A   1      43.206  24.875  28.174  1.00  0.00     0.058 A 
ATOM     78  C   UNL A   1      43.822  25.198  26.955  1.00  0.00     0.135 A 
ATOM     79  C   UNL A   1      42.901  23.524  28.409  1.00  0.00     0.135 A 
ATOM     80  F   UNL A   1      44.129  26.474  26.675  1.00  0.00    -0.206 F 
ATOM     81  C   UNL A   1      44.104  24.228  25.999  1.00  0.00     0.059 A 
ATOM     82  C   UNL A   1      43.204  22.532  27.484  1.00  0.00     0.059 A 
ATOM     83  F   UNL A   1      42.325  23.157  29.565  1.00  0.00    -0.206 F 
ATOM     84  C   UNL A   1      43.796  22.895  26.275  1.00  0.00     0.060 A 
BRANCH  84  85
ATOM     85  S   UNL A   1      44.208  21.638  25.047  1.00  0.00     0.124 S 
ATOM     86  O   UNL A   1      43.206  20.614  25.324  1.00  0.00    -0.237 OA
ATOM     87  O   UNL A   1      44.043  22.370  23.795  1.00  0.00    -0.237 OA
ATOM     88  O   UNL A   1      45.584  21.280  25.378  1.00  0.00    -0.744 OA
ENDBRANCH  84  85
ENDBRANCH  52  77
BRANCH  64  89
ATOM     89  C   UNL A   1      46.475  27.200  33.895  1.00  0.00     0.058 A 
ATOM     90  C   UNL A   1      46.479  26.210  34.889  1.00  0.00     0.135 A 
ATOM     91  C   UNL A   1      47.711  27.755  33.521  1.00  0.00     0.135 A 
ATOM     92  F   UNL A   1      45.327  25.649  35.290  1.00  0.00    -0.206 F 
ATOM     93  C   UNL A   1      47.658  25.805  35.508  1.00  0.00     0.059 A 
ATOM     94  C   UNL A   1      48.906  27.339  34.100  1.00  0.00     0.059 A 
ATOM     95  F   UNL A   1      47.769  28.698  32.567  1.00  0.00    -0.206 F 
ATOM     96  C   UNL A   1      48.868  26.373  35.103  1.00  0.00     0.060 A 
BRANCH  96  97
ATOM     97  S   UNL A   1      50.392  25.812  35.890  1.00  0.00     0.124 S 
ATOM     98  O   UNL A   1      51.313  26.893  35.555  1.00  0.00    -0.237 OA
ATOM     99  O   UNL A   1      50.001  25.723  37.294  1.00  0.00    -0.237 OA
ATOM    100  O   UNL A   1      50.662  24.534  35.239  1.00  0.00    -0.744 OA
ENDBRANCH  96  97
ENDBRANCH  64  89
ENDBRANCH  38  39
ENDBRANCH  30  33
ENDBRANCH  28  29
ENDBRANCH  27  28
ENDBRANCH   1  27
TORSDOF 18
ENDMDL
