MODEL 1
REMARK VINA RESULT:     -12.8      0.000      0.000
REMARK SMILES CC(C)(C)c1cc(Nc2ccccc2C(=O)NCCCCNC(=O)c2ccc(-c3c4nc(c(-c5c(F)cc(S(=O)(=O)[O-])cc5F)c5ccc([nH]5)c(-c5c(F)cc(S(=O)(=O)[O-])cc5F)c5nc(c(-c6c(F)cc(S(=O)(=O)[O-])cc6F)c6ccc3[nH]6)C=C5)C=C4)cc2)cc2c1OCC2(C)C
REMARK SMILES IDX 19 1 18 2 17 3 15 4 16 5 14 7 9 8 10 9 11 10 13 11 12 12
REMARK SMILES IDX 8 13 7 15 5 16 6 17 93 18 92 19 94 20 91 21 96 22 95 23
REMARK SMILES IDX 97 24 98 25 2 26 1 27 3 28 4 29 20 30 21 31 22 32 23 33
REMARK SMILES IDX 24 35 25 36 26 37 90 38 27 39 89 40 28 41 29 42 30 43 83 44
REMARK SMILES IDX 31 45 88 46 82 47 84 48 32 49 87 50 81 51 80 52 33 54 67 55
REMARK SMILES IDX 46 56 66 57 47 58 50 59 65 60 85 61 48 62 49 63 64 65 86 66
REMARK SMILES IDX 51 67 34 68 35 69 44 70 36 71 37 72 43 73 45 74 38 75 39 76
REMARK SMILES IDX 40 77 41 78 42 79 68 80 69 81 78 82 70 83 71 84 77 85 79 86
REMARK SMILES IDX 72 87 73 88 74 89 75 90 76 91 52 92 53 93 62 94 54 95 55 96
REMARK SMILES IDX 61 97 63 98 56 99 57 100 58 101 59 102 60 103
REMARK H PARENT 17 6 8 14 22 34 84 53 50 64
REMARK Flexibility Score: inf
ROOT
ATOM      1  C   UNL A   1      34.842  23.058  26.856  1.00  0.00     0.023 C 
ENDROOT
BRANCH   1   2
ATOM      2  C   UNL A   1      33.782  22.120  27.407  1.00  0.00     0.116 C 
BRANCH   2   3
ATOM      3  N   UNL A   1      32.488  22.669  27.694  1.00  0.00    -0.352 N 
ATOM      4  C   UNL A   1      31.437  22.904  26.842  1.00  0.00     0.253 C 
ATOM      5  O   UNL A   1      30.390  23.298  27.365  1.00  0.00    -0.269 OA
ATOM      6  H   UNL A   1      32.331  22.910  28.636  1.00  0.00     0.163 HD
BRANCH   4   7
ATOM      7  C   UNL A   1      31.469  22.799  25.341  1.00  0.00     0.063 A 
ATOM      8  C   UNL A   1      30.900  23.639  24.358  1.00  0.00     0.051 A 
ATOM      9  C   UNL A   1      31.221  23.399  22.997  1.00  0.00     0.027 A 
ATOM     10  C   UNL A   1      32.002  22.320  22.592  1.00  0.00     0.002 A 
ATOM     11  C   UNL A   1      32.257  21.705  24.899  1.00  0.00     0.016 A 
ATOM     12  C   UNL A   1      32.504  21.456  23.546  1.00  0.00     0.001 A 
BRANCH   8  13
ATOM     13  N   UNL A   1      29.960  24.667  24.589  1.00  0.00    -0.355 N 
ATOM     14  H   UNL A   1      29.013  24.408  24.656  1.00  0.00     0.167 HD
BRANCH  13  15
ATOM     15  C   UNL A   1      30.269  26.049  24.735  1.00  0.00     0.039 A 
ATOM     16  C   UNL A   1      29.974  28.391  23.940  1.00  0.00     0.002 A 
ATOM     17  C   UNL A   1      29.562  27.031  23.998  1.00  0.00     0.034 A 
ATOM     18  C   UNL A   1      31.052  28.729  24.757  1.00  0.00     0.127 A 
ATOM     19  C   UNL A   1      31.741  27.790  25.503  1.00  0.00     0.006 A 
ATOM     20  O   UNL A   1      31.541  29.996  24.930  1.00  0.00    -0.492 OA
ATOM     21  C   UNL A   1      31.371  26.459  25.492  1.00  0.00     0.034 A 
ATOM     22  C   UNL A   1      32.867  28.416  26.248  1.00  0.00     0.028 C 
ATOM     23  C   UNL A   1      32.708  29.872  25.773  1.00  0.00     0.240 C 
ATOM     24  C   UNL A   1      32.660  28.283  27.760  1.00  0.00     0.020 C 
ATOM     25  C   UNL A   1      34.227  27.839  25.841  1.00  0.00     0.020 C 
BRANCH  16  26
ATOM     26  C   UNL A   1      29.284  29.426  23.028  1.00  0.00    -0.009 C 
ATOM     27  C   UNL A   1      30.072  29.691  21.732  1.00  0.00     0.016 C 
ATOM     28  C   UNL A   1      29.126  30.820  23.688  1.00  0.00     0.016 C 
ATOM     29  C   UNL A   1      27.895  28.892  22.640  1.00  0.00     0.016 C 
ENDBRANCH  16  26
ENDBRANCH  13  15
ENDBRANCH   8  13
ENDBRANCH   4   7
ENDBRANCH   2   3
ENDBRANCH   1   2
BRANCH   1  30
ATOM     30  C   UNL A   1      35.643  22.593  25.640  1.00  0.00     0.023 C 
BRANCH  30  31
ATOM     31  C   UNL A   1      36.909  23.363  25.273  1.00  0.00     0.116 C 
BRANCH  31  32
ATOM     32  N   UNL A   1      38.164  22.630  25.418  1.00  0.00    -0.352 N 
ATOM     33  C   UNL A   1      39.313  22.936  26.115  1.00  0.00     0.251 C 
ATOM     34  H   UNL A   1      38.194  21.772  24.936  1.00  0.00     0.163 HD
ATOM     35  O   UNL A   1      40.261  22.154  26.133  1.00  0.00    -0.269 OA
BRANCH  33  36
ATOM     36  C   UNL A   1      39.428  24.227  26.811  1.00  0.00     0.039 A 
ATOM     37  C   UNL A   1      40.138  25.261  26.215  1.00  0.00     0.014 A 
ATOM     38  C   UNL A   1      38.865  24.392  28.081  1.00  0.00     0.014 A 
ATOM     39  C   UNL A   1      40.507  26.351  26.983  1.00  0.00     0.010 A 
ATOM     40  C   UNL A   1      39.127  25.560  28.805  1.00  0.00     0.010 A 
ATOM     41  C   UNL A   1      40.010  26.519  28.288  1.00  0.00    -0.014 A 
BRANCH  41  42
ATOM     42  C   UNL A   1      40.457  27.713  29.054  1.00  0.00     0.031 A 
ATOM     43  C   UNL A   1      39.536  28.881  29.287  1.00  0.00     0.074 A 
ATOM     44  C   UNL A   1      41.663  27.662  29.656  1.00  0.00     0.049 A 
ATOM     45  N   UNL A   1      39.723  29.929  30.048  1.00  0.00    -0.248 NA
ATOM     46  C   UNL A   1      38.247  28.887  28.576  1.00  0.00     0.031 C 
ATOM     47  C   UNL A   1      42.638  26.580  29.487  1.00  0.00     0.029 A 
ATOM     48  N   UNL A   1      42.247  28.490  30.578  1.00  0.00    -0.354 N 
ATOM     49  C   UNL A   1      38.595  30.728  29.888  1.00  0.00     0.074 A 
ATOM     50  C   UNL A   1      37.733  30.055  28.943  1.00  0.00     0.031 C 
ATOM     51  C   UNL A   1      43.644  26.754  30.354  1.00  0.00     0.029 A 
ATOM     52  C   UNL A   1      43.430  27.999  31.080  1.00  0.00     0.049 A 
ATOM     53  H   UNL A   1      41.860  29.352  30.853  1.00  0.00     0.167 HD
ATOM     54  C   UNL A   1      38.307  31.909  30.484  1.00  0.00     0.037 A 
ATOM     55  C   UNL A   1      44.257  28.494  32.021  1.00  0.00     0.037 A 
ATOM     56  C   UNL A   1      39.155  32.547  31.458  1.00  0.00     0.049 A 
ATOM     57  C   UNL A   1      43.903  29.795  32.678  1.00  0.00     0.074 A 
ATOM     58  C   UNL A   1      38.937  33.728  32.145  1.00  0.00     0.029 A 
ATOM     59  N   UNL A   1      40.376  32.052  31.893  1.00  0.00    -0.354 N 
ATOM     60  N   UNL A   1      42.828  30.530  32.513  1.00  0.00    -0.248 NA
ATOM     61  C   UNL A   1      44.876  30.345  33.628  1.00  0.00     0.031 C 
ATOM     62  C   UNL A   1      40.043  33.967  32.967  1.00  0.00     0.029 A 
ATOM     63  C   UNL A   1      40.934  32.915  32.821  1.00  0.00     0.049 A 
ATOM     64  H   UNL A   1      40.786  31.211  31.586  1.00  0.00     0.167 HD
ATOM     65  C   UNL A   1      43.004  31.641  33.327  1.00  0.00     0.074 A 
ATOM     66  C   UNL A   1      44.269  31.461  34.013  1.00  0.00     0.031 C 
ATOM     67  C   UNL A   1      42.200  32.720  33.480  1.00  0.00     0.037 A 
BRANCH  54  68
ATOM     68  C   UNL A   1      37.029  32.606  30.104  1.00  0.00     0.058 A 
ATOM     69  C   UNL A   1      35.833  32.389  30.803  1.00  0.00     0.135 A 
ATOM     70  C   UNL A   1      37.025  33.567  29.080  1.00  0.00     0.135 A 
ATOM     71  F   UNL A   1      35.777  31.470  31.779  1.00  0.00    -0.206 F 
ATOM     72  C   UNL A   1      34.675  33.100  30.500  1.00  0.00     0.059 A 
ATOM     73  C   UNL A   1      35.883  34.304  28.772  1.00  0.00     0.059 A 
ATOM     74  F   UNL A   1      38.142  33.811  28.377  1.00  0.00    -0.206 F 
ATOM     75  C   UNL A   1      34.711  34.059  29.486  1.00  0.00     0.060 A 
BRANCH  75  76
ATOM     76  S   UNL A   1      33.209  34.998  29.131  1.00  0.00     0.124 S 
ATOM     77  O   UNL A   1      32.560  35.013  30.439  1.00  0.00    -0.237 OA
ATOM     78  O   UNL A   1      33.742  36.277  28.674  1.00  0.00    -0.237 OA
ATOM     79  O   UNL A   1      32.540  34.199  28.109  1.00  0.00    -0.744 OA
ENDBRANCH  75  76
ENDBRANCH  54  68
BRANCH  55  80
ATOM     80  C   UNL A   1      45.500  27.759  32.367  1.00  0.00     0.058 A 
ATOM     81  C   UNL A   1      45.502  26.739  33.329  1.00  0.00     0.135 A 
ATOM     82  C   UNL A   1      46.707  28.033  31.701  1.00  0.00     0.135 A 
ATOM     83  F   UNL A   1      44.376  26.444  33.997  1.00  0.00    -0.206 F 
ATOM     84  C   UNL A   1      46.656  26.017  33.620  1.00  0.00     0.059 A 
ATOM     85  C   UNL A   1      47.863  27.306  31.954  1.00  0.00     0.059 A 
ATOM     86  F   UNL A   1      46.753  28.988  30.759  1.00  0.00    -0.206 F 
ATOM     87  C   UNL A   1      47.831  26.304  32.922  1.00  0.00     0.060 A 
BRANCH  87  88
ATOM     88  S   UNL A   1      49.306  25.318  33.254  1.00  0.00     0.124 S 
ATOM     89  O   UNL A   1      49.735  24.970  31.904  1.00  0.00    -0.237 OA
ATOM     90  O   UNL A   1      50.155  26.266  33.970  1.00  0.00    -0.237 OA
ATOM     91  O   UNL A   1      48.797  24.214  34.061  1.00  0.00    -0.744 OA
ENDBRANCH  87  88
ENDBRANCH  55  80
BRANCH  67  92
ATOM     92  C   UNL A   1      42.673  33.799  34.409  1.00  0.00     0.058 A 
ATOM     93  C   UNL A   1      43.506  34.832  33.952  1.00  0.00     0.135 A 
ATOM     94  C   UNL A   1      42.242  33.837  35.744  1.00  0.00     0.135 A 
ATOM     95  F   UNL A   1      43.951  34.832  32.686  1.00  0.00    -0.206 F 
ATOM     96  C   UNL A   1      43.906  35.863  34.794  1.00  0.00     0.059 A 
ATOM     97  C   UNL A   1      42.613  34.870  36.596  1.00  0.00     0.059 A 
ATOM     98  F   UNL A   1      41.438  32.874  36.222  1.00  0.00    -0.206 F 
ATOM     99  C   UNL A   1      43.451  35.876  36.113  1.00  0.00     0.060 A 
BRANCH  99 100
ATOM    100  S   UNL A   1      43.943  37.245  37.182  1.00  0.00     0.124 S 
ATOM    101  O   UNL A   1      43.949  38.362  36.244  1.00  0.00    -0.237 OA
ATOM    102  O   UNL A   1      42.878  37.260  38.179  1.00  0.00    -0.237 OA
ATOM    103  O   UNL A   1      45.252  36.835  37.679  1.00  0.00    -0.744 OA
ENDBRANCH  99 100
ENDBRANCH  67  92
ENDBRANCH  41  42
ENDBRANCH  33  36
ENDBRANCH  31  32
ENDBRANCH  30  31
ENDBRANCH   1  30
TORSDOF 17
ENDMDL
MODEL 2
REMARK VINA RESULT:     -12.4      4.880      9.979
REMARK SMILES CC(C)(C)c1cc(Nc2ccccc2C(=O)NCCCCNC(=O)c2ccc(-c3c4nc(c(-c5c(F)cc(S(=O)(=O)[O-])cc5F)c5ccc([nH]5)c(-c5c(F)cc(S(=O)(=O)[O-])cc5F)c5nc(c(-c6c(F)cc(S(=O)(=O)[O-])cc6F)c6ccc3[nH]6)C=C5)C=C4)cc2)cc2c1OCC2(C)C
REMARK SMILES IDX 19 1 18 2 17 3 15 4 16 5 14 7 9 8 10 9 11 10 13 11 12 12
REMARK SMILES IDX 8 13 7 15 5 16 6 17 93 18 92 19 94 20 91 21 96 22 95 23
REMARK SMILES IDX 97 24 98 25 2 26 1 27 3 28 4 29 20 30 21 31 22 32 23 33
REMARK SMILES IDX 24 35 25 36 26 37 90 38 27 39 89 40 28 41 29 42 30 43 83 44
REMARK SMILES IDX 31 45 88 46 82 47 84 48 32 49 87 50 81 51 80 52 33 54 67 55
REMARK SMILES IDX 46 56 66 57 47 58 50 59 65 60 85 61 48 62 49 63 64 65 86 66
REMARK SMILES IDX 51 67 34 68 35 69 44 70 36 71 37 72 43 73 45 74 38 75 39 76
REMARK SMILES IDX 40 77 41 78 42 79 68 80 69 81 78 82 70 83 71 84 77 85 79 86
REMARK SMILES IDX 72 87 73 88 74 89 75 90 76 91 52 92 53 93 62 94 54 95 55 96
REMARK SMILES IDX 61 97 63 98 56 99 57 100 58 101 59 102 60 103
REMARK H PARENT 17 6 8 14 22 34 84 53 50 64
REMARK Flexibility Score: inf
ROOT
ATOM      1  C   UNL A   1      33.069  28.520  27.394  1.00  0.00     0.023 C 
ENDROOT
BRANCH   1   2
ATOM      2  C   UNL A   1      31.911  28.229  26.453  1.00  0.00     0.116 C 
BRANCH   2   3
ATOM      3  N   UNL A   1      31.011  27.171  26.811  1.00  0.00    -0.352 N 
ATOM      4  C   UNL A   1      30.727  26.009  26.136  1.00  0.00     0.253 C 
ATOM      5  O   UNL A   1      29.978  25.214  26.714  1.00  0.00    -0.269 OA
ATOM      6  H   UNL A   1      30.528  27.296  27.660  1.00  0.00     0.163 HD
BRANCH   4   7
ATOM      7  C   UNL A   1      31.179  25.654  24.746  1.00  0.00     0.063 A 
ATOM      8  C   UNL A   1      31.338  24.390  24.135  1.00  0.00     0.051 A 
ATOM      9  C   UNL A   1      31.625  24.342  22.746  1.00  0.00     0.027 A 
ATOM     10  C   UNL A   1      31.840  25.489  21.987  1.00  0.00     0.002 A 
ATOM     11  C   UNL A   1      31.408  26.805  23.949  1.00  0.00     0.016 A 
ATOM     12  C   UNL A   1      31.752  26.727  22.597  1.00  0.00     0.001 A 
BRANCH   8  13
ATOM     13  N   UNL A   1      31.320  23.142  24.796  1.00  0.00    -0.355 N 
ATOM     14  H   UNL A   1      30.482  22.878  25.241  1.00  0.00     0.167 HD
BRANCH  13  15
ATOM     15  C   UNL A   1      32.412  22.233  24.872  1.00  0.00     0.039 A 
ATOM     16  C   UNL A   1      34.872  21.849  24.791  1.00  0.00     0.002 A 
ATOM     17  C   UNL A   1      33.746  22.706  24.936  1.00  0.00     0.034 A 
ATOM     18  C   UNL A   1      34.586  20.488  24.704  1.00  0.00     0.127 A 
ATOM     19  C   UNL A   1      33.291  20.002  24.665  1.00  0.00     0.006 A 
ATOM     20  O   UNL A   1      35.520  19.488  24.665  1.00  0.00    -0.492 OA
ATOM     21  C   UNL A   1      32.207  20.856  24.735  1.00  0.00     0.034 A 
ATOM     22  C   UNL A   1      33.276  18.520  24.531  1.00  0.00     0.028 C 
ATOM     23  C   UNL A   1      34.792  18.255  24.478  1.00  0.00     0.240 C 
ATOM     24  C   UNL A   1      32.625  17.870  25.755  1.00  0.00     0.020 C 
ATOM     25  C   UNL A   1      32.581  18.059  23.245  1.00  0.00     0.020 C 
BRANCH  16  26
ATOM     26  C   UNL A   1      36.315  22.387  24.723  1.00  0.00    -0.009 C 
ATOM     27  C   UNL A   1      36.696  22.883  23.315  1.00  0.00     0.016 C 
ATOM     28  C   UNL A   1      37.387  21.321  25.071  1.00  0.00     0.016 C 
ATOM     29  C   UNL A   1      36.447  23.570  25.696  1.00  0.00     0.016 C 
ENDBRANCH  16  26
ENDBRANCH  13  15
ENDBRANCH   8  13
ENDBRANCH   4   7
ENDBRANCH   2   3
ENDBRANCH   1   2
BRANCH   1  30
ATOM     30  C   UNL A   1      34.218  29.379  26.865  1.00  0.00     0.023 C 
BRANCH  30  31
ATOM     31  C   UNL A   1      35.521  29.407  27.658  1.00  0.00     0.116 C 
BRANCH  31  32
ATOM     32  N   UNL A   1      35.383  29.527  29.106  1.00  0.00    -0.352 N 
ATOM     33  C   UNL A   1      36.331  29.685  30.095  1.00  0.00     0.251 C 
ATOM     34  H   UNL A   1      34.455  29.490  29.432  1.00  0.00     0.163 HD
ATOM     35  O   UNL A   1      35.996  29.799  31.271  1.00  0.00    -0.269 OA
BRANCH  33  36
ATOM     36  C   UNL A   1      37.761  29.673  29.748  1.00  0.00     0.039 A 
ATOM     37  C   UNL A   1      38.157  30.063  28.476  1.00  0.00     0.014 A 
ATOM     38  C   UNL A   1      38.705  29.227  30.680  1.00  0.00     0.014 A 
ATOM     39  C   UNL A   1      39.439  29.763  28.050  1.00  0.00     0.010 A 
ATOM     40  C   UNL A   1      40.036  29.053  30.284  1.00  0.00     0.010 A 
ATOM     41  C   UNL A   1      40.398  29.254  28.945  1.00  0.00    -0.014 A 
BRANCH  41  42
ATOM     42  C   UNL A   1      41.753  28.950  28.412  1.00  0.00     0.031 A 
ATOM     43  C   UNL A   1      42.873  29.951  28.513  1.00  0.00     0.074 A 
ATOM     44  C   UNL A   1      41.989  27.701  27.964  1.00  0.00     0.049 A 
ATOM     45  N   UNL A   1      44.141  29.788  28.227  1.00  0.00    -0.248 NA
ATOM     46  C   UNL A   1      42.540  31.305  28.982  1.00  0.00     0.031 C 
ATOM     47  C   UNL A   1      40.970  26.657  27.816  1.00  0.00     0.029 A 
ATOM     48  N   UNL A   1      43.157  27.071  27.620  1.00  0.00    -0.354 N 
ATOM     49  C   UNL A   1      44.747  31.019  28.454  1.00  0.00     0.074 A 
ATOM     50  C   UNL A   1      43.709  31.928  28.886  1.00  0.00     0.031 C 
ATOM     51  C   UNL A   1      41.567  25.496  27.517  1.00  0.00     0.029 A 
ATOM     52  C   UNL A   1      42.999  25.727  27.370  1.00  0.00     0.049 A 
ATOM     53  H   UNL A   1      44.023  27.534  27.556  1.00  0.00     0.167 HD
ATOM     54  C   UNL A   1      46.053  31.353  28.323  1.00  0.00     0.037 A 
ATOM     55  C   UNL A   1      43.903  24.780  27.056  1.00  0.00     0.037 A 
ATOM     56  C   UNL A   1      47.085  30.426  27.936  1.00  0.00     0.049 A 
ATOM     57  C   UNL A   1      45.346  25.175  26.936  1.00  0.00     0.074 A 
ATOM     58  C   UNL A   1      48.443  30.658  27.806  1.00  0.00     0.029 A 
ATOM     59  N   UNL A   1      46.877  29.089  27.627  1.00  0.00    -0.354 N 
ATOM     60  N   UNL A   1      45.896  26.344  27.160  1.00  0.00    -0.248 NA
ATOM     61  C   UNL A   1      46.285  24.135  26.500  1.00  0.00     0.031 C 
ATOM     62  C   UNL A   1      49.051  29.471  27.383  1.00  0.00     0.029 A 
ATOM     63  C   UNL A   1      48.077  28.489  27.286  1.00  0.00     0.049 A 
ATOM     64  H   UNL A   1      46.004  28.635  27.648  1.00  0.00     0.167 HD
ATOM     65  C   UNL A   1      47.246  26.186  26.875  1.00  0.00     0.074 A 
ATOM     66  C   UNL A   1      47.434  24.798  26.502  1.00  0.00     0.031 C 
ATOM     67  C   UNL A   1      48.237  27.109  26.905  1.00  0.00     0.037 A 
BRANCH  54  68
ATOM     68  C   UNL A   1      46.455  32.778  28.588  1.00  0.00     0.058 A 
ATOM     69  C   UNL A   1      46.443  33.750  27.577  1.00  0.00     0.135 A 
ATOM     70  C   UNL A   1      46.774  33.192  29.892  1.00  0.00     0.135 A 
ATOM     71  F   UNL A   1      46.162  33.405  26.311  1.00  0.00    -0.206 F 
ATOM     72  C   UNL A   1      46.735  35.084  27.848  1.00  0.00     0.059 A 
ATOM     73  C   UNL A   1      47.050  34.525  30.190  1.00  0.00     0.059 A 
ATOM     74  F   UNL A   1      46.803  32.302  30.896  1.00  0.00    -0.206 F 
ATOM     75  C   UNL A   1      47.033  35.463  29.159  1.00  0.00     0.060 A 
BRANCH  75  76
ATOM     76  S   UNL A   1      47.372  37.204  29.499  1.00  0.00     0.124 S 
ATOM     77  O   UNL A   1      46.319  37.862  28.730  1.00  0.00    -0.237 OA
ATOM     78  O   UNL A   1      47.232  37.271  30.949  1.00  0.00    -0.237 OA
ATOM     79  O   UNL A   1      48.728  37.393  28.993  1.00  0.00    -0.744 OA
ENDBRANCH  75  76
ENDBRANCH  54  68
BRANCH  55  80
ATOM     80  C   UNL A   1      43.455  23.385  26.816  1.00  0.00     0.058 A 
ATOM     81  C   UNL A   1      43.388  22.852  25.521  1.00  0.00     0.135 A 
ATOM     82  C   UNL A   1      43.131  22.538  27.890  1.00  0.00     0.135 A 
ATOM     83  F   UNL A   1      43.682  23.622  24.462  1.00  0.00    -0.206 F 
ATOM     84  C   UNL A   1      43.015  21.530  25.298  1.00  0.00     0.059 A 
ATOM     85  C   UNL A   1      42.784  21.208  27.693  1.00  0.00     0.059 A 
ATOM     86  F   UNL A   1      43.196  22.996  29.150  1.00  0.00    -0.206 F 
ATOM     87  C   UNL A   1      42.720  20.713  26.391  1.00  0.00     0.060 A 
BRANCH  87  88
ATOM     88  S   UNL A   1      42.304  18.981  26.100  1.00  0.00     0.124 S 
ATOM     89  O   UNL A   1      42.675  18.374  27.374  1.00  0.00    -0.237 OA
ATOM     90  O   UNL A   1      40.873  19.051  25.818  1.00  0.00    -0.237 OA
ATOM     91  O   UNL A   1      43.141  18.622  24.960  1.00  0.00    -0.744 OA
ENDBRANCH  87  88
ENDBRANCH  55  80
BRANCH  67  92
ATOM     92  C   UNL A   1      49.608  26.653  26.503  1.00  0.00     0.058 A 
ATOM     93  C   UNL A   1      50.447  25.993  27.414  1.00  0.00     0.135 A 
ATOM     94  C   UNL A   1      50.062  26.821  25.186  1.00  0.00     0.135 A 
ATOM     95  F   UNL A   1      50.058  25.819  28.687  1.00  0.00    -0.206 F 
ATOM     96  C   UNL A   1      51.698  25.524  27.034  1.00  0.00     0.059 A 
ATOM     97  C   UNL A   1      51.302  26.340  24.780  1.00  0.00     0.059 A 
ATOM     98  F   UNL A   1      49.291  27.440  24.278  1.00  0.00    -0.206 F 
ATOM     99  C   UNL A   1      52.115  25.697  25.714  1.00  0.00     0.060 A 
BRANCH  99 100
ATOM    100  S   UNL A   1      53.725  25.042  25.225  1.00  0.00     0.124 S 
ATOM    101  O   UNL A   1      53.478  23.605  25.255  1.00  0.00    -0.237 OA
ATOM    102  O   UNL A   1      53.909  25.626  23.900  1.00  0.00    -0.237 OA
ATOM    103  O   UNL A   1      54.625  25.547  26.256  1.00  0.00    -0.744 OA
ENDBRANCH  99 100
ENDBRANCH  67  92
ENDBRANCH  41  42
ENDBRANCH  33  36
ENDBRANCH  31  32
ENDBRANCH  30  31
ENDBRANCH   1  30
TORSDOF 17
ENDMDL
MODEL 3
REMARK VINA RESULT:     -12.4      3.294      9.342
REMARK SMILES CC(C)(C)c1cc(Nc2ccccc2C(=O)NCCCCNC(=O)c2ccc(-c3c4nc(c(-c5c(F)cc(S(=O)(=O)[O-])cc5F)c5ccc([nH]5)c(-c5c(F)cc(S(=O)(=O)[O-])cc5F)c5nc(c(-c6c(F)cc(S(=O)(=O)[O-])cc6F)c6ccc3[nH]6)C=C5)C=C4)cc2)cc2c1OCC2(C)C
REMARK SMILES IDX 19 1 18 2 17 3 15 4 16 5 14 7 9 8 10 9 11 10 13 11 12 12
REMARK SMILES IDX 8 13 7 15 5 16 6 17 93 18 92 19 94 20 91 21 96 22 95 23
REMARK SMILES IDX 97 24 98 25 2 26 1 27 3 28 4 29 20 30 21 31 22 32 23 33
REMARK SMILES IDX 24 35 25 36 26 37 90 38 27 39 89 40 28 41 29 42 30 43 83 44
REMARK SMILES IDX 31 45 88 46 82 47 84 48 32 49 87 50 81 51 80 52 33 54 67 55
REMARK SMILES IDX 46 56 66 57 47 58 50 59 65 60 85 61 48 62 49 63 64 65 86 66
REMARK SMILES IDX 51 67 34 68 35 69 44 70 36 71 37 72 43 73 45 74 38 75 39 76
REMARK SMILES IDX 40 77 41 78 42 79 68 80 69 81 78 82 70 83 71 84 77 85 79 86
REMARK SMILES IDX 72 87 73 88 74 89 75 90 76 91 52 92 53 93 62 94 54 95 55 96
REMARK SMILES IDX 61 97 63 98 56 99 57 100 58 101 59 102 60 103
REMARK H PARENT 17 6 8 14 22 34 84 53 50 64
REMARK Flexibility Score: inf
ROOT
ATOM      1  C   UNL A   1      32.114  26.330  26.796  1.00  0.00     0.023 C 
ENDROOT
BRANCH   1   2
ATOM      2  C   UNL A   1      31.126  25.243  26.408  1.00  0.00     0.116 C 
BRANCH   2   3
ATOM      3  N   UNL A   1      29.987  25.625  25.624  1.00  0.00    -0.352 N 
ATOM      4  C   UNL A   1      29.887  25.793  24.264  1.00  0.00     0.253 C 
ATOM      5  O   UNL A   1      28.757  26.034  23.828  1.00  0.00    -0.269 OA
ATOM      6  H   UNL A   1      29.160  25.789  26.133  1.00  0.00     0.163 HD
BRANCH   4   7
ATOM      7  C   UNL A   1      31.026  25.784  23.281  1.00  0.00     0.063 A 
ATOM      8  C   UNL A   1      31.691  24.698  22.670  1.00  0.00     0.051 A 
ATOM      9  C   UNL A   1      32.634  24.972  21.645  1.00  0.00     0.027 A 
ATOM     10  C   UNL A   1      32.987  26.269  21.284  1.00  0.00     0.002 A 
ATOM     11  C   UNL A   1      31.410  27.094  22.896  1.00  0.00     0.016 A 
ATOM     12  C   UNL A   1      32.388  27.336  21.928  1.00  0.00     0.001 A 
BRANCH   8  13
ATOM     13  N   UNL A   1      31.571  23.338  23.037  1.00  0.00    -0.355 N 
ATOM     14  H   UNL A   1      30.672  22.939  23.003  1.00  0.00     0.167 HD
BRANCH  13  15
ATOM     15  C   UNL A   1      32.642  22.498  23.451  1.00  0.00     0.039 A 
ATOM     16  C   UNL A   1      33.434  20.234  24.124  1.00  0.00     0.002 A 
ATOM     17  C   UNL A   1      32.478  21.092  23.513  1.00  0.00     0.034 A 
ATOM     18  C   UNL A   1      34.609  20.850  24.553  1.00  0.00     0.127 A 
ATOM     19  C   UNL A   1      34.800  22.219  24.479  1.00  0.00     0.006 A 
ATOM     20  O   UNL A   1      35.696  20.198  25.070  1.00  0.00    -0.492 OA
ATOM     21  C   UNL A   1      33.829  23.046  23.947  1.00  0.00     0.034 A 
ATOM     22  C   UNL A   1      36.122  22.609  25.041  1.00  0.00     0.028 C 
ATOM     23  C   UNL A   1      36.635  21.221  25.467  1.00  0.00     0.240 C 
ATOM     24  C   UNL A   1      37.007  23.239  23.962  1.00  0.00     0.020 C 
ATOM     25  C   UNL A   1      35.987  23.550  26.242  1.00  0.00     0.020 C 
BRANCH  16  26
ATOM     26  C   UNL A   1      33.188  18.724  24.312  1.00  0.00    -0.009 C 
ATOM     27  C   UNL A   1      34.471  17.889  24.132  1.00  0.00     0.016 C 
ATOM     28  C   UNL A   1      32.185  18.132  23.289  1.00  0.00     0.016 C 
ATOM     29  C   UNL A   1      32.659  18.483  25.735  1.00  0.00     0.016 C 
ENDBRANCH  16  26
ENDBRANCH  13  15
ENDBRANCH   8  13
ENDBRANCH   4   7
ENDBRANCH   2   3
ENDBRANCH   1   2
BRANCH   1  30
ATOM     30  C   UNL A   1      33.420  26.423  26.005  1.00  0.00     0.023 C 
BRANCH  30  31
ATOM     31  C   UNL A   1      34.354  27.595  26.291  1.00  0.00     0.116 C 
BRANCH  31  32
ATOM     32  N   UNL A   1      33.713  28.823  26.750  1.00  0.00    -0.352 N 
ATOM     33  C   UNL A   1      34.211  29.888  27.471  1.00  0.00     0.251 C 
ATOM     34  H   UNL A   1      32.763  28.906  26.503  1.00  0.00     0.163 HD
ATOM     35  O   UNL A   1      33.500  30.856  27.731  1.00  0.00    -0.269 OA
BRANCH  33  36
ATOM     36  C   UNL A   1      35.594  29.852  27.973  1.00  0.00     0.039 A 
ATOM     37  C   UNL A   1      36.635  30.220  27.131  1.00  0.00     0.014 A 
ATOM     38  C   UNL A   1      35.856  29.404  29.272  1.00  0.00     0.014 A 
ATOM     39  C   UNL A   1      37.931  29.897  27.487  1.00  0.00     0.010 A 
ATOM     40  C   UNL A   1      37.180  29.207  29.680  1.00  0.00     0.010 A 
ATOM     41  C   UNL A   1      38.226  29.386  28.764  1.00  0.00    -0.014 A 
BRANCH  41  42
ATOM     42  C   UNL A   1      39.643  29.056  29.070  1.00  0.00     0.031 A 
ATOM     43  C   UNL A   1      40.247  27.741  28.652  1.00  0.00     0.074 A 
ATOM     44  C   UNL A   1      40.415  30.022  29.608  1.00  0.00     0.049 A 
ATOM     45  N   UNL A   1      41.498  27.360  28.718  1.00  0.00    -0.248 NA
ATOM     46  C   UNL A   1      39.344  26.719  28.099  1.00  0.00     0.031 C 
ATOM     47  C   UNL A   1      39.926  31.329  30.059  1.00  0.00     0.029 A 
ATOM     48  N   UNL A   1      41.769  30.093  29.802  1.00  0.00    -0.354 N 
ATOM     49  C   UNL A   1      41.527  26.053  28.243  1.00  0.00     0.074 A 
ATOM     50  C   UNL A   1      40.167  25.695  27.908  1.00  0.00     0.031 C 
ATOM     51  C   UNL A   1      40.971  32.107  30.374  1.00  0.00     0.029 A 
ATOM     52  C   UNL A   1      42.196  31.330  30.229  1.00  0.00     0.049 A 
ATOM     53  H   UNL A   1      42.378  29.334  29.653  1.00  0.00     0.167 HD
ATOM     54  C   UNL A   1      42.595  25.233  28.094  1.00  0.00     0.037 A 
ATOM     55  C   UNL A   1      43.435  31.793  30.478  1.00  0.00     0.037 A 
ATOM     56  C   UNL A   1      43.951  25.617  28.388  1.00  0.00     0.049 A 
ATOM     57  C   UNL A   1      44.601  30.869  30.286  1.00  0.00     0.074 A 
ATOM     58  C   UNL A   1      45.107  24.871  28.240  1.00  0.00     0.029 A 
ATOM     59  N   UNL A   1      44.336  26.857  28.881  1.00  0.00    -0.354 N 
ATOM     60  N   UNL A   1      44.604  29.638  29.832  1.00  0.00    -0.248 NA
ATOM     61  C   UNL A   1      45.924  31.383  30.658  1.00  0.00     0.031 C 
ATOM     62  C   UNL A   1      46.187  25.646  28.678  1.00  0.00     0.029 A 
ATOM     63  C   UNL A   1      45.708  26.888  29.063  1.00  0.00     0.049 A 
ATOM     64  H   UNL A   1      43.723  27.603  29.073  1.00  0.00     0.167 HD
ATOM     65  C   UNL A   1      45.928  29.223  29.881  1.00  0.00     0.074 A 
ATOM     66  C   UNL A   1      46.702  30.347  30.370  1.00  0.00     0.031 C 
ATOM     67  C   UNL A   1      46.454  28.015  29.564  1.00  0.00     0.037 A 
BRANCH  54  68
ATOM     68  C   UNL A   1      42.355  23.833  27.598  1.00  0.00     0.058 A 
ATOM     69  C   UNL A   1      42.246  23.543  26.230  1.00  0.00     0.135 A 
ATOM     70  C   UNL A   1      42.320  22.758  28.501  1.00  0.00     0.135 A 
ATOM     71  F   UNL A   1      42.256  24.534  25.325  1.00  0.00    -0.206 F 
ATOM     72  C   UNL A   1      42.108  22.235  25.774  1.00  0.00     0.059 A 
ATOM     73  C   UNL A   1      42.202  21.440  28.067  1.00  0.00     0.059 A 
ATOM     74  F   UNL A   1      42.417  22.981  29.821  1.00  0.00    -0.206 F 
ATOM     75  C   UNL A   1      42.093  21.189  26.700  1.00  0.00     0.060 A 
BRANCH  75  76
ATOM     76  S   UNL A   1      41.951  19.495  26.088  1.00  0.00     0.124 S 
ATOM     77  O   UNL A   1      40.519  19.403  25.818  1.00  0.00    -0.237 OA
ATOM     78  O   UNL A   1      42.816  19.515  24.913  1.00  0.00    -0.237 OA
ATOM     79  O   UNL A   1      42.431  18.687  27.204  1.00  0.00    -0.744 OA
ENDBRANCH  75  76
ENDBRANCH  54  68
BRANCH  55  80
ATOM     80  C   UNL A   1      43.617  33.188  30.955  1.00  0.00     0.058 A 
ATOM     81  C   UNL A   1      43.690  33.489  32.321  1.00  0.00     0.135 A 
ATOM     82  C   UNL A   1      43.772  34.246  30.043  1.00  0.00     0.135 A 
ATOM     83  F   UNL A   1      43.543  32.514  33.232  1.00  0.00    -0.206 F 
ATOM     84  C   UNL A   1      43.910  34.789  32.769  1.00  0.00     0.059 A 
ATOM     85  C   UNL A   1      44.020  35.546  30.465  1.00  0.00     0.059 A 
ATOM     86  F   UNL A   1      43.727  34.007  28.722  1.00  0.00    -0.206 F 
ATOM     87  C   UNL A   1      44.080  35.810  31.832  1.00  0.00     0.060 A 
BRANCH  87  88
ATOM     88  S   UNL A   1      44.432  37.481  32.417  1.00  0.00     0.124 S 
ATOM     89  O   UNL A   1      45.807  37.343  32.885  1.00  0.00    -0.237 OA
ATOM     90  O   UNL A   1      44.246  38.277  31.207  1.00  0.00    -0.237 OA
ATOM     91  O   UNL A   1      43.428  37.692  33.455  1.00  0.00    -0.744 OA
ENDBRANCH  87  88
ENDBRANCH  55  80
BRANCH  67  92
ATOM     92  C   UNL A   1      47.931  27.840  29.757  1.00  0.00     0.058 A 
ATOM     93  C   UNL A   1      48.449  27.354  30.968  1.00  0.00     0.135 A 
ATOM     94  C   UNL A   1      48.827  28.100  28.709  1.00  0.00     0.135 A 
ATOM     95  F   UNL A   1      47.630  27.100  32.000  1.00  0.00    -0.206 F 
ATOM     96  C   UNL A   1      49.812  27.141  31.136  1.00  0.00     0.059 A 
ATOM     97  C   UNL A   1      50.192  27.873  28.850  1.00  0.00     0.059 A 
ATOM     98  F   UNL A   1      48.376  28.559  27.532  1.00  0.00    -0.206 F 
ATOM     99  C   UNL A   1      50.675  27.399  30.070  1.00  0.00     0.060 A 
BRANCH  99 100
ATOM    100  S   UNL A   1      52.437  27.075  30.289  1.00  0.00     0.124 S 
ATOM    101  O   UNL A   1      52.868  26.851  28.914  1.00  0.00    -0.237 OA
ATOM    102  O   UNL A   1      52.906  28.311  30.908  1.00  0.00    -0.237 OA
ATOM    103  O   UNL A   1      52.461  25.900  31.155  1.00  0.00    -0.744 OA
ENDBRANCH  99 100
ENDBRANCH  67  92
ENDBRANCH  41  42
ENDBRANCH  33  36
ENDBRANCH  31  32
ENDBRANCH  30  31
ENDBRANCH   1  30
TORSDOF 17
ENDMDL
