MODEL 1
REMARK VINA RESULT:     -11.8      0.000      0.000
REMARK SMILES CCc1ccc(Nc2nc(OCC(=O)NCCCCNC(=O)c3ccc(-c4c5nc(c(-c6c(F)cc(S(=O)(=O)[O-])cc6F)c6ccc([nH]6)c(-c6c(F)cc(S(=O)(=O)[O-])cc6F)c6nc(c(-c7c(F)cc(S(=O)(=O)[O-])cc7F)c7ccc4[nH]7)C=C6)C=C5)cc3)cc(-c3cccnc3)n2)cc1
REMARK SMILES IDX 16 1 15 2 13 3 14 4 12 6 11 7 10 8 8 9 9 10 97 11 90 12
REMARK SMILES IDX 89 13 7 14 6 16 3 17 4 18 99 19 5 20 98 21 2 22 1 23 91 24
REMARK SMILES IDX 92 25 96 26 93 27 95 28 94 29 17 30 18 31 19 32 20 33 21 34
REMARK SMILES IDX 22 36 23 37 24 38 88 39 25 40 87 41 26 42 27 43 28 44 81 45
REMARK SMILES IDX 29 46 86 47 80 48 82 49 30 50 85 51 79 52 78 53 31 55 65 56
REMARK SMILES IDX 44 57 64 58 45 59 48 60 63 61 83 62 46 63 47 64 62 66 84 67
REMARK SMILES IDX 49 68 32 69 33 70 42 71 34 72 35 73 41 74 43 75 36 76 37 77
REMARK SMILES IDX 38 78 39 79 40 80 66 81 67 82 76 83 68 84 69 85 75 86 77 87
REMARK SMILES IDX 70 88 71 89 72 90 73 91 74 92 50 93 51 94 60 95 52 96 53 97
REMARK SMILES IDX 59 98 61 99 54 100 55 101 56 102 57 103 58 104
REMARK H PARENT 15 5 7 15 20 35 82 54 48 65
REMARK Flexibility Score: inf
ROOT
ATOM      1  C   UNL A   1      39.661  21.464  26.386  1.00  0.00     0.116 C 
ENDROOT
BRANCH   1   2
ATOM      2  N   UNL A   1      39.036  22.373  25.447  1.00  0.00    -0.353 N 
ATOM      3  C   UNL A   1      37.726  22.740  25.367  1.00  0.00     0.258 C 
ATOM      4  O   UNL A   1      37.378  23.519  24.476  1.00  0.00    -0.271 OA
ATOM      5  H   UNL A   1      39.635  22.779  24.780  1.00  0.00     0.163 HD
BRANCH   3   6
ATOM      6  C   UNL A   1      36.712  22.199  26.386  1.00  0.00     0.331 C 
BRANCH   6   7
ATOM      7  O   UNL A   1      35.404  22.744  26.365  1.00  0.00    -0.467 OA
BRANCH   7   8
ATOM      8  C   UNL A   1      34.386  21.949  25.921  1.00  0.00     0.219 A 
ATOM      9  C   UNL A   1      32.127  21.901  25.534  1.00  0.00     0.231 A 
ATOM     10  N   UNL A   1      33.221  22.612  25.835  1.00  0.00    -0.177 NA
ATOM     11  N   UNL A   1      32.155  20.596  25.229  1.00  0.00    -0.212 NA
ATOM     12  C   UNL A   1      33.337  19.965  25.285  1.00  0.00     0.081 A 
ATOM     13  C   UNL A   1      34.500  20.615  25.624  1.00  0.00     0.097 A 
BRANCH   9  14
ATOM     14  N   UNL A   1      30.908  22.571  25.603  1.00  0.00    -0.324 N 
ATOM     15  H   UNL A   1      30.183  22.098  26.071  1.00  0.00     0.170 HD
BRANCH  14  16
ATOM     16  C   UNL A   1      30.581  23.836  25.089  1.00  0.00     0.041 A 
ATOM     17  C   UNL A   1      30.009  26.404  24.023  1.00  0.00    -0.048 A 
ATOM     18  C   UNL A   1      29.819  26.134  25.379  1.00  0.00     0.006 A 
ATOM     19  C   UNL A   1      30.429  25.357  23.191  1.00  0.00     0.006 A 
ATOM     20  C   UNL A   1      30.098  24.870  25.900  1.00  0.00     0.026 A 
ATOM     21  C   UNL A   1      30.713  24.090  23.719  1.00  0.00     0.026 A 
BRANCH  17  22
ATOM     22  C   UNL A   1      29.724  27.773  23.455  1.00  0.00     0.032 C 
ATOM     23  C   UNL A   1      30.759  28.826  23.840  1.00  0.00     0.009 C 
ENDBRANCH  17  22
ENDBRANCH  14  16
ENDBRANCH   9  14
BRANCH  12  24
ATOM     24  C   UNL A   1      33.313  18.531  25.013  1.00  0.00     0.019 A 
ATOM     25  C   UNL A   1      32.520  17.652  25.762  1.00  0.00     0.013 A 
ATOM     26  C   UNL A   1      34.095  17.965  24.008  1.00  0.00     0.121 A 
ATOM     27  C   UNL A   1      32.552  16.285  25.503  1.00  0.00     0.021 A 
ATOM     28  N   UNL A   1      34.166  16.636  23.745  1.00  0.00    -0.264 NA
ATOM     29  C   UNL A   1      33.390  15.828  24.499  1.00  0.00     0.111 A 
ENDBRANCH  12  24
ENDBRANCH   7   8
ENDBRANCH   6   7
ENDBRANCH   3   6
ENDBRANCH   1   2
BRANCH   1  30
ATOM     30  C   UNL A   1      40.339  22.203  27.538  1.00  0.00     0.023 C 
BRANCH  30  31
ATOM     31  C   UNL A   1      41.841  21.935  27.693  1.00  0.00     0.023 C 
BRANCH  31  32
ATOM     32  C   UNL A   1      42.753  23.152  27.567  1.00  0.00     0.116 C 
BRANCH  32  33
ATOM     33  N   UNL A   1      42.546  23.896  26.337  1.00  0.00    -0.352 N 
ATOM     34  C   UNL A   1      42.070  25.170  26.157  1.00  0.00     0.251 C 
ATOM     35  H   UNL A   1      42.781  23.416  25.511  1.00  0.00     0.163 HD
ATOM     36  O   UNL A   1      41.855  25.571  25.010  1.00  0.00    -0.269 OA
BRANCH  34  37
ATOM     37  C   UNL A   1      41.790  26.056  27.311  1.00  0.00     0.039 A 
ATOM     38  C   UNL A   1      42.653  27.128  27.554  1.00  0.00     0.014 A 
ATOM     39  C   UNL A   1      40.714  25.824  28.173  1.00  0.00     0.014 A 
ATOM     40  C   UNL A   1      42.418  27.984  28.633  1.00  0.00     0.010 A 
ATOM     41  C   UNL A   1      40.437  26.723  29.204  1.00  0.00     0.010 A 
ATOM     42  C   UNL A   1      41.295  27.804  29.458  1.00  0.00    -0.014 A 
BRANCH  42  43
ATOM     43  C   UNL A   1      41.037  28.715  30.605  1.00  0.00     0.031 A 
ATOM     44  C   UNL A   1      41.891  28.634  31.845  1.00  0.00     0.074 A 
ATOM     45  C   UNL A   1      40.026  29.605  30.541  1.00  0.00     0.049 A 
ATOM     46  N   UNL A   1      41.819  29.339  32.947  1.00  0.00    -0.248 NA
ATOM     47  C   UNL A   1      42.950  27.611  31.861  1.00  0.00     0.031 C 
ATOM     48  C   UNL A   1      39.098  29.753  29.418  1.00  0.00     0.029 A 
ATOM     49  N   UNL A   1      39.611  30.557  31.439  1.00  0.00    -0.354 N 
ATOM     50  C   UNL A   1      42.817  28.845  33.780  1.00  0.00     0.074 A 
ATOM     51  C   UNL A   1      43.435  27.737  33.086  1.00  0.00     0.031 C 
ATOM     52  C   UNL A   1      38.247  30.760  29.679  1.00  0.00     0.029 A 
ATOM     53  C   UNL A   1      38.547  31.308  30.998  1.00  0.00     0.049 A 
ATOM     54  H   UNL A   1      40.037  30.690  32.317  1.00  0.00     0.167 HD
ATOM     55  C   UNL A   1      43.210  29.295  34.997  1.00  0.00     0.037 A 
ATOM     56  C   UNL A   1      37.889  32.326  31.587  1.00  0.00     0.037 A 
ATOM     57  C   UNL A   1      42.609  30.415  35.675  1.00  0.00     0.049 A 
ATOM     58  C   UNL A   1      38.337  32.800  32.945  1.00  0.00     0.074 A 
ATOM     59  C   UNL A   1      42.961  30.973  36.892  1.00  0.00     0.029 A 
ATOM     60  N   UNL A   1      41.536  31.150  35.194  1.00  0.00    -0.354 N 
ATOM     61  N   UNL A   1      39.323  32.358  33.691  1.00  0.00    -0.248 NA
ATOM     62  C   UNL A   1      37.590  33.918  33.537  1.00  0.00     0.031 C 
ATOM     63  C   UNL A   1      42.074  32.021  37.165  1.00  0.00     0.029 A 
ATOM     64  C   UNL A   1      41.202  32.147  36.096  1.00  0.00     0.049 A 
ATOM     65  H   UNL A   1      41.080  30.988  34.337  1.00  0.00     0.167 HD
ATOM     66  C   UNL A   1      39.330  33.162  34.827  1.00  0.00     0.074 A 
ATOM     67  C   UNL A   1      38.264  34.130  34.659  1.00  0.00     0.031 C 
ATOM     68  C   UNL A   1      40.141  33.105  35.912  1.00  0.00     0.037 A 
BRANCH  55  69
ATOM     69  C   UNL A   1      44.357  28.586  35.665  1.00  0.00     0.058 A 
ATOM     70  C   UNL A   1      45.689  28.966  35.433  1.00  0.00     0.135 A 
ATOM     71  C   UNL A   1      44.126  27.542  36.576  1.00  0.00     0.135 A 
ATOM     72  F   UNL A   1      45.970  29.947  34.560  1.00  0.00    -0.206 F 
ATOM     73  C   UNL A   1      46.751  28.318  36.054  1.00  0.00     0.059 A 
ATOM     74  C   UNL A   1      45.172  26.900  37.233  1.00  0.00     0.059 A 
ATOM     75  F   UNL A   1      42.873  27.137  36.836  1.00  0.00    -0.206 F 
ATOM     76  C   UNL A   1      46.482  27.286  36.954  1.00  0.00     0.060 A 
BRANCH  76  77
ATOM     77  S   UNL A   1      47.873  26.463  37.760  1.00  0.00     0.124 S 
ATOM     78  O   UNL A   1      48.935  26.661  36.778  1.00  0.00    -0.237 OA
ATOM     79  O   UNL A   1      48.008  27.221  39.000  1.00  0.00    -0.237 OA
ATOM     80  O   UNL A   1      47.411  25.088  37.916  1.00  0.00    -0.744 OA
ENDBRANCH  76  77
ENDBRANCH  55  69
BRANCH  56  81
ATOM     81  C   UNL A   1      36.755  32.991  30.892  1.00  0.00     0.058 A 
ATOM     82  C   UNL A   1      36.984  33.931  29.874  1.00  0.00     0.135 A 
ATOM     83  C   UNL A   1      35.423  32.721  31.242  1.00  0.00     0.135 A 
ATOM     84  F   UNL A   1      38.239  34.229  29.507  1.00  0.00    -0.206 F 
ATOM     85  C   UNL A   1      35.936  34.601  29.250  1.00  0.00     0.059 A 
ATOM     86  C   UNL A   1      34.358  33.357  30.612  1.00  0.00     0.059 A 
ATOM     87  F   UNL A   1      35.149  31.818  32.196  1.00  0.00    -0.206 F 
ATOM     88  C   UNL A   1      34.625  34.309  29.628  1.00  0.00     0.060 A 
BRANCH  88  89
ATOM     89  S   UNL A   1      33.271  35.169  28.798  1.00  0.00     0.124 S 
ATOM     90  O   UNL A   1      32.455  35.590  29.929  1.00  0.00    -0.237 OA
ATOM     91  O   UNL A   1      33.974  36.231  28.086  1.00  0.00    -0.237 OA
ATOM     92  O   UNL A   1      32.689  34.133  27.949  1.00  0.00    -0.744 OA
ENDBRANCH  88  89
ENDBRANCH  56  81
BRANCH  68  93
ATOM     93  C   UNL A   1      39.929  34.138  36.986  1.00  0.00     0.058 A 
ATOM     94  C   UNL A   1      40.504  35.415  36.904  1.00  0.00     0.135 A 
ATOM     95  C   UNL A   1      39.119  33.853  38.097  1.00  0.00     0.135 A 
ATOM     96  F   UNL A   1      41.292  35.738  35.865  1.00  0.00    -0.206 F 
ATOM     97  C   UNL A   1      40.314  36.363  37.905  1.00  0.00     0.059 A 
ATOM     98  C   UNL A   1      38.890  34.797  39.094  1.00  0.00     0.059 A 
ATOM     99  F   UNL A   1      38.532  32.652  38.217  1.00  0.00    -0.206 F 
ATOM    100  C   UNL A   1      39.507  36.043  38.998  1.00  0.00     0.060 A 
BRANCH 100 101
ATOM    101  S   UNL A   1      39.259  37.285  40.284  1.00  0.00     0.124 S 
ATOM    102  O   UNL A   1      38.549  36.516  41.302  1.00  0.00    -0.237 OA
ATOM    103  O   UNL A   1      40.627  37.669  40.617  1.00  0.00    -0.237 OA
ATOM    104  O   UNL A   1      38.471  38.316  39.613  1.00  0.00    -0.744 OA
ENDBRANCH 100 101
ENDBRANCH  68  93
ENDBRANCH  42  43
ENDBRANCH  34  37
ENDBRANCH  32  33
ENDBRANCH  31  32
ENDBRANCH  30  31
ENDBRANCH   1  30
TORSDOF 20
ENDMDL
MODEL 2
REMARK VINA RESULT:     -11.6      1.106      4.167
REMARK SMILES CCc1ccc(Nc2nc(OCC(=O)NCCCCNC(=O)c3ccc(-c4c5nc(c(-c6c(F)cc(S(=O)(=O)[O-])cc6F)c6ccc([nH]6)c(-c6c(F)cc(S(=O)(=O)[O-])cc6F)c6nc(c(-c7c(F)cc(S(=O)(=O)[O-])cc7F)c7ccc4[nH]7)C=C6)C=C5)cc3)cc(-c3cccnc3)n2)cc1
REMARK SMILES IDX 16 1 15 2 13 3 14 4 12 6 11 7 10 8 8 9 9 10 97 11 90 12
REMARK SMILES IDX 89 13 7 14 6 16 3 17 4 18 99 19 5 20 98 21 2 22 1 23 91 24
REMARK SMILES IDX 92 25 96 26 93 27 95 28 94 29 17 30 18 31 19 32 20 33 21 34
REMARK SMILES IDX 22 36 23 37 24 38 88 39 25 40 87 41 26 42 27 43 28 44 81 45
REMARK SMILES IDX 29 46 86 47 80 48 82 49 30 50 85 51 79 52 78 53 31 55 65 56
REMARK SMILES IDX 44 57 64 58 45 59 48 60 63 61 83 62 46 63 47 64 62 66 84 67
REMARK SMILES IDX 49 68 32 69 33 70 42 71 34 72 35 73 41 74 43 75 36 76 37 77
REMARK SMILES IDX 38 78 39 79 40 80 66 81 67 82 76 83 68 84 69 85 75 86 77 87
REMARK SMILES IDX 70 88 71 89 72 90 73 91 74 92 50 93 51 94 60 95 52 96 53 97
REMARK SMILES IDX 59 98 61 99 54 100 55 101 56 102 57 103 58 104
REMARK H PARENT 15 5 7 15 20 35 82 54 48 65
REMARK Flexibility Score: inf
ROOT
ATOM      1  C   UNL A   1      39.384  22.895  26.542  1.00  0.00     0.116 C 
ENDROOT
BRANCH   1   2
ATOM      2  N   UNL A   1      39.006  21.745  25.745  1.00  0.00    -0.353 N 
ATOM      3  C   UNL A   1      37.769  21.394  25.297  1.00  0.00     0.258 C 
ATOM      4  O   UNL A   1      37.643  20.356  24.643  1.00  0.00    -0.271 OA
ATOM      5  H   UNL A   1      39.740  21.138  25.494  1.00  0.00     0.163 HD
BRANCH   3   6
ATOM      6  C   UNL A   1      36.560  22.293  25.596  1.00  0.00     0.331 C 
BRANCH   6   7
ATOM      7  O   UNL A   1      36.148  23.197  24.586  1.00  0.00    -0.467 OA
BRANCH   7   8
ATOM      8  C   UNL A   1      34.808  23.407  24.421  1.00  0.00     0.219 A 
ATOM      9  C   UNL A   1      32.831  22.358  23.926  1.00  0.00     0.231 A 
ATOM     10  N   UNL A   1      34.132  22.263  24.226  1.00  0.00    -0.177 NA
ATOM     11  N   UNL A   1      32.162  23.519  23.901  1.00  0.00    -0.212 NA
ATOM     12  C   UNL A   1      32.851  24.645  24.137  1.00  0.00     0.081 A 
ATOM     13  C   UNL A   1      34.198  24.635  24.415  1.00  0.00     0.097 A 
BRANCH   9  14
ATOM     14  N   UNL A   1      32.183  21.177  23.573  1.00  0.00    -0.324 N 
ATOM     15  H   UNL A   1      31.393  21.276  22.994  1.00  0.00     0.170 HD
BRANCH  14  16
ATOM     16  C   UNL A   1      32.512  19.862  23.940  1.00  0.00     0.041 A 
ATOM     17  C   UNL A   1      33.099  17.175  24.641  1.00  0.00    -0.048 A 
ATOM     18  C   UNL A   1      32.955  18.155  25.624  1.00  0.00     0.006 A 
ATOM     19  C   UNL A   1      33.008  17.564  23.297  1.00  0.00     0.006 A 
ATOM     20  C   UNL A   1      32.669  19.476  25.276  1.00  0.00     0.026 A 
ATOM     21  C   UNL A   1      32.717  18.892  22.953  1.00  0.00     0.026 A 
BRANCH  17  22
ATOM     22  C   UNL A   1      33.392  15.741  25.010  1.00  0.00     0.032 C 
ATOM     23  C   UNL A   1      32.235  15.038  25.715  1.00  0.00     0.009 C 
ENDBRANCH  17  22
ENDBRANCH  14  16
ENDBRANCH   9  14
BRANCH  12  24
ATOM     24  C   UNL A   1      32.100  25.892  24.033  1.00  0.00     0.019 A 
ATOM     25  C   UNL A   1      32.428  27.017  24.802  1.00  0.00     0.013 A 
ATOM     26  C   UNL A   1      31.006  26.016  23.180  1.00  0.00     0.121 A 
ATOM     27  C   UNL A   1      31.665  28.177  24.707  1.00  0.00     0.021 A 
ATOM     28  N   UNL A   1      30.229  27.124  23.080  1.00  0.00    -0.264 NA
ATOM     29  C   UNL A   1      30.580  28.179  23.847  1.00  0.00     0.111 A 
ENDBRANCH  12  24
ENDBRANCH   7   8
ENDBRANCH   6   7
ENDBRANCH   3   6
ENDBRANCH   1   2
BRANCH   1  30
ATOM     30  C   UNL A   1      40.430  22.544  27.598  1.00  0.00     0.023 C 
BRANCH  30  31
ATOM     31  C   UNL A   1      41.836  22.257  27.056  1.00  0.00     0.023 C 
BRANCH  31  32
ATOM     32  C   UNL A   1      42.811  23.430  27.074  1.00  0.00     0.116 C 
BRANCH  32  33
ATOM     33  N   UNL A   1      42.733  24.256  25.882  1.00  0.00    -0.352 N 
ATOM     34  C   UNL A   1      42.364  25.571  25.752  1.00  0.00     0.251 C 
ATOM     35  H   UNL A   1      42.982  23.806  25.043  1.00  0.00     0.163 HD
ATOM     36  O   UNL A   1      42.248  26.050  24.621  1.00  0.00    -0.269 OA
BRANCH  34  37
ATOM     37  C   UNL A   1      42.080  26.410  26.940  1.00  0.00     0.039 A 
ATOM     38  C   UNL A   1      40.977  26.087  27.737  1.00  0.00     0.014 A 
ATOM     39  C   UNL A   1      42.860  27.525  27.257  1.00  0.00     0.014 A 
ATOM     40  C   UNL A   1      40.682  26.857  28.865  1.00  0.00     0.010 A 
ATOM     41  C   UNL A   1      42.609  28.246  28.425  1.00  0.00     0.010 A 
ATOM     42  C   UNL A   1      41.506  27.933  29.233  1.00  0.00    -0.014 A 
BRANCH  42  43
ATOM     43  C   UNL A   1      41.199  28.753  30.436  1.00  0.00     0.031 A 
ATOM     44  C   UNL A   1      42.014  28.591  31.694  1.00  0.00     0.074 A 
ATOM     45  C   UNL A   1      40.177  29.633  30.405  1.00  0.00     0.049 A 
ATOM     46  N   UNL A   1      41.897  29.210  32.841  1.00  0.00    -0.248 NA
ATOM     47  C   UNL A   1      43.087  27.582  31.668  1.00  0.00     0.031 C 
ATOM     48  C   UNL A   1      39.283  29.852  29.266  1.00  0.00     0.029 A 
ATOM     49  N   UNL A   1      39.720  30.510  31.357  1.00  0.00    -0.354 N 
ATOM     50  C   UNL A   1      42.875  28.669  33.668  1.00  0.00     0.074 A 
ATOM     51  C   UNL A   1      43.531  27.623  32.915  1.00  0.00     0.031 C 
ATOM     52  C   UNL A   1      38.410  30.826  29.573  1.00  0.00     0.029 A 
ATOM     53  C   UNL A   1      38.659  31.278  30.938  1.00  0.00     0.049 A 
ATOM     54  H   UNL A   1      40.115  30.582  32.256  1.00  0.00     0.167 HD
ATOM     55  C   UNL A   1      43.222  29.031  34.927  1.00  0.00     0.037 A 
ATOM     56  C   UNL A   1      37.968  32.241  31.579  1.00  0.00     0.037 A 
ATOM     57  C   UNL A   1      42.583  30.090  35.666  1.00  0.00     0.049 A 
ATOM     58  C   UNL A   1      38.365  32.618  32.983  1.00  0.00     0.074 A 
ATOM     59  C   UNL A   1      42.888  30.560  36.932  1.00  0.00     0.029 A 
ATOM     60  N   UNL A   1      41.516  30.845  35.206  1.00  0.00    -0.354 N 
ATOM     61  N   UNL A   1      39.333  32.134  33.726  1.00  0.00    -0.248 NA
ATOM     62  C   UNL A   1      37.583  33.680  33.631  1.00  0.00     0.031 C 
ATOM     63  C   UNL A   1      41.978  31.574  37.253  1.00  0.00     0.029 A 
ATOM     64  C   UNL A   1      41.138  31.768  36.168  1.00  0.00     0.049 A 
ATOM     65  H   UNL A   1      41.089  30.742  34.325  1.00  0.00     0.167 HD
ATOM     66  C   UNL A   1      39.292  32.852  34.917  1.00  0.00     0.074 A 
ATOM     67  C   UNL A   1      38.218  33.815  34.786  1.00  0.00     0.031 C 
ATOM     68  C   UNL A   1      40.070  32.724  36.021  1.00  0.00     0.037 A 
BRANCH  55  69
ATOM     69  C   UNL A   1      44.358  28.289  35.579  1.00  0.00     0.058 A 
ATOM     70  C   UNL A   1      44.132  27.148  36.366  1.00  0.00     0.135 A 
ATOM     71  C   UNL A   1      45.688  28.695  35.386  1.00  0.00     0.135 A 
ATOM     72  F   UNL A   1      42.879  26.723  36.597  1.00  0.00    -0.206 F 
ATOM     73  C   UNL A   1      45.179  26.454  36.963  1.00  0.00     0.059 A 
ATOM     74  C   UNL A   1      46.754  27.999  35.949  1.00  0.00     0.059 A 
ATOM     75  F   UNL A   1      45.963  29.779  34.643  1.00  0.00    -0.206 F 
ATOM     76  C   UNL A   1      46.488  26.887  36.748  1.00  0.00     0.060 A 
BRANCH  76  77
ATOM     77  S   UNL A   1      47.836  25.969  37.522  1.00  0.00     0.124 S 
ATOM     78  O   UNL A   1      47.380  24.592  37.360  1.00  0.00    -0.237 OA
ATOM     79  O   UNL A   1      48.985  26.357  36.709  1.00  0.00    -0.237 OA
ATOM     80  O   UNL A   1      47.846  26.470  38.893  1.00  0.00    -0.744 OA
ENDBRANCH  76  77
ENDBRANCH  55  69
BRANCH  56  81
ATOM     81  C   UNL A   1      36.846  32.942  30.898  1.00  0.00     0.058 A 
ATOM     82  C   UNL A   1      35.511  32.602  31.170  1.00  0.00     0.135 A 
ATOM     83  C   UNL A   1      37.082  33.948  29.950  1.00  0.00     0.135 A 
ATOM     84  F   UNL A   1      35.233  31.642  32.065  1.00  0.00    -0.206 F 
ATOM     85  C   UNL A   1      34.452  33.211  30.504  1.00  0.00     0.059 A 
ATOM     86  C   UNL A   1      36.038  34.592  29.291  1.00  0.00     0.059 A 
ATOM     87  F   UNL A   1      38.338  34.324  29.665  1.00  0.00    -0.206 F 
ATOM     88  C   UNL A   1      34.726  34.204  29.563  1.00  0.00     0.060 A 
BRANCH  88  89
ATOM     89  S   UNL A   1      33.345  35.003  28.719  1.00  0.00     0.124 S 
ATOM     90  O   UNL A   1      34.032  36.012  27.923  1.00  0.00    -0.237 OA
ATOM     91  O   UNL A   1      32.757  33.893  27.975  1.00  0.00    -0.237 OA
ATOM     92  O   UNL A   1      32.530  35.512  29.819  1.00  0.00    -0.744 OA
ENDBRANCH  88  89
ENDBRANCH  56  81
BRANCH  68  93
ATOM     93  C   UNL A   1      39.808  33.671  37.161  1.00  0.00     0.058 A 
ATOM     94  C   UNL A   1      38.868  33.378  38.162  1.00  0.00     0.135 A 
ATOM     95  C   UNL A   1      40.524  34.874  37.267  1.00  0.00     0.135 A 
ATOM     96  F   UNL A   1      38.152  32.243  38.106  1.00  0.00    -0.206 F 
ATOM     97  C   UNL A   1      38.622  34.261  39.208  1.00  0.00     0.059 A 
ATOM     98  C   UNL A   1      40.316  35.758  38.322  1.00  0.00     0.059 A 
ATOM     99  F   UNL A   1      41.445  35.197  36.345  1.00  0.00    -0.206 F 
ATOM    100  C   UNL A   1      39.349  35.451  39.277  1.00  0.00     0.060 A 
BRANCH 100 101
ATOM    101  S   UNL A   1      39.029  36.582  40.646  1.00  0.00     0.124 S 
ATOM    102  O   UNL A   1      38.548  37.767  39.941  1.00  0.00    -0.237 OA
ATOM    103  O   UNL A   1      38.029  35.858  41.424  1.00  0.00    -0.237 OA
ATOM    104  O   UNL A   1      40.333  36.720  41.287  1.00  0.00    -0.744 OA
ENDBRANCH 100 101
ENDBRANCH  68  93
ENDBRANCH  42  43
ENDBRANCH  34  37
ENDBRANCH  32  33
ENDBRANCH  31  32
ENDBRANCH  30  31
ENDBRANCH   1  30
TORSDOF 20
ENDMDL
MODEL 3
REMARK VINA RESULT:     -11.2      4.366      8.241
REMARK SMILES CCc1ccc(Nc2nc(OCC(=O)NCCCCNC(=O)c3ccc(-c4c5nc(c(-c6c(F)cc(S(=O)(=O)[O-])cc6F)c6ccc([nH]6)c(-c6c(F)cc(S(=O)(=O)[O-])cc6F)c6nc(c(-c7c(F)cc(S(=O)(=O)[O-])cc7F)c7ccc4[nH]7)C=C6)C=C5)cc3)cc(-c3cccnc3)n2)cc1
REMARK SMILES IDX 16 1 15 2 13 3 14 4 12 6 11 7 10 8 8 9 9 10 97 11 90 12
REMARK SMILES IDX 89 13 7 14 6 16 3 17 4 18 99 19 5 20 98 21 2 22 1 23 91 24
REMARK SMILES IDX 92 25 96 26 93 27 95 28 94 29 17 30 18 31 19 32 20 33 21 34
REMARK SMILES IDX 22 36 23 37 24 38 88 39 25 40 87 41 26 42 27 43 28 44 81 45
REMARK SMILES IDX 29 46 86 47 80 48 82 49 30 50 85 51 79 52 78 53 31 55 65 56
REMARK SMILES IDX 44 57 64 58 45 59 48 60 63 61 83 62 46 63 47 64 62 66 84 67
REMARK SMILES IDX 49 68 32 69 33 70 42 71 34 72 35 73 41 74 43 75 36 76 37 77
REMARK SMILES IDX 38 78 39 79 40 80 66 81 67 82 76 83 68 84 69 85 75 86 77 87
REMARK SMILES IDX 70 88 71 89 72 90 73 91 74 92 50 93 51 94 60 95 52 96 53 97
REMARK SMILES IDX 59 98 61 99 54 100 55 101 56 102 57 103 58 104
REMARK H PARENT 15 5 7 15 20 35 82 54 48 65
REMARK Flexibility Score: inf
ROOT
ATOM      1  C   UNL A   1      42.278  20.797  27.029  1.00  0.00     0.116 C 
ENDROOT
BRANCH   1   2
ATOM      2  N   UNL A   1      42.908  20.600  25.739  1.00  0.00    -0.353 N 
ATOM      3  C   UNL A   1      44.025  21.200  25.242  1.00  0.00     0.258 C 
ATOM      4  O   UNL A   1      44.400  20.914  24.102  1.00  0.00    -0.271 OA
ATOM      5  H   UNL A   1      42.472  19.947  25.145  1.00  0.00     0.163 HD
BRANCH   3   6
ATOM      6  C   UNL A   1      44.806  22.204  26.103  1.00  0.00     0.331 C 
BRANCH   6   7
ATOM      7  O   UNL A   1      44.195  23.454  26.372  1.00  0.00    -0.467 OA
BRANCH   7   8
ATOM      8  C   UNL A   1      44.746  24.240  27.344  1.00  0.00     0.219 A 
ATOM      9  C   UNL A   1      46.263  25.920  27.708  1.00  0.00     0.231 A 
ATOM     10  N   UNL A   1      45.568  25.175  26.839  1.00  0.00    -0.177 NA
ATOM     11  N   UNL A   1      46.110  25.840  29.037  1.00  0.00    -0.212 NA
ATOM     12  C   UNL A   1      45.254  24.925  29.516  1.00  0.00     0.081 A 
ATOM     13  C   UNL A   1      44.531  24.095  28.691  1.00  0.00     0.097 A 
BRANCH   9  14
ATOM     14  N   UNL A   1      47.224  26.773  27.171  1.00  0.00    -0.324 N 
ATOM     15  H   UNL A   1      46.997  27.731  27.170  1.00  0.00     0.170 HD
BRANCH  14  16
ATOM     16  C   UNL A   1      48.477  26.441  26.631  1.00  0.00     0.041 A 
ATOM     17  C   UNL A   1      51.049  25.827  25.601  1.00  0.00    -0.048 A 
ATOM     18  C   UNL A   1      50.074  26.408  24.789  1.00  0.00     0.006 A 
ATOM     19  C   UNL A   1      50.705  25.497  26.919  1.00  0.00     0.006 A 
ATOM     20  C   UNL A   1      48.809  26.706  25.297  1.00  0.00     0.026 A 
ATOM     21  C   UNL A   1      49.434  25.803  27.427  1.00  0.00     0.026 A 
BRANCH  17  22
ATOM     22  C   UNL A   1      52.424  25.516  25.063  1.00  0.00     0.032 C 
ATOM     23  C   UNL A   1      53.372  24.923  26.102  1.00  0.00     0.009 C 
ENDBRANCH  17  22
ENDBRANCH  14  16
ENDBRANCH   9  14
BRANCH  12  24
ATOM     24  C   UNL A   1      45.168  24.823  30.969  1.00  0.00     0.019 A 
ATOM     25  C   UNL A   1      44.258  23.961  31.596  1.00  0.00     0.013 A 
ATOM     26  C   UNL A   1      45.972  25.596  31.804  1.00  0.00     0.121 A 
ATOM     27  C   UNL A   1      44.175  23.919  32.984  1.00  0.00     0.021 A 
ATOM     28  N   UNL A   1      45.900  25.595  33.159  1.00  0.00    -0.264 NA
ATOM     29  C   UNL A   1      45.003  24.754  33.716  1.00  0.00     0.111 A 
ENDBRANCH  12  24
ENDBRANCH   7   8
ENDBRANCH   6   7
ENDBRANCH   3   6
ENDBRANCH   1   2
BRANCH   1  30
ATOM     30  C   UNL A   1      40.755  20.704  26.945  1.00  0.00     0.023 C 
BRANCH  30  31
ATOM     31  C   UNL A   1      40.018  22.048  26.921  1.00  0.00     0.023 C 
BRANCH  31  32
ATOM     32  C   UNL A   1      40.838  23.268  27.329  1.00  0.00     0.116 C 
BRANCH  32  33
ATOM     33  N   UNL A   1      41.316  24.040  26.195  1.00  0.00    -0.352 N 
ATOM     34  C   UNL A   1      41.489  25.395  26.071  1.00  0.00     0.251 C 
ATOM     35  H   UNL A   1      41.550  23.512  25.397  1.00  0.00     0.163 HD
ATOM     36  O   UNL A   1      41.793  25.860  24.969  1.00  0.00    -0.269 OA
BRANCH  34  37
ATOM     37  C   UNL A   1      41.293  26.302  27.225  1.00  0.00     0.039 A 
ATOM     38  C   UNL A   1      40.171  26.117  28.038  1.00  0.00     0.014 A 
ATOM     39  C   UNL A   1      42.177  27.352  27.495  1.00  0.00     0.014 A 
ATOM     40  C   UNL A   1      39.957  26.955  29.136  1.00  0.00     0.010 A 
ATOM     41  C   UNL A   1      42.003  28.138  28.634  1.00  0.00     0.010 A 
ATOM     42  C   UNL A   1      40.881  27.962  29.458  1.00  0.00    -0.014 A 
BRANCH  42  43
ATOM     43  C   UNL A   1      40.660  28.854  30.629  1.00  0.00     0.031 A 
ATOM     44  C   UNL A   1      41.506  28.703  31.868  1.00  0.00     0.074 A 
ATOM     45  C   UNL A   1      39.690  29.789  30.586  1.00  0.00     0.049 A 
ATOM     46  N   UNL A   1      41.462  29.382  32.987  1.00  0.00    -0.248 NA
ATOM     47  C   UNL A   1      42.519  27.634  31.859  1.00  0.00     0.031 C 
ATOM     48  C   UNL A   1      38.773  30.006  29.465  1.00  0.00     0.029 A 
ATOM     49  N   UNL A   1      39.314  30.735  31.507  1.00  0.00    -0.354 N 
ATOM     50  C   UNL A   1      42.435  28.823  33.809  1.00  0.00     0.074 A 
ATOM     51  C   UNL A   1      43.005  27.707  33.088  1.00  0.00     0.031 C 
ATOM     52  C   UNL A   1      37.966  31.043  29.750  1.00  0.00     0.029 A 
ATOM     53  C   UNL A   1      38.286  31.543  31.083  1.00  0.00     0.049 A 
ATOM     54  H   UNL A   1      39.742  30.826  32.389  1.00  0.00     0.167 HD
ATOM     55  C   UNL A   1      42.842  29.224  35.038  1.00  0.00     0.037 A 
ATOM     56  C   UNL A   1      37.671  32.573  31.698  1.00  0.00     0.037 A 
ATOM     57  C   UNL A   1      42.290  30.351  35.744  1.00  0.00     0.049 A 
ATOM     58  C   UNL A   1      38.135  32.992  33.068  1.00  0.00     0.074 A 
ATOM     59  C   UNL A   1      42.661  30.862  36.975  1.00  0.00     0.029 A 
ATOM     60  N   UNL A   1      41.252  31.145  35.280  1.00  0.00    -0.354 N 
ATOM     61  N   UNL A   1      39.098  32.488  33.805  1.00  0.00    -0.248 NA
ATOM     62  C   UNL A   1      37.436  34.126  33.687  1.00  0.00     0.031 C 
ATOM     63  C   UNL A   1      41.821  31.940  37.274  1.00  0.00     0.029 A 
ATOM     64  C   UNL A   1      40.958  32.132  36.207  1.00  0.00     0.049 A 
ATOM     65  H   UNL A   1      40.791  31.025  34.418  1.00  0.00     0.167 HD
ATOM     66  C   UNL A   1      39.137  33.262  34.960  1.00  0.00     0.074 A 
ATOM     67  C   UNL A   1      38.116  34.279  34.815  1.00  0.00     0.031 C 
ATOM     68  C   UNL A   1      39.942  33.141  36.045  1.00  0.00     0.037 A 
BRANCH  55  69
ATOM     69  C   UNL A   1      43.955  28.447  35.690  1.00  0.00     0.058 A 
ATOM     70  C   UNL A   1      43.690  27.384  36.568  1.00  0.00     0.135 A 
ATOM     71  C   UNL A   1      45.299  28.741  35.408  1.00  0.00     0.135 A 
ATOM     72  F   UNL A   1      42.424  27.069  36.887  1.00  0.00    -0.206 F 
ATOM     73  C   UNL A   1      44.715  26.659  37.167  1.00  0.00     0.059 A 
ATOM     74  C   UNL A   1      46.341  28.010  35.972  1.00  0.00     0.059 A 
ATOM     75  F   UNL A   1      45.611  29.747  34.576  1.00  0.00    -0.206 F 
ATOM     76  C   UNL A   1      46.039  26.980  36.862  1.00  0.00     0.060 A 
BRANCH  76  77
ATOM     77  S   UNL A   1      47.357  26.022  37.640  1.00  0.00     0.124 S 
ATOM     78  O   UNL A   1      48.232  25.756  36.502  1.00  0.00    -0.237 OA
ATOM     79  O   UNL A   1      47.876  26.957  38.633  1.00  0.00    -0.237 OA
ATOM     80  O   UNL A   1      46.660  24.860  38.181  1.00  0.00    -0.744 OA
ENDBRANCH  76  77
ENDBRANCH  55  69
BRANCH  56  81
ATOM     81  C   UNL A   1      36.569  33.306  31.017  1.00  0.00     0.058 A 
ATOM     82  C   UNL A   1      35.238  33.156  31.435  1.00  0.00     0.135 A 
ATOM     83  C   UNL A   1      36.818  34.151  29.926  1.00  0.00     0.135 A 
ATOM     84  F   UNL A   1      34.946  32.354  32.471  1.00  0.00    -0.206 F 
ATOM     85  C   UNL A   1      34.190  33.792  30.777  1.00  0.00     0.059 A 
ATOM     86  C   UNL A   1      35.790  34.822  29.270  1.00  0.00     0.059 A 
ATOM     87  F   UNL A   1      38.076  34.344  29.497  1.00  0.00    -0.206 F 
ATOM     88  C   UNL A   1      34.476  34.623  29.693  1.00  0.00     0.060 A 
BRANCH  88  89
ATOM     89  S   UNL A   1      33.112  35.460  28.858  1.00  0.00     0.124 S 
ATOM     90  O   UNL A   1      32.501  34.362  28.120  1.00  0.00    -0.237 OA
ATOM     91  O   UNL A   1      32.340  35.984  29.981  1.00  0.00    -0.237 OA
ATOM     92  O   UNL A   1      33.786  36.470  28.046  1.00  0.00    -0.744 OA
ENDBRANCH  88  89
ENDBRANCH  56  81
BRANCH  68  93
ATOM     93  C   UNL A   1      39.772  34.153  37.145  1.00  0.00     0.058 A 
ATOM     94  C   UNL A   1      40.363  35.425  37.075  1.00  0.00     0.135 A 
ATOM     95  C   UNL A   1      38.987  33.857  38.271  1.00  0.00     0.135 A 
ATOM     96  F   UNL A   1      41.127  35.758  36.022  1.00  0.00    -0.206 F 
ATOM     97  C   UNL A   1      40.212  36.354  38.099  1.00  0.00     0.059 A 
ATOM     98  C   UNL A   1      38.797  34.783  39.293  1.00  0.00     0.059 A 
ATOM     99  F   UNL A   1      38.387  32.662  38.382  1.00  0.00    -0.206 F 
ATOM    100  C   UNL A   1      39.429  36.022  39.206  1.00  0.00     0.060 A 
BRANCH 100 101
ATOM    101  S   UNL A   1      39.231  37.241  40.523  1.00  0.00     0.124 S 
ATOM    102  O   UNL A   1      38.708  36.417  41.609  1.00  0.00    -0.237 OA
ATOM    103  O   UNL A   1      40.593  37.734  40.700  1.00  0.00    -0.237 OA
ATOM    104  O   UNL A   1      38.291  38.204  39.957  1.00  0.00    -0.744 OA
ENDBRANCH 100 101
ENDBRANCH  68  93
ENDBRANCH  42  43
ENDBRANCH  34  37
ENDBRANCH  32  33
ENDBRANCH  31  32
ENDBRANCH  30  31
ENDBRANCH   1  30
TORSDOF 20
ENDMDL
