MODEL 1
REMARK VINA RESULT:     -11.1      0.000      0.000
REMARK SMILES CCOc1cccc(C(=O)NCCCCNC(=O)c2ccc(-c3c4nc(c(-c5c(F)cc(S(=O)(=O)[O-])cc5F)c5ccc([nH]5)c(-c5c(F)cc(S(=O)(=O)[O-])cc5F)c5nc(c(-c6c(F)cc(S(=O)(=O)[O-])cc6F)c6ccc3[nH]6)C=C5)C=C4)cc2)c1OCc1ccc(Br)cc1
REMARK SMILES IDX 13 1 12 2 11 3 9 4 10 5 8 7 4 8 5 9 85 10 6 11 7 12 3 13
REMARK SMILES IDX 2 14 1 15 86 16 87 17 88 18 89 19 94 20 90 21 93 22 91 23
REMARK SMILES IDX 92 24 14 25 15 26 16 27 17 28 18 30 19 31 20 32 84 33 21 34
REMARK SMILES IDX 83 35 22 36 23 37 24 38 77 39 25 40 82 41 76 42 78 43 26 44
REMARK SMILES IDX 81 45 75 46 74 47 27 49 61 50 40 51 60 52 41 53 44 54 59 55
REMARK SMILES IDX 79 56 42 57 43 58 58 60 80 61 45 62 28 63 29 64 38 65 30 66
REMARK SMILES IDX 31 67 37 68 39 69 32 70 33 71 34 72 35 73 36 74 62 75 63 76
REMARK SMILES IDX 72 77 64 78 65 79 71 80 73 81 66 82 67 83 68 84 69 85 70 86
REMARK SMILES IDX 46 87 47 88 56 89 48 90 49 91 55 92 57 93 50 94 51 95 52 96
REMARK SMILES IDX 53 97 54 98
REMARK H PARENT 11 6 16 29 78 48 44 59
REMARK Flexibility Score: inf
ROOT
ATOM      1  C   UNL A   1      33.912  28.658  24.378  1.00  0.00     0.023 C 
ENDROOT
BRANCH   1   2
ATOM      2  C   UNL A   1      33.357  28.948  22.990  1.00  0.00     0.116 C 
BRANCH   2   3
ATOM      3  N   UNL A   1      33.557  27.942  21.954  1.00  0.00    -0.352 N 
ATOM      4  C   UNL A   1      32.985  26.674  21.843  1.00  0.00     0.255 C 
ATOM      5  O   UNL A   1      33.225  25.989  20.851  1.00  0.00    -0.269 OA
ATOM      6  H   UNL A   1      34.181  28.191  21.234  1.00  0.00     0.163 HD
BRANCH   4   7
ATOM      7  C   UNL A   1      32.212  26.070  22.972  1.00  0.00     0.085 A 
ATOM      8  C   UNL A   1      32.034  24.091  24.253  1.00  0.00     0.162 A 
ATOM      9  C   UNL A   1      30.639  24.176  24.250  1.00  0.00     0.050 A 
ATOM     10  C   UNL A   1      32.806  25.190  23.873  1.00  0.00     0.174 A 
ATOM     11  C   UNL A   1      30.028  25.292  23.672  1.00  0.00     0.005 A 
ATOM     12  C   UNL A   1      30.815  26.189  22.946  1.00  0.00     0.018 A 
BRANCH   8  13
ATOM     13  O   UNL A   1      32.626  22.882  23.944  1.00  0.00    -0.490 OA
BRANCH  13  14
ATOM     14  C   UNL A   1      32.934  22.565  22.600  1.00  0.00     0.226 C 
ATOM     15  C   UNL A   1      32.055  21.361  22.277  1.00  0.00     0.049 C 
ENDBRANCH  13  14
ENDBRANCH   8  13
BRANCH  10  16
ATOM     16  O   UNL A   1      34.116  25.430  24.174  1.00  0.00    -0.484 OA
BRANCH  16  17
ATOM     17  C   UNL A   1      34.682  25.012  25.408  1.00  0.00     0.265 C 
BRANCH  17  18
ATOM     18  C   UNL A   1      35.447  23.713  25.345  1.00  0.00    -0.011 A 
ATOM     19  C   UNL A   1      36.349  23.477  24.297  1.00  0.00     0.008 A 
ATOM     20  C   UNL A   1      35.204  22.688  26.269  1.00  0.00     0.008 A 
ATOM     21  C   UNL A   1      36.944  22.222  24.144  1.00  0.00     0.016 A 
ATOM     22  C   UNL A   1      35.794  21.432  26.116  1.00  0.00     0.016 A 
ATOM     23  C   UNL A   1      36.652  21.202  25.046  1.00  0.00     0.017 A 
ATOM     24  Br  UNL A   1      37.408  19.486  24.808  1.00  0.00    -0.051 Br
ENDBRANCH  17  18
ENDBRANCH  16  17
ENDBRANCH  10  16
ENDBRANCH   4   7
ENDBRANCH   2   3
ENDBRANCH   1   2
BRANCH   1  25
ATOM     25  C   UNL A   1      32.921  28.681  25.531  1.00  0.00     0.023 C 
BRANCH  25  26
ATOM     26  C   UNL A   1      33.508  28.727  26.939  1.00  0.00     0.116 C 
BRANCH  26  27
ATOM     27  N   UNL A   1      33.502  30.046  27.560  1.00  0.00    -0.352 N 
ATOM     28  C   UNL A   1      34.511  30.710  28.226  1.00  0.00     0.251 C 
ATOM     29  H   UNL A   1      32.651  30.537  27.495  1.00  0.00     0.163 HD
ATOM     30  O   UNL A   1      34.295  31.815  28.721  1.00  0.00    -0.269 OA
BRANCH  28  31
ATOM     31  C   UNL A   1      35.837  30.072  28.391  1.00  0.00     0.039 A 
ATOM     32  C   UNL A   1      36.731  30.074  27.316  1.00  0.00     0.014 A 
ATOM     33  C   UNL A   1      36.223  29.525  29.616  1.00  0.00     0.014 A 
ATOM     34  C   UNL A   1      38.045  29.635  27.505  1.00  0.00     0.010 A 
ATOM     35  C   UNL A   1      37.555  29.177  29.827  1.00  0.00     0.010 A 
ATOM     36  C   UNL A   1      38.486  29.239  28.779  1.00  0.00    -0.014 A 
BRANCH  36  37
ATOM     37  C   UNL A   1      39.914  28.910  29.044  1.00  0.00     0.031 A 
ATOM     38  C   UNL A   1      40.840  29.956  29.606  1.00  0.00     0.074 A 
ATOM     39  C   UNL A   1      40.398  27.700  28.696  1.00  0.00     0.049 A 
ATOM     40  N   UNL A   1      42.130  29.891  29.817  1.00  0.00    -0.248 NA
ATOM     41  C   UNL A   1      40.244  31.259  29.943  1.00  0.00     0.031 C 
ATOM     42  C   UNL A   1      39.624  26.617  28.083  1.00  0.00     0.029 A 
ATOM     43  N   UNL A   1      41.666  27.178  28.794  1.00  0.00    -0.354 N 
ATOM     44  C   UNL A   1      42.502  31.146  30.283  1.00  0.00     0.074 A 
ATOM     45  C   UNL A   1      41.312  31.969  30.278  1.00  0.00     0.031 C 
ATOM     46  C   UNL A   1      40.424  25.556  27.887  1.00  0.00     0.029 A 
ATOM     47  C   UNL A   1      41.776  25.891  28.322  1.00  0.00     0.049 A 
ATOM     48  H   UNL A   1      42.427  27.680  29.169  1.00  0.00     0.167 HD
ATOM     49  C   UNL A   1      43.719  31.570  30.699  1.00  0.00     0.037 A 
ATOM     50  C   UNL A   1      42.843  25.072  28.243  1.00  0.00     0.037 A 
ATOM     51  C   UNL A   1      44.892  30.736  30.748  1.00  0.00     0.049 A 
ATOM     52  C   UNL A   1      44.180  25.559  28.738  1.00  0.00     0.074 A 
ATOM     53  C   UNL A   1      46.150  31.049  31.233  1.00  0.00     0.029 A 
ATOM     54  N   UNL A   1      44.952  29.426  30.297  1.00  0.00    -0.354 N 
ATOM     55  N   UNL A   1      44.495  26.725  29.249  1.00  0.00    -0.248 NA
ATOM     56  C   UNL A   1      45.304  24.616  28.654  1.00  0.00     0.031 C 
ATOM     57  C   UNL A   1      46.981  29.940  31.041  1.00  0.00     0.029 A 
ATOM     58  C   UNL A   1      46.229  28.922  30.478  1.00  0.00     0.049 A 
ATOM     59  H   UNL A   1      44.197  28.927  29.907  1.00  0.00     0.167 HD
ATOM     60  C   UNL A   1      45.845  26.645  29.575  1.00  0.00     0.074 A 
ATOM     61  C   UNL A   1      46.284  25.313  29.213  1.00  0.00     0.031 C 
ATOM     62  C   UNL A   1      46.648  27.589  30.126  1.00  0.00     0.037 A 
BRANCH  49  63
ATOM     63  C   UNL A   1      43.844  33.000  31.150  1.00  0.00     0.058 A 
ATOM     64  C   UNL A   1      43.678  33.367  32.495  1.00  0.00     0.135 A 
ATOM     65  C   UNL A   1      44.174  34.011  30.231  1.00  0.00     0.135 A 
ATOM     66  F   UNL A   1      43.348  32.444  33.411  1.00  0.00    -0.206 F 
ATOM     67  C   UNL A   1      43.804  34.688  32.909  1.00  0.00     0.059 A 
ATOM     68  C   UNL A   1      44.333  35.335  30.630  1.00  0.00     0.059 A 
ATOM     69  F   UNL A   1      44.345  33.716  28.934  1.00  0.00    -0.206 F 
ATOM     70  C   UNL A   1      44.132  35.666  31.969  1.00  0.00     0.060 A 
BRANCH  70  71
ATOM     71  S   UNL A   1      44.300  37.375  32.526  1.00  0.00     0.124 S 
ATOM     72  O   UNL A   1      43.244  37.459  33.530  1.00  0.00    -0.237 OA
ATOM     73  O   UNL A   1      45.665  37.402  33.040  1.00  0.00    -0.237 OA
ATOM     74  O   UNL A   1      44.075  38.152  31.311  1.00  0.00    -0.744 OA
ENDBRANCH  70  71
ENDBRANCH  49  63
BRANCH  50  75
ATOM     75  C   UNL A   1      42.695  23.694  27.702  1.00  0.00     0.058 A 
ATOM     76  C   UNL A   1      42.772  23.453  26.322  1.00  0.00     0.135 A 
ATOM     77  C   UNL A   1      42.466  22.596  28.544  1.00  0.00     0.135 A 
ATOM     78  F   UNL A   1      42.984  24.471  25.474  1.00  0.00    -0.206 F 
ATOM     79  C   UNL A   1      42.604  22.178  25.792  1.00  0.00     0.059 A 
ATOM     80  C   UNL A   1      42.320  21.306  28.041  1.00  0.00     0.059 A 
ATOM     81  F   UNL A   1      42.401  22.770  29.873  1.00  0.00    -0.206 F 
ATOM     82  C   UNL A   1      42.376  21.110  26.661  1.00  0.00     0.060 A 
BRANCH  82  83
ATOM     83  S   UNL A   1      42.192  19.451  25.968  1.00  0.00     0.124 S 
ATOM     84  O   UNL A   1      42.669  18.620  27.067  1.00  0.00    -0.237 OA
ATOM     85  O   UNL A   1      40.760  19.389  25.696  1.00  0.00    -0.237 OA
ATOM     86  O   UNL A   1      43.045  19.487  24.784  1.00  0.00    -0.744 OA
ENDBRANCH  82  83
ENDBRANCH  50  75
BRANCH  62  87
ATOM     87  C   UNL A   1      48.071  27.203  30.414  1.00  0.00     0.058 A 
ATOM     88  C   UNL A   1      49.082  27.331  29.451  1.00  0.00     0.135 A 
ATOM     89  C   UNL A   1      48.436  26.745  31.691  1.00  0.00     0.135 A 
ATOM     90  F   UNL A   1      48.785  27.758  28.212  1.00  0.00    -0.206 F 
ATOM     91  C   UNL A   1      50.402  26.994  29.733  1.00  0.00     0.059 A 
ATOM     92  C   UNL A   1      49.754  26.427  32.004  1.00  0.00     0.059 A 
ATOM     93  F   UNL A   1      47.509  26.614  32.654  1.00  0.00    -0.206 F 
ATOM     94  C   UNL A   1      50.729  26.543  31.013  1.00  0.00     0.060 A 
BRANCH  94  95
ATOM     95  S   UNL A   1      52.449  26.137  31.379  1.00  0.00     0.124 S 
ATOM     96  O   UNL A   1      52.320  24.803  31.954  1.00  0.00    -0.237 OA
ATOM     97  O   UNL A   1      53.073  26.202  30.060  1.00  0.00    -0.237 OA
ATOM     98  O   UNL A   1      52.856  27.186  32.308  1.00  0.00    -0.744 OA
ENDBRANCH  94  95
ENDBRANCH  62  87
ENDBRANCH  36  37
ENDBRANCH  28  31
ENDBRANCH  26  27
ENDBRANCH  25  26
ENDBRANCH   1  25
TORSDOF 19
ENDMDL
MODEL 2
REMARK VINA RESULT:     -10.7      5.130      9.856
REMARK SMILES CCOc1cccc(C(=O)NCCCCNC(=O)c2ccc(-c3c4nc(c(-c5c(F)cc(S(=O)(=O)[O-])cc5F)c5ccc([nH]5)c(-c5c(F)cc(S(=O)(=O)[O-])cc5F)c5nc(c(-c6c(F)cc(S(=O)(=O)[O-])cc6F)c6ccc3[nH]6)C=C5)C=C4)cc2)c1OCc1ccc(Br)cc1
REMARK SMILES IDX 13 1 12 2 11 3 9 4 10 5 8 7 4 8 5 9 85 10 6 11 7 12 3 13
REMARK SMILES IDX 2 14 1 15 86 16 87 17 88 18 89 19 94 20 90 21 93 22 91 23
REMARK SMILES IDX 92 24 14 25 15 26 16 27 17 28 18 30 19 31 20 32 84 33 21 34
REMARK SMILES IDX 83 35 22 36 23 37 24 38 77 39 25 40 82 41 76 42 78 43 26 44
REMARK SMILES IDX 81 45 75 46 74 47 27 49 61 50 40 51 60 52 41 53 44 54 59 55
REMARK SMILES IDX 79 56 42 57 43 58 58 60 80 61 45 62 28 63 29 64 38 65 30 66
REMARK SMILES IDX 31 67 37 68 39 69 32 70 33 71 34 72 35 73 36 74 62 75 63 76
REMARK SMILES IDX 72 77 64 78 65 79 71 80 73 81 66 82 67 83 68 84 69 85 70 86
REMARK SMILES IDX 46 87 47 88 56 89 48 90 49 91 55 92 57 93 50 94 51 95 52 96
REMARK SMILES IDX 53 97 54 98
REMARK H PARENT 11 6 16 29 78 48 44 59
REMARK Flexibility Score: inf
ROOT
ATOM      1  C   UNL A   1      38.228  23.878  26.307  1.00  0.00     0.023 C 
ENDROOT
BRANCH   1   2
ATOM      2  C   UNL A   1      37.128  23.368  25.386  1.00  0.00     0.116 C 
BRANCH   2   3
ATOM      3  N   UNL A   1      37.049  21.931  25.154  1.00  0.00    -0.352 N 
ATOM      4  C   UNL A   1      35.937  21.092  25.233  1.00  0.00     0.255 C 
ATOM      5  O   UNL A   1      36.055  19.905  24.930  1.00  0.00    -0.269 OA
ATOM      6  H   UNL A   1      37.896  21.493  24.907  1.00  0.00     0.163 HD
BRANCH   4   7
ATOM      7  C   UNL A   1      34.647  21.565  25.823  1.00  0.00     0.085 A 
ATOM      8  C   UNL A   1      32.977  23.217  25.556  1.00  0.00     0.162 A 
ATOM      9  C   UNL A   1      32.880  23.389  26.940  1.00  0.00     0.050 A 
ATOM     10  C   UNL A   1      33.639  22.106  25.031  1.00  0.00     0.174 A 
ATOM     11  C   UNL A   1      33.621  22.553  27.781  1.00  0.00     0.005 A 
ATOM     12  C   UNL A   1      34.580  21.709  27.216  1.00  0.00     0.018 A 
BRANCH   8  13
ATOM     13  O   UNL A   1      33.080  24.337  24.754  1.00  0.00    -0.490 OA
BRANCH  13  14
ATOM     14  C   UNL A   1      34.034  25.339  25.052  1.00  0.00     0.226 C 
ATOM     15  C   UNL A   1      33.631  26.525  24.182  1.00  0.00     0.049 C 
ENDBRANCH  13  14
ENDBRANCH   8  13
BRANCH  10  16
ATOM     16  O   UNL A   1      33.505  21.574  23.780  1.00  0.00    -0.484 OA
BRANCH  16  17
ATOM     17  C   UNL A   1      32.473  20.646  23.476  1.00  0.00     0.265 C 
BRANCH  17  18
ATOM     18  C   UNL A   1      32.711  19.246  23.987  1.00  0.00    -0.011 A 
ATOM     19  C   UNL A   1      33.059  18.221  23.096  1.00  0.00     0.008 A 
ATOM     20  C   UNL A   1      32.498  18.925  25.334  1.00  0.00     0.008 A 
ATOM     21  C   UNL A   1      33.130  16.896  23.534  1.00  0.00     0.016 A 
ATOM     22  C   UNL A   1      32.563  17.601  25.774  1.00  0.00     0.016 A 
ATOM     23  C   UNL A   1      32.867  16.591  24.867  1.00  0.00     0.017 A 
ATOM     24  Br  UNL A   1      32.902  14.794  25.449  1.00  0.00    -0.051 Br
ENDBRANCH  17  18
ENDBRANCH  16  17
ENDBRANCH  10  16
ENDBRANCH   4   7
ENDBRANCH   2   3
ENDBRANCH   1   2
BRANCH   1  25
ATOM     25  C   UNL A   1      39.292  22.875  26.725  1.00  0.00     0.023 C 
BRANCH  25  26
ATOM     26  C   UNL A   1      40.723  23.396  26.829  1.00  0.00     0.116 C 
BRANCH  26  27
ATOM     27  N   UNL A   1      41.080  24.400  25.835  1.00  0.00    -0.352 N 
ATOM     28  C   UNL A   1      41.369  25.739  25.999  1.00  0.00     0.251 C 
ATOM     29  H   UNL A   1      41.122  24.075  24.906  1.00  0.00     0.163 HD
ATOM     30  O   UNL A   1      41.610  26.438  25.017  1.00  0.00    -0.269 OA
BRANCH  28  31
ATOM     31  C   UNL A   1      41.334  26.345  27.350  1.00  0.00     0.039 A 
ATOM     32  C   UNL A   1      42.376  27.191  27.741  1.00  0.00     0.014 A 
ATOM     33  C   UNL A   1      40.254  26.129  28.207  1.00  0.00     0.014 A 
ATOM     34  C   UNL A   1      42.276  27.908  28.937  1.00  0.00     0.010 A 
ATOM     35  C   UNL A   1      40.111  26.914  29.349  1.00  0.00     0.010 A 
ATOM     36  C   UNL A   1      41.113  27.822  29.723  1.00  0.00    -0.014 A 
BRANCH  36  37
ATOM     37  C   UNL A   1      40.914  28.684  30.920  1.00  0.00     0.031 A 
ATOM     38  C   UNL A   1      39.836  29.736  30.925  1.00  0.00     0.074 A 
ATOM     39  C   UNL A   1      41.760  28.583  31.967  1.00  0.00     0.049 A 
ATOM     40  N   UNL A   1      39.569  30.641  31.831  1.00  0.00    -0.248 NA
ATOM     41  C   UNL A   1      38.966  29.800  29.740  1.00  0.00     0.031 C 
ATOM     42  C   UNL A   1      42.886  27.651  32.064  1.00  0.00     0.029 A 
ATOM     43  N   UNL A   1      41.813  29.282  33.149  1.00  0.00    -0.354 N 
ATOM     44  C   UNL A   1      38.523  31.397  31.316  1.00  0.00     0.074 A 
ATOM     45  C   UNL A   1      38.236  30.876  29.997  1.00  0.00     0.031 C 
ATOM     46  C   UNL A   1      43.499  27.816  33.248  1.00  0.00     0.029 A 
ATOM     47  C   UNL A   1      42.837  28.891  33.981  1.00  0.00     0.049 A 
ATOM     48  H   UNL A   1      41.176  29.997  33.380  1.00  0.00     0.167 HD
ATOM     49  C   UNL A   1      37.846  32.417  31.895  1.00  0.00     0.037 A 
ATOM     50  C   UNL A   1      43.206  29.348  35.194  1.00  0.00     0.037 A 
ATOM     51  C   UNL A   1      38.103  32.902  33.226  1.00  0.00     0.049 A 
ATOM     52  C   UNL A   1      42.420  30.465  35.828  1.00  0.00     0.074 A 
ATOM     53  C   UNL A   1      37.416  33.874  33.934  1.00  0.00     0.029 A 
ATOM     54  N   UNL A   1      39.124  32.453  34.051  1.00  0.00    -0.354 N 
ATOM     55  N   UNL A   1      41.383  31.115  35.356  1.00  0.00    -0.248 NA
ATOM     56  C   UNL A   1      42.849  30.906  37.163  1.00  0.00     0.031 C 
ATOM     57  C   UNL A   1      38.046  34.040  35.172  1.00  0.00     0.029 A 
ATOM     58  C   UNL A   1      39.096  33.140  35.254  1.00  0.00     0.049 A 
ATOM     59  H   UNL A   1      39.772  31.750  33.816  1.00  0.00     0.167 HD
ATOM     60  C   UNL A   1      41.017  32.018  36.348  1.00  0.00     0.074 A 
ATOM     61  C   UNL A   1      41.937  31.825  37.449  1.00  0.00     0.031 C 
ATOM     62  C   UNL A   1      40.009  32.926  36.347  1.00  0.00     0.037 A 
BRANCH  49  63
ATOM     63  C   UNL A   1      36.751  33.071  31.098  1.00  0.00     0.058 A 
ATOM     64  C   UNL A   1      37.033  33.966  30.053  1.00  0.00     0.135 A 
ATOM     65  C   UNL A   1      35.404  32.768  31.355  1.00  0.00     0.135 A 
ATOM     66  F   UNL A   1      38.302  34.302  29.775  1.00  0.00    -0.206 F 
ATOM     67  C   UNL A   1      36.018  34.561  29.312  1.00  0.00     0.059 A 
ATOM     68  C   UNL A   1      34.373  33.330  30.606  1.00  0.00     0.059 A 
ATOM     69  F   UNL A   1      35.078  31.919  32.342  1.00  0.00    -0.206 F 
ATOM     70  C   UNL A   1      34.691  34.237  29.596  1.00  0.00     0.060 A 
BRANCH  70  71
ATOM     71  S   UNL A   1      33.386  35.012  28.618  1.00  0.00     0.124 S 
ATOM     72  O   UNL A   1      32.563  35.619  29.659  1.00  0.00    -0.237 OA
ATOM     73  O   UNL A   1      34.135  35.943  27.780  1.00  0.00    -0.237 OA
ATOM     74  O   UNL A   1      32.778  33.889  27.912  1.00  0.00    -0.744 OA
ENDBRANCH  70  71
ENDBRANCH  49  63
BRANCH  50  75
ATOM     75  C   UNL A   1      44.357  28.734  35.909  1.00  0.00     0.058 A 
ATOM     76  C   UNL A   1      44.172  27.622  36.745  1.00  0.00     0.135 A 
ATOM     77  C   UNL A   1      45.657  29.245  35.783  1.00  0.00     0.135 A 
ATOM     78  F   UNL A   1      42.947  27.099  36.904  1.00  0.00    -0.206 F 
ATOM     79  C   UNL A   1      45.229  27.053  37.448  1.00  0.00     0.059 A 
ATOM     80  C   UNL A   1      46.735  28.679  36.456  1.00  0.00     0.059 A 
ATOM     81  F   UNL A   1      45.891  30.298  34.983  1.00  0.00    -0.206 F 
ATOM     82  C   UNL A   1      46.508  27.590  37.298  1.00  0.00     0.060 A 
BRANCH  82  83
ATOM     83  S   UNL A   1      47.881  26.825  38.190  1.00  0.00     0.124 S 
ATOM     84  O   UNL A   1      47.592  27.215  39.564  1.00  0.00    -0.237 OA
ATOM     85  O   UNL A   1      47.700  25.411  37.877  1.00  0.00    -0.237 OA
ATOM     86  O   UNL A   1      49.058  27.445  37.589  1.00  0.00    -0.744 OA
ENDBRANCH  82  83
ENDBRANCH  50  75
BRANCH  62  87
ATOM     87  C   UNL A   1      39.818  33.748  37.591  1.00  0.00     0.058 A 
ATOM     88  C   UNL A   1      40.520  34.943  37.803  1.00  0.00     0.135 A 
ATOM     89  C   UNL A   1      38.880  33.356  38.560  1.00  0.00     0.135 A 
ATOM     90  F   UNL A   1      41.432  35.359  36.909  1.00  0.00    -0.206 F 
ATOM     91  C   UNL A   1      40.319  35.710  38.946  1.00  0.00     0.059 A 
ATOM     92  C   UNL A   1      38.644  34.121  39.698  1.00  0.00     0.059 A 
ATOM     93  F   UNL A   1      38.173  32.226  38.401  1.00  0.00    -0.206 F 
ATOM     94  C   UNL A   1      39.378  35.291  39.889  1.00  0.00     0.060 A 
BRANCH  94  95
ATOM     95  S   UNL A   1      39.103  36.310  41.353  1.00  0.00     0.124 S 
ATOM     96  O   UNL A   1      37.969  35.633  41.973  1.00  0.00    -0.237 OA
ATOM     97  O   UNL A   1      40.375  36.192  42.060  1.00  0.00    -0.237 OA
ATOM     98  O   UNL A   1      38.822  37.631  40.801  1.00  0.00    -0.744 OA
ENDBRANCH  94  95
ENDBRANCH  62  87
ENDBRANCH  36  37
ENDBRANCH  28  31
ENDBRANCH  26  27
ENDBRANCH  25  26
ENDBRANCH   1  25
TORSDOF 19
ENDMDL
MODEL 3
REMARK VINA RESULT:     -10.6      2.977      3.912
REMARK SMILES CCOc1cccc(C(=O)NCCCCNC(=O)c2ccc(-c3c4nc(c(-c5c(F)cc(S(=O)(=O)[O-])cc5F)c5ccc([nH]5)c(-c5c(F)cc(S(=O)(=O)[O-])cc5F)c5nc(c(-c6c(F)cc(S(=O)(=O)[O-])cc6F)c6ccc3[nH]6)C=C5)C=C4)cc2)c1OCc1ccc(Br)cc1
REMARK SMILES IDX 13 1 12 2 11 3 9 4 10 5 8 7 4 8 5 9 85 10 6 11 7 12 3 13
REMARK SMILES IDX 2 14 1 15 86 16 87 17 88 18 89 19 94 20 90 21 93 22 91 23
REMARK SMILES IDX 92 24 14 25 15 26 16 27 17 28 18 30 19 31 20 32 84 33 21 34
REMARK SMILES IDX 83 35 22 36 23 37 24 38 77 39 25 40 82 41 76 42 78 43 26 44
REMARK SMILES IDX 81 45 75 46 74 47 27 49 61 50 40 51 60 52 41 53 44 54 59 55
REMARK SMILES IDX 79 56 42 57 43 58 58 60 80 61 45 62 28 63 29 64 38 65 30 66
REMARK SMILES IDX 31 67 37 68 39 69 32 70 33 71 34 72 35 73 36 74 62 75 63 76
REMARK SMILES IDX 72 77 64 78 65 79 71 80 73 81 66 82 67 83 68 84 69 85 70 86
REMARK SMILES IDX 46 87 47 88 56 89 48 90 49 91 55 92 57 93 50 94 51 95 52 96
REMARK SMILES IDX 53 97 54 98
REMARK H PARENT 11 6 16 29 78 48 44 59
REMARK Flexibility Score: inf
ROOT
ATOM      1  C   UNL A   1      33.453  27.435  23.789  1.00  0.00     0.023 C 
ENDROOT
BRANCH   1   2
ATOM      2  C   UNL A   1      33.252  26.287  24.769  1.00  0.00     0.116 C 
BRANCH   2   3
ATOM      3  N   UNL A   1      31.943  25.649  24.808  1.00  0.00    -0.352 N 
ATOM      4  C   UNL A   1      31.580  24.429  25.381  1.00  0.00     0.255 C 
ATOM      5  O   UNL A   1      30.399  24.087  25.374  1.00  0.00    -0.269 OA
ATOM      6  H   UNL A   1      31.214  26.146  24.370  1.00  0.00     0.163 HD
BRANCH   4   7
ATOM      7  C   UNL A   1      32.613  23.462  25.866  1.00  0.00     0.085 A 
ATOM      8  C   UNL A   1      33.386  21.251  25.541  1.00  0.00     0.162 A 
ATOM      9  C   UNL A   1      33.572  21.080  26.916  1.00  0.00     0.050 A 
ATOM     10  C   UNL A   1      33.194  22.529  25.012  1.00  0.00     0.174 A 
ATOM     11  C   UNL A   1      33.361  22.166  27.769  1.00  0.00     0.005 A 
ATOM     12  C   UNL A   1      32.785  23.328  27.251  1.00  0.00     0.018 A 
BRANCH   8  13
ATOM     13  O   UNL A   1      32.724  20.268  24.833  1.00  0.00    -0.490 OA
BRANCH  13  14
ATOM     14  C   UNL A   1      32.904  18.906  25.172  1.00  0.00     0.226 C 
ATOM     15  C   UNL A   1      32.544  18.142  23.901  1.00  0.00     0.049 C 
ENDBRANCH  13  14
ENDBRANCH   8  13
BRANCH  10  16
ATOM     16  O   UNL A   1      33.384  22.931  23.721  1.00  0.00    -0.484 OA
BRANCH  16  17
ATOM     17  C   UNL A   1      34.686  23.057  23.168  1.00  0.00     0.265 C 
BRANCH  17  18
ATOM     18  C   UNL A   1      35.812  22.938  24.166  1.00  0.00    -0.011 A 
ATOM     19  C   UNL A   1      36.107  24.008  25.024  1.00  0.00     0.008 A 
ATOM     20  C   UNL A   1      36.636  21.806  24.192  1.00  0.00     0.008 A 
ATOM     21  C   UNL A   1      37.239  23.967  25.842  1.00  0.00     0.016 A 
ATOM     22  C   UNL A   1      37.772  21.764  25.004  1.00  0.00     0.016 A 
ATOM     23  C   UNL A   1      38.074  22.852  25.817  1.00  0.00     0.017 A 
ATOM     24  Br  UNL A   1      39.639  22.819  26.876  1.00  0.00    -0.051 Br
ENDBRANCH  17  18
ENDBRANCH  16  17
ENDBRANCH  10  16
ENDBRANCH   4   7
ENDBRANCH   2   3
ENDBRANCH   1   2
BRANCH   1  25
ATOM     25  C   UNL A   1      33.538  28.834  24.381  1.00  0.00     0.023 C 
BRANCH  25  26
ATOM     26  C   UNL A   1      33.822  28.930  25.878  1.00  0.00     0.116 C 
BRANCH  26  27
ATOM     27  N   UNL A   1      33.689  30.269  26.439  1.00  0.00    -0.352 N 
ATOM     28  C   UNL A   1      34.483  30.920  27.360  1.00  0.00     0.251 C 
ATOM     29  H   UNL A   1      32.917  30.786  26.113  1.00  0.00     0.163 HD
ATOM     30  O   UNL A   1      34.177  32.047  27.744  1.00  0.00    -0.269 OA
BRANCH  28  31
ATOM     31  C   UNL A   1      35.672  30.242  27.926  1.00  0.00     0.039 A 
ATOM     32  C   UNL A   1      36.888  30.322  27.243  1.00  0.00     0.014 A 
ATOM     33  C   UNL A   1      35.605  29.580  29.153  1.00  0.00     0.014 A 
ATOM     34  C   UNL A   1      38.056  29.841  27.845  1.00  0.00     0.010 A 
ATOM     35  C   UNL A   1      36.779  29.188  29.791  1.00  0.00     0.010 A 
ATOM     36  C   UNL A   1      38.020  29.324  29.151  1.00  0.00    -0.014 A 
BRANCH  36  37
ATOM     37  C   UNL A   1      39.265  28.944  29.874  1.00  0.00     0.031 A 
ATOM     38  C   UNL A   1      39.678  29.690  31.115  1.00  0.00     0.074 A 
ATOM     39  C   UNL A   1      40.071  27.988  29.365  1.00  0.00     0.049 A 
ATOM     40  N   UNL A   1      40.769  29.570  31.828  1.00  0.00    -0.248 NA
ATOM     41  C   UNL A   1      38.760  30.733  31.600  1.00  0.00     0.031 C 
ATOM     42  C   UNL A   1      39.822  27.232  28.135  1.00  0.00     0.029 A 
ATOM     43  N   UNL A   1      41.274  27.496  29.812  1.00  0.00    -0.354 N 
ATOM     44  C   UNL A   1      40.681  30.535  32.823  1.00  0.00     0.074 A 
ATOM     45  C   UNL A   1      39.453  31.266  32.595  1.00  0.00     0.031 C 
ATOM     46  C   UNL A   1      40.822  26.356  27.942  1.00  0.00     0.029 A 
ATOM     47  C   UNL A   1      41.805  26.513  29.009  1.00  0.00     0.049 A 
ATOM     48  H   UNL A   1      41.715  27.818  30.632  1.00  0.00     0.167 HD
ATOM     49  C   UNL A   1      41.532  30.778  33.849  1.00  0.00     0.037 A 
ATOM     50  C   UNL A   1      42.954  25.817  29.117  1.00  0.00     0.037 A 
ATOM     51  C   UNL A   1      42.729  30.018  34.101  1.00  0.00     0.049 A 
ATOM     52  C   UNL A   1      43.870  26.087  30.282  1.00  0.00     0.074 A 
ATOM     53  C   UNL A   1      43.611  30.132  35.162  1.00  0.00     0.029 A 
ATOM     54  N   UNL A   1      43.211  29.005  33.287  1.00  0.00    -0.354 N 
ATOM     55  N   UNL A   1      43.729  26.952  31.257  1.00  0.00    -0.248 NA
ATOM     56  C   UNL A   1      45.096  25.281  30.364  1.00  0.00     0.031 C 
ATOM     57  C   UNL A   1      44.648  29.213  34.969  1.00  0.00     0.029 A 
ATOM     58  C   UNL A   1      44.387  28.495  33.812  1.00  0.00     0.049 A 
ATOM     59  H   UNL A   1      42.780  28.693  32.458  1.00  0.00     0.167 HD
ATOM     60  C   UNL A   1      44.832  26.773  32.086  1.00  0.00     0.074 A 
ATOM     61  C   UNL A   1      45.625  25.711  31.502  1.00  0.00     0.031 C 
ATOM     62  C   UNL A   1      45.158  27.428  33.228  1.00  0.00     0.037 A 
BRANCH  49  63
ATOM     63  C   UNL A   1      41.193  31.904  34.786  1.00  0.00     0.058 A 
ATOM     64  C   UNL A   1      41.696  33.201  34.594  1.00  0.00     0.135 A 
ATOM     65  C   UNL A   1      40.321  31.694  35.868  1.00  0.00     0.135 A 
ATOM     66  F   UNL A   1      42.545  33.454  33.585  1.00  0.00    -0.206 F 
ATOM     67  C   UNL A   1      41.373  34.242  35.457  1.00  0.00     0.059 A 
ATOM     68  C   UNL A   1      39.962  32.729  36.727  1.00  0.00     0.059 A 
ATOM     69  F   UNL A   1      39.811  30.475  36.098  1.00  0.00    -0.206 F 
ATOM     70  C   UNL A   1      40.504  33.997  36.521  1.00  0.00     0.060 A 
BRANCH  70  71
ATOM     71  S   UNL A   1      40.088  35.361  37.627  1.00  0.00     0.124 S 
ATOM     72  O   UNL A   1      41.341  35.540  38.353  1.00  0.00    -0.237 OA
ATOM     73  O   UNL A   1      39.742  36.426  36.691  1.00  0.00    -0.237 OA
ATOM     74  O   UNL A   1      38.977  34.836  38.413  1.00  0.00    -0.744 OA
ENDBRANCH  70  71
ENDBRANCH  49  63
BRANCH  50  75
ATOM     75  C   UNL A   1      43.297  24.774  28.113  1.00  0.00     0.058 A 
ATOM     76  C   UNL A   1      42.953  23.430  28.327  1.00  0.00     0.135 A 
ATOM     77  C   UNL A   1      43.980  25.091  26.929  1.00  0.00     0.135 A 
ATOM     78  F   UNL A   1      42.305  23.075  29.446  1.00  0.00    -0.206 F 
ATOM     79  C   UNL A   1      43.293  22.435  27.417  1.00  0.00     0.059 A 
ATOM     80  C   UNL A   1      44.309  24.118  25.991  1.00  0.00     0.059 A 
ATOM     81  F   UNL A   1      44.317  26.364  26.668  1.00  0.00    -0.206 F 
ATOM     82  C   UNL A   1      43.973  22.789  26.251  1.00  0.00     0.060 A 
BRANCH  82  83
ATOM     83  S   UNL A   1      44.382  21.495  25.058  1.00  0.00     0.124 S 
ATOM     84  O   UNL A   1      44.163  22.184  23.792  1.00  0.00    -0.237 OA
ATOM     85  O   UNL A   1      45.772  21.198  25.391  1.00  0.00    -0.237 OA
ATOM     86  O   UNL A   1      43.431  20.434  25.375  1.00  0.00    -0.744 OA
ENDBRANCH  82  83
ENDBRANCH  50  75
BRANCH  62  87
ATOM     87  C   UNL A   1      46.401  26.986  33.948  1.00  0.00     0.058 A 
ATOM     88  C   UNL A   1      47.627  27.645  33.780  1.00  0.00     0.135 A 
ATOM     89  C   UNL A   1      46.349  25.916  34.857  1.00  0.00     0.135 A 
ATOM     90  F   UNL A   1      47.731  28.670  32.917  1.00  0.00    -0.206 F 
ATOM     91  C   UNL A   1      48.768  27.244  34.468  1.00  0.00     0.059 A 
ATOM     92  C   UNL A   1      47.471  25.516  35.576  1.00  0.00     0.059 A 
ATOM     93  F   UNL A   1      45.198  25.258  35.064  1.00  0.00    -0.206 F 
ATOM     94  C   UNL A   1      48.680  26.178  35.365  1.00  0.00     0.060 A 
BRANCH  94  95
ATOM     95  S   UNL A   1      50.158  25.686  36.276  1.00  0.00     0.124 S 
ATOM     96  O   UNL A   1      51.056  25.302  35.193  1.00  0.00    -0.237 OA
ATOM     97  O   UNL A   1      50.510  26.910  36.989  1.00  0.00    -0.237 OA
ATOM     98  O   UNL A   1      49.688  24.591  37.121  1.00  0.00    -0.744 OA
ENDBRANCH  94  95
ENDBRANCH  62  87
ENDBRANCH  36  37
ENDBRANCH  28  31
ENDBRANCH  26  27
ENDBRANCH  25  26
ENDBRANCH   1  25
TORSDOF 19
ENDMDL
