MODEL 1
REMARK VINA RESULT:     -11.2      0.000      0.000
REMARK SMILES CCCCCCNC(=O)Oc1cccc(-c2ccc([C@@H](C)C(=O)NCCCCNC(=O)c3ccc(-c4c5nc(c(-c6c(F)cc(S(=O)(=O)[O-])cc6F)c6ccc([nH]6)c(-c6c(F)cc(S(=O)(=O)[O-])cc6F)c6nc(c(-c7c(F)cc(S(=O)(=O)[O-])cc7F)c7ccc4[nH]7)C=C6)C=C5)cc3)cc2C(F)(F)F)c1
REMARK SMILES IDX 20 1 21 2 19 3 16 4 17 5 99 6 18 7 98 8 15 9 11 10 12 11
REMARK SMILES IDX 104 12 13 13 14 14 10 15 8 16 7 17 9 19 6 20 5 21 4 22 3 23
REMARK SMILES IDX 2 24 1 25 100 26 101 27 102 28 103 29 22 30 23 31 24 32
REMARK SMILES IDX 25 34 26 35 27 36 28 37 29 38 30 39 31 41 32 42 33 43 97 44
REMARK SMILES IDX 34 45 96 46 35 47 36 48 37 49 90 50 38 51 95 52 89 53 91 54
REMARK SMILES IDX 39 55 94 56 88 57 87 58 40 60 74 61 53 62 73 63 54 64 57 65
REMARK SMILES IDX 72 66 92 67 55 68 56 69 71 71 93 72 58 73 41 74 42 75 51 76
REMARK SMILES IDX 43 77 44 78 50 79 52 80 45 81 46 82 47 83 48 84 49 85 75 86
REMARK SMILES IDX 76 87 85 88 77 89 78 90 84 91 86 92 79 93 80 94 81 95 82 96
REMARK SMILES IDX 83 97 59 98 60 99 69 100 61 101 62 102 68 103 70 104 63 105
REMARK SMILES IDX 64 106 65 107 66 108 67 109
REMARK H PARENT 7 18 24 33 29 40 91 59 57 70
REMARK Flexibility Score: inf
ROOT
ATOM      1  C   UNL A   1      35.764  21.273  25.004  1.00  0.00     0.105 C 
ATOM      2  C   UNL A   1      35.439  19.817  24.676  1.00  0.00     0.023 C 
ENDROOT
BRANCH   1   3
ATOM      3  C   UNL A   1      34.583  22.231  24.967  1.00  0.00    -0.035 A 
ATOM      4  C   UNL A   1      32.468  24.138  24.659  1.00  0.00    -0.006 A 
ATOM      5  C   UNL A   1      32.266  22.757  24.479  1.00  0.00     0.009 A 
ATOM      6  C   UNL A   1      33.735  24.548  25.122  1.00  0.00     0.064 A 
ATOM      7  C   UNL A   1      33.283  21.822  24.691  1.00  0.00     0.005 A 
ATOM      8  C   UNL A   1      34.786  23.598  25.204  1.00  0.00     0.018 A 
BRANCH   4   9
ATOM      9  C   UNL A   1      31.353  25.055  24.338  1.00  0.00    -0.014 A 
ATOM     10  C   UNL A   1      30.300  26.709  22.900  1.00  0.00     0.133 A 
ATOM     11  C   UNL A   1      29.200  26.794  23.748  1.00  0.00     0.047 A 
ATOM     12  C   UNL A   1      31.358  25.838  23.171  1.00  0.00     0.056 A 
ATOM     13  C   UNL A   1      29.155  25.995  24.883  1.00  0.00     0.004 A 
ATOM     14  C   UNL A   1      30.226  25.146  25.179  1.00  0.00     0.009 A 
BRANCH  10  15
ATOM     15  O   UNL A   1      30.371  27.653  21.860  1.00  0.00    -0.410 OA
BRANCH  15  16
ATOM     16  C   UNL A   1      30.077  28.980  22.131  1.00  0.00     0.412 C 
ATOM     17  N   UNL A   1      31.165  29.686  22.565  1.00  0.00    -0.321 N 
ATOM     18  H   UNL A   1      31.010  30.625  22.818  1.00  0.00     0.167 HD
ATOM     19  O   UNL A   1      28.981  29.510  22.016  1.00  0.00    -0.224 OA
BRANCH  17  20
ATOM     20  C   UNL A   1      32.524  29.197  22.690  1.00  0.00     0.119 C 
BRANCH  20  21
ATOM     21  C   UNL A   1      33.058  29.342  24.115  1.00  0.00     0.021 C 
BRANCH  21  22
ATOM     22  C   UNL A   1      31.992  29.273  25.215  1.00  0.00     0.002 C 
BRANCH  22  23
ATOM     23  C   UNL A   1      32.029  30.411  26.241  1.00  0.00    -0.000 C 
BRANCH  23  24
ATOM     24  C   UNL A   1      33.365  30.601  26.964  1.00  0.00    -0.003 C 
ATOM     25  C   UNL A   1      33.998  29.292  27.411  1.00  0.00     0.004 C 
ENDBRANCH  23  24
ENDBRANCH  22  23
ENDBRANCH  21  22
ENDBRANCH  20  21
ENDBRANCH  17  20
ENDBRANCH  15  16
ENDBRANCH  10  15
ENDBRANCH   4   9
BRANCH   6  26
ATOM     26  C   UNL A   1      34.063  25.950  25.592  1.00  0.00     0.417 C 
ATOM     27  F   UNL A   1      35.233  25.978  26.302  1.00  0.00    -0.166 F 
ATOM     28  F   UNL A   1      34.249  26.818  24.558  1.00  0.00    -0.166 F 
ATOM     29  F   UNL A   1      33.153  26.534  26.416  1.00  0.00    -0.166 F 
ENDBRANCH   6  26
ENDBRANCH   1   3
BRANCH   1  30
ATOM     30  C   UNL A   1      37.032  21.806  24.316  1.00  0.00     0.227 C 
ATOM     31  O   UNL A   1      36.987  22.124  23.120  1.00  0.00    -0.274 OA
ATOM     32  N   UNL A   1      38.228  21.980  24.942  1.00  0.00    -0.356 N 
ATOM     33  H   UNL A   1      38.915  22.409  24.384  1.00  0.00     0.163 HD
BRANCH  32  34
ATOM     34  C   UNL A   1      38.673  21.649  26.279  1.00  0.00     0.116 C 
BRANCH  34  35
ATOM     35  C   UNL A   1      39.607  22.718  26.851  1.00  0.00     0.023 C 
BRANCH  35  36
ATOM     36  C   UNL A   1      40.949  22.198  27.358  1.00  0.00     0.023 C 
BRANCH  36  37
ATOM     37  C   UNL A   1      42.118  23.161  27.197  1.00  0.00     0.116 C 
BRANCH  37  38
ATOM     38  N   UNL A   1      42.029  24.012  26.017  1.00  0.00    -0.352 N 
ATOM     39  C   UNL A   1      41.837  25.374  25.971  1.00  0.00     0.251 C 
ATOM     40  H   UNL A   1      42.117  23.558  25.148  1.00  0.00     0.163 HD
ATOM     41  O   UNL A   1      41.703  25.950  24.897  1.00  0.00    -0.269 OA
BRANCH  39  42
ATOM     42  C   UNL A   1      41.748  26.120  27.244  1.00  0.00     0.039 A 
ATOM     43  C   UNL A   1      42.824  26.916  27.640  1.00  0.00     0.014 A 
ATOM     44  C   UNL A   1      40.567  26.099  27.990  1.00  0.00     0.014 A 
ATOM     45  C   UNL A   1      42.683  27.759  28.745  1.00  0.00     0.010 A 
ATOM     46  C   UNL A   1      40.400  26.998  29.036  1.00  0.00     0.010 A 
ATOM     47  C   UNL A   1      41.455  27.840  29.424  1.00  0.00    -0.014 A 
BRANCH  47  48
ATOM     48  C   UNL A   1      41.246  28.804  30.536  1.00  0.00     0.031 A 
ATOM     49  C   UNL A   1      42.087  28.701  31.781  1.00  0.00     0.074 A 
ATOM     50  C   UNL A   1      40.247  29.707  30.461  1.00  0.00     0.049 A 
ATOM     51  N   UNL A   1      41.999  29.385  32.892  1.00  0.00    -0.248 NA
ATOM     52  C   UNL A   1      43.142  27.675  31.793  1.00  0.00     0.031 C 
ATOM     53  C   UNL A   1      39.317  29.853  29.337  1.00  0.00     0.029 A 
ATOM     54  N   UNL A   1      39.831  30.661  31.356  1.00  0.00    -0.354 N 
ATOM     55  C   UNL A   1      42.962  28.853  33.741  1.00  0.00     0.074 A 
ATOM     56  C   UNL A   1      43.596  27.763  33.035  1.00  0.00     0.031 C 
ATOM     57  C   UNL A   1      38.450  30.843  29.606  1.00  0.00     0.029 A 
ATOM     58  C   UNL A   1      38.737  31.380  30.932  1.00  0.00     0.049 A 
ATOM     59  H   UNL A   1      40.274  30.816  32.221  1.00  0.00     0.167 HD
ATOM     60  C   UNL A   1      43.300  29.253  34.989  1.00  0.00     0.037 A 
ATOM     61  C   UNL A   1      38.036  32.353  31.548  1.00  0.00     0.037 A 
ATOM     62  C   UNL A   1      42.704  30.377  35.662  1.00  0.00     0.049 A 
ATOM     63  C   UNL A   1      38.466  32.808  32.918  1.00  0.00     0.074 A 
ATOM     64  C   UNL A   1      43.053  30.927  36.882  1.00  0.00     0.029 A 
ATOM     65  N   UNL A   1      41.640  31.119  35.175  1.00  0.00    -0.354 N 
ATOM     66  N   UNL A   1      39.448  32.359  33.664  1.00  0.00    -0.248 NA
ATOM     67  C   UNL A   1      37.703  33.906  33.528  1.00  0.00     0.031 C 
ATOM     68  C   UNL A   1      42.169  31.974  37.156  1.00  0.00     0.029 A 
ATOM     69  C   UNL A   1      41.302  32.108  36.083  1.00  0.00     0.049 A 
ATOM     70  H   UNL A   1      41.192  30.967  34.313  1.00  0.00     0.167 HD
ATOM     71  C   UNL A   1      39.436  33.138  34.816  1.00  0.00     0.074 A 
ATOM     72  C   UNL A   1      38.361  34.095  34.662  1.00  0.00     0.031 C 
ATOM     73  C   UNL A   1      40.240  33.066  35.905  1.00  0.00     0.037 A 
BRANCH  60  74
ATOM     74  C   UNL A   1      44.373  28.489  35.713  1.00  0.00     0.058 A 
ATOM     75  C   UNL A   1      44.076  27.375  36.513  1.00  0.00     0.135 A 
ATOM     76  C   UNL A   1      45.725  28.827  35.535  1.00  0.00     0.135 A 
ATOM     77  F   UNL A   1      42.800  27.019  36.731  1.00  0.00    -0.206 F 
ATOM     78  C   UNL A   1      45.080  26.626  37.116  1.00  0.00     0.059 A 
ATOM     79  C   UNL A   1      46.747  28.076  36.108  1.00  0.00     0.059 A 
ATOM     80  F   UNL A   1      46.064  29.888  34.785  1.00  0.00    -0.206 F 
ATOM     81  C   UNL A   1      46.414  26.979  36.900  1.00  0.00     0.060 A 
BRANCH  81  82
ATOM     82  S   UNL A   1      47.705  25.964  37.649  1.00  0.00     0.124 S 
ATOM     83  O   UNL A   1      48.144  25.165  36.509  1.00  0.00    -0.237 OA
ATOM     84  O   UNL A   1      48.654  26.966  38.122  1.00  0.00    -0.237 OA
ATOM     85  O   UNL A   1      46.998  25.231  38.694  1.00  0.00    -0.744 OA
ENDBRANCH  81  82
ENDBRANCH  60  74
BRANCH  61  86
ATOM     86  C   UNL A   1      36.855  32.969  30.882  1.00  0.00     0.058 A 
ATOM     87  C   UNL A   1      37.009  33.875  29.823  1.00  0.00     0.135 A 
ATOM     88  C   UNL A   1      35.549  32.684  31.311  1.00  0.00     0.135 A 
ATOM     89  F   UNL A   1      38.237  34.184  29.378  1.00  0.00    -0.206 F 
ATOM     90  C   UNL A   1      35.916  34.508  29.237  1.00  0.00     0.059 A 
ATOM     91  C   UNL A   1      34.438  33.281  30.722  1.00  0.00     0.059 A 
ATOM     92  F   UNL A   1      35.344  31.809  32.307  1.00  0.00    -0.206 F 
ATOM     93  C   UNL A   1      34.633  34.207  29.699  1.00  0.00     0.060 A 
BRANCH  93  94
ATOM     94  S   UNL A   1      33.220  35.027  28.929  1.00  0.00     0.124 S 
ATOM     95  O   UNL A   1      32.335  35.219  30.072  1.00  0.00    -0.237 OA
ATOM     96  O   UNL A   1      33.826  36.235  28.380  1.00  0.00    -0.237 OA
ATOM     97  O   UNL A   1      32.770  34.054  27.937  1.00  0.00    -0.744 OA
ENDBRANCH  93  94
ENDBRANCH  61  86
BRANCH  73  98
ATOM     98  C   UNL A   1      40.022  34.073  37.000  1.00  0.00     0.058 A 
ATOM     99  C   UNL A   1      40.604  35.348  36.955  1.00  0.00     0.135 A 
ATOM    100  C   UNL A   1      39.169  33.776  38.075  1.00  0.00     0.135 A 
ATOM    101  F   UNL A   1      41.431  35.679  35.951  1.00  0.00    -0.206 F 
ATOM    102  C   UNL A   1      40.366  36.289  37.952  1.00  0.00     0.059 A 
ATOM    103  C   UNL A   1      38.894  34.712  39.068  1.00  0.00     0.059 A 
ATOM    104  F   UNL A   1      38.577  32.574  38.159  1.00  0.00    -0.206 F 
ATOM    105  C   UNL A   1      39.508  35.962  39.002  1.00  0.00     0.060 A 
BRANCH 105 106
ATOM    106  S   UNL A   1      39.176  37.205  40.269  1.00  0.00     0.124 S 
ATOM    107  O   UNL A   1      40.526  37.624  40.629  1.00  0.00    -0.237 OA
ATOM    108  O   UNL A   1      38.380  38.188  39.541  1.00  0.00    -0.237 OA
ATOM    109  O   UNL A   1      38.455  36.460  41.296  1.00  0.00    -0.744 OA
ENDBRANCH 105 106
ENDBRANCH  73  98
ENDBRANCH  47  48
ENDBRANCH  39  42
ENDBRANCH  37  38
ENDBRANCH  36  37
ENDBRANCH  35  36
ENDBRANCH  34  35
ENDBRANCH  32  34
ENDBRANCH   1  30
TORSDOF 24
ENDMDL
MODEL 2
REMARK VINA RESULT:     -11.0      1.217      2.143
REMARK SMILES CCCCCCNC(=O)Oc1cccc(-c2ccc([C@@H](C)C(=O)NCCCCNC(=O)c3ccc(-c4c5nc(c(-c6c(F)cc(S(=O)(=O)[O-])cc6F)c6ccc([nH]6)c(-c6c(F)cc(S(=O)(=O)[O-])cc6F)c6nc(c(-c7c(F)cc(S(=O)(=O)[O-])cc7F)c7ccc4[nH]7)C=C6)C=C5)cc3)cc2C(F)(F)F)c1
REMARK SMILES IDX 20 1 21 2 19 3 16 4 17 5 99 6 18 7 98 8 15 9 11 10 12 11
REMARK SMILES IDX 104 12 13 13 14 14 10 15 8 16 7 17 9 19 6 20 5 21 4 22 3 23
REMARK SMILES IDX 2 24 1 25 100 26 101 27 102 28 103 29 22 30 23 31 24 32
REMARK SMILES IDX 25 34 26 35 27 36 28 37 29 38 30 39 31 41 32 42 33 43 97 44
REMARK SMILES IDX 34 45 96 46 35 47 36 48 37 49 90 50 38 51 95 52 89 53 91 54
REMARK SMILES IDX 39 55 94 56 88 57 87 58 40 60 74 61 53 62 73 63 54 64 57 65
REMARK SMILES IDX 72 66 92 67 55 68 56 69 71 71 93 72 58 73 41 74 42 75 51 76
REMARK SMILES IDX 43 77 44 78 50 79 52 80 45 81 46 82 47 83 48 84 49 85 75 86
REMARK SMILES IDX 76 87 85 88 77 89 78 90 84 91 86 92 79 93 80 94 81 95 82 96
REMARK SMILES IDX 83 97 59 98 60 99 69 100 61 101 62 102 68 103 70 104 63 105
REMARK SMILES IDX 64 106 65 107 66 108 67 109
REMARK H PARENT 7 18 24 33 29 40 91 59 57 70
REMARK Flexibility Score: inf
ROOT
ATOM      1  C   UNL A   1      33.558  22.660  24.301  1.00  0.00     0.105 C 
ATOM      2  C   UNL A   1      33.170  21.230  23.930  1.00  0.00     0.023 C 
ENDROOT
BRANCH   1   3
ATOM      3  C   UNL A   1      32.441  23.688  24.199  1.00  0.00    -0.035 A 
ATOM      4  C   UNL A   1      30.519  25.786  23.868  1.00  0.00    -0.006 A 
ATOM      5  C   UNL A   1      30.422  24.563  23.178  1.00  0.00     0.009 A 
ATOM      6  C   UNL A   1      31.539  25.900  24.835  1.00  0.00     0.064 A 
ATOM      7  C   UNL A   1      31.325  23.517  23.387  1.00  0.00     0.005 A 
ATOM      8  C   UNL A   1      32.519  24.879  24.935  1.00  0.00     0.018 A 
BRANCH   4   9
ATOM      9  C   UNL A   1      29.562  26.860  23.525  1.00  0.00    -0.014 A 
ATOM     10  C   UNL A   1      29.021  28.962  22.428  1.00  0.00     0.133 A 
ATOM     11  C   UNL A   1      27.705  28.896  22.878  1.00  0.00     0.047 A 
ATOM     12  C   UNL A   1      29.939  27.952  22.724  1.00  0.00     0.056 A 
ATOM     13  C   UNL A   1      27.301  27.801  23.632  1.00  0.00     0.004 A 
ATOM     14  C   UNL A   1      28.223  26.803  23.961  1.00  0.00     0.009 A 
BRANCH  10  15
ATOM     15  O   UNL A   1      29.418  30.162  21.814  1.00  0.00    -0.410 OA
BRANCH  15  16
ATOM     16  C   UNL A   1      28.451  31.007  21.292  1.00  0.00     0.412 C 
ATOM     17  N   UNL A   1      28.443  32.237  21.890  1.00  0.00    -0.321 N 
ATOM     18  H   UNL A   1      27.747  32.868  21.595  1.00  0.00     0.167 HD
ATOM     19  O   UNL A   1      27.663  30.730  20.398  1.00  0.00    -0.224 OA
BRANCH  17  20
ATOM     20  C   UNL A   1      29.354  32.710  22.914  1.00  0.00     0.119 C 
BRANCH  20  21
ATOM     21  C   UNL A   1      29.254  31.884  24.197  1.00  0.00     0.021 C 
BRANCH  21  22
ATOM     22  C   UNL A   1      30.292  32.231  25.271  1.00  0.00     0.002 C 
BRANCH  22  23
ATOM     23  C   UNL A   1      31.150  31.059  25.761  1.00  0.00    -0.000 C 
BRANCH  23  24
ATOM     24  C   UNL A   1      32.112  31.385  26.906  1.00  0.00    -0.003 C 
ATOM     25  C   UNL A   1      33.051  30.238  27.247  1.00  0.00     0.004 C 
ENDBRANCH  23  24
ENDBRANCH  22  23
ENDBRANCH  21  22
ENDBRANCH  20  21
ENDBRANCH  17  20
ENDBRANCH  15  16
ENDBRANCH  10  15
ENDBRANCH   4   9
BRANCH   6  26
ATOM     26  C   UNL A   1      31.653  27.037  25.830  1.00  0.00     0.417 C 
ATOM     27  F   UNL A   1      30.673  26.967  26.783  1.00  0.00    -0.166 F 
ATOM     28  F   UNL A   1      32.828  27.013  26.519  1.00  0.00    -0.166 F 
ATOM     29  F   UNL A   1      31.540  28.292  25.320  1.00  0.00    -0.166 F 
ENDBRANCH   6  26
ENDBRANCH   1   3
BRANCH   1  30
ATOM     30  C   UNL A   1      34.898  23.124  23.705  1.00  0.00     0.227 C 
ATOM     31  O   UNL A   1      35.010  23.245  22.478  1.00  0.00    -0.274 OA
ATOM     32  N   UNL A   1      35.996  23.441  24.445  1.00  0.00    -0.356 N 
ATOM     33  H   UNL A   1      36.745  23.802  23.919  1.00  0.00     0.163 HD
BRANCH  32  34
ATOM     34  C   UNL A   1      36.262  23.346  25.864  1.00  0.00     0.116 C 
BRANCH  34  35
ATOM     35  C   UNL A   1      37.605  23.979  26.237  1.00  0.00     0.023 C 
BRANCH  35  36
ATOM     36  C   UNL A   1      38.729  22.988  26.521  1.00  0.00     0.023 C 
BRANCH  36  37
ATOM     37  C   UNL A   1      40.036  23.612  26.992  1.00  0.00     0.116 C 
BRANCH  37  38
ATOM     38  N   UNL A   1      40.793  24.275  25.938  1.00  0.00    -0.352 N 
ATOM     39  C   UNL A   1      41.418  25.500  25.990  1.00  0.00     0.251 C 
ATOM     40  H   UNL A   1      40.866  23.788  25.086  1.00  0.00     0.163 HD
ATOM     41  O   UNL A   1      41.954  25.971  24.993  1.00  0.00    -0.269 OA
BRANCH  39  42
ATOM     42  C   UNL A   1      41.386  26.258  27.258  1.00  0.00     0.039 A 
ATOM     43  C   UNL A   1      42.371  27.217  27.500  1.00  0.00     0.014 A 
ATOM     44  C   UNL A   1      40.332  26.080  28.158  1.00  0.00     0.014 A 
ATOM     45  C   UNL A   1      42.252  28.058  28.609  1.00  0.00     0.010 A 
ATOM     46  C   UNL A   1      40.171  26.972  29.211  1.00  0.00     0.010 A 
ATOM     47  C   UNL A   1      41.127  27.972  29.447  1.00  0.00    -0.014 A 
BRANCH  47  48
ATOM     48  C   UNL A   1      40.925  28.923  30.571  1.00  0.00     0.031 A 
ATOM     49  C   UNL A   1      41.731  28.771  31.833  1.00  0.00     0.074 A 
ATOM     50  C   UNL A   1      39.959  29.861  30.488  1.00  0.00     0.049 A 
ATOM     51  N   UNL A   1      41.640  29.438  32.954  1.00  0.00    -0.248 NA
ATOM     52  C   UNL A   1      42.750  27.708  31.852  1.00  0.00     0.031 C 
ATOM     53  C   UNL A   1      39.062  30.058  29.346  1.00  0.00     0.029 A 
ATOM     54  N   UNL A   1      39.554  30.813  31.391  1.00  0.00    -0.354 N 
ATOM     55  C   UNL A   1      42.563  28.859  33.817  1.00  0.00     0.074 A 
ATOM     56  C   UNL A   1      43.177  27.760  33.106  1.00  0.00     0.031 C 
ATOM     57  C   UNL A   1      38.223  31.073  29.612  1.00  0.00     0.029 A 
ATOM     58  C   UNL A   1      38.495  31.577  30.954  1.00  0.00     0.049 A 
ATOM     59  H   UNL A   1      39.981  30.939  32.269  1.00  0.00     0.167 HD
ATOM     60  C   UNL A   1      42.883  29.225  35.079  1.00  0.00     0.037 A 
ATOM     61  C   UNL A   1      37.813  32.563  31.570  1.00  0.00     0.037 A 
ATOM     62  C   UNL A   1      42.310  30.357  35.758  1.00  0.00     0.049 A 
ATOM     63  C   UNL A   1      38.225  32.978  32.958  1.00  0.00     0.074 A 
ATOM     64  C   UNL A   1      42.648  30.874  36.995  1.00  0.00     0.029 A 
ATOM     65  N   UNL A   1      41.284  31.143  35.259  1.00  0.00    -0.354 N 
ATOM     66  N   UNL A   1      39.173  32.483  33.719  1.00  0.00    -0.248 NA
ATOM     67  C   UNL A   1      37.485  34.092  33.570  1.00  0.00     0.031 C 
ATOM     68  C   UNL A   1      41.792  31.946  37.267  1.00  0.00     0.029 A 
ATOM     69  C   UNL A   1      40.957  32.128  36.177  1.00  0.00     0.049 A 
ATOM     70  H   UNL A   1      40.852  31.022  34.384  1.00  0.00     0.167 HD
ATOM     71  C   UNL A   1      39.158  33.243  34.884  1.00  0.00     0.074 A 
ATOM     72  C   UNL A   1      38.121  34.239  34.722  1.00  0.00     0.031 C 
ATOM     73  C   UNL A   1      39.933  33.124  35.991  1.00  0.00     0.037 A 
BRANCH  60  74
ATOM     74  C   UNL A   1      43.912  28.412  35.815  1.00  0.00     0.058 A 
ATOM     75  C   UNL A   1      45.283  28.700  35.725  1.00  0.00     0.135 A 
ATOM     76  C   UNL A   1      43.511  27.386  36.686  1.00  0.00     0.135 A 
ATOM     77  F   UNL A   1      45.721  29.658  34.894  1.00  0.00    -0.206 F 
ATOM     78  C   UNL A   1      46.222  27.993  36.469  1.00  0.00     0.059 A 
ATOM     79  C   UNL A   1      44.432  26.684  37.458  1.00  0.00     0.059 A 
ATOM     80  F   UNL A   1      42.213  27.066  36.803  1.00  0.00    -0.206 F 
ATOM     81  C   UNL A   1      45.785  26.993  37.340  1.00  0.00     0.060 A 
BRANCH  81  82
ATOM     82  S   UNL A   1      47.014  26.123  38.336  1.00  0.00     0.124 S 
ATOM     83  O   UNL A   1      47.362  25.008  37.461  1.00  0.00    -0.237 OA
ATOM     84  O   UNL A   1      48.048  27.138  38.510  1.00  0.00    -0.237 OA
ATOM     85  O   UNL A   1      46.281  25.766  39.546  1.00  0.00    -0.744 OA
ENDBRANCH  81  82
ENDBRANCH  60  74
BRANCH  61  86
ATOM     86  C   UNL A   1      36.670  33.230  30.887  1.00  0.00     0.058 A 
ATOM     87  C   UNL A   1      36.880  34.142  29.843  1.00  0.00     0.135 A 
ATOM     88  C   UNL A   1      35.346  32.989  31.286  1.00  0.00     0.135 A 
ATOM     89  F   UNL A   1      38.128  34.410  29.428  1.00  0.00    -0.206 F 
ATOM     90  C   UNL A   1      35.824  34.822  29.243  1.00  0.00     0.059 A 
ATOM     91  C   UNL A   1      34.270  33.634  30.681  1.00  0.00     0.059 A 
ATOM     92  F   UNL A   1      35.087  32.111  32.266  1.00  0.00    -0.206 F 
ATOM     93  C   UNL A   1      34.522  34.564  29.674  1.00  0.00     0.060 A 
BRANCH  93  94
ATOM     94  S   UNL A   1      33.156  35.445  28.885  1.00  0.00     0.124 S 
ATOM     95  O   UNL A   1      33.869  36.437  28.089  1.00  0.00    -0.237 OA
ATOM     96  O   UNL A   1      32.495  34.381  28.137  1.00  0.00    -0.237 OA
ATOM     97  O   UNL A   1      32.398  35.969  30.017  1.00  0.00    -0.744 OA
ENDBRANCH  93  94
ENDBRANCH  61  86
BRANCH  73  98
ATOM     98  C   UNL A   1      39.723  34.119  37.098  1.00  0.00     0.058 A 
ATOM     99  C   UNL A   1      38.865  33.853  38.175  1.00  0.00     0.135 A 
ATOM    100  C   UNL A   1      40.439  35.327  37.109  1.00  0.00     0.135 A 
ATOM    101  F   UNL A   1      38.153  32.716  38.208  1.00  0.00    -0.206 F 
ATOM    102  C   UNL A   1      38.705  34.762  39.216  1.00  0.00     0.059 A 
ATOM    103  C   UNL A   1      40.317  36.237  38.155  1.00  0.00     0.059 A 
ATOM    104  F   UNL A   1      41.283  35.624  36.109  1.00  0.00    -0.206 F 
ATOM    105  C   UNL A   1      39.438  35.950  39.198  1.00  0.00     0.060 A 
BRANCH 105 106
ATOM    106  S   UNL A   1      39.253  37.103  40.575  1.00  0.00     0.124 S 
ATOM    107  O   UNL A   1      38.751  36.226  41.627  1.00  0.00    -0.237 OA
ATOM    108  O   UNL A   1      40.615  37.596  40.755  1.00  0.00    -0.237 OA
ATOM    109  O   UNL A   1      38.299  38.085  40.069  1.00  0.00    -0.744 OA
ENDBRANCH 105 106
ENDBRANCH  73  98
ENDBRANCH  47  48
ENDBRANCH  39  42
ENDBRANCH  37  38
ENDBRANCH  36  37
ENDBRANCH  35  36
ENDBRANCH  34  35
ENDBRANCH  32  34
ENDBRANCH   1  30
TORSDOF 24
ENDMDL
MODEL 3
REMARK VINA RESULT:     -10.6      5.691      7.926
REMARK SMILES CCCCCCNC(=O)Oc1cccc(-c2ccc([C@@H](C)C(=O)NCCCCNC(=O)c3ccc(-c4c5nc(c(-c6c(F)cc(S(=O)(=O)[O-])cc6F)c6ccc([nH]6)c(-c6c(F)cc(S(=O)(=O)[O-])cc6F)c6nc(c(-c7c(F)cc(S(=O)(=O)[O-])cc7F)c7ccc4[nH]7)C=C6)C=C5)cc3)cc2C(F)(F)F)c1
REMARK SMILES IDX 20 1 21 2 19 3 16 4 17 5 99 6 18 7 98 8 15 9 11 10 12 11
REMARK SMILES IDX 104 12 13 13 14 14 10 15 8 16 7 17 9 19 6 20 5 21 4 22 3 23
REMARK SMILES IDX 2 24 1 25 100 26 101 27 102 28 103 29 22 30 23 31 24 32
REMARK SMILES IDX 25 34 26 35 27 36 28 37 29 38 30 39 31 41 32 42 33 43 97 44
REMARK SMILES IDX 34 45 96 46 35 47 36 48 37 49 90 50 38 51 95 52 89 53 91 54
REMARK SMILES IDX 39 55 94 56 88 57 87 58 40 60 74 61 53 62 73 63 54 64 57 65
REMARK SMILES IDX 72 66 92 67 55 68 56 69 71 71 93 72 58 73 41 74 42 75 51 76
REMARK SMILES IDX 43 77 44 78 50 79 52 80 45 81 46 82 47 83 48 84 49 85 75 86
REMARK SMILES IDX 76 87 85 88 77 89 78 90 84 91 86 92 79 93 80 94 81 95 82 96
REMARK SMILES IDX 83 97 59 98 60 99 69 100 61 101 62 102 68 103 70 104 63 105
REMARK SMILES IDX 64 106 65 107 66 108 67 109
REMARK H PARENT 7 18 24 33 29 40 91 59 57 70
REMARK Flexibility Score: inf
ROOT
ATOM      1  C   UNL A   1      33.118  22.213  24.203  1.00  0.00     0.105 C 
ATOM      2  C   UNL A   1      32.631  20.857  23.696  1.00  0.00     0.023 C 
ENDROOT
BRANCH   1   3
ATOM      3  C   UNL A   1      32.088  23.333  24.168  1.00  0.00    -0.035 A 
ATOM      4  C   UNL A   1      30.344  25.597  23.973  1.00  0.00    -0.006 A 
ATOM      5  C   UNL A   1      30.153  24.432  23.205  1.00  0.00     0.009 A 
ATOM      6  C   UNL A   1      31.365  25.565  24.945  1.00  0.00     0.064 A 
ATOM      7  C   UNL A   1      30.967  23.305  23.347  1.00  0.00     0.005 A 
ATOM      8  C   UNL A   1      32.259  24.463  24.979  1.00  0.00     0.018 A 
BRANCH   4   9
ATOM      9  C   UNL A   1      29.479  26.765  23.699  1.00  0.00    -0.014 A 
ATOM     10  C   UNL A   1      29.173  29.069  22.985  1.00  0.00     0.133 A 
ATOM     11  C   UNL A   1      27.797  28.980  23.176  1.00  0.00     0.047 A 
ATOM     12  C   UNL A   1      30.009  27.975  23.219  1.00  0.00     0.056 A 
ATOM     13  C   UNL A   1      27.249  27.777  23.606  1.00  0.00     0.004 A 
ATOM     14  C   UNL A   1      28.083  26.689  23.876  1.00  0.00     0.009 A 
BRANCH  10  15
ATOM     15  O   UNL A   1      29.690  30.346  22.710  1.00  0.00    -0.410 OA
BRANCH  15  16
ATOM     16  C   UNL A   1      29.239  31.432  23.445  1.00  0.00     0.412 C 
ATOM     17  N   UNL A   1      29.904  31.584  24.630  1.00  0.00    -0.321 N 
ATOM     18  H   UNL A   1      29.597  32.310  25.219  1.00  0.00     0.167 HD
ATOM     19  O   UNL A   1      28.343  32.197  23.116  1.00  0.00    -0.224 OA
BRANCH  17  20
ATOM     20  C   UNL A   1      31.015  30.786  25.109  1.00  0.00     0.119 C 
BRANCH  20  21
ATOM     21  C   UNL A   1      31.566  31.308  26.438  1.00  0.00     0.021 C 
BRANCH  21  22
ATOM     22  C   UNL A   1      32.902  30.693  26.869  1.00  0.00     0.002 C 
BRANCH  22  23
ATOM     23  C   UNL A   1      33.698  31.502  27.899  1.00  0.00    -0.000 C 
BRANCH  23  24
ATOM     24  C   UNL A   1      33.452  33.013  27.879  1.00  0.00    -0.003 C 
ATOM     25  C   UNL A   1      34.729  33.831  28.001  1.00  0.00     0.004 C 
ENDBRANCH  23  24
ENDBRANCH  22  23
ENDBRANCH  21  22
ENDBRANCH  20  21
ENDBRANCH  17  20
ENDBRANCH  15  16
ENDBRANCH  10  15
ENDBRANCH   4   9
BRANCH   6  26
ATOM     26  C   UNL A   1      31.566  26.623  26.010  1.00  0.00     0.417 C 
ATOM     27  F   UNL A   1      32.338  26.155  27.039  1.00  0.00    -0.166 F 
ATOM     28  F   UNL A   1      32.220  27.722  25.541  1.00  0.00    -0.166 F 
ATOM     29  F   UNL A   1      30.440  27.084  26.617  1.00  0.00    -0.166 F 
ENDBRANCH   6  26
ENDBRANCH   1   3
BRANCH   1  30
ATOM     30  C   UNL A   1      34.508  22.618  23.686  1.00  0.00     0.227 C 
ATOM     31  O   UNL A   1      34.599  23.441  22.766  1.00  0.00    -0.274 OA
ATOM     32  N   UNL A   1      35.681  22.144  24.189  1.00  0.00    -0.356 N 
ATOM     33  H   UNL A   1      36.483  22.566  23.806  1.00  0.00     0.163 HD
BRANCH  32  34
ATOM     34  C   UNL A   1      35.963  21.132  25.185  1.00  0.00     0.116 C 
BRANCH  34  35
ATOM     35  C   UNL A   1      37.355  20.522  25.001  1.00  0.00     0.023 C 
BRANCH  35  36
ATOM     36  C   UNL A   1      38.516  21.458  25.320  1.00  0.00     0.023 C 
BRANCH  36  37
ATOM     37  C   UNL A   1      39.380  21.036  26.501  1.00  0.00     0.116 C 
BRANCH  37  38
ATOM     38  N   UNL A   1      40.233  19.885  26.234  1.00  0.00    -0.352 N 
ATOM     39  C   UNL A   1      41.605  19.858  26.125  1.00  0.00     0.251 C 
ATOM     40  H   UNL A   1      39.772  19.023  26.117  1.00  0.00     0.163 HD
ATOM     41  O   UNL A   1      42.186  18.824  25.816  1.00  0.00    -0.269 OA
BRANCH  39  42
ATOM     42  C   UNL A   1      42.357  21.111  26.340  1.00  0.00     0.039 A 
ATOM     43  C   UNL A   1      42.672  21.910  25.239  1.00  0.00     0.014 A 
ATOM     44  C   UNL A   1      42.664  21.534  27.636  1.00  0.00     0.014 A 
ATOM     45  C   UNL A   1      43.225  23.176  25.446  1.00  0.00     0.010 A 
ATOM     46  C   UNL A   1      43.135  22.825  27.842  1.00  0.00     0.010 A 
ATOM     47  C   UNL A   1      43.417  23.662  26.751  1.00  0.00    -0.014 A 
BRANCH  47  48
ATOM     48  C   UNL A   1      43.905  25.043  26.999  1.00  0.00     0.031 A 
ATOM     49  C   UNL A   1      45.342  25.391  26.716  1.00  0.00     0.074 A 
ATOM     50  C   UNL A   1      43.082  25.953  27.560  1.00  0.00     0.049 A 
ATOM     51  N   UNL A   1      45.980  26.508  26.948  1.00  0.00    -0.248 NA
ATOM     52  C   UNL A   1      46.182  24.335  26.125  1.00  0.00     0.031 C 
ATOM     53  C   UNL A   1      41.689  25.712  27.949  1.00  0.00     0.029 A 
ATOM     54  N   UNL A   1      43.302  27.259  27.920  1.00  0.00    -0.354 N 
ATOM     55  C   UNL A   1      47.297  26.280  26.563  1.00  0.00     0.074 A 
ATOM     56  C   UNL A   1      47.377  24.907  26.119  1.00  0.00     0.031 C 
ATOM     57  C   UNL A   1      41.178  26.835  28.481  1.00  0.00     0.029 A 
ATOM     58  C   UNL A   1      42.213  27.864  28.505  1.00  0.00     0.049 A 
ATOM     59  H   UNL A   1      44.158  27.721  27.774  1.00  0.00     0.167 HD
ATOM     60  C   UNL A   1      48.336  27.146  26.560  1.00  0.00     0.037 A 
ATOM     61  C   UNL A   1      42.067  29.103  29.015  1.00  0.00     0.037 A 
ATOM     62  C   UNL A   1      48.233  28.528  26.948  1.00  0.00     0.049 A 
ATOM     63  C   UNL A   1      43.230  30.059  28.955  1.00  0.00     0.074 A 
ATOM     64  C   UNL A   1      49.203  29.512  26.876  1.00  0.00     0.029 A 
ATOM     65  N   UNL A   1      47.098  29.119  27.477  1.00  0.00    -0.354 N 
ATOM     66  N   UNL A   1      44.441  29.854  28.490  1.00  0.00    -0.248 NA
ATOM     67  C   UNL A   1      43.010  31.415  29.477  1.00  0.00     0.031 C 
ATOM     68  C   UNL A   1      48.669  30.689  27.408  1.00  0.00     0.029 A 
ATOM     69  C   UNL A   1      47.351  30.451  27.762  1.00  0.00     0.049 A 
ATOM     70  H   UNL A   1      46.239  28.663  27.628  1.00  0.00     0.167 HD
ATOM     71  C   UNL A   1      45.113  31.063  28.639  1.00  0.00     0.074 A 
ATOM     72  C   UNL A   1      44.172  31.996  29.221  1.00  0.00     0.031 C 
ATOM     73  C   UNL A   1      46.395  31.372  28.325  1.00  0.00     0.037 A 
BRANCH  60  74
ATOM     74  C   UNL A   1      49.679  26.641  26.110  1.00  0.00     0.058 A 
ATOM     75  C   UNL A   1      50.134  26.822  24.796  1.00  0.00     0.135 A 
ATOM     76  C   UNL A   1      50.554  26.042  27.032  1.00  0.00     0.135 A 
ATOM     77  F   UNL A   1      49.331  27.372  23.871  1.00  0.00    -0.206 F 
ATOM     78  C   UNL A   1      51.408  26.421  24.407  1.00  0.00     0.059 A 
ATOM     79  C   UNL A   1      51.842  25.658  26.671  1.00  0.00     0.059 A 
ATOM     80  F   UNL A   1      50.166  25.840  28.301  1.00  0.00    -0.206 F 
ATOM     81  C   UNL A   1      52.258  25.848  25.355  1.00  0.00     0.060 A 
BRANCH  81  82
ATOM     82  S   UNL A   1      53.927  25.384  24.845  1.00  0.00     0.124 S 
ATOM     83  O   UNL A   1      53.991  25.955  23.504  1.00  0.00    -0.237 OA
ATOM     84  O   UNL A   1      54.754  26.039  25.853  1.00  0.00    -0.237 OA
ATOM     85  O   UNL A   1      53.908  23.926  24.907  1.00  0.00    -0.744 OA
ENDBRANCH  81  82
ENDBRANCH  60  74
BRANCH  61  86
ATOM     86  C   UNL A   1      40.776  29.521  29.628  1.00  0.00     0.058 A 
ATOM     87  C   UNL A   1      39.656  29.811  28.835  1.00  0.00     0.135 A 
ATOM     88  C   UNL A   1      40.645  29.665  31.019  1.00  0.00     0.135 A 
ATOM     89  F   UNL A   1      39.731  29.693  27.501  1.00  0.00    -0.206 F 
ATOM     90  C   UNL A   1      38.464  30.266  29.393  1.00  0.00     0.059 A 
ATOM     91  C   UNL A   1      39.455  30.090  31.602  1.00  0.00     0.059 A 
ATOM     92  F   UNL A   1      41.679  29.380  31.824  1.00  0.00    -0.206 F 
ATOM     93  C   UNL A   1      38.376  30.407  30.779  1.00  0.00     0.060 A 
BRANCH  93  94
ATOM     94  S   UNL A   1      36.824  30.991  31.495  1.00  0.00     0.124 S 
ATOM     95  O   UNL A   1      37.294  32.027  32.407  1.00  0.00    -0.237 OA
ATOM     96  O   UNL A   1      36.099  31.458  30.317  1.00  0.00    -0.237 OA
ATOM     97  O   UNL A   1      36.276  29.794  32.125  1.00  0.00    -0.744 OA
ENDBRANCH  93  94
ENDBRANCH  61  86
BRANCH  73  98
ATOM     98  C   UNL A   1      46.849  32.785  28.562  1.00  0.00     0.058 A 
ATOM     99  C   UNL A   1      46.710  33.778  27.581  1.00  0.00     0.135 A 
ATOM    100  C   UNL A   1      47.373  33.161  29.809  1.00  0.00     0.135 A 
ATOM    101  F   UNL A   1      46.220  33.468  26.370  1.00  0.00    -0.206 F 
ATOM    102  C   UNL A   1      47.096  35.093  27.820  1.00  0.00     0.059 A 
ATOM    103  C   UNL A   1      47.738  34.476  30.080  1.00  0.00     0.059 A 
ATOM    104  F   UNL A   1      47.515  32.252  30.786  1.00  0.00    -0.206 F 
ATOM    105  C   UNL A   1      47.606  35.432  29.074  1.00  0.00     0.060 A 
BRANCH 105 106
ATOM    106  S   UNL A   1      48.067  37.150  29.386  1.00  0.00     0.124 S 
ATOM    107  O   UNL A   1      47.839  37.258  30.823  1.00  0.00    -0.237 OA
ATOM    108  O   UNL A   1      49.462  37.181  28.961  1.00  0.00    -0.237 OA
ATOM    109  O   UNL A   1      47.145  37.908  28.546  1.00  0.00    -0.744 OA
ENDBRANCH 105 106
ENDBRANCH  73  98
ENDBRANCH  47  48
ENDBRANCH  39  42
ENDBRANCH  37  38
ENDBRANCH  36  37
ENDBRANCH  35  36
ENDBRANCH  34  35
ENDBRANCH  32  34
ENDBRANCH   1  30
TORSDOF 24
ENDMDL
