MODEL 1
REMARK VINA RESULT:     -11.6      0.000      0.000
REMARK SMILES O=C(NCCCCNC(=O)c1cccc(NC(=S)N/N=C\c2c[nH]c3ccccc23)c1)c1ccc(-c2c3nc(c(-c4c(F)cc(S(=O)(=O)[O-])cc4F)c4ccc([nH]4)c(-c4c(F)cc(S(=O)(=O)[O-])cc4F)c4nc(c(-c5c(F)cc(S(=O)(=O)[O-])cc5F)c5ccc2[nH]5)C=C4)C=C3)cc1
REMARK SMILES IDX 6 1 5 2 4 3 3 4 1 5 2 6 32 8 33 9 97 10 34 11 96 12 35 13
REMARK SMILES IDX 36 14 37 15 90 16 38 17 95 18 89 19 91 20 39 21 94 22 88 23
REMARK SMILES IDX 87 24 40 26 74 27 53 28 73 29 54 30 57 31 72 32 92 33 55 34
REMARK SMILES IDX 56 35 71 37 93 38 58 39 41 40 42 41 51 42 43 43 44 44 50 45
REMARK SMILES IDX 52 46 45 47 46 48 47 49 48 50 49 51 75 52 76 53 85 54 77 55
REMARK SMILES IDX 78 56 84 57 86 58 79 59 80 60 81 61 82 62 83 63 59 64 60 65
REMARK SMILES IDX 69 66 61 67 62 68 68 69 70 70 63 71 64 72 65 73 66 74 67 75
REMARK SMILES IDX 7 76 8 77 9 78 10 80 11 81 12 82 31 83 13 84 15 85 14 86
REMARK SMILES IDX 16 87 17 89 18 90 19 91 20 93 21 94 22 95 23 96 30 97 24 98
REMARK SMILES IDX 25 99 29 100 26 102 28 103 27 104
REMARK H PARENT 3 7 91 25 57 36 8 79 16 88 19 92 24 101
REMARK Flexibility Score: inf
ROOT
ATOM      1  C   UNL A   1      33.574  30.461  26.876  1.00  0.00     0.023 C 
ENDROOT
BRANCH   1   2
ATOM      2  C   UNL A   1      34.343  29.194  27.218  1.00  0.00     0.023 C 
BRANCH   2   3
ATOM      3  C   UNL A   1      35.667  29.414  27.936  1.00  0.00     0.116 C 
BRANCH   3   4
ATOM      4  N   UNL A   1      35.511  29.791  29.335  1.00  0.00    -0.352 N 
ATOM      5  O   UNL A   1      36.171  30.143  31.466  1.00  0.00    -0.269 OA
ATOM      6  C   UNL A   1      36.483  29.917  30.302  1.00  0.00     0.251 C 
ATOM      7  H   UNL A   1      34.591  29.980  29.626  1.00  0.00     0.163 HD
BRANCH   6   8
ATOM      8  C   UNL A   1      37.900  29.739  29.923  1.00  0.00     0.039 A 
ATOM      9  C   UNL A   1      38.327  30.064  28.634  1.00  0.00     0.014 A 
ATOM     10  C   UNL A   1      38.791  29.185  30.845  1.00  0.00     0.014 A 
ATOM     11  C   UNL A   1      39.595  29.680  28.216  1.00  0.00     0.010 A 
ATOM     12  C   UNL A   1      40.098  28.889  30.450  1.00  0.00     0.010 A 
ATOM     13  C   UNL A   1      40.500  29.100  29.122  1.00  0.00    -0.014 A 
BRANCH  13  14
ATOM     14  C   UNL A   1      41.877  28.786  28.664  1.00  0.00     0.031 A 
ATOM     15  C   UNL A   1      42.959  29.830  28.660  1.00  0.00     0.074 A 
ATOM     16  C   UNL A   1      42.149  27.522  28.281  1.00  0.00     0.049 A 
ATOM     17  N   UNL A   1      44.212  29.711  28.300  1.00  0.00    -0.248 NA
ATOM     18  C   UNL A   1      42.592  31.182  29.110  1.00  0.00     0.031 C 
ATOM     19  C   UNL A   1      41.172  26.429  28.238  1.00  0.00     0.029 A 
ATOM     20  N   UNL A   1      43.319  26.936  27.879  1.00  0.00    -0.354 N 
ATOM     21  C   UNL A   1      44.778  30.971  28.458  1.00  0.00     0.074 A 
ATOM     22  C   UNL A   1      43.726  31.847  28.929  1.00  0.00     0.031 C 
ATOM     23  C   UNL A   1      41.794  25.298  27.882  1.00  0.00     0.029 A 
ATOM     24  C   UNL A   1      43.194  25.595  27.605  1.00  0.00     0.049 A 
ATOM     25  H   UNL A   1      44.167  27.428  27.793  1.00  0.00     0.167 HD
ATOM     26  C   UNL A   1      46.059  31.356  28.236  1.00  0.00     0.037 A 
ATOM     27  C   UNL A   1      44.098  24.703  27.162  1.00  0.00     0.037 A 
ATOM     28  C   UNL A   1      47.103  30.470  27.784  1.00  0.00     0.049 A 
ATOM     29  C   UNL A   1      45.505  25.160  26.911  1.00  0.00     0.074 A 
ATOM     30  C   UNL A   1      48.438  30.756  27.557  1.00  0.00     0.029 A 
ATOM     31  N   UNL A   1      46.930  29.124  27.490  1.00  0.00    -0.354 N 
ATOM     32  N   UNL A   1      46.024  26.352  27.080  1.00  0.00    -0.248 NA
ATOM     33  C   UNL A   1      46.446  24.156  26.400  1.00  0.00     0.031 C 
ATOM     34  C   UNL A   1      49.064  29.594  27.090  1.00  0.00     0.029 A 
ATOM     35  C   UNL A   1      48.129  28.572  27.066  1.00  0.00     0.049 A 
ATOM     36  H   UNL A   1      46.080  28.633  27.572  1.00  0.00     0.167 HD
ATOM     37  C   UNL A   1      47.358  26.240  26.708  1.00  0.00     0.074 A 
ATOM     38  C   UNL A   1      47.568  24.858  26.323  1.00  0.00     0.031 C 
ATOM     39  C   UNL A   1      48.319  27.195  26.683  1.00  0.00     0.037 A 
BRANCH  26  40
ATOM     40  C   UNL A   1      46.407  32.803  28.460  1.00  0.00     0.058 A 
ATOM     41  C   UNL A   1      46.793  33.284  29.721  1.00  0.00     0.135 A 
ATOM     42  C   UNL A   1      46.406  33.709  27.387  1.00  0.00     0.135 A 
ATOM     43  F   UNL A   1      46.800  32.464  30.784  1.00  0.00    -0.206 F 
ATOM     44  C   UNL A   1      47.142  34.617  29.916  1.00  0.00     0.059 A 
ATOM     45  C   UNL A   1      46.774  35.042  27.554  1.00  0.00     0.059 A 
ATOM     46  F   UNL A   1      46.048  33.303  26.159  1.00  0.00    -0.206 F 
ATOM     47  C   UNL A   1      47.127  35.490  28.826  1.00  0.00     0.060 A 
BRANCH  47  48
ATOM     48  S   UNL A   1      47.586  37.216  29.093  1.00  0.00     0.124 S 
ATOM     49  O   UNL A   1      49.028  37.172  28.869  1.00  0.00    -0.237 OA
ATOM     50  O   UNL A   1      46.808  37.910  28.073  1.00  0.00    -0.237 OA
ATOM     51  O   UNL A   1      47.173  37.469  30.471  1.00  0.00    -0.744 OA
ENDBRANCH  47  48
ENDBRANCH  26  40
BRANCH  27  52
ATOM     52  C   UNL A   1      43.687  23.296  26.925  1.00  0.00     0.058 A 
ATOM     53  C   UNL A   1      43.451  22.423  27.995  1.00  0.00     0.135 A 
ATOM     54  C   UNL A   1      43.477  22.813  25.623  1.00  0.00     0.135 A 
ATOM     55  F   UNL A   1      43.639  22.840  29.257  1.00  0.00    -0.206 F 
ATOM     56  C   UNL A   1      43.028  21.115  27.785  1.00  0.00     0.059 A 
ATOM     57  C   UNL A   1      43.030  21.518  25.389  1.00  0.00     0.059 A 
ATOM     58  F   UNL A   1      43.669  23.619  24.568  1.00  0.00    -0.206 F 
ATOM     59  C   UNL A   1      42.817  20.673  26.477  1.00  0.00     0.060 A 
BRANCH  59  60
ATOM     60  S   UNL A   1      42.209  18.993  26.214  1.00  0.00     0.124 S 
ATOM     61  O   UNL A   1      43.158  18.491  25.226  1.00  0.00    -0.237 OA
ATOM     62  O   UNL A   1      42.312  18.415  27.550  1.00  0.00    -0.237 OA
ATOM     63  O   UNL A   1      40.847  19.203  25.734  1.00  0.00    -0.744 OA
ENDBRANCH  59  60
ENDBRANCH  27  52
BRANCH  39  64
ATOM     64  C   UNL A   1      49.689  26.770  26.243  1.00  0.00     0.058 A 
ATOM     65  C   UNL A   1      50.617  26.232  27.150  1.00  0.00     0.135 A 
ATOM     66  C   UNL A   1      50.068  26.872  24.896  1.00  0.00     0.135 A 
ATOM     67  F   UNL A   1      50.305  26.124  28.452  1.00  0.00    -0.206 F 
ATOM     68  C   UNL A   1      51.884  25.832  26.739  1.00  0.00     0.059 A 
ATOM     69  C   UNL A   1      51.322  26.456  24.458  1.00  0.00     0.059 A 
ATOM     70  F   UNL A   1      49.214  27.373  23.989  1.00  0.00    -0.206 F 
ATOM     71  C   UNL A   1      52.227  25.949  25.390  1.00  0.00     0.060 A 
BRANCH  71  72
ATOM     72  S   UNL A   1      53.865  25.403  24.862  1.00  0.00     0.124 S 
ATOM     73  O   UNL A   1      54.004  26.090  23.582  1.00  0.00    -0.237 OA
ATOM     74  O   UNL A   1      54.721  25.890  25.939  1.00  0.00    -0.237 OA
ATOM     75  O   UNL A   1      53.730  23.952  24.785  1.00  0.00    -0.744 OA
ENDBRANCH  71  72
ENDBRANCH  39  64
ENDBRANCH  13  14
ENDBRANCH   6   8
ENDBRANCH   3   4
ENDBRANCH   2   3
ENDBRANCH   1   2
BRANCH   1  76
ATOM     76  C   UNL A   1      32.089  30.266  26.615  1.00  0.00     0.116 C 
BRANCH  76  77
ATOM     77  N   UNL A   1      31.752  30.064  25.213  1.00  0.00    -0.352 N 
ATOM     78  C   UNL A   1      31.686  28.916  24.449  1.00  0.00     0.251 C 
ATOM     79  H   UNL A   1      31.532  30.890  24.725  1.00  0.00     0.163 HD
ATOM     80  O   UNL A   1      31.448  28.985  23.260  1.00  0.00    -0.269 OA
BRANCH  78  81
ATOM     81  C   UNL A   1      31.949  27.596  25.070  1.00  0.00     0.041 A 
ATOM     82  C   UNL A   1      31.026  27.079  25.983  1.00  0.00     0.014 A 
ATOM     83  C   UNL A   1      33.065  26.846  24.713  1.00  0.00     0.040 A 
ATOM     84  C   UNL A   1      31.196  25.785  26.482  1.00  0.00     0.003 A 
ATOM     85  C   UNL A   1      33.164  25.520  25.117  1.00  0.00     0.041 A 
ATOM     86  C   UNL A   1      32.260  24.998  26.038  1.00  0.00     0.026 A 
BRANCH  85  87
ATOM     87  N   UNL A   1      34.037  24.700  24.393  1.00  0.00    -0.331 N 
ATOM     88  H   UNL A   1      34.995  24.901  24.496  1.00  0.00     0.169 HD
BRANCH  87  89
ATOM     89  C   UNL A   1      33.741  23.666  23.567  1.00  0.00     0.191 C 
ATOM     90  S   UNL A   1      33.068  23.992  22.067  1.00  0.00    -0.039 S 
BRANCH  89  91
ATOM     91  N   UNL A   1      34.129  22.394  23.887  1.00  0.00    -0.254 N 
ATOM     92  H   UNL A   1      34.662  21.909  23.216  1.00  0.00     0.193 HD
BRANCH  91  93
ATOM     93  N   UNL A   1      33.843  21.724  25.062  1.00  0.00    -0.181 NA
ATOM     94  C   UNL A   1      34.823  21.170  25.734  1.00  0.00     0.143 C 
BRANCH  94  95
ATOM     95  C   UNL A   1      36.213  21.288  25.351  1.00  0.00     0.020 A 
ATOM     96  C   UNL A   1      36.941  20.291  24.729  1.00  0.00     0.093 A 
ATOM     97  C   UNL A   1      37.147  22.325  25.619  1.00  0.00     0.008 A 
ATOM     98  N   UNL A   1      38.221  20.426  25.197  1.00  0.00    -0.361 N 
ATOM     99  C   UNL A   1      38.364  21.660  25.782  1.00  0.00     0.046 A 
ATOM    100  C   UNL A   1      37.099  23.704  25.884  1.00  0.00     0.011 A 
ATOM    101  H   UNL A   1      38.927  19.744  25.125  1.00  0.00     0.166 HD
ATOM    102  C   UNL A   1      39.454  22.226  26.440  1.00  0.00     0.027 A 
ATOM    103  C   UNL A   1      38.251  24.336  26.372  1.00  0.00     0.001 A 
ATOM    104  C   UNL A   1      39.378  23.591  26.720  1.00  0.00     0.002 A 
ENDBRANCH  94  95
ENDBRANCH  91  93
ENDBRANCH  89  91
ENDBRANCH  87  89
ENDBRANCH  85  87
ENDBRANCH  78  81
ENDBRANCH  76  77
ENDBRANCH   1  76
TORSDOF 19
ENDMDL
MODEL 2
REMARK VINA RESULT:     -11.6      2.757      8.669
REMARK SMILES O=C(NCCCCNC(=O)c1cccc(NC(=S)N/N=C\c2c[nH]c3ccccc23)c1)c1ccc(-c2c3nc(c(-c4c(F)cc(S(=O)(=O)[O-])cc4F)c4ccc([nH]4)c(-c4c(F)cc(S(=O)(=O)[O-])cc4F)c4nc(c(-c5c(F)cc(S(=O)(=O)[O-])cc5F)c5ccc2[nH]5)C=C4)C=C3)cc1
REMARK SMILES IDX 6 1 5 2 4 3 3 4 1 5 2 6 32 8 33 9 97 10 34 11 96 12 35 13
REMARK SMILES IDX 36 14 37 15 90 16 38 17 95 18 89 19 91 20 39 21 94 22 88 23
REMARK SMILES IDX 87 24 40 26 74 27 53 28 73 29 54 30 57 31 72 32 92 33 55 34
REMARK SMILES IDX 56 35 71 37 93 38 58 39 41 40 42 41 51 42 43 43 44 44 50 45
REMARK SMILES IDX 52 46 45 47 46 48 47 49 48 50 49 51 75 52 76 53 85 54 77 55
REMARK SMILES IDX 78 56 84 57 86 58 79 59 80 60 81 61 82 62 83 63 59 64 60 65
REMARK SMILES IDX 69 66 61 67 62 68 68 69 70 70 63 71 64 72 65 73 66 74 67 75
REMARK SMILES IDX 7 76 8 77 9 78 10 80 11 81 12 82 31 83 13 84 15 85 14 86
REMARK SMILES IDX 16 87 17 89 18 90 19 91 20 93 21 94 22 95 23 96 30 97 24 98
REMARK SMILES IDX 25 99 29 100 26 102 28 103 27 104
REMARK H PARENT 3 7 91 25 57 36 8 79 16 88 19 92 24 101
REMARK Flexibility Score: inf
ROOT
ATOM      1  C   UNL A   1      32.974  29.393  24.839  1.00  0.00     0.023 C 
ENDROOT
BRANCH   1   2
ATOM      2  C   UNL A   1      33.714  28.209  25.441  1.00  0.00     0.023 C 
BRANCH   2   3
ATOM      3  C   UNL A   1      34.005  28.316  26.930  1.00  0.00     0.116 C 
BRANCH   3   4
ATOM      4  N   UNL A   1      33.809  29.656  27.464  1.00  0.00    -0.352 N 
ATOM      5  O   UNL A   1      34.345  31.518  28.625  1.00  0.00    -0.269 OA
ATOM      6  C   UNL A   1      34.704  30.447  28.148  1.00  0.00     0.251 C 
ATOM      7  H   UNL A   1      32.919  30.049  27.315  1.00  0.00     0.163 HD
BRANCH   6   8
ATOM      8  C   UNL A   1      36.090  29.967  28.333  1.00  0.00     0.039 A 
ATOM      9  C   UNL A   1      36.494  29.453  29.567  1.00  0.00     0.014 A 
ATOM     10  C   UNL A   1      37.003  30.090  27.284  1.00  0.00     0.014 A 
ATOM     11  C   UNL A   1      37.844  29.222  29.803  1.00  0.00     0.010 A 
ATOM     12  C   UNL A   1      38.345  29.764  27.495  1.00  0.00     0.010 A 
ATOM     13  C   UNL A   1      38.783  29.363  28.767  1.00  0.00    -0.014 A 
BRANCH  13  14
ATOM     14  C   UNL A   1      40.204  29.020  29.030  1.00  0.00     0.031 A 
ATOM     15  C   UNL A   1      40.771  27.681  28.647  1.00  0.00     0.074 A 
ATOM     16  C   UNL A   1      40.991  29.957  29.595  1.00  0.00     0.049 A 
ATOM     17  N   UNL A   1      41.992  27.233  28.800  1.00  0.00    -0.248 NA
ATOM     18  C   UNL A   1      39.855  26.717  28.017  1.00  0.00     0.031 C 
ATOM     19  C   UNL A   1      40.544  31.289  30.015  1.00  0.00     0.029 A 
ATOM     20  N   UNL A   1      42.328  29.948  29.892  1.00  0.00    -0.354 N 
ATOM     21  C   UNL A   1      41.988  25.933  28.308  1.00  0.00     0.074 A 
ATOM     22  C   UNL A   1      40.638  25.655  27.868  1.00  0.00     0.031 C 
ATOM     23  C   UNL A   1      41.595  31.984  30.468  1.00  0.00     0.029 A 
ATOM     24  C   UNL A   1      42.775  31.128  30.435  1.00  0.00     0.049 A 
ATOM     25  H   UNL A   1      42.911  29.171  29.734  1.00  0.00     0.167 HD
ATOM     26  C   UNL A   1      43.020  25.057  28.227  1.00  0.00     0.037 A 
ATOM     27  C   UNL A   1      43.996  31.483  30.877  1.00  0.00     0.037 A 
ATOM     28  C   UNL A   1      44.366  25.353  28.652  1.00  0.00     0.049 A 
ATOM     29  C   UNL A   1      45.116  30.489  30.789  1.00  0.00     0.074 A 
ATOM     30  C   UNL A   1      45.488  24.544  28.585  1.00  0.00     0.029 A 
ATOM     31  N   UNL A   1      44.774  26.550  29.223  1.00  0.00    -0.354 N 
ATOM     32  N   UNL A   1      45.096  29.270  30.307  1.00  0.00    -0.248 NA
ATOM     33  C   UNL A   1      46.420  30.913  31.311  1.00  0.00     0.031 C 
ATOM     34  C   UNL A   1      46.564  25.238  29.150  1.00  0.00     0.029 A 
ATOM     35  C   UNL A   1      46.124  26.495  29.531  1.00  0.00     0.049 A 
ATOM     36  H   UNL A   1      44.190  27.326  29.386  1.00  0.00     0.167 HD
ATOM     37  C   UNL A   1      46.388  28.783  30.457  1.00  0.00     0.074 A 
ATOM     38  C   UNL A   1      47.167  29.848  31.057  1.00  0.00     0.031 C 
ATOM     39  C   UNL A   1      46.883  27.564  30.131  1.00  0.00     0.037 A 
BRANCH  26  40
ATOM     40  C   UNL A   1      42.738  23.687  27.674  1.00  0.00     0.058 A 
ATOM     41  C   UNL A   1      42.760  23.428  26.294  1.00  0.00     0.135 A 
ATOM     42  C   UNL A   1      42.493  22.607  28.537  1.00  0.00     0.135 A 
ATOM     43  F   UNL A   1      42.976  24.425  25.422  1.00  0.00    -0.206 F 
ATOM     44  C   UNL A   1      42.527  22.152  25.789  1.00  0.00     0.059 A 
ATOM     45  C   UNL A   1      42.280  21.318  28.056  1.00  0.00     0.059 A 
ATOM     46  F   UNL A   1      42.463  22.797  29.866  1.00  0.00    -0.206 F 
ATOM     47  C   UNL A   1      42.285  21.103  26.679  1.00  0.00     0.060 A 
BRANCH  47  48
ATOM     48  S   UNL A   1      41.987  19.452  26.010  1.00  0.00     0.124 S 
ATOM     49  O   UNL A   1      40.542  19.479  25.802  1.00  0.00    -0.237 OA
ATOM     50  O   UNL A   1      42.801  19.452  24.799  1.00  0.00    -0.237 OA
ATOM     51  O   UNL A   1      42.452  18.565  27.073  1.00  0.00    -0.744 OA
ENDBRANCH  47  48
ENDBRANCH  26  40
BRANCH  27  52
ATOM     52  C   UNL A   1      44.206  32.838  31.446  1.00  0.00     0.058 A 
ATOM     53  C   UNL A   1      44.489  33.933  30.619  1.00  0.00     0.135 A 
ATOM     54  C   UNL A   1      44.080  33.071  32.826  1.00  0.00     0.135 A 
ATOM     55  F   UNL A   1      44.620  33.758  29.296  1.00  0.00    -0.206 F 
ATOM     56  C   UNL A   1      44.650  35.212  31.139  1.00  0.00     0.059 A 
ATOM     57  C   UNL A   1      44.210  34.345  33.365  1.00  0.00     0.059 A 
ATOM     58  F   UNL A   1      43.787  32.057  33.655  1.00  0.00    -0.206 F 
ATOM     59  C   UNL A   1      44.505  35.409  32.515  1.00  0.00     0.060 A 
BRANCH  59  60
ATOM     60  S   UNL A   1      44.653  37.083  33.174  1.00  0.00     0.124 S 
ATOM     61  O   UNL A   1      45.482  37.724  32.159  1.00  0.00    -0.237 OA
ATOM     62  O   UNL A   1      43.261  37.517  33.230  1.00  0.00    -0.237 OA
ATOM     63  O   UNL A   1      45.289  36.875  34.472  1.00  0.00    -0.744 OA
ENDBRANCH  59  60
ENDBRANCH  27  52
BRANCH  39  64
ATOM     64  C   UNL A   1      48.341  27.327  30.400  1.00  0.00     0.058 A 
ATOM     65  C   UNL A   1      49.317  27.583  29.424  1.00  0.00     0.135 A 
ATOM     66  C   UNL A   1      48.768  26.870  31.656  1.00  0.00     0.135 A 
ATOM     67  F   UNL A   1      48.958  28.012  28.204  1.00  0.00    -0.206 F 
ATOM     68  C   UNL A   1      50.668  27.370  29.678  1.00  0.00     0.059 A 
ATOM     69  C   UNL A   1      50.116  26.672  31.939  1.00  0.00     0.059 A 
ATOM     70  F   UNL A   1      47.873  26.618  32.624  1.00  0.00    -0.206 F 
ATOM     71  C   UNL A   1      51.057  26.914  30.939  1.00  0.00     0.060 A 
BRANCH  71  72
ATOM     72  S   UNL A   1      52.815  26.665  31.267  1.00  0.00     0.124 S 
ATOM     73  O   UNL A   1      53.084  27.717  32.242  1.00  0.00    -0.237 OA
ATOM     74  O   UNL A   1      52.848  25.300  31.782  1.00  0.00    -0.237 OA
ATOM     75  O   UNL A   1      53.433  26.848  29.958  1.00  0.00    -0.744 OA
ENDBRANCH  71  72
ENDBRANCH  39  64
ENDBRANCH  13  14
ENDBRANCH   6   8
ENDBRANCH   3   4
ENDBRANCH   2   3
ENDBRANCH   1   2
BRANCH   1  76
ATOM     76  C   UNL A   1      31.459  29.343  24.964  1.00  0.00     0.116 C 
BRANCH  76  77
ATOM     77  N   UNL A   1      30.751  29.594  23.717  1.00  0.00    -0.352 N 
ATOM     78  C   UNL A   1      30.551  28.798  22.607  1.00  0.00     0.251 C 
ATOM     79  H   UNL A   1      30.343  30.488  23.655  1.00  0.00     0.163 HD
ATOM     80  O   UNL A   1      29.978  29.240  21.631  1.00  0.00    -0.269 OA
BRANCH  78  81
ATOM     81  C   UNL A   1      31.072  27.411  22.586  1.00  0.00     0.041 A 
ATOM     82  C   UNL A   1      32.254  27.140  21.891  1.00  0.00     0.014 A 
ATOM     83  C   UNL A   1      30.436  26.396  23.293  1.00  0.00     0.040 A 
ATOM     84  C   UNL A   1      32.824  25.866  21.964  1.00  0.00     0.003 A 
ATOM     85  C   UNL A   1      31.069  25.169  23.461  1.00  0.00     0.041 A 
ATOM     86  C   UNL A   1      32.238  24.882  22.762  1.00  0.00     0.026 A 
BRANCH  85  87
ATOM     87  N   UNL A   1      30.621  24.364  24.514  1.00  0.00    -0.331 N 
ATOM     88  H   UNL A   1      29.903  23.729  24.290  1.00  0.00     0.169 HD
BRANCH  87  89
ATOM     89  C   UNL A   1      31.042  24.341  25.803  1.00  0.00     0.191 C 
ATOM     90  S   UNL A   1      31.130  25.782  26.654  1.00  0.00    -0.039 S 
BRANCH  89  91
ATOM     91  N   UNL A   1      31.240  23.148  26.443  1.00  0.00    -0.254 N 
ATOM     92  H   UNL A   1      30.941  22.336  25.975  1.00  0.00     0.193 HD
BRANCH  91  93
ATOM     93  N   UNL A   1      31.821  22.976  27.686  1.00  0.00    -0.181 NA
ATOM     94  C   UNL A   1      32.958  22.331  27.774  1.00  0.00     0.143 C 
BRANCH  94  95
ATOM     95  C   UNL A   1      33.689  21.852  26.621  1.00  0.00     0.020 A 
ATOM     96  C   UNL A   1      33.470  20.634  26.005  1.00  0.00     0.093 A 
ATOM     97  C   UNL A   1      34.821  22.407  25.965  1.00  0.00     0.008 A 
ATOM     98  N   UNL A   1      34.696  20.227  25.551  1.00  0.00    -0.361 N 
ATOM     99  C   UNL A   1      35.558  21.296  25.549  1.00  0.00     0.046 A 
ATOM    100  C   UNL A   1      35.385  23.683  25.797  1.00  0.00     0.011 A 
ATOM    101  H   UNL A   1      34.922  19.312  25.268  1.00  0.00     0.166 HD
ATOM    102  C   UNL A   1      36.912  21.363  25.226  1.00  0.00     0.027 A 
ATOM    103  C   UNL A   1      36.688  23.782  25.291  1.00  0.00     0.001 A 
ATOM    104  C   UNL A   1      37.462  22.638  25.090  1.00  0.00     0.002 A 
ENDBRANCH  94  95
ENDBRANCH  91  93
ENDBRANCH  89  91
ENDBRANCH  87  89
ENDBRANCH  85  87
ENDBRANCH  78  81
ENDBRANCH  76  77
ENDBRANCH   1  76
TORSDOF 19
ENDMDL
MODEL 3
REMARK VINA RESULT:     -11.5      6.440     12.150
REMARK SMILES O=C(NCCCCNC(=O)c1cccc(NC(=S)N/N=C\c2c[nH]c3ccccc23)c1)c1ccc(-c2c3nc(c(-c4c(F)cc(S(=O)(=O)[O-])cc4F)c4ccc([nH]4)c(-c4c(F)cc(S(=O)(=O)[O-])cc4F)c4nc(c(-c5c(F)cc(S(=O)(=O)[O-])cc5F)c5ccc2[nH]5)C=C4)C=C3)cc1
REMARK SMILES IDX 6 1 5 2 4 3 3 4 1 5 2 6 32 8 33 9 97 10 34 11 96 12 35 13
REMARK SMILES IDX 36 14 37 15 90 16 38 17 95 18 89 19 91 20 39 21 94 22 88 23
REMARK SMILES IDX 87 24 40 26 74 27 53 28 73 29 54 30 57 31 72 32 92 33 55 34
REMARK SMILES IDX 56 35 71 37 93 38 58 39 41 40 42 41 51 42 43 43 44 44 50 45
REMARK SMILES IDX 52 46 45 47 46 48 47 49 48 50 49 51 75 52 76 53 85 54 77 55
REMARK SMILES IDX 78 56 84 57 86 58 79 59 80 60 81 61 82 62 83 63 59 64 60 65
REMARK SMILES IDX 69 66 61 67 62 68 68 69 70 70 63 71 64 72 65 73 66 74 67 75
REMARK SMILES IDX 7 76 8 77 9 78 10 80 11 81 12 82 31 83 13 84 15 85 14 86
REMARK SMILES IDX 16 87 17 89 18 90 19 91 20 93 21 94 22 95 23 96 30 97 24 98
REMARK SMILES IDX 25 99 29 100 26 102 28 103 27 104
REMARK H PARENT 3 7 91 25 57 36 8 79 16 88 19 92 24 101
REMARK Flexibility Score: inf
ROOT
ATOM      1  C   UNL A   1      37.991  23.096  25.848  1.00  0.00     0.023 C 
ENDROOT
BRANCH   1   2
ATOM      2  C   UNL A   1      39.214  22.401  26.426  1.00  0.00     0.023 C 
BRANCH   2   3
ATOM      3  C   UNL A   1      40.293  23.329  26.963  1.00  0.00     0.116 C 
BRANCH   3   4
ATOM      4  N   UNL A   1      41.038  24.018  25.917  1.00  0.00    -0.352 N 
ATOM      5  O   UNL A   1      42.092  25.756  24.932  1.00  0.00    -0.269 OA
ATOM      6  C   UNL A   1      41.582  25.282  25.941  1.00  0.00     0.251 C 
ATOM      7  H   UNL A   1      41.171  23.512  25.084  1.00  0.00     0.163 HD
BRANCH   6   8
ATOM      8  C   UNL A   1      41.505  26.072  27.188  1.00  0.00     0.039 A 
ATOM      9  C   UNL A   1      40.503  25.809  28.124  1.00  0.00     0.014 A 
ATOM     10  C   UNL A   1      42.404  27.121  27.390  1.00  0.00     0.014 A 
ATOM     11  C   UNL A   1      40.295  26.697  29.172  1.00  0.00     0.010 A 
ATOM     12  C   UNL A   1      42.253  27.956  28.501  1.00  0.00     0.010 A 
ATOM     13  C   UNL A   1      41.175  27.772  29.380  1.00  0.00    -0.014 A 
BRANCH  13  14
ATOM     14  C   UNL A   1      40.976  28.648  30.564  1.00  0.00     0.031 A 
ATOM     15  C   UNL A   1      41.870  28.551  31.769  1.00  0.00     0.074 A 
ATOM     16  C   UNL A   1      39.989  29.564  30.520  1.00  0.00     0.049 A 
ATOM     17  N   UNL A   1      41.833  29.249  32.876  1.00  0.00    -0.248 NA
ATOM     18  C   UNL A   1      42.938  27.539  31.736  1.00  0.00     0.031 C 
ATOM     19  C   UNL A   1      39.056  29.742  29.402  1.00  0.00     0.029 A 
ATOM     20  N   UNL A   1      39.618  30.530  31.417  1.00  0.00    -0.354 N 
ATOM     21  C   UNL A   1      42.854  28.752  33.679  1.00  0.00     0.074 A 
ATOM     22  C   UNL A   1      43.481  27.677  32.940  1.00  0.00     0.031 C 
ATOM     23  C   UNL A   1      38.255  30.784  29.659  1.00  0.00     0.029 A 
ATOM     24  C   UNL A   1      38.569  31.305  30.984  1.00  0.00     0.049 A 
ATOM     25  H   UNL A   1      40.058  30.655  32.288  1.00  0.00     0.167 HD
ATOM     26  C   UNL A   1      43.232  29.160  34.914  1.00  0.00     0.037 A 
ATOM     27  C   UNL A   1      37.916  32.314  31.589  1.00  0.00     0.037 A 
ATOM     28  C   UNL A   1      42.610  30.245  35.633  1.00  0.00     0.049 A 
ATOM     29  C   UNL A   1      38.347  32.736  32.963  1.00  0.00     0.074 A 
ATOM     30  C   UNL A   1      42.939  30.754  36.877  1.00  0.00     0.029 A 
ATOM     31  N   UNL A   1      41.532  30.988  35.172  1.00  0.00    -0.354 N 
ATOM     32  N   UNL A   1      39.323  32.262  33.699  1.00  0.00    -0.248 NA
ATOM     33  C   UNL A   1      37.584  33.820  33.592  1.00  0.00     0.031 C 
ATOM     34  C   UNL A   1      42.036  31.779  37.186  1.00  0.00     0.029 A 
ATOM     35  C   UNL A   1      41.171  31.938  36.115  1.00  0.00     0.049 A 
ATOM     36  H   UNL A   1      41.088  30.860  34.302  1.00  0.00     0.167 HD
ATOM     37  C   UNL A   1      39.301  32.999  34.876  1.00  0.00     0.074 A 
ATOM     38  C   UNL A   1      38.226  33.963  34.743  1.00  0.00     0.031 C 
ATOM     39  C   UNL A   1      40.096  32.886  35.968  1.00  0.00     0.037 A 
BRANCH  26  40
ATOM     40  C   UNL A   1      44.361  28.424  35.583  1.00  0.00     0.058 A 
ATOM     41  C   UNL A   1      44.134  27.308  36.403  1.00  0.00     0.135 A 
ATOM     42  C   UNL A   1      45.693  28.808  35.358  1.00  0.00     0.135 A 
ATOM     43  F   UNL A   1      42.880  26.905  36.663  1.00  0.00    -0.206 F 
ATOM     44  C   UNL A   1      45.184  26.613  36.995  1.00  0.00     0.059 A 
ATOM     45  C   UNL A   1      46.761  28.114  35.921  1.00  0.00     0.059 A 
ATOM     46  F   UNL A   1      45.970  29.867  34.580  1.00  0.00    -0.206 F 
ATOM     47  C   UNL A   1      46.496  27.025  36.749  1.00  0.00     0.060 A 
BRANCH  47  48
ATOM     48  S   UNL A   1      47.849  26.112  37.522  1.00  0.00     0.124 S 
ATOM     49  O   UNL A   1      47.578  24.752  37.066  1.00  0.00    -0.237 OA
ATOM     50  O   UNL A   1      49.028  26.750  36.946  1.00  0.00    -0.237 OA
ATOM     51  O   UNL A   1      47.648  26.348  38.949  1.00  0.00    -0.744 OA
ENDBRANCH  47  48
ENDBRANCH  26  40
BRANCH  27  52
ATOM     52  C   UNL A   1      36.786  32.979  30.893  1.00  0.00     0.058 A 
ATOM     53  C   UNL A   1      35.459  32.719  31.260  1.00  0.00     0.135 A 
ATOM     54  C   UNL A   1      37.015  33.923  29.879  1.00  0.00     0.135 A 
ATOM     55  F   UNL A   1      35.191  31.823  32.222  1.00  0.00    -0.206 F 
ATOM     56  C   UNL A   1      34.395  33.365  30.640  1.00  0.00     0.059 A 
ATOM     57  C   UNL A   1      35.969  34.601  29.264  1.00  0.00     0.059 A 
ATOM     58  F   UNL A   1      38.270  34.222  29.510  1.00  0.00    -0.206 F 
ATOM     59  C   UNL A   1      34.661  34.308  29.644  1.00  0.00     0.060 A 
BRANCH  59  60
ATOM     60  S   UNL A   1      33.278  35.188  28.887  1.00  0.00     0.124 S 
ATOM     61  O   UNL A   1      33.966  36.274  28.198  1.00  0.00    -0.237 OA
ATOM     62  O   UNL A   1      32.689  34.161  28.034  1.00  0.00    -0.237 OA
ATOM     63  O   UNL A   1      32.465  35.580  30.034  1.00  0.00    -0.744 OA
ENDBRANCH  59  60
ENDBRANCH  27  52
BRANCH  39  64
ATOM     64  C   UNL A   1      39.842  33.843  37.096  1.00  0.00     0.058 A 
ATOM     65  C   UNL A   1      40.399  35.131  37.105  1.00  0.00     0.135 A 
ATOM     66  C   UNL A   1      39.007  33.479  38.164  1.00  0.00     0.135 A 
ATOM     67  F   UNL A   1      41.213  35.523  36.111  1.00  0.00    -0.206 F 
ATOM     68  C   UNL A   1      40.157  36.019  38.148  1.00  0.00     0.059 A 
ATOM     69  C   UNL A   1      38.732  34.359  39.207  1.00  0.00     0.059 A 
ATOM     70  F   UNL A   1      38.444  32.261  38.198  1.00  0.00    -0.206 F 
ATOM     71  C   UNL A   1      39.322  35.623  39.195  1.00  0.00     0.060 A 
BRANCH  71  72
ATOM     72  S   UNL A   1      38.993  36.791  40.531  1.00  0.00     0.124 S 
ATOM     73  O   UNL A   1      40.324  36.966  41.102  1.00  0.00    -0.237 OA
ATOM     74  O   UNL A   1      38.453  37.943  39.816  1.00  0.00    -0.237 OA
ATOM     75  O   UNL A   1      38.037  36.081  41.374  1.00  0.00    -0.744 OA
ENDBRANCH  71  72
ENDBRANCH  39  64
ENDBRANCH  13  14
ENDBRANCH   6   8
ENDBRANCH   3   4
ENDBRANCH   2   3
ENDBRANCH   1   2
BRANCH   1  76
ATOM     76  C   UNL A   1      36.755  22.221  25.705  1.00  0.00     0.116 C 
BRANCH  76  77
ATOM     77  N   UNL A   1      35.735  22.463  26.715  1.00  0.00    -0.352 N 
ATOM     78  C   UNL A   1      34.363  22.301  26.680  1.00  0.00     0.251 C 
ATOM     79  H   UNL A   1      36.082  22.799  27.572  1.00  0.00     0.163 HD
ATOM     80  O   UNL A   1      33.683  22.636  27.630  1.00  0.00    -0.269 OA
BRANCH  78  81
ATOM     81  C   UNL A   1      33.711  21.758  25.465  1.00  0.00     0.041 A 
ATOM     82  C   UNL A   1      33.344  20.410  25.437  1.00  0.00     0.014 A 
ATOM     83  C   UNL A   1      33.410  22.581  24.385  1.00  0.00     0.040 A 
ATOM     84  C   UNL A   1      32.619  19.912  24.351  1.00  0.00     0.003 A 
ATOM     85  C   UNL A   1      32.588  22.112  23.367  1.00  0.00     0.041 A 
ATOM     86  C   UNL A   1      32.228  20.768  23.320  1.00  0.00     0.026 A 
BRANCH  85  87
ATOM     87  N   UNL A   1      31.964  23.073  22.563  1.00  0.00    -0.331 N 
ATOM     88  H   UNL A   1      31.463  22.722  21.792  1.00  0.00     0.169 HD
BRANCH  87  89
ATOM     89  C   UNL A   1      31.957  24.421  22.702  1.00  0.00     0.191 C 
ATOM     90  S   UNL A   1      33.164  25.320  21.964  1.00  0.00    -0.039 S 
BRANCH  89  91
ATOM     91  N   UNL A   1      30.899  25.048  23.301  1.00  0.00    -0.254 N 
ATOM     92  H   UNL A   1      30.180  25.371  22.711  1.00  0.00     0.193 HD
BRANCH  91  93
ATOM     93  N   UNL A   1      30.743  25.272  24.657  1.00  0.00    -0.181 NA
ATOM     94  C   UNL A   1      30.672  26.505  25.095  1.00  0.00     0.143 C 
BRANCH  94  95
ATOM     95  C   UNL A   1      30.667  27.658  24.221  1.00  0.00     0.020 A 
ATOM     96  C   UNL A   1      31.786  28.407  23.906  1.00  0.00     0.093 A 
ATOM     97  C   UNL A   1      29.575  28.343  23.622  1.00  0.00     0.008 A 
ATOM     98  N   UNL A   1      31.337  29.691  23.755  1.00  0.00    -0.361 N 
ATOM     99  C   UNL A   1      29.971  29.682  23.612  1.00  0.00     0.046 A 
ATOM    100  C   UNL A   1      28.264  28.031  23.224  1.00  0.00     0.011 A 
ATOM    101  H   UNL A   1      31.905  30.495  23.748  1.00  0.00     0.166 HD
ATOM    102  C   UNL A   1      29.070  30.737  23.487  1.00  0.00     0.027 A 
ATOM    103  C   UNL A   1      27.389  29.080  22.909  1.00  0.00     0.001 A 
ATOM    104  C   UNL A   1      27.765  30.407  23.118  1.00  0.00     0.002 A 
ENDBRANCH  94  95
ENDBRANCH  91  93
ENDBRANCH  89  91
ENDBRANCH  87  89
ENDBRANCH  85  87
ENDBRANCH  78  81
ENDBRANCH  76  77
ENDBRANCH   1  76
TORSDOF 19
ENDMDL
