MODEL 1
REMARK VINA RESULT:     -12.5      0.000      0.000
REMARK SMILES Cc1nc2cc(C(=O)NCCCCNC(=O)c3ccc(-c4c5nc(c(-c6c(F)cc(S(=O)(=O)[O-])cc6F)c6ccc([nH]6)c(-c6c(F)cc(S(=O)(=O)[O-])cc6F)c6nc(c(-c7c(F)cc(S(=O)(=O)[O-])cc7F)c7ccc4[nH]7)C=C6)C=C5)cc3)ccc2n1CCC[NH+]1CCOCC1
REMARK SMILES IDX 11 1 10 2 9 3 7 4 8 5 6 7 1 8 2 9 3 10 86 11 4 12 85 13 5 14
REMARK SMILES IDX 84 15 83 16 87 17 88 18 89 19 90 20 91 21 95 22 92 24 94 25
REMARK SMILES IDX 93 26 12 27 13 28 14 29 15 30 16 32 17 33 18 34 82 35 19 36
REMARK SMILES IDX 81 37 20 38 21 39 22 40 75 41 23 42 80 43 74 44 76 45 24 46
REMARK SMILES IDX 79 47 73 48 72 49 25 51 59 52 38 53 58 54 39 55 42 56 57 57
REMARK SMILES IDX 77 58 40 59 41 60 56 62 78 63 43 64 26 65 27 66 36 67 28 68
REMARK SMILES IDX 29 69 35 70 37 71 30 72 31 73 32 74 33 75 34 76 60 77 61 78
REMARK SMILES IDX 70 79 62 80 63 81 69 82 71 83 64 84 65 85 66 86 67 87 68 88
REMARK SMILES IDX 44 89 45 90 54 91 46 92 47 93 53 94 55 95 48 96 49 97 50 98
REMARK SMILES IDX 51 99 52 100
REMARK H PARENT 9 6 90 23 14 31 76 50 42 61
REMARK Flexibility Score: inf
ROOT
ATOM      1  C   UNL A   1      38.646  23.636  26.555  1.00  0.00     0.023 C 
ENDROOT
BRANCH   1   2
ATOM      2  C   UNL A   1      37.266  24.095  26.075  1.00  0.00     0.116 C 
BRANCH   2   3
ATOM      3  N   UNL A   1      36.303  23.027  26.223  1.00  0.00    -0.352 N 
ATOM      4  C   UNL A   1      34.977  22.944  25.897  1.00  0.00     0.251 C 
ATOM      5  O   UNL A   1      34.407  21.876  26.122  1.00  0.00    -0.269 OA
ATOM      6  H   UNL A   1      36.668  22.212  26.636  1.00  0.00     0.163 HD
BRANCH   4   7
ATOM      7  C   UNL A   1      34.230  24.050  25.236  1.00  0.00     0.042 A 
ATOM      8  C   UNL A   1      31.824  29.412  25.427  1.00  0.00     0.088 C 
ATOM      9  C   UNL A   1      32.050  27.968  25.211  1.00  0.00     0.106 A 
ATOM     10  N   UNL A   1      32.371  27.130  26.175  1.00  0.00    -0.233 NA
ATOM     11  N   UNL A   1      32.074  27.332  23.988  1.00  0.00    -0.328 N 
ATOM     12  C   UNL A   1      32.915  26.050  25.542  1.00  0.00     0.090 A 
ATOM     13  C   UNL A   1      32.800  26.173  24.163  1.00  0.00     0.068 A 
ATOM     14  C   UNL A   1      33.583  24.953  26.094  1.00  0.00     0.044 A 
ATOM     15  C   UNL A   1      33.403  25.281  23.280  1.00  0.00     0.029 A 
ATOM     16  C   UNL A   1      34.185  24.270  23.852  1.00  0.00     0.016 A 
BRANCH  11  17
ATOM     17  C   UNL A   1      31.585  27.830  22.713  1.00  0.00     0.130 C 
BRANCH  17  18
ATOM     18  C   UNL A   1      30.155  28.391  22.765  1.00  0.00     0.083 C 
BRANCH  18  19
ATOM     19  C   UNL A   1      29.962  29.715  22.008  1.00  0.00     0.264 C 
BRANCH  19  20
ATOM     20  N   UNL A   1      28.551  29.939  21.661  1.00  0.00    -0.331 N 
ATOM     21  C   UNL A   1      28.335  31.218  20.950  1.00  0.00     0.291 C 
ATOM     22  C   UNL A   1      27.652  29.912  22.837  1.00  0.00     0.291 C 
ATOM     23  H   UNL A   1      28.319  29.160  21.045  1.00  0.00     0.348 HD
ATOM     24  C   UNL A   1      28.404  32.457  21.846  1.00  0.00     0.221 C 
ATOM     25  C   UNL A   1      27.700  31.188  23.699  1.00  0.00     0.221 C 
ATOM     26  O   UNL A   1      27.461  32.366  22.919  1.00  0.00    -0.370 OA
ENDBRANCH  19  20
ENDBRANCH  18  19
ENDBRANCH  17  18
ENDBRANCH  11  17
ENDBRANCH   4   7
ENDBRANCH   2   3
ENDBRANCH   1   2
BRANCH   1  27
ATOM     27  C   UNL A   1      38.955  22.170  26.211  1.00  0.00     0.023 C 
BRANCH  27  28
ATOM     28  C   UNL A   1      40.284  21.685  26.791  1.00  0.00     0.116 C 
BRANCH  28  29
ATOM     29  N   UNL A   1      41.384  21.832  25.856  1.00  0.00    -0.352 N 
ATOM     30  C   UNL A   1      42.309  22.799  25.583  1.00  0.00     0.251 C 
ATOM     31  H   UNL A   1      41.490  21.041  25.277  1.00  0.00     0.163 HD
ATOM     32  O   UNL A   1      43.112  22.535  24.684  1.00  0.00    -0.269 OA
BRANCH  30  33
ATOM     33  C   UNL A   1      42.372  24.127  26.244  1.00  0.00     0.039 A 
ATOM     34  C   UNL A   1      42.678  24.337  27.586  1.00  0.00     0.014 A 
ATOM     35  C   UNL A   1      42.037  25.238  25.447  1.00  0.00     0.014 A 
ATOM     36  C   UNL A   1      42.532  25.590  28.152  1.00  0.00     0.010 A 
ATOM     37  C   UNL A   1      41.923  26.506  26.003  1.00  0.00     0.010 A 
ATOM     38  C   UNL A   1      42.103  26.661  27.374  1.00  0.00    -0.014 A 
BRANCH  38  39
ATOM     39  C   UNL A   1      41.847  27.907  28.084  1.00  0.00     0.031 A 
ATOM     40  C   UNL A   1      42.909  28.951  27.973  1.00  0.00     0.074 A 
ATOM     41  C   UNL A   1      40.721  28.111  28.793  1.00  0.00     0.049 A 
ATOM     42  N   UNL A   1      43.639  29.470  28.910  1.00  0.00    -0.248 NA
ATOM     43  C   UNL A   1      43.282  29.383  26.617  1.00  0.00     0.031 C 
ATOM     44  C   UNL A   1      39.494  27.310  28.824  1.00  0.00     0.029 A 
ATOM     45  N   UNL A   1      40.414  29.171  29.584  1.00  0.00    -0.354 N 
ATOM     46  C   UNL A   1      44.447  30.422  28.289  1.00  0.00     0.074 A 
ATOM     47  C   UNL A   1      44.271  30.241  26.870  1.00  0.00     0.031 C 
ATOM     48  C   UNL A   1      38.504  28.040  29.384  1.00  0.00     0.029 A 
ATOM     49  C   UNL A   1      39.067  29.283  29.880  1.00  0.00     0.049 A 
ATOM     50  H   UNL A   1      41.090  29.804  29.917  1.00  0.00     0.167 HD
ATOM     51  C   UNL A   1      45.093  31.408  28.973  1.00  0.00     0.037 A 
ATOM     52  C   UNL A   1      38.457  30.372  30.406  1.00  0.00     0.037 A 
ATOM     53  C   UNL A   1      45.203  31.116  30.375  1.00  0.00     0.049 A 
ATOM     54  C   UNL A   1      39.503  31.179  31.088  1.00  0.00     0.074 A 
ATOM     55  C   UNL A   1      45.850  30.148  31.119  1.00  0.00     0.029 A 
ATOM     56  N   UNL A   1      44.313  31.704  31.239  1.00  0.00    -0.354 N 
ATOM     57  N   UNL A   1      40.147  30.786  32.154  1.00  0.00    -0.248 NA
ATOM     58  C   UNL A   1      40.151  32.238  30.329  1.00  0.00     0.031 C 
ATOM     59  C   UNL A   1      44.976  29.875  32.213  1.00  0.00     0.029 A 
ATOM     60  C   UNL A   1      43.871  30.715  32.084  1.00  0.00     0.049 A 
ATOM     61  H   UNL A   1      44.042  32.651  31.251  1.00  0.00     0.167 HD
ATOM     62  C   UNL A   1      41.446  31.243  31.981  1.00  0.00     0.074 A 
ATOM     63  C   UNL A   1      41.365  32.203  30.883  1.00  0.00     0.031 C 
ATOM     64  C   UNL A   1      42.510  30.609  32.561  1.00  0.00     0.037 A 
BRANCH  51  65
ATOM     65  C   UNL A   1      45.375  32.776  28.404  1.00  0.00     0.058 A 
ATOM     66  C   UNL A   1      46.698  33.243  28.290  1.00  0.00     0.135 A 
ATOM     67  C   UNL A   1      44.365  33.747  28.220  1.00  0.00     0.135 A 
ATOM     68  F   UNL A   1      47.735  32.408  28.461  1.00  0.00    -0.206 F 
ATOM     69  C   UNL A   1      46.997  34.590  28.067  1.00  0.00     0.059 A 
ATOM     70  C   UNL A   1      44.637  35.082  27.945  1.00  0.00     0.059 A 
ATOM     71  F   UNL A   1      43.069  33.459  28.395  1.00  0.00    -0.206 F 
ATOM     72  C   UNL A   1      45.957  35.504  27.915  1.00  0.00     0.060 A 
BRANCH  72  73
ATOM     73  S   UNL A   1      46.335  37.260  27.766  1.00  0.00     0.124 S 
ATOM     74  O   UNL A   1      47.186  37.474  28.931  1.00  0.00    -0.237 OA
ATOM     75  O   UNL A   1      46.999  37.319  26.468  1.00  0.00    -0.237 OA
ATOM     76  O   UNL A   1      45.020  37.893  27.820  1.00  0.00    -0.744 OA
ENDBRANCH  72  73
ENDBRANCH  51  65
BRANCH  52  77
ATOM     77  C   UNL A   1      37.161  30.942  29.955  1.00  0.00     0.058 A 
ATOM     78  C   UNL A   1      36.280  31.541  30.871  1.00  0.00     0.135 A 
ATOM     79  C   UNL A   1      36.889  31.163  28.589  1.00  0.00     0.135 A 
ATOM     80  F   UNL A   1      36.482  31.402  32.189  1.00  0.00    -0.206 F 
ATOM     81  C   UNL A   1      35.218  32.349  30.455  1.00  0.00     0.059 A 
ATOM     82  C   UNL A   1      35.830  31.953  28.151  1.00  0.00     0.059 A 
ATOM     83  F   UNL A   1      37.703  30.692  27.632  1.00  0.00    -0.206 F 
ATOM     84  C   UNL A   1      35.015  32.567  29.092  1.00  0.00     0.060 A 
BRANCH  84  85
ATOM     85  S   UNL A   1      33.757  33.750  28.558  1.00  0.00     0.124 S 
ATOM     86  O   UNL A   1      32.873  32.909  27.760  1.00  0.00    -0.237 OA
ATOM     87  O   UNL A   1      33.218  34.216  29.831  1.00  0.00    -0.237 OA
ATOM     88  O   UNL A   1      34.521  34.743  27.807  1.00  0.00    -0.744 OA
ENDBRANCH  84  85
ENDBRANCH  52  77
BRANCH  64  89
ATOM     89  C   UNL A   1      42.220  29.541  33.585  1.00  0.00     0.058 A 
ATOM     90  C   UNL A   1      41.921  28.205  33.259  1.00  0.00     0.135 A 
ATOM     91  C   UNL A   1      42.377  29.843  34.945  1.00  0.00     0.135 A 
ATOM     92  F   UNL A   1      41.875  27.804  31.982  1.00  0.00    -0.206 F 
ATOM     93  C   UNL A   1      41.722  27.232  34.239  1.00  0.00     0.059 A 
ATOM     94  C   UNL A   1      42.215  28.880  35.941  1.00  0.00     0.059 A 
ATOM     95  F   UNL A   1      42.736  31.082  35.322  1.00  0.00    -0.206 F 
ATOM     96  C   UNL A   1      41.868  27.579  35.580  1.00  0.00     0.060 A 
BRANCH  96  97
ATOM     97  S   UNL A   1      41.661  26.307  36.845  1.00  0.00     0.124 S 
ATOM     98  O   UNL A   1      42.870  26.476  37.651  1.00  0.00    -0.237 OA
ATOM     99  O   UNL A   1      40.412  26.709  37.494  1.00  0.00    -0.237 OA
ATOM    100  O   UNL A   1      41.588  25.071  36.084  1.00  0.00    -0.744 OA
ENDBRANCH  96  97
ENDBRANCH  64  89
ENDBRANCH  38  39
ENDBRANCH  30  33
ENDBRANCH  28  29
ENDBRANCH  27  28
ENDBRANCH   1  27
TORSDOF 18
ENDMDL
MODEL 2
REMARK VINA RESULT:     -12.5      3.124      9.866
REMARK SMILES Cc1nc2cc(C(=O)NCCCCNC(=O)c3ccc(-c4c5nc(c(-c6c(F)cc(S(=O)(=O)[O-])cc6F)c6ccc([nH]6)c(-c6c(F)cc(S(=O)(=O)[O-])cc6F)c6nc(c(-c7c(F)cc(S(=O)(=O)[O-])cc7F)c7ccc4[nH]7)C=C6)C=C5)cc3)ccc2n1CCC[NH+]1CCOCC1
REMARK SMILES IDX 11 1 10 2 9 3 7 4 8 5 6 7 1 8 2 9 3 10 86 11 4 12 85 13 5 14
REMARK SMILES IDX 84 15 83 16 87 17 88 18 89 19 90 20 91 21 95 22 92 24 94 25
REMARK SMILES IDX 93 26 12 27 13 28 14 29 15 30 16 32 17 33 18 34 82 35 19 36
REMARK SMILES IDX 81 37 20 38 21 39 22 40 75 41 23 42 80 43 74 44 76 45 24 46
REMARK SMILES IDX 79 47 73 48 72 49 25 51 59 52 38 53 58 54 39 55 42 56 57 57
REMARK SMILES IDX 77 58 40 59 41 60 56 62 78 63 43 64 26 65 27 66 36 67 28 68
REMARK SMILES IDX 29 69 35 70 37 71 30 72 31 73 32 74 33 75 34 76 60 77 61 78
REMARK SMILES IDX 70 79 62 80 63 81 69 82 71 83 64 84 65 85 66 86 67 87 68 88
REMARK SMILES IDX 44 89 45 90 54 91 46 92 47 93 53 94 55 95 48 96 49 97 50 98
REMARK SMILES IDX 51 99 52 100
REMARK H PARENT 9 6 90 23 14 31 76 50 42 61
REMARK Flexibility Score: inf
ROOT
ATOM      1  C   UNL A   1      31.964  29.823  25.637  1.00  0.00     0.023 C 
ENDROOT
BRANCH   1   2
ATOM      2  C   UNL A   1      32.692  29.407  24.356  1.00  0.00     0.116 C 
BRANCH   2   3
ATOM      3  N   UNL A   1      31.738  29.051  23.330  1.00  0.00    -0.352 N 
ATOM      4  C   UNL A   1      31.318  27.838  22.857  1.00  0.00     0.251 C 
ATOM      5  O   UNL A   1      30.458  27.842  21.976  1.00  0.00    -0.269 OA
ATOM      6  H   UNL A   1      31.313  29.823  22.891  1.00  0.00     0.163 HD
BRANCH   4   7
ATOM      7  C   UNL A   1      31.807  26.539  23.398  1.00  0.00     0.042 A 
ATOM      8  C   UNL A   1      36.001  22.439  23.820  1.00  0.00     0.088 C 
ATOM      9  C   UNL A   1      34.706  23.127  23.641  1.00  0.00     0.106 A 
ATOM     10  N   UNL A   1      34.497  24.060  22.735  1.00  0.00    -0.233 NA
ATOM     11  N   UNL A   1      33.599  22.981  24.451  1.00  0.00    -0.328 N 
ATOM     12  C   UNL A   1      33.391  24.733  23.165  1.00  0.00     0.090 A 
ATOM     13  C   UNL A   1      32.837  24.117  24.281  1.00  0.00     0.068 A 
ATOM     14  C   UNL A   1      32.842  25.924  22.679  1.00  0.00     0.044 A 
ATOM     15  C   UNL A   1      31.789  24.683  25.004  1.00  0.00     0.029 A 
ATOM     16  C   UNL A   1      31.349  25.943  24.582  1.00  0.00     0.016 A 
BRANCH  11  17
ATOM     17  C   UNL A   1      33.336  21.934  25.423  1.00  0.00     0.130 C 
BRANCH  17  18
ATOM     18  C   UNL A   1      32.520  20.755  24.870  1.00  0.00     0.083 C 
BRANCH  18  19
ATOM     19  C   UNL A   1      33.342  19.488  24.585  1.00  0.00     0.264 C 
BRANCH  19  20
ATOM     20  N   UNL A   1      32.479  18.350  24.234  1.00  0.00    -0.331 N 
ATOM     21  C   UNL A   1      32.471  17.299  25.274  1.00  0.00     0.291 C 
ATOM     22  C   UNL A   1      32.846  17.718  22.947  1.00  0.00     0.291 C 
ATOM     23  H   UNL A   1      31.548  18.760  24.153  1.00  0.00     0.348 HD
ATOM     24  C   UNL A   1      33.738  16.440  25.312  1.00  0.00     0.221 C 
ATOM     25  C   UNL A   1      34.094  16.819  23.016  1.00  0.00     0.221 C 
ATOM     26  O   UNL A   1      33.978  15.825  24.043  1.00  0.00    -0.370 OA
ENDBRANCH  19  20
ENDBRANCH  18  19
ENDBRANCH  17  18
ENDBRANCH  11  17
ENDBRANCH   4   7
ENDBRANCH   2   3
ENDBRANCH   1   2
BRANCH   1  27
ATOM     27  C   UNL A   1      32.691  29.391  26.920  1.00  0.00     0.023 C 
BRANCH  27  28
ATOM     28  C   UNL A   1      34.068  30.038  27.075  1.00  0.00     0.116 C 
BRANCH  28  29
ATOM     29  N   UNL A   1      34.041  31.197  27.950  1.00  0.00    -0.352 N 
ATOM     30  C   UNL A   1      34.890  31.744  28.869  1.00  0.00     0.251 C 
ATOM     31  H   UNL A   1      33.208  31.715  27.857  1.00  0.00     0.163 HD
ATOM     32  O   UNL A   1      34.494  32.775  29.419  1.00  0.00    -0.269 OA
BRANCH  30  33
ATOM     33  C   UNL A   1      36.196  31.163  29.272  1.00  0.00     0.039 A 
ATOM     34  C   UNL A   1      37.366  31.891  29.473  1.00  0.00     0.014 A 
ATOM     35  C   UNL A   1      36.244  29.762  29.399  1.00  0.00     0.014 A 
ATOM     36  C   UNL A   1      38.573  31.244  29.667  1.00  0.00     0.010 A 
ATOM     37  C   UNL A   1      37.449  29.108  29.629  1.00  0.00     0.010 A 
ATOM     38  C   UNL A   1      38.622  29.853  29.690  1.00  0.00    -0.014 A 
BRANCH  38  39
ATOM     39  C   UNL A   1      39.951  29.261  29.762  1.00  0.00     0.031 A 
ATOM     40  C   UNL A   1      40.502  29.060  31.136  1.00  0.00     0.074 A 
ATOM     41  C   UNL A   1      40.639  28.909  28.660  1.00  0.00     0.049 A 
ATOM     42  N   UNL A   1      41.556  29.591  31.672  1.00  0.00    -0.248 NA
ATOM     43  C   UNL A   1      39.700  28.252  32.066  1.00  0.00     0.031 C 
ATOM     44  C   UNL A   1      40.175  28.817  27.273  1.00  0.00     0.029 A 
ATOM     45  N   UNL A   1      41.917  28.456  28.585  1.00  0.00    -0.354 N 
ATOM     46  C   UNL A   1      41.651  29.049  32.954  1.00  0.00     0.074 A 
ATOM     47  C   UNL A   1      40.424  28.329  33.183  1.00  0.00     0.031 C 
ATOM     48  C   UNL A   1      41.071  28.106  26.554  1.00  0.00     0.029 A 
ATOM     49  C   UNL A   1      42.226  27.831  27.390  1.00  0.00     0.049 A 
ATOM     50  H   UNL A   1      42.567  28.563  29.317  1.00  0.00     0.167 HD
ATOM     51  C   UNL A   1      42.795  29.089  33.694  1.00  0.00     0.037 A 
ATOM     52  C   UNL A   1      43.314  27.060  27.154  1.00  0.00     0.037 A 
ATOM     53  C   UNL A   1      43.717  30.081  33.218  1.00  0.00     0.049 A 
ATOM     54  C   UNL A   1      44.344  27.429  28.161  1.00  0.00     0.074 A 
ATOM     55  C   UNL A   1      43.703  31.460  33.130  1.00  0.00     0.029 A 
ATOM     56  N   UNL A   1      44.765  29.677  32.427  1.00  0.00    -0.354 N 
ATOM     57  N   UNL A   1      44.937  28.591  28.205  1.00  0.00    -0.248 NA
ATOM     58  C   UNL A   1      44.397  26.659  29.396  1.00  0.00     0.031 C 
ATOM     59  C   UNL A   1      44.399  31.762  31.922  1.00  0.00     0.029 A 
ATOM     60  C   UNL A   1      44.821  30.553  31.370  1.00  0.00     0.049 A 
ATOM     61  H   UNL A   1      45.359  28.909  32.586  1.00  0.00     0.167 HD
ATOM     62  C   UNL A   1      45.078  28.875  29.557  1.00  0.00     0.074 A 
ATOM     63  C   UNL A   1      44.806  27.611  30.237  1.00  0.00     0.031 C 
ATOM     64  C   UNL A   1      45.137  30.162  30.014  1.00  0.00     0.037 A 
BRANCH  51  65
ATOM     65  C   UNL A   1      43.189  28.022  34.684  1.00  0.00     0.058 A 
ATOM     66  C   UNL A   1      43.400  28.347  36.038  1.00  0.00     0.135 A 
ATOM     67  C   UNL A   1      43.630  26.739  34.286  1.00  0.00     0.135 A 
ATOM     68  F   UNL A   1      43.033  29.544  36.519  1.00  0.00    -0.206 F 
ATOM     69  C   UNL A   1      44.055  27.482  36.919  1.00  0.00     0.059 A 
ATOM     70  C   UNL A   1      44.237  25.842  35.156  1.00  0.00     0.059 A 
ATOM     71  F   UNL A   1      43.578  26.340  33.009  1.00  0.00    -0.206 F 
ATOM     72  C   UNL A   1      44.486  26.238  36.461  1.00  0.00     0.060 A 
BRANCH  72  73
ATOM     73  S   UNL A   1      45.452  25.177  37.553  1.00  0.00     0.124 S 
ATOM     74  O   UNL A   1      44.961  25.586  38.864  1.00  0.00    -0.237 OA
ATOM     75  O   UNL A   1      45.057  23.845  37.108  1.00  0.00    -0.237 OA
ATOM     76  O   UNL A   1      46.831  25.551  37.250  1.00  0.00    -0.744 OA
ENDBRANCH  72  73
ENDBRANCH  51  65
BRANCH  52  77
ATOM     77  C   UNL A   1      43.318  25.762  26.431  1.00  0.00     0.058 A 
ATOM     78  C   UNL A   1      44.171  25.549  25.337  1.00  0.00     0.135 A 
ATOM     79  C   UNL A   1      42.693  24.618  26.970  1.00  0.00     0.135 A 
ATOM     80  F   UNL A   1      44.825  26.580  24.782  1.00  0.00    -0.206 F 
ATOM     81  C   UNL A   1      44.427  24.269  24.835  1.00  0.00     0.059 A 
ATOM     82  C   UNL A   1      42.921  23.336  26.479  1.00  0.00     0.059 A 
ATOM     83  F   UNL A   1      41.909  24.699  28.056  1.00  0.00    -0.206 F 
ATOM     84  C   UNL A   1      43.813  23.166  25.429  1.00  0.00     0.060 A 
BRANCH  84  85
ATOM     85  S   UNL A   1      44.275  21.500  24.900  1.00  0.00     0.124 S 
ATOM     86  O   UNL A   1      43.110  20.722  25.306  1.00  0.00    -0.237 OA
ATOM     87  O   UNL A   1      44.457  21.676  23.464  1.00  0.00    -0.237 OA
ATOM     88  O   UNL A   1      45.497  21.232  25.653  1.00  0.00    -0.744 OA
ENDBRANCH  84  85
ENDBRANCH  52  77
BRANCH  64  89
ATOM     89  C   UNL A   1      45.286  31.265  28.996  1.00  0.00     0.058 A 
ATOM     90  C   UNL A   1      46.526  31.709  28.501  1.00  0.00     0.135 A 
ATOM     91  C   UNL A   1      44.136  31.802  28.403  1.00  0.00     0.135 A 
ATOM     92  F   UNL A   1      47.672  31.159  28.924  1.00  0.00    -0.206 F 
ATOM     93  C   UNL A   1      46.619  32.688  27.511  1.00  0.00     0.059 A 
ATOM     94  C   UNL A   1      44.203  32.758  27.390  1.00  0.00     0.059 A 
ATOM     95  F   UNL A   1      42.920  31.367  28.776  1.00  0.00    -0.206 F 
ATOM     96  C   UNL A   1      45.450  33.211  26.962  1.00  0.00     0.060 A 
BRANCH  96  97
ATOM     97  S   UNL A   1      45.571  34.440  25.645  1.00  0.00     0.124 S 
ATOM     98  O   UNL A   1      45.077  35.648  26.306  1.00  0.00    -0.237 OA
ATOM     99  O   UNL A   1      47.003  34.434  25.339  1.00  0.00    -0.237 OA
ATOM    100  O   UNL A   1      44.717  33.910  24.596  1.00  0.00    -0.744 OA
ENDBRANCH  96  97
ENDBRANCH  64  89
ENDBRANCH  38  39
ENDBRANCH  30  33
ENDBRANCH  28  29
ENDBRANCH  27  28
ENDBRANCH   1  27
TORSDOF 18
ENDMDL
MODEL 3
REMARK VINA RESULT:     -12.4      3.509      5.206
REMARK SMILES Cc1nc2cc(C(=O)NCCCCNC(=O)c3ccc(-c4c5nc(c(-c6c(F)cc(S(=O)(=O)[O-])cc6F)c6ccc([nH]6)c(-c6c(F)cc(S(=O)(=O)[O-])cc6F)c6nc(c(-c7c(F)cc(S(=O)(=O)[O-])cc7F)c7ccc4[nH]7)C=C6)C=C5)cc3)ccc2n1CCC[NH+]1CCOCC1
REMARK SMILES IDX 11 1 10 2 9 3 7 4 8 5 6 7 1 8 2 9 3 10 86 11 4 12 85 13 5 14
REMARK SMILES IDX 84 15 83 16 87 17 88 18 89 19 90 20 91 21 95 22 92 24 94 25
REMARK SMILES IDX 93 26 12 27 13 28 14 29 15 30 16 32 17 33 18 34 82 35 19 36
REMARK SMILES IDX 81 37 20 38 21 39 22 40 75 41 23 42 80 43 74 44 76 45 24 46
REMARK SMILES IDX 79 47 73 48 72 49 25 51 59 52 38 53 58 54 39 55 42 56 57 57
REMARK SMILES IDX 77 58 40 59 41 60 56 62 78 63 43 64 26 65 27 66 36 67 28 68
REMARK SMILES IDX 29 69 35 70 37 71 30 72 31 73 32 74 33 75 34 76 60 77 61 78
REMARK SMILES IDX 70 79 62 80 63 81 69 82 71 83 64 84 65 85 66 86 67 87 68 88
REMARK SMILES IDX 44 89 45 90 54 91 46 92 47 93 53 94 55 95 48 96 49 97 50 98
REMARK SMILES IDX 51 99 52 100
REMARK H PARENT 9 6 90 23 14 31 76 50 42 61
REMARK Flexibility Score: inf
ROOT
ATOM      1  C   UNL A   1      40.673  21.047  26.710  1.00  0.00     0.023 C 
ENDROOT
BRANCH   1   2
ATOM      2  C   UNL A   1      39.344  21.547  26.136  1.00  0.00     0.116 C 
BRANCH   2   3
ATOM      3  N   UNL A   1      39.154  22.944  26.455  1.00  0.00    -0.352 N 
ATOM      4  C   UNL A   1      38.120  23.804  26.205  1.00  0.00     0.251 C 
ATOM      5  O   UNL A   1      38.229  24.955  26.627  1.00  0.00    -0.269 OA
ATOM      6  H   UNL A   1      39.908  23.352  26.940  1.00  0.00     0.163 HD
BRANCH   4   7
ATOM      7  C   UNL A   1      36.867  23.392  25.512  1.00  0.00     0.042 A 
ATOM      8  C   UNL A   1      30.995  23.252  25.236  1.00  0.00     0.088 C 
ATOM      9  C   UNL A   1      32.423  22.873  25.224  1.00  0.00     0.106 A 
ATOM     10  N   UNL A   1      33.236  23.068  26.242  1.00  0.00    -0.233 NA
ATOM     11  N   UNL A   1      33.116  22.384  24.137  1.00  0.00    -0.328 N 
ATOM     12  C   UNL A   1      34.492  23.016  25.710  1.00  0.00     0.090 A 
ATOM     13  C   UNL A   1      34.449  22.650  24.370  1.00  0.00     0.068 A 
ATOM     14  C   UNL A   1      35.714  23.336  26.309  1.00  0.00     0.044 A 
ATOM     15  C   UNL A   1      35.578  22.665  23.554  1.00  0.00     0.029 A 
ATOM     16  C   UNL A   1      36.764  23.123  24.140  1.00  0.00     0.016 A 
BRANCH  11  17
ATOM     17  C   UNL A   1      32.574  21.843  22.902  1.00  0.00     0.130 C 
BRANCH  17  18
ATOM     18  C   UNL A   1      31.924  20.458  23.056  1.00  0.00     0.083 C 
BRANCH  18  19
ATOM     19  C   UNL A   1      32.756  19.450  23.865  1.00  0.00     0.264 C 
BRANCH  19  20
ATOM     20  N   UNL A   1      32.243  18.081  23.714  1.00  0.00    -0.331 N 
ATOM     21  C   UNL A   1      32.299  17.308  24.974  1.00  0.00     0.291 C 
ATOM     22  C   UNL A   1      32.953  17.306  22.670  1.00  0.00     0.291 C 
ATOM     23  H   UNL A   1      31.271  18.208  23.433  1.00  0.00     0.348 HD
ATOM     24  C   UNL A   1      33.703  16.835  25.361  1.00  0.00     0.221 C 
ATOM     25  C   UNL A   1      34.342  16.797  23.096  1.00  0.00     0.221 C 
ATOM     26  O   UNL A   1      34.284  16.048  24.316  1.00  0.00    -0.370 OA
ENDBRANCH  19  20
ENDBRANCH  18  19
ENDBRANCH  17  18
ENDBRANCH  11  17
ENDBRANCH   4   7
ENDBRANCH   2   3
ENDBRANCH   1   2
BRANCH   1  27
ATOM     27  C   UNL A   1      41.142  19.720  26.094  1.00  0.00     0.023 C 
BRANCH  27  28
ATOM     28  C   UNL A   1      42.594  19.381  26.434  1.00  0.00     0.116 C 
BRANCH  28  29
ATOM     29  N   UNL A   1      43.484  19.553  25.300  1.00  0.00    -0.352 N 
ATOM     30  C   UNL A   1      44.213  20.584  24.781  1.00  0.00     0.251 C 
ATOM     31  H   UNL A   1      43.589  18.723  24.779  1.00  0.00     0.163 HD
ATOM     32  O   UNL A   1      44.873  20.321  23.773  1.00  0.00    -0.269 OA
BRANCH  30  33
ATOM     33  C   UNL A   1      44.217  21.972  25.308  1.00  0.00     0.039 A 
ATOM     34  C   UNL A   1      44.995  22.421  26.372  1.00  0.00     0.014 A 
ATOM     35  C   UNL A   1      43.316  22.872  24.707  1.00  0.00     0.014 A 
ATOM     36  C   UNL A   1      44.796  23.680  26.908  1.00  0.00     0.010 A 
ATOM     37  C   UNL A   1      43.137  24.151  25.220  1.00  0.00     0.010 A 
ATOM     38  C   UNL A   1      43.830  24.522  26.367  1.00  0.00    -0.014 A 
BRANCH  38  39
ATOM     39  C   UNL A   1      43.598  25.771  27.081  1.00  0.00     0.031 A 
ATOM     40  C   UNL A   1      44.625  26.837  26.882  1.00  0.00     0.074 A 
ATOM     41  C   UNL A   1      42.521  25.958  27.866  1.00  0.00     0.049 A 
ATOM     42  N   UNL A   1      45.408  27.383  27.759  1.00  0.00    -0.248 NA
ATOM     43  C   UNL A   1      44.890  27.261  25.498  1.00  0.00     0.031 C 
ATOM     44  C   UNL A   1      41.318  25.132  27.993  1.00  0.00     0.029 A 
ATOM     45  N   UNL A   1      42.247  27.021  28.666  1.00  0.00    -0.354 N 
ATOM     46  C   UNL A   1      46.148  28.345  27.071  1.00  0.00     0.074 A 
ATOM     47  C   UNL A   1      45.874  28.143  25.671  1.00  0.00     0.031 C 
ATOM     48  C   UNL A   1      40.354  25.847  28.615  1.00  0.00     0.029 A 
ATOM     49  C   UNL A   1      40.922  27.107  29.057  1.00  0.00     0.049 A 
ATOM     50  H   UNL A   1      42.931  27.673  28.943  1.00  0.00     0.167 HD
ATOM     51  C   UNL A   1      46.818  29.353  27.697  1.00  0.00     0.037 A 
ATOM     52  C   UNL A   1      40.327  28.189  29.613  1.00  0.00     0.037 A 
ATOM     53  C   UNL A   1      47.034  29.081  29.090  1.00  0.00     0.049 A 
ATOM     54  C   UNL A   1      41.400  29.027  30.210  1.00  0.00     0.074 A 
ATOM     55  C   UNL A   1      47.755  28.137  29.796  1.00  0.00     0.029 A 
ATOM     56  N   UNL A   1      46.195  29.660  30.010  1.00  0.00    -0.354 N 
ATOM     57  N   UNL A   1      42.127  28.661  31.231  1.00  0.00    -0.248 NA
ATOM     58  C   UNL A   1      41.968  30.091  29.395  1.00  0.00     0.031 C 
ATOM     59  C   UNL A   1      46.968  27.857  30.953  1.00  0.00     0.029 A 
ATOM     60  C   UNL A   1      45.837  28.672  30.895  1.00  0.00     0.049 A 
ATOM     61  H   UNL A   1      45.905  30.600  30.031  1.00  0.00     0.167 HD
ATOM     62  C   UNL A   1      43.400  29.145  30.961  1.00  0.00     0.074 A 
ATOM     63  C   UNL A   1      43.219  30.089  29.861  1.00  0.00     0.031 C 
ATOM     64  C   UNL A   1      44.517  28.542  31.469  1.00  0.00     0.037 A 
BRANCH  51  65
ATOM     65  C   UNL A   1      47.027  30.720  27.095  1.00  0.00     0.058 A 
ATOM     66  C   UNL A   1      48.311  31.299  27.066  1.00  0.00     0.135 A 
ATOM     67  C   UNL A   1      45.956  31.590  26.791  1.00  0.00     0.135 A 
ATOM     68  F   UNL A   1      49.398  30.566  27.352  1.00  0.00    -0.206 F 
ATOM     69  C   UNL A   1      48.510  32.658  26.810  1.00  0.00     0.059 A 
ATOM     70  C   UNL A   1      46.134  32.933  26.483  1.00  0.00     0.059 A 
ATOM     71  F   UNL A   1      44.679  31.195  26.876  1.00  0.00    -0.206 F 
ATOM     72  C   UNL A   1      47.411  33.470  26.538  1.00  0.00     0.060 A 
BRANCH  72  73
ATOM     73  S   UNL A   1      47.647  35.247  26.346  1.00  0.00     0.124 S 
ATOM     74  O   UNL A   1      48.259  35.598  27.622  1.00  0.00    -0.237 OA
ATOM     75  O   UNL A   1      48.520  35.312  25.178  1.00  0.00    -0.237 OA
ATOM     76  O   UNL A   1      46.292  35.746  26.137  1.00  0.00    -0.744 OA
ENDBRANCH  72  73
ENDBRANCH  51  65
BRANCH  52  77
ATOM     77  C   UNL A   1      38.989  28.725  29.251  1.00  0.00     0.058 A 
ATOM     78  C   UNL A   1      38.007  28.936  30.232  1.00  0.00     0.135 A 
ATOM     79  C   UNL A   1      38.745  29.302  27.987  1.00  0.00     0.135 A 
ATOM     80  F   UNL A   1      38.174  28.443  31.468  1.00  0.00    -0.206 F 
ATOM     81  C   UNL A   1      36.871  29.713  29.988  1.00  0.00     0.059 A 
ATOM     82  C   UNL A   1      37.615  30.069  27.716  1.00  0.00     0.059 A 
ATOM     83  F   UNL A   1      39.647  29.219  26.997  1.00  0.00    -0.206 F 
ATOM     84  C   UNL A   1      36.696  30.294  28.732  1.00  0.00     0.060 A 
BRANCH  84  85
ATOM     85  S   UNL A   1      35.324  31.441  28.466  1.00  0.00     0.124 S 
ATOM     86  O   UNL A   1      34.432  30.653  27.624  1.00  0.00    -0.237 OA
ATOM     87  O   UNL A   1      34.865  31.686  29.829  1.00  0.00    -0.237 OA
ATOM     88  O   UNL A   1      35.957  32.582  27.809  1.00  0.00    -0.744 OA
ENDBRANCH  84  85
ENDBRANCH  52  77
BRANCH  64  89
ATOM     89  C   UNL A   1      44.325  27.480  32.523  1.00  0.00     0.058 A 
ATOM     90  C   UNL A   1      44.091  27.761  33.882  1.00  0.00     0.135 A 
ATOM     91  C   UNL A   1      44.246  26.137  32.129  1.00  0.00     0.135 A 
ATOM     92  F   UNL A   1      44.027  29.025  34.321  1.00  0.00    -0.206 F 
ATOM     93  C   UNL A   1      43.854  26.751  34.815  1.00  0.00     0.059 A 
ATOM     94  C   UNL A   1      43.978  25.114  33.038  1.00  0.00     0.059 A 
ATOM     95  F   UNL A   1      44.385  25.807  30.834  1.00  0.00    -0.206 F 
ATOM     96  C   UNL A   1      43.803  25.427  34.385  1.00  0.00     0.060 A 
BRANCH  96  97
ATOM     97  S   UNL A   1      43.446  24.126  35.585  1.00  0.00     0.124 S 
ATOM     98  O   UNL A   1      44.380  24.441  36.666  1.00  0.00    -0.237 OA
ATOM     99  O   UNL A   1      42.032  24.358  35.890  1.00  0.00    -0.237 OA
ATOM    100  O   UNL A   1      43.724  22.899  34.858  1.00  0.00    -0.744 OA
ENDBRANCH  96  97
ENDBRANCH  64  89
ENDBRANCH  38  39
ENDBRANCH  30  33
ENDBRANCH  28  29
ENDBRANCH  27  28
ENDBRANCH   1  27
TORSDOF 18
ENDMDL
