MODEL 1
REMARK VINA RESULT:     -12.4      0.000      0.000
REMARK SMILES Cc1cc(C[N@H+]2CC[C@](C)(C(=O)NCCCCNC(=O)c3ccc(-c4c5nc(c(-c6c(F)cc(S(=O)(=O)[O-])cc6F)c6ccc([nH]6)c(-c6c(F)cc(S(=O)(=O)[O-])cc6F)c6nc(c(-c7c(F)cc(S(=O)(=O)[O-])cc7F)c7ccc4[nH]7)C=C6)C=C5)cc3)C2)c2ccccc2n1
REMARK SMILES IDX 16 1 15 2 14 3 13 4 11 5 12 6 9 8 6 9 7 10 87 11 8 13 10 14
REMARK SMILES IDX 5 15 4 16 1 17 2 18 3 19 94 20 93 21 88 22 92 23 89 24 91 25
REMARK SMILES IDX 90 26 17 27 18 28 19 29 20 31 21 32 22 33 86 34 23 35 85 36
REMARK SMILES IDX 24 37 25 38 26 39 79 40 27 41 84 42 78 43 80 44 28 45 83 46
REMARK SMILES IDX 77 47 76 48 29 50 63 51 42 52 62 53 43 54 46 55 61 56 81 57
REMARK SMILES IDX 44 58 45 59 60 61 82 62 47 63 30 64 31 65 40 66 32 67 33 68
REMARK SMILES IDX 39 69 41 70 34 71 35 72 36 73 37 74 38 75 64 76 65 77 74 78
REMARK SMILES IDX 66 79 67 80 73 81 75 82 68 83 69 84 70 85 71 86 72 87 48 88
REMARK SMILES IDX 49 89 58 90 50 91 51 92 57 93 59 94 52 95 53 96 54 97 55 98
REMARK SMILES IDX 56 99
REMARK H PARENT 13 7 6 12 18 30 80 49 46 60
REMARK Flexibility Score: inf
ROOT
ATOM      1  C   UNL A   1      32.540  28.226  26.282  1.00  0.00     0.023 C 
ENDROOT
BRANCH   1   2
ATOM      2  C   UNL A   1      31.878  29.396  25.560  1.00  0.00     0.023 C 
BRANCH   2   3
ATOM      3  C   UNL A   1      31.537  29.143  24.093  1.00  0.00     0.116 C 
BRANCH   3   4
ATOM      4  N   UNL A   1      32.706  29.061  23.230  1.00  0.00    -0.355 N 
ATOM      5  C   UNL A   1      33.206  28.030  22.475  1.00  0.00     0.231 C 
ATOM      6  O   UNL A   1      34.170  28.275  21.747  1.00  0.00    -0.274 OA
ATOM      7  H   UNL A   1      33.231  29.892  23.178  1.00  0.00     0.163 HD
BRANCH   5   8
ATOM      8  C   UNL A   1      32.573  26.638  22.526  1.00  0.00     0.100 C 
ATOM      9  N   UNL A   1      33.217  24.479  23.412  1.00  0.00    -0.330 N 
ATOM     10  C   UNL A   1      32.843  24.298  22.017  1.00  0.00     0.263 C 
ATOM     11  C   UNL A   1      33.099  25.890  23.754  1.00  0.00     0.279 C 
ATOM     12  H   UNL A   1      34.197  24.203  23.472  1.00  0.00     0.348 HD
ATOM     13  C   UNL A   1      33.058  25.690  21.413  1.00  0.00     0.084 C 
ATOM     14  C   UNL A   1      31.038  26.745  22.416  1.00  0.00     0.028 C 
BRANCH   9  15
ATOM     15  C   UNL A   1      32.778  23.507  24.411  1.00  0.00     0.299 C 
BRANCH  15  16
ATOM     16  C   UNL A   1      33.494  22.167  24.416  1.00  0.00     0.017 A 
ATOM     17  C   UNL A   1      32.513  18.505  24.349  1.00  0.00     0.067 C 
ATOM     18  C   UNL A   1      33.305  19.769  24.502  1.00  0.00     0.038 A 
ATOM     19  C   UNL A   1      32.704  21.009  24.371  1.00  0.00     0.033 A 
ATOM     20  N   UNL A   1      34.620  19.628  24.770  1.00  0.00    -0.253 NA
ATOM     21  C   UNL A   1      35.396  20.723  24.791  1.00  0.00     0.071 A 
ATOM     22  C   UNL A   1      34.904  22.017  24.521  1.00  0.00     0.009 A 
ATOM     23  C   UNL A   1      36.742  20.563  25.092  1.00  0.00     0.029 A 
ATOM     24  C   UNL A   1      35.847  23.066  24.380  1.00  0.00     0.011 A 
ATOM     25  C   UNL A   1      37.642  21.631  25.064  1.00  0.00     0.002 A 
ATOM     26  C   UNL A   1      37.199  22.880  24.668  1.00  0.00     0.001 A 
ENDBRANCH  15  16
ENDBRANCH   9  15
ENDBRANCH   5   8
ENDBRANCH   3   4
ENDBRANCH   2   3
ENDBRANCH   1   2
BRANCH   1  27
ATOM     27  C   UNL A   1      33.621  28.603  27.288  1.00  0.00     0.116 C 
BRANCH  27  28
ATOM     28  N   UNL A   1      33.548  29.985  27.739  1.00  0.00    -0.352 N 
ATOM     29  C   UNL A   1      34.531  30.750  28.332  1.00  0.00     0.251 C 
ATOM     30  H   UNL A   1      32.682  30.433  27.603  1.00  0.00     0.163 HD
ATOM     31  O   UNL A   1      34.275  31.870  28.739  1.00  0.00    -0.269 OA
BRANCH  29  32
ATOM     32  C   UNL A   1      35.886  30.175  28.505  1.00  0.00     0.039 A 
ATOM     33  C   UNL A   1      36.784  30.223  27.436  1.00  0.00     0.014 A 
ATOM     34  C   UNL A   1      36.281  29.636  29.732  1.00  0.00     0.014 A 
ATOM     35  C   UNL A   1      38.103  29.804  27.623  1.00  0.00     0.010 A 
ATOM     36  C   UNL A   1      37.613  29.295  29.939  1.00  0.00     0.010 A 
ATOM     37  C   UNL A   1      38.539  29.376  28.888  1.00  0.00    -0.014 A 
BRANCH  37  38
ATOM     38  C   UNL A   1      39.957  29.010  29.138  1.00  0.00     0.031 A 
ATOM     39  C   UNL A   1      40.898  30.014  29.746  1.00  0.00     0.074 A 
ATOM     40  C   UNL A   1      40.418  27.805  28.748  1.00  0.00     0.049 A 
ATOM     41  N   UNL A   1      42.183  29.913  29.973  1.00  0.00    -0.248 NA
ATOM     42  C   UNL A   1      40.324  31.317  30.117  1.00  0.00     0.031 C 
ATOM     43  C   UNL A   1      39.619  26.760  28.105  1.00  0.00     0.029 A 
ATOM     44  N   UNL A   1      41.675  27.258  28.828  1.00  0.00    -0.354 N 
ATOM     45  C   UNL A   1      42.573  31.142  30.490  1.00  0.00     0.074 A 
ATOM     46  C   UNL A   1      41.401  31.989  30.493  1.00  0.00     0.031 C 
ATOM     47  C   UNL A   1      40.395  25.686  27.884  1.00  0.00     0.029 A 
ATOM     48  C   UNL A   1      41.753  25.978  28.333  1.00  0.00     0.049 A 
ATOM     49  H   UNL A   1      42.447  27.737  29.206  1.00  0.00     0.167 HD
ATOM     50  C   UNL A   1      43.791  31.525  30.945  1.00  0.00     0.037 A 
ATOM     51  C   UNL A   1      42.800  25.134  28.253  1.00  0.00     0.037 A 
ATOM     52  C   UNL A   1      44.948  30.668  30.968  1.00  0.00     0.049 A 
ATOM     53  C   UNL A   1      44.144  25.578  28.763  1.00  0.00     0.074 A 
ATOM     54  C   UNL A   1      46.209  30.937  31.471  1.00  0.00     0.029 A 
ATOM     55  N   UNL A   1      44.984  29.376  30.465  1.00  0.00    -0.354 N 
ATOM     56  N   UNL A   1      44.481  26.722  29.308  1.00  0.00    -0.248 NA
ATOM     57  C   UNL A   1      45.247  24.615  28.649  1.00  0.00     0.031 C 
ATOM     58  C   UNL A   1      47.020  29.819  31.237  1.00  0.00     0.029 A 
ATOM     59  C   UNL A   1      46.252  28.839  30.628  1.00  0.00     0.049 A 
ATOM     60  H   UNL A   1      44.223  28.908  30.054  1.00  0.00     0.167 HD
ATOM     61  C   UNL A   1      45.828  26.605  29.632  1.00  0.00     0.074 A 
ATOM     62  C   UNL A   1      46.242  25.278  29.223  1.00  0.00     0.031 C 
ATOM     63  C   UNL A   1      46.646  27.513  30.222  1.00  0.00     0.037 A 
BRANCH  50  64
ATOM     64  C   UNL A   1      43.923  32.937  31.445  1.00  0.00     0.058 A 
ATOM     65  C   UNL A   1      43.732  33.261  32.799  1.00  0.00     0.135 A 
ATOM     66  C   UNL A   1      44.225  33.983  30.560  1.00  0.00     0.135 A 
ATOM     67  F   UNL A   1      43.428  32.302  33.687  1.00  0.00    -0.206 F 
ATOM     68  C   UNL A   1      43.778  34.577  33.246  1.00  0.00     0.059 A 
ATOM     69  C   UNL A   1      44.306  35.305  30.990  1.00  0.00     0.059 A 
ATOM     70  F   UNL A   1      44.424  33.731  29.257  1.00  0.00    -0.206 F 
ATOM     71  C   UNL A   1      44.054  35.594  32.331  1.00  0.00     0.060 A 
BRANCH  71  72
ATOM     72  S   UNL A   1      44.065  37.302  32.913  1.00  0.00     0.124 S 
ATOM     73  O   UNL A   1      43.941  38.036  31.657  1.00  0.00    -0.237 OA
ATOM     74  O   UNL A   1      42.898  37.345  33.789  1.00  0.00    -0.237 OA
ATOM     75  O   UNL A   1      45.355  37.423  33.587  1.00  0.00    -0.744 OA
ENDBRANCH  71  72
ENDBRANCH  50  64
BRANCH  51  76
ATOM     76  C   UNL A   1      42.603  23.761  27.718  1.00  0.00     0.058 A 
ATOM     77  C   UNL A   1      42.660  23.522  26.337  1.00  0.00     0.135 A 
ATOM     78  C   UNL A   1      42.390  22.663  28.565  1.00  0.00     0.135 A 
ATOM     79  F   UNL A   1      42.854  24.542  25.488  1.00  0.00    -0.206 F 
ATOM     80  C   UNL A   1      42.508  22.243  25.811  1.00  0.00     0.059 A 
ATOM     81  C   UNL A   1      42.255  21.371  28.065  1.00  0.00     0.059 A 
ATOM     82  F   UNL A   1      42.341  22.839  29.894  1.00  0.00    -0.206 F 
ATOM     83  C   UNL A   1      42.312  21.172  26.685  1.00  0.00     0.060 A 
BRANCH  83  84
ATOM     84  S   UNL A   1      42.188  19.508  25.994  1.00  0.00     0.124 S 
ATOM     85  O   UNL A   1      43.061  19.606  24.830  1.00  0.00    -0.237 OA
ATOM     86  O   UNL A   1      42.679  18.683  27.094  1.00  0.00    -0.237 OA
ATOM     87  O   UNL A   1      40.763  19.370  25.706  1.00  0.00    -0.744 OA
ENDBRANCH  83  84
ENDBRANCH  51  76
BRANCH  63  88
ATOM     88  C   UNL A   1      48.062  27.090  30.495  1.00  0.00     0.058 A 
ATOM     89  C   UNL A   1      49.097  27.335  29.581  1.00  0.00     0.135 A 
ATOM     90  C   UNL A   1      48.394  26.475  31.714  1.00  0.00     0.135 A 
ATOM     91  F   UNL A   1      48.832  27.913  28.398  1.00  0.00    -0.206 F 
ATOM     92  C   UNL A   1      50.410  26.966  29.854  1.00  0.00     0.059 A 
ATOM     93  C   UNL A   1      49.704  26.119  32.020  1.00  0.00     0.059 A 
ATOM     94  F   UNL A   1      47.442  26.226  32.627  1.00  0.00    -0.206 F 
ATOM     95  C   UNL A   1      50.704  26.359  31.078  1.00  0.00     0.060 A 
BRANCH  95  96
ATOM     96  S   UNL A   1      52.417  25.917  31.439  1.00  0.00     0.124 S 
ATOM     97  O   UNL A   1      53.037  26.052  30.125  1.00  0.00    -0.237 OA
ATOM     98  O   UNL A   1      52.800  26.921  32.426  1.00  0.00    -0.237 OA
ATOM     99  O   UNL A   1      52.315  24.553  31.949  1.00  0.00    -0.744 OA
ENDBRANCH  95  96
ENDBRANCH  63  88
ENDBRANCH  37  38
ENDBRANCH  29  32
ENDBRANCH  27  28
ENDBRANCH   1  27
TORSDOF 16
ENDMDL
MODEL 2
REMARK VINA RESULT:     -12.2      4.836     10.547
REMARK SMILES Cc1cc(C[N@H+]2CC[C@](C)(C(=O)NCCCCNC(=O)c3ccc(-c4c5nc(c(-c6c(F)cc(S(=O)(=O)[O-])cc6F)c6ccc([nH]6)c(-c6c(F)cc(S(=O)(=O)[O-])cc6F)c6nc(c(-c7c(F)cc(S(=O)(=O)[O-])cc7F)c7ccc4[nH]7)C=C6)C=C5)cc3)C2)c2ccccc2n1
REMARK SMILES IDX 16 1 15 2 14 3 13 4 11 5 12 6 9 8 6 9 7 10 87 11 8 13 10 14
REMARK SMILES IDX 5 15 4 16 1 17 2 18 3 19 94 20 93 21 88 22 92 23 89 24 91 25
REMARK SMILES IDX 90 26 17 27 18 28 19 29 20 31 21 32 22 33 86 34 23 35 85 36
REMARK SMILES IDX 24 37 25 38 26 39 79 40 27 41 84 42 78 43 80 44 28 45 83 46
REMARK SMILES IDX 77 47 76 48 29 50 63 51 42 52 62 53 43 54 46 55 61 56 81 57
REMARK SMILES IDX 44 58 45 59 60 61 82 62 47 63 30 64 31 65 40 66 32 67 33 68
REMARK SMILES IDX 39 69 41 70 34 71 35 72 36 73 37 74 38 75 64 76 65 77 74 78
REMARK SMILES IDX 66 79 67 80 73 81 75 82 68 83 69 84 70 85 71 86 72 87 48 88
REMARK SMILES IDX 49 89 58 90 50 91 51 92 57 93 59 94 52 95 53 96 54 97 55 98
REMARK SMILES IDX 56 99
REMARK H PARENT 13 7 6 12 18 30 80 49 46 60
REMARK Flexibility Score: inf
ROOT
ATOM      1  C   UNL A   1      38.902  22.880  26.540  1.00  0.00     0.023 C 
ENDROOT
BRANCH   1   2
ATOM      2  C   UNL A   1      37.923  23.974  26.122  1.00  0.00     0.023 C 
BRANCH   2   3
ATOM      3  C   UNL A   1      36.593  23.475  25.562  1.00  0.00     0.116 C 
BRANCH   3   4
ATOM      4  N   UNL A   1      35.706  22.924  26.577  1.00  0.00    -0.355 N 
ATOM      5  C   UNL A   1      34.364  23.100  26.800  1.00  0.00     0.231 C 
ATOM      6  O   UNL A   1      33.841  22.418  27.683  1.00  0.00    -0.274 OA
ATOM      7  H   UNL A   1      36.147  22.318  27.215  1.00  0.00     0.163 HD
BRANCH   5   8
ATOM      8  C   UNL A   1      33.551  24.094  25.967  1.00  0.00     0.100 C 
ATOM      9  N   UNL A   1      31.199  24.455  25.521  1.00  0.00    -0.330 N 
ATOM     10  C   UNL A   1      31.890  24.369  24.243  1.00  0.00     0.263 C 
ATOM     11  C   UNL A   1      32.165  24.261  26.595  1.00  0.00     0.279 C 
ATOM     12  H   UNL A   1      30.534  23.682  25.528  1.00  0.00     0.348 HD
ATOM     13  C   UNL A   1      33.148  23.562  24.578  1.00  0.00     0.084 C 
ATOM     14  C   UNL A   1      34.350  25.396  25.758  1.00  0.00     0.028 C 
BRANCH   9  15
ATOM     15  C   UNL A   1      30.169  25.473  25.721  1.00  0.00     0.299 C 
BRANCH  15  16
ATOM     16  C   UNL A   1      30.472  26.860  25.180  1.00  0.00     0.017 A 
ATOM     17  C   UNL A   1      29.488  28.926  22.157  1.00  0.00     0.067 C 
ATOM     18  C   UNL A   1      30.201  28.437  23.382  1.00  0.00     0.038 A 
ATOM     19  C   UNL A   1      29.857  27.235  23.977  1.00  0.00     0.033 A 
ATOM     20  N   UNL A   1      31.183  29.227  23.864  1.00  0.00    -0.253 NA
ATOM     21  C   UNL A   1      31.765  28.897  25.027  1.00  0.00     0.071 A 
ATOM     22  C   UNL A   1      31.380  27.772  25.786  1.00  0.00     0.009 A 
ATOM     23  C   UNL A   1      32.790  29.707  25.497  1.00  0.00     0.029 A 
ATOM     24  C   UNL A   1      31.927  27.633  27.086  1.00  0.00     0.011 A 
ATOM     25  C   UNL A   1      33.403  29.489  26.732  1.00  0.00     0.002 A 
ATOM     26  C   UNL A   1      32.942  28.470  27.548  1.00  0.00     0.001 A 
ENDBRANCH  15  16
ENDBRANCH   9  15
ENDBRANCH   5   8
ENDBRANCH   3   4
ENDBRANCH   2   3
ENDBRANCH   1   2
BRANCH   1  27
ATOM     27  C   UNL A   1      40.270  23.366  27.006  1.00  0.00     0.116 C 
BRANCH  27  28
ATOM     28  N   UNL A   1      41.025  24.067  25.978  1.00  0.00    -0.352 N 
ATOM     29  C   UNL A   1      41.575  25.332  26.025  1.00  0.00     0.251 C 
ATOM     30  H   UNL A   1      41.163  23.573  25.138  1.00  0.00     0.163 HD
ATOM     31  O   UNL A   1      42.101  25.810  25.035  1.00  0.00    -0.269 OA
BRANCH  29  32
ATOM     32  C   UNL A   1      41.477  26.114  27.281  1.00  0.00     0.039 A 
ATOM     33  C   UNL A   1      42.484  27.032  27.588  1.00  0.00     0.014 A 
ATOM     34  C   UNL A   1      40.372  25.973  28.125  1.00  0.00     0.014 A 
ATOM     35  C   UNL A   1      42.341  27.867  28.698  1.00  0.00     0.010 A 
ATOM     36  C   UNL A   1      40.195  26.858  29.183  1.00  0.00     0.010 A 
ATOM     37  C   UNL A   1      41.176  27.816  29.480  1.00  0.00    -0.014 A 
BRANCH  37  38
ATOM     38  C   UNL A   1      40.958  28.753  30.612  1.00  0.00     0.031 A 
ATOM     39  C   UNL A   1      41.808  28.651  31.849  1.00  0.00     0.074 A 
ATOM     40  C   UNL A   1      39.946  29.642  30.562  1.00  0.00     0.049 A 
ATOM     41  N   UNL A   1      41.725  29.323  32.969  1.00  0.00    -0.248 NA
ATOM     42  C   UNL A   1      42.871  27.634  31.837  1.00  0.00     0.031 C 
ATOM     43  C   UNL A   1      39.020  29.810  29.439  1.00  0.00     0.029 A 
ATOM     44  N   UNL A   1      39.522  30.570  31.481  1.00  0.00    -0.354 N 
ATOM     45  C   UNL A   1      42.707  28.797  33.799  1.00  0.00     0.074 A 
ATOM     46  C   UNL A   1      43.336  27.715  33.074  1.00  0.00     0.031 C 
ATOM     47  C   UNL A   1      38.163  30.805  29.720  1.00  0.00     0.029 A 
ATOM     48  C   UNL A   1      38.452  31.320  31.056  1.00  0.00     0.049 A 
ATOM     49  H   UNL A   1      39.946  30.687  32.361  1.00  0.00     0.167 HD
ATOM     50  C   UNL A   1      43.070  29.194  35.043  1.00  0.00     0.037 A 
ATOM     51  C   UNL A   1      37.780  32.313  31.671  1.00  0.00     0.037 A 
ATOM     52  C   UNL A   1      42.461  30.291  35.748  1.00  0.00     0.049 A 
ATOM     53  C   UNL A   1      38.199  32.738  33.052  1.00  0.00     0.074 A 
ATOM     54  C   UNL A   1      42.801  30.817  36.983  1.00  0.00     0.029 A 
ATOM     55  N   UNL A   1      41.385  31.032  35.280  1.00  0.00    -0.354 N 
ATOM     56  N   UNL A   1      39.172  32.272  33.798  1.00  0.00    -0.248 NA
ATOM     57  C   UNL A   1      37.430  33.826  33.672  1.00  0.00     0.031 C 
ATOM     58  C   UNL A   1      41.905  31.851  37.279  1.00  0.00     0.029 A 
ATOM     59  C   UNL A   1      41.034  31.998  36.210  1.00  0.00     0.049 A 
ATOM     60  H   UNL A   1      40.937  30.892  34.416  1.00  0.00     0.167 HD
ATOM     61  C   UNL A   1      39.153  33.031  34.963  1.00  0.00     0.074 A 
ATOM     62  C   UNL A   1      38.073  33.987  34.821  1.00  0.00     0.031 C 
ATOM     63  C   UNL A   1      39.961  32.948  36.050  1.00  0.00     0.037 A 
BRANCH  50  64
ATOM     64  C   UNL A   1      44.174  28.423  35.714  1.00  0.00     0.058 A 
ATOM     65  C   UNL A   1      43.904  27.336  36.563  1.00  0.00     0.135 A 
ATOM     66  C   UNL A   1      45.516  28.785  35.522  1.00  0.00     0.135 A 
ATOM     67  F   UNL A   1      42.638  26.956  36.793  1.00  0.00    -0.206 F 
ATOM     68  C   UNL A   1      44.921  26.674  37.242  1.00  0.00     0.059 A 
ATOM     69  C   UNL A   1      46.553  28.117  36.168  1.00  0.00     0.059 A 
ATOM     70  F   UNL A   1      45.832  29.811  34.716  1.00  0.00    -0.206 F 
ATOM     71  C   UNL A   1      46.242  27.080  37.047  1.00  0.00     0.060 A 
BRANCH  71  72
ATOM     72  S   UNL A   1      47.549  26.245  37.970  1.00  0.00     0.124 S 
ATOM     73  O   UNL A   1      47.983  27.302  38.878  1.00  0.00    -0.237 OA
ATOM     74  O   UNL A   1      46.837  25.132  38.590  1.00  0.00    -0.237 OA
ATOM     75  O   UNL A   1      48.509  25.872  36.935  1.00  0.00    -0.744 OA
ENDBRANCH  71  72
ENDBRANCH  50  64
BRANCH  51  76
ATOM     76  C   UNL A   1      36.678  33.012  30.959  1.00  0.00     0.058 A 
ATOM     77  C   UNL A   1      35.343  32.792  31.327  1.00  0.00     0.135 A 
ATOM     78  C   UNL A   1      36.931  33.930  29.929  1.00  0.00     0.135 A 
ATOM     79  F   UNL A   1      35.052  31.917  32.302  1.00  0.00    -0.206 F 
ATOM     80  C   UNL A   1      34.294  33.453  30.698  1.00  0.00     0.059 A 
ATOM     81  C   UNL A   1      35.901  34.620  29.298  1.00  0.00     0.059 A 
ATOM     82  F   UNL A   1      38.193  34.185  29.550  1.00  0.00    -0.206 F 
ATOM     83  C   UNL A   1      34.584  34.371  29.687  1.00  0.00     0.060 A 
BRANCH  83  84
ATOM     84  S   UNL A   1      33.219  35.277  28.928  1.00  0.00     0.124 S 
ATOM     85  O   UNL A   1      32.408  35.619  30.091  1.00  0.00    -0.237 OA
ATOM     86  O   UNL A   1      33.910  36.388  28.281  1.00  0.00    -0.237 OA
ATOM     87  O   UNL A   1      32.634  34.298  28.015  1.00  0.00    -0.744 OA
ENDBRANCH  83  84
ENDBRANCH  51  76
BRANCH  63  88
ATOM     88  C   UNL A   1      39.735  33.940  37.156  1.00  0.00     0.058 A 
ATOM     89  C   UNL A   1      38.879  33.667  38.232  1.00  0.00     0.135 A 
ATOM     90  C   UNL A   1      40.426  35.164  37.160  1.00  0.00     0.135 A 
ATOM     91  F   UNL A   1      38.188  32.515  38.270  1.00  0.00    -0.206 F 
ATOM     92  C   UNL A   1      38.697  34.579  39.266  1.00  0.00     0.059 A 
ATOM     93  C   UNL A   1      40.280  36.081  38.196  1.00  0.00     0.059 A 
ATOM     94  F   UNL A   1      41.265  35.470  36.158  1.00  0.00    -0.206 F 
ATOM     95  C   UNL A   1      39.404  35.784  39.239  1.00  0.00     0.060 A 
BRANCH  95  96
ATOM     96  S   UNL A   1      39.189  36.946  40.605  1.00  0.00     0.124 S 
ATOM     97  O   UNL A   1      38.635  36.081  41.641  1.00  0.00    -0.237 OA
ATOM     98  O   UNL A   1      40.551  37.417  40.834  1.00  0.00    -0.237 OA
ATOM     99  O   UNL A   1      38.271  37.943  40.061  1.00  0.00    -0.744 OA
ENDBRANCH  95  96
ENDBRANCH  63  88
ENDBRANCH  37  38
ENDBRANCH  29  32
ENDBRANCH  27  28
ENDBRANCH   1  27
TORSDOF 16
ENDMDL
MODEL 3
REMARK VINA RESULT:     -12.1      0.697      1.783
REMARK SMILES Cc1cc(C[N@H+]2CC[C@](C)(C(=O)NCCCCNC(=O)c3ccc(-c4c5nc(c(-c6c(F)cc(S(=O)(=O)[O-])cc6F)c6ccc([nH]6)c(-c6c(F)cc(S(=O)(=O)[O-])cc6F)c6nc(c(-c7c(F)cc(S(=O)(=O)[O-])cc7F)c7ccc4[nH]7)C=C6)C=C5)cc3)C2)c2ccccc2n1
REMARK SMILES IDX 16 1 15 2 14 3 13 4 11 5 12 6 9 8 6 9 7 10 87 11 8 13 10 14
REMARK SMILES IDX 5 15 4 16 1 17 2 18 3 19 94 20 93 21 88 22 92 23 89 24 91 25
REMARK SMILES IDX 90 26 17 27 18 28 19 29 20 31 21 32 22 33 86 34 23 35 85 36
REMARK SMILES IDX 24 37 25 38 26 39 79 40 27 41 84 42 78 43 80 44 28 45 83 46
REMARK SMILES IDX 77 47 76 48 29 50 63 51 42 52 62 53 43 54 46 55 61 56 81 57
REMARK SMILES IDX 44 58 45 59 60 61 82 62 47 63 30 64 31 65 40 66 32 67 33 68
REMARK SMILES IDX 39 69 41 70 34 71 35 72 36 73 37 74 38 75 64 76 65 77 74 78
REMARK SMILES IDX 66 79 67 80 73 81 75 82 68 83 69 84 70 85 71 86 72 87 48 88
REMARK SMILES IDX 49 89 58 90 50 91 51 92 57 93 59 94 52 95 53 96 54 97 55 98
REMARK SMILES IDX 56 99
REMARK H PARENT 13 7 6 12 18 30 80 49 46 60
REMARK Flexibility Score: inf
ROOT
ATOM      1  C   UNL A   1      32.381  28.094  26.329  1.00  0.00     0.023 C 
ENDROOT
BRANCH   1   2
ATOM      2  C   UNL A   1      31.759  29.175  25.449  1.00  0.00     0.023 C 
BRANCH   2   3
ATOM      3  C   UNL A   1      31.369  28.721  24.044  1.00  0.00     0.116 C 
BRANCH   3   4
ATOM      4  N   UNL A   1      32.488  28.686  23.113  1.00  0.00    -0.355 N 
ATOM      5  C   UNL A   1      33.154  27.635  22.535  1.00  0.00     0.231 C 
ATOM      6  O   UNL A   1      34.010  27.902  21.690  1.00  0.00    -0.274 OA
ATOM      7  H   UNL A   1      32.825  29.573  22.851  1.00  0.00     0.163 HD
BRANCH   5   8
ATOM      8  C   UNL A   1      32.827  26.189  22.916  1.00  0.00     0.100 C 
ATOM      9  N   UNL A   1      34.030  24.362  23.953  1.00  0.00    -0.330 N 
ATOM     10  C   UNL A   1      33.460  23.874  22.706  1.00  0.00     0.263 C 
ATOM     11  C   UNL A   1      33.698  25.773  24.104  1.00  0.00     0.279 C 
ATOM     12  H   UNL A   1      35.040  24.268  23.849  1.00  0.00     0.348 HD
ATOM     13  C   UNL A   1      33.287  25.150  21.876  1.00  0.00     0.084 C 
ATOM     14  C   UNL A   1      31.307  26.020  23.111  1.00  0.00     0.028 C 
BRANCH   9  15
ATOM     15  C   UNL A   1      33.975  23.528  25.151  1.00  0.00     0.299 C 
BRANCH  15  16
ATOM     16  C   UNL A   1      35.096  22.517  25.327  1.00  0.00     0.017 A 
ATOM     17  C   UNL A   1      38.804  22.607  26.111  1.00  0.00     0.067 C 
ATOM     18  C   UNL A   1      37.447  22.140  25.679  1.00  0.00     0.038 A 
ATOM     19  C   UNL A   1      36.372  23.012  25.635  1.00  0.00     0.033 A 
ATOM     20  N   UNL A   1      37.337  20.839  25.340  1.00  0.00    -0.253 NA
ATOM     21  C   UNL A   1      36.120  20.343  25.069  1.00  0.00     0.071 A 
ATOM     22  C   UNL A   1      34.942  21.116  25.144  1.00  0.00     0.009 A 
ATOM     23  C   UNL A   1      36.026  19.007  24.699  1.00  0.00     0.029 A 
ATOM     24  C   UNL A   1      33.701  20.442  25.026  1.00  0.00     0.011 A 
ATOM     25  C   UNL A   1      34.798  18.384  24.471  1.00  0.00     0.002 A 
ATOM     26  C   UNL A   1      33.628  19.094  24.674  1.00  0.00     0.001 A 
ENDBRANCH  15  16
ENDBRANCH   9  15
ENDBRANCH   5   8
ENDBRANCH   3   4
ENDBRANCH   2   3
ENDBRANCH   1   2
BRANCH   1  27
ATOM     27  C   UNL A   1      33.550  28.547  27.197  1.00  0.00     0.116 C 
BRANCH  27  28
ATOM     28  N   UNL A   1      33.502  29.957  27.558  1.00  0.00    -0.352 N 
ATOM     29  C   UNL A   1      34.491  30.735  28.125  1.00  0.00     0.251 C 
ATOM     30  H   UNL A   1      32.651  30.415  27.374  1.00  0.00     0.163 HD
ATOM     31  O   UNL A   1      34.254  31.884  28.454  1.00  0.00    -0.269 OA
BRANCH  29  32
ATOM     32  C   UNL A   1      35.827  30.139  28.365  1.00  0.00     0.039 A 
ATOM     33  C   UNL A   1      36.775  30.167  27.340  1.00  0.00     0.014 A 
ATOM     34  C   UNL A   1      36.154  29.602  29.613  1.00  0.00     0.014 A 
ATOM     35  C   UNL A   1      38.077  29.729  27.593  1.00  0.00     0.010 A 
ATOM     36  C   UNL A   1      37.469  29.241  29.885  1.00  0.00     0.010 A 
ATOM     37  C   UNL A   1      38.445  29.302  28.879  1.00  0.00    -0.014 A 
BRANCH  37  38
ATOM     38  C   UNL A   1      39.844  28.916  29.199  1.00  0.00     0.031 A 
ATOM     39  C   UNL A   1      40.759  29.896  29.880  1.00  0.00     0.074 A 
ATOM     40  C   UNL A   1      40.314  27.715  28.807  1.00  0.00     0.049 A 
ATOM     41  N   UNL A   1      42.028  29.777  30.175  1.00  0.00    -0.248 NA
ATOM     42  C   UNL A   1      40.177  31.197  30.248  1.00  0.00     0.031 C 
ATOM     43  C   UNL A   1      39.543  26.692  28.098  1.00  0.00     0.029 A 
ATOM     44  N   UNL A   1      41.560  27.152  28.945  1.00  0.00    -0.354 N 
ATOM     45  C   UNL A   1      42.401  30.990  30.740  1.00  0.00     0.074 A 
ATOM     46  C   UNL A   1      41.238  31.849  30.697  1.00  0.00     0.031 C 
ATOM     47  C   UNL A   1      40.319  25.615  27.896  1.00  0.00     0.029 A 
ATOM     48  C   UNL A   1      41.653  25.883  28.426  1.00  0.00     0.049 A 
ATOM     49  H   UNL A   1      42.314  27.615  29.375  1.00  0.00     0.167 HD
ATOM     50  C   UNL A   1      43.595  31.349  31.269  1.00  0.00     0.037 A 
ATOM     51  C   UNL A   1      42.695  25.030  28.384  1.00  0.00     0.037 A 
ATOM     52  C   UNL A   1      44.741  30.481  31.338  1.00  0.00     0.049 A 
ATOM     53  C   UNL A   1      44.012  25.448  28.978  1.00  0.00     0.074 A 
ATOM     54  C   UNL A   1      45.975  30.724  31.915  1.00  0.00     0.029 A 
ATOM     55  N   UNL A   1      44.793  29.199  30.808  1.00  0.00    -0.354 N 
ATOM     56  N   UNL A   1      44.330  26.577  29.566  1.00  0.00    -0.248 NA
ATOM     57  C   UNL A   1      45.112  24.476  28.904  1.00  0.00     0.031 C 
ATOM     58  C   UNL A   1      46.787  29.604  31.701  1.00  0.00     0.029 A 
ATOM     59  C   UNL A   1      46.045  28.645  31.029  1.00  0.00     0.049 A 
ATOM     60  H   UNL A   1      44.051  28.748  30.345  1.00  0.00     0.167 HD
ATOM     61  C   UNL A   1      45.656  26.438  29.961  1.00  0.00     0.074 A 
ATOM     62  C   UNL A   1      46.079  25.117  29.546  1.00  0.00     0.031 C 
ATOM     63  C   UNL A   1      46.448  27.324  30.615  1.00  0.00     0.037 A 
BRANCH  50  64
ATOM     64  C   UNL A   1      43.713  32.749  31.808  1.00  0.00     0.058 A 
ATOM     65  C   UNL A   1      43.380  33.058  33.138  1.00  0.00     0.135 A 
ATOM     66  C   UNL A   1      44.143  33.799  30.982  1.00  0.00     0.135 A 
ATOM     67  F   UNL A   1      42.950  32.095  33.969  1.00  0.00    -0.206 F 
ATOM     68  C   UNL A   1      43.416  34.365  33.612  1.00  0.00     0.059 A 
ATOM     69  C   UNL A   1      44.215  35.110  31.444  1.00  0.00     0.059 A 
ATOM     70  F   UNL A   1      44.479  33.560  29.705  1.00  0.00    -0.206 F 
ATOM     71  C   UNL A   1      43.823  35.386  32.753  1.00  0.00     0.060 A 
BRANCH  71  72
ATOM     72  S   UNL A   1      43.820  37.085  33.365  1.00  0.00     0.124 S 
ATOM     73  O   UNL A   1      43.775  37.841  32.117  1.00  0.00    -0.237 OA
ATOM     74  O   UNL A   1      42.606  37.126  34.174  1.00  0.00    -0.237 OA
ATOM     75  O   UNL A   1      45.071  37.178  34.112  1.00  0.00    -0.744 OA
ENDBRANCH  71  72
ENDBRANCH  50  64
BRANCH  51  76
ATOM     76  C   UNL A   1      42.515  23.671  27.809  1.00  0.00     0.058 A 
ATOM     77  C   UNL A   1      42.588  23.472  26.422  1.00  0.00     0.135 A 
ATOM     78  C   UNL A   1      42.302  22.548  28.622  1.00  0.00     0.135 A 
ATOM     79  F   UNL A   1      42.783  24.517  25.604  1.00  0.00    -0.206 F 
ATOM     80  C   UNL A   1      42.452  22.208  25.859  1.00  0.00     0.059 A 
ATOM     81  C   UNL A   1      42.184  21.270  28.084  1.00  0.00     0.059 A 
ATOM     82  F   UNL A   1      42.238  22.685  29.955  1.00  0.00    -0.206 F 
ATOM     83  C   UNL A   1      42.256  21.111  26.700  1.00  0.00     0.060 A 
BRANCH  83  84
ATOM     84  S   UNL A   1      42.154  19.466  25.961  1.00  0.00     0.124 S 
ATOM     85  O   UNL A   1      42.705  18.631  27.023  1.00  0.00    -0.237 OA
ATOM     86  O   UNL A   1      40.721  19.328  25.718  1.00  0.00    -0.237 OA
ATOM     87  O   UNL A   1      42.976  19.586  24.761  1.00  0.00    -0.744 OA
ENDBRANCH  83  84
ENDBRANCH  51  76
BRANCH  63  88
ATOM     88  C   UNL A   1      47.843  26.881  30.957  1.00  0.00     0.058 A 
ATOM     89  C   UNL A   1      48.155  26.312  32.201  1.00  0.00     0.135 A 
ATOM     90  C   UNL A   1      48.871  26.983  30.005  1.00  0.00     0.135 A 
ATOM     91  F   UNL A   1      47.210  26.199  33.148  1.00  0.00    -0.206 F 
ATOM     92  C   UNL A   1      49.443  25.878  32.498  1.00  0.00     0.059 A 
ATOM     93  C   UNL A   1      50.160  26.533  30.271  1.00  0.00     0.059 A 
ATOM     94  F   UNL A   1      48.623  27.512  28.796  1.00  0.00    -0.206 F 
ATOM     95  C   UNL A   1      50.439  25.992  31.525  1.00  0.00     0.060 A 
BRANCH  95  96
ATOM     96  S   UNL A   1      52.099  25.392  31.909  1.00  0.00     0.124 S 
ATOM     97  O   UNL A   1      51.886  23.949  31.950  1.00  0.00    -0.237 OA
ATOM     98  O   UNL A   1      52.880  25.884  30.779  1.00  0.00    -0.237 OA
ATOM     99  O   UNL A   1      52.398  26.020  33.192  1.00  0.00    -0.744 OA
ENDBRANCH  95  96
ENDBRANCH  63  88
ENDBRANCH  37  38
ENDBRANCH  29  32
ENDBRANCH  27  28
ENDBRANCH   1  27
TORSDOF 16
ENDMDL
