MODEL 1
REMARK VINA RESULT:     -11.2      0.000      0.000
REMARK SMILES O=C(NCCCCNC(=O)c1ccccc1NS(=O)(=O)c1cccc([N+](=O)[O-])c1)c1ccc(-c2c3nc(c(-c4c(F)cc(S(=O)(=O)[O-])cc4F)c4ccc([nH]4)c(-c4c(F)cc(S(=O)(=O)[O-])cc4F)c4nc(c(-c5c(F)cc(S(=O)(=O)[O-])cc5F)c5ccc2[nH]5)C=C4)C=C3)cc1
REMARK SMILES IDX 6 1 5 2 4 3 3 4 1 5 2 6 30 8 31 9 95 10 32 11 94 12 33 13
REMARK SMILES IDX 34 14 35 15 88 16 36 17 93 18 87 19 89 20 37 21 92 22 86 23
REMARK SMILES IDX 85 24 38 26 72 27 51 28 71 29 52 30 55 31 70 32 90 33 53 34
REMARK SMILES IDX 54 35 69 37 91 38 56 39 39 40 40 41 49 42 41 43 42 44 48 45
REMARK SMILES IDX 50 46 43 47 44 48 45 49 46 50 47 51 73 52 74 53 83 54 75 55
REMARK SMILES IDX 76 56 82 57 84 58 77 59 78 60 79 61 80 62 81 63 57 64 58 65
REMARK SMILES IDX 67 66 59 67 60 68 66 69 68 70 61 71 62 72 63 73 64 74 65 75
REMARK SMILES IDX 7 76 8 77 9 78 10 80 11 81 12 82 16 83 13 84 15 85 14 86
REMARK SMILES IDX 17 87 18 89 19 90 20 91 21 92 22 93 29 94 23 95 25 96 24 97
REMARK SMILES IDX 26 98 27 99 28 100
REMARK H PARENT 3 7 89 25 55 36 8 79 17 88
REMARK Flexibility Score: inf
ROOT
ATOM      1  C   UNL A   1      42.042  21.828  27.724  1.00  0.00     0.023 C 
ENDROOT
BRANCH   1   2
ATOM      2  C   UNL A   1      41.133  22.116  26.531  1.00  0.00     0.023 C 
BRANCH   2   3
ATOM      3  C   UNL A   1      39.726  21.539  26.623  1.00  0.00     0.116 C 
BRANCH   3   4
ATOM      4  N   UNL A   1      38.765  22.208  25.756  1.00  0.00    -0.352 N 
ATOM      5  O   UNL A   1      37.437  23.900  25.049  1.00  0.00    -0.269 OA
ATOM      6  C   UNL A   1      38.363  23.527  25.763  1.00  0.00     0.251 C 
ATOM      7  H   UNL A   1      38.344  21.641  25.071  1.00  0.00     0.163 HD
BRANCH   6   8
ATOM      8  C   UNL A   1      39.037  24.480  26.671  1.00  0.00     0.039 A 
ATOM      9  C   UNL A   1      38.726  24.488  28.030  1.00  0.00     0.014 A 
ATOM     10  C   UNL A   1      39.933  25.417  26.150  1.00  0.00     0.014 A 
ATOM     11  C   UNL A   1      39.135  25.554  28.819  1.00  0.00     0.010 A 
ATOM     12  C   UNL A   1      40.441  26.422  26.980  1.00  0.00     0.010 A 
ATOM     13  C   UNL A   1      40.002  26.535  28.308  1.00  0.00    -0.014 A 
BRANCH  13  14
ATOM     14  C   UNL A   1      40.447  27.641  29.199  1.00  0.00     0.031 A 
ATOM     15  C   UNL A   1      41.803  27.625  29.856  1.00  0.00     0.074 A 
ATOM     16  C   UNL A   1      39.627  28.698  29.373  1.00  0.00     0.049 A 
ATOM     17  N   UNL A   1      42.358  28.531  30.621  1.00  0.00    -0.248 NA
ATOM     18  C   UNL A   1      42.644  26.437  29.638  1.00  0.00     0.031 C 
ATOM     19  C   UNL A   1      38.286  28.826  28.795  1.00  0.00     0.029 A 
ATOM     20  N   UNL A   1      39.805  29.874  30.054  1.00  0.00    -0.354 N 
ATOM     21  C   UNL A   1      43.595  28.016  30.997  1.00  0.00     0.074 A 
ATOM     22  C   UNL A   1      43.700  26.704  30.397  1.00  0.00     0.031 C 
ATOM     23  C   UNL A   1      37.791  30.035  29.092  1.00  0.00     0.029 A 
ATOM     24  C   UNL A   1      38.741  30.739  29.944  1.00  0.00     0.049 A 
ATOM     25  H   UNL A   1      40.616  30.080  30.573  1.00  0.00     0.167 HD
ATOM     26  C   UNL A   1      44.554  28.588  31.766  1.00  0.00     0.037 A 
ATOM     27  C   UNL A   1      38.540  31.958  30.479  1.00  0.00     0.037 A 
ATOM     28  C   UNL A   1      44.447  29.906  32.343  1.00  0.00     0.049 A 
ATOM     29  C   UNL A   1      39.613  32.558  31.341  1.00  0.00     0.074 A 
ATOM     30  C   UNL A   1      45.383  30.593  33.099  1.00  0.00     0.029 A 
ATOM     31  N   UNL A   1      43.340  30.736  32.237  1.00  0.00    -0.354 N 
ATOM     32  N   UNL A   1      40.789  32.069  31.655  1.00  0.00    -0.248 NA
ATOM     33  C   UNL A   1      39.330  33.875  31.924  1.00  0.00     0.031 C 
ATOM     34  C   UNL A   1      44.820  31.808  33.500  1.00  0.00     0.029 A 
ATOM     35  C   UNL A   1      43.557  31.913  32.937  1.00  0.00     0.049 A 
ATOM     36  H   UNL A   1      42.520  30.519  31.738  1.00  0.00     0.167 HD
ATOM     37  C   UNL A   1      41.400  33.034  32.446  1.00  0.00     0.074 A 
ATOM     38  C   UNL A   1      40.468  34.138  32.550  1.00  0.00     0.031 C 
ATOM     39  C   UNL A   1      42.624  33.008  33.030  1.00  0.00     0.037 A 
BRANCH  26  40
ATOM     40  C   UNL A   1      45.798  27.786  32.057  1.00  0.00     0.058 A 
ATOM     41  C   UNL A   1      45.847  26.826  33.082  1.00  0.00     0.135 A 
ATOM     42  C   UNL A   1      46.948  27.948  31.265  1.00  0.00     0.135 A 
ATOM     43  F   UNL A   1      44.784  26.634  33.879  1.00  0.00    -0.206 F 
ATOM     44  C   UNL A   1      46.996  26.081  33.329  1.00  0.00     0.059 A 
ATOM     45  C   UNL A   1      48.098  27.192  31.475  1.00  0.00     0.059 A 
ATOM     46  F   UNL A   1      46.960  28.847  30.269  1.00  0.00    -0.206 F 
ATOM     47  C   UNL A   1      48.118  26.271  32.520  1.00  0.00     0.060 A 
BRANCH  47  48
ATOM     48  S   UNL A   1      49.602  25.299  32.857  1.00  0.00     0.124 S 
ATOM     49  O   UNL A   1      49.097  24.321  33.815  1.00  0.00    -0.237 OA
ATOM     50  O   UNL A   1      49.939  24.777  31.537  1.00  0.00    -0.237 OA
ATOM     51  O   UNL A   1      50.537  26.280  33.398  1.00  0.00    -0.744 OA
ENDBRANCH  47  48
ENDBRANCH  26  40
BRANCH  27  52
ATOM     52  C   UNL A   1      37.272  32.685  30.208  1.00  0.00     0.058 A 
ATOM     53  C   UNL A   1      37.181  33.615  29.163  1.00  0.00     0.135 A 
ATOM     54  C   UNL A   1      36.120  32.448  30.975  1.00  0.00     0.135 A 
ATOM     55  F   UNL A   1      38.256  33.878  28.403  1.00  0.00    -0.206 F 
ATOM     56  C   UNL A   1      36.000  34.301  28.899  1.00  0.00     0.059 A 
ATOM     57  C   UNL A   1      34.918  33.096  30.710  1.00  0.00     0.059 A 
ATOM     58  F   UNL A   1      36.148  31.552  31.974  1.00  0.00    -0.206 F 
ATOM     59  C   UNL A   1      34.872  34.031  29.677  1.00  0.00     0.060 A 
BRANCH  59  60
ATOM     60  S   UNL A   1      33.334  34.897  29.301  1.00  0.00     0.124 S 
ATOM     61  O   UNL A   1      32.715  33.991  28.342  1.00  0.00    -0.237 OA
ATOM     62  O   UNL A   1      32.698  34.973  30.612  1.00  0.00    -0.237 OA
ATOM     63  O   UNL A   1      33.791  36.174  28.760  1.00  0.00    -0.744 OA
ENDBRANCH  59  60
ENDBRANCH  27  52
BRANCH  39  64
ATOM     64  C   UNL A   1      43.047  34.235  33.793  1.00  0.00     0.058 A 
ATOM     65  C   UNL A   1      43.652  35.334  33.163  1.00  0.00     0.135 A 
ATOM     66  C   UNL A   1      42.823  34.318  35.178  1.00  0.00     0.135 A 
ATOM     67  F   UNL A   1      43.897  35.305  31.843  1.00  0.00    -0.206 F 
ATOM     68  C   UNL A   1      44.055  36.454  33.883  1.00  0.00     0.059 A 
ATOM     69  C   UNL A   1      43.185  35.442  35.911  1.00  0.00     0.059 A 
ATOM     70  F   UNL A   1      42.237  33.301  35.831  1.00  0.00    -0.206 F 
ATOM     71  C   UNL A   1      43.817  36.498  35.258  1.00  0.00     0.060 A 
BRANCH  71  72
ATOM     72  S   UNL A   1      44.333  37.962  36.179  1.00  0.00     0.124 S 
ATOM     73  O   UNL A   1      43.493  37.870  37.370  1.00  0.00    -0.237 OA
ATOM     74  O   UNL A   1      45.756  37.717  36.386  1.00  0.00    -0.237 OA
ATOM     75  O   UNL A   1      44.018  39.063  35.273  1.00  0.00    -0.744 OA
ENDBRANCH  71  72
ENDBRANCH  39  64
ENDBRANCH  13  14
ENDBRANCH   6   8
ENDBRANCH   3   4
ENDBRANCH   2   3
ENDBRANCH   1   2
BRANCH   1  76
ATOM     76  C   UNL A   1      42.927  22.994  28.136  1.00  0.00     0.116 C 
BRANCH  76  77
ATOM     77  N   UNL A   1      44.338  22.738  27.964  1.00  0.00    -0.352 N 
ATOM     78  C   UNL A   1      45.252  23.447  27.241  1.00  0.00     0.253 C 
ATOM     79  H   UNL A   1      44.688  21.945  28.431  1.00  0.00     0.163 HD
ATOM     80  O   UNL A   1      46.419  23.072  27.182  1.00  0.00    -0.269 OA
BRANCH  78  81
ATOM     81  C   UNL A   1      44.860  24.652  26.492  1.00  0.00     0.063 A 
ATOM     82  C   UNL A   1      45.217  25.870  27.098  1.00  0.00     0.016 A 
ATOM     83  C   UNL A   1      43.989  24.633  25.388  1.00  0.00     0.062 A 
ATOM     84  C   UNL A   1      44.694  27.072  26.628  1.00  0.00     0.001 A 
ATOM     85  C   UNL A   1      43.385  25.840  25.014  1.00  0.00     0.027 A 
ATOM     86  C   UNL A   1      43.753  27.053  25.604  1.00  0.00     0.002 A 
BRANCH  83  87
ATOM     87  N   UNL A   1      43.616  23.443  24.658  1.00  0.00    -0.279 N 
ATOM     88  H   UNL A   1      42.683  23.128  24.698  1.00  0.00     0.180 HD
BRANCH  87  89
ATOM     89  S   UNL A   1      44.757  22.565  23.722  1.00  0.00     0.262 S 
ATOM     90  O   UNL A   1      44.182  22.286  22.425  1.00  0.00    -0.201 OA
ATOM     91  O   UNL A   1      45.997  23.303  23.819  1.00  0.00    -0.201 OA
BRANCH  89  92
ATOM     92  C   UNL A   1      45.013  20.972  24.460  1.00  0.00     0.094 A 
ATOM     93  C   UNL A   1      46.313  20.495  24.655  1.00  0.00     0.023 A 
ATOM     94  C   UNL A   1      43.907  20.184  24.798  1.00  0.00     0.107 A 
ATOM     95  C   UNL A   1      46.512  19.262  25.278  1.00  0.00     0.008 A 
ATOM     96  C   UNL A   1      44.120  19.001  25.507  1.00  0.00     0.270 A 
ATOM     97  C   UNL A   1      45.417  18.527  25.741  1.00  0.00     0.086 A 
BRANCH  96  98
ATOM     98  N   UNL A   1      42.975  18.308  26.106  1.00  0.00     0.062 N 
ATOM     99  O   UNL A   1      41.842  18.685  25.773  1.00  0.00    -0.258 OA
ATOM    100  O   UNL A   1      43.209  17.366  26.874  1.00  0.00    -0.258 OA
ENDBRANCH  96  98
ENDBRANCH  89  92
ENDBRANCH  87  89
ENDBRANCH  83  87
ENDBRANCH  78  81
ENDBRANCH  76  77
ENDBRANCH   1  76
TORSDOF 18
ENDMDL
MODEL 2
REMARK VINA RESULT:     -11.1      0.619      8.118
REMARK SMILES O=C(NCCCCNC(=O)c1ccccc1NS(=O)(=O)c1cccc([N+](=O)[O-])c1)c1ccc(-c2c3nc(c(-c4c(F)cc(S(=O)(=O)[O-])cc4F)c4ccc([nH]4)c(-c4c(F)cc(S(=O)(=O)[O-])cc4F)c4nc(c(-c5c(F)cc(S(=O)(=O)[O-])cc5F)c5ccc2[nH]5)C=C4)C=C3)cc1
REMARK SMILES IDX 6 1 5 2 4 3 3 4 1 5 2 6 30 8 31 9 95 10 32 11 94 12 33 13
REMARK SMILES IDX 34 14 35 15 88 16 36 17 93 18 87 19 89 20 37 21 92 22 86 23
REMARK SMILES IDX 85 24 38 26 72 27 51 28 71 29 52 30 55 31 70 32 90 33 53 34
REMARK SMILES IDX 54 35 69 37 91 38 56 39 39 40 40 41 49 42 41 43 42 44 48 45
REMARK SMILES IDX 50 46 43 47 44 48 45 49 46 50 47 51 73 52 74 53 83 54 75 55
REMARK SMILES IDX 76 56 82 57 84 58 77 59 78 60 79 61 80 62 81 63 57 64 58 65
REMARK SMILES IDX 67 66 59 67 60 68 66 69 68 70 61 71 62 72 63 73 64 74 65 75
REMARK SMILES IDX 7 76 8 77 9 78 10 80 11 81 12 82 16 83 13 84 15 85 14 86
REMARK SMILES IDX 17 87 18 89 19 90 20 91 21 92 22 93 29 94 23 95 25 96 24 97
REMARK SMILES IDX 26 98 27 99 28 100
REMARK H PARENT 3 7 89 25 55 36 8 79 17 88
REMARK Flexibility Score: inf
ROOT
ATOM      1  C   UNL A   1      42.224  22.298  28.327  1.00  0.00     0.023 C 
ENDROOT
BRANCH   1   2
ATOM      2  C   UNL A   1      41.419  22.363  27.031  1.00  0.00     0.023 C 
BRANCH   2   3
ATOM      3  C   UNL A   1      40.030  21.737  27.088  1.00  0.00     0.116 C 
BRANCH   3   4
ATOM      4  N   UNL A   1      39.083  22.336  26.157  1.00  0.00    -0.352 N 
ATOM      5  O   UNL A   1      37.753  23.961  25.310  1.00  0.00    -0.269 OA
ATOM      6  C   UNL A   1      38.664  23.647  26.070  1.00  0.00     0.251 C 
ATOM      7  H   UNL A   1      38.688  21.720  25.499  1.00  0.00     0.163 HD
BRANCH   6   8
ATOM      8  C   UNL A   1      39.301  24.665  26.932  1.00  0.00     0.039 A 
ATOM      9  C   UNL A   1      38.976  24.735  28.287  1.00  0.00     0.014 A 
ATOM     10  C   UNL A   1      40.175  25.599  26.371  1.00  0.00     0.014 A 
ATOM     11  C   UNL A   1      39.347  25.853  29.022  1.00  0.00     0.010 A 
ATOM     12  C   UNL A   1      40.646  26.661  27.151  1.00  0.00     0.010 A 
ATOM     13  C   UNL A   1      40.191  26.829  28.468  1.00  0.00    -0.014 A 
BRANCH  13  14
ATOM     14  C   UNL A   1      40.595  27.994  29.304  1.00  0.00     0.031 A 
ATOM     15  C   UNL A   1      39.666  29.159  29.531  1.00  0.00     0.074 A 
ATOM     16  C   UNL A   1      41.801  27.967  29.905  1.00  0.00     0.049 A 
ATOM     17  N   UNL A   1      39.849  30.225  30.268  1.00  0.00    -0.248 NA
ATOM     18  C   UNL A   1      38.369  29.133  28.835  1.00  0.00     0.031 C 
ATOM     19  C   UNL A   1      42.792  26.897  29.756  1.00  0.00     0.029 A 
ATOM     20  N   UNL A   1      42.391  28.841  30.781  1.00  0.00    -0.354 N 
ATOM     21  C   UNL A   1      38.709  31.008  30.106  1.00  0.00     0.074 A 
ATOM     22  C   UNL A   1      37.850  30.305  29.178  1.00  0.00     0.031 C 
ATOM     23  C   UNL A   1      43.835  27.145  30.560  1.00  0.00     0.029 A 
ATOM     24  C   UNL A   1      43.626  28.426  31.223  1.00  0.00     0.049 A 
ATOM     25  H   UNL A   1      41.972  29.685  31.066  1.00  0.00     0.167 HD
ATOM     26  C   UNL A   1      38.408  32.198  30.683  1.00  0.00     0.037 A 
ATOM     27  C   UNL A   1      44.504  29.014  32.057  1.00  0.00     0.037 A 
ATOM     28  C   UNL A   1      39.265  32.880  31.622  1.00  0.00     0.049 A 
ATOM     29  C   UNL A   1      44.151  30.340  32.666  1.00  0.00     0.074 A 
ATOM     30  C   UNL A   1      39.029  34.067  32.296  1.00  0.00     0.029 A 
ATOM     31  N   UNL A   1      40.522  32.444  32.017  1.00  0.00    -0.354 N 
ATOM     32  N   UNL A   1      43.054  31.046  32.527  1.00  0.00    -0.248 NA
ATOM     33  C   UNL A   1      45.155  30.951  33.544  1.00  0.00     0.031 C 
ATOM     34  C   UNL A   1      40.166  34.379  33.049  1.00  0.00     0.029 A 
ATOM     35  C   UNL A   1      41.085  33.352  32.901  1.00  0.00     0.049 A 
ATOM     36  H   UNL A   1      40.951  31.612  31.713  1.00  0.00     0.167 HD
ATOM     37  C   UNL A   1      43.224  32.169  33.327  1.00  0.00     0.074 A 
ATOM     38  C   UNL A   1      44.523  32.040  33.954  1.00  0.00     0.031 C 
ATOM     39  C   UNL A   1      42.378  33.212  33.524  1.00  0.00     0.037 A 
BRANCH  26  40
ATOM     40  C   UNL A   1      37.110  32.861  30.297  1.00  0.00     0.058 A 
ATOM     41  C   UNL A   1      35.944  32.729  31.068  1.00  0.00     0.135 A 
ATOM     42  C   UNL A   1      37.046  33.684  29.159  1.00  0.00     0.135 A 
ATOM     43  F   UNL A   1      35.940  31.949  32.161  1.00  0.00    -0.206 F 
ATOM     44  C   UNL A   1      34.756  33.362  30.710  1.00  0.00     0.059 A 
ATOM     45  C   UNL A   1      35.878  34.350  28.799  1.00  0.00     0.059 A 
ATOM     46  F   UNL A   1      38.130  33.852  28.385  1.00  0.00    -0.206 F 
ATOM     47  C   UNL A   1      34.732  34.171  29.571  1.00  0.00     0.060 A 
BRANCH  47  48
ATOM     48  S   UNL A   1      33.183  34.980  29.119  1.00  0.00     0.124 S 
ATOM     49  O   UNL A   1      32.642  34.045  28.138  1.00  0.00    -0.237 OA
ATOM     50  O   UNL A   1      32.478  35.039  30.395  1.00  0.00    -0.237 OA
ATOM     51  O   UNL A   1      33.615  36.268  28.584  1.00  0.00    -0.744 OA
ENDBRANCH  47  48
ENDBRANCH  26  40
BRANCH  27  52
ATOM     52  C   UNL A   1      45.796  28.346  32.362  1.00  0.00     0.058 A 
ATOM     53  C   UNL A   1      46.937  28.587  31.584  1.00  0.00     0.135 A 
ATOM     54  C   UNL A   1      45.922  27.467  33.451  1.00  0.00     0.135 A 
ATOM     55  F   UNL A   1      46.867  29.417  30.531  1.00  0.00    -0.206 F 
ATOM     56  C   UNL A   1      48.152  27.969  31.860  1.00  0.00     0.059 A 
ATOM     57  C   UNL A   1      47.134  26.862  33.768  1.00  0.00     0.059 A 
ATOM     58  F   UNL A   1      44.865  27.217  34.239  1.00  0.00    -0.206 F 
ATOM     59  C   UNL A   1      48.241  27.110  32.957  1.00  0.00     0.060 A 
BRANCH  59  60
ATOM     60  S   UNL A   1      49.832  26.344  33.330  1.00  0.00     0.124 S 
ATOM     61  O   UNL A   1      50.749  27.457  33.122  1.00  0.00    -0.237 OA
ATOM     62  O   UNL A   1      49.647  25.917  34.714  1.00  0.00    -0.237 OA
ATOM     63  O   UNL A   1      49.920  25.260  32.355  1.00  0.00    -0.744 OA
ENDBRANCH  59  60
ENDBRANCH  27  52
BRANCH  39  64
ATOM     64  C   UNL A   1      42.811  34.272  34.501  1.00  0.00     0.058 A 
ATOM     65  C   UNL A   1      42.594  34.148  35.883  1.00  0.00     0.135 A 
ATOM     66  C   UNL A   1      43.475  35.423  34.045  1.00  0.00     0.135 A 
ATOM     67  F   UNL A   1      41.958  33.071  36.373  1.00  0.00    -0.206 F 
ATOM     68  C   UNL A   1      42.984  35.144  36.772  1.00  0.00     0.059 A 
ATOM     69  C   UNL A   1      43.904  36.415  34.920  1.00  0.00     0.059 A 
ATOM     70  F   UNL A   1      43.720  35.590  32.735  1.00  0.00    -0.206 F 
ATOM     71  C   UNL A   1      43.637  36.275  36.280  1.00  0.00     0.060 A 
BRANCH  71  72
ATOM     72  S   UNL A   1      44.149  37.554  37.446  1.00  0.00     0.124 S 
ATOM     73  O   UNL A   1      45.326  36.942  38.055  1.00  0.00    -0.237 OA
ATOM     74  O   UNL A   1      44.409  38.691  36.569  1.00  0.00    -0.237 OA
ATOM     75  O   UNL A   1      42.992  37.699  38.323  1.00  0.00    -0.744 OA
ENDBRANCH  71  72
ENDBRANCH  39  64
ENDBRANCH  13  14
ENDBRANCH   6   8
ENDBRANCH   3   4
ENDBRANCH   2   3
ENDBRANCH   1   2
BRANCH   1  76
ATOM     76  C   UNL A   1      43.176  23.466  28.535  1.00  0.00     0.116 C 
BRANCH  76  77
ATOM     77  N   UNL A   1      44.555  23.147  28.249  1.00  0.00    -0.352 N 
ATOM     78  C   UNL A   1      45.401  23.738  27.358  1.00  0.00     0.253 C 
ATOM     79  H   UNL A   1      44.936  22.401  28.767  1.00  0.00     0.163 HD
ATOM     80  O   UNL A   1      46.547  23.321  27.223  1.00  0.00    -0.269 OA
BRANCH  78  81
ATOM     81  C   UNL A   1      44.955  24.862  26.516  1.00  0.00     0.063 A 
ATOM     82  C   UNL A   1      45.300  26.137  26.999  1.00  0.00     0.016 A 
ATOM     83  C   UNL A   1      44.053  24.722  25.448  1.00  0.00     0.062 A 
ATOM     84  C   UNL A   1      44.732  27.279  26.440  1.00  0.00     0.001 A 
ATOM     85  C   UNL A   1      43.407  25.877  24.986  1.00  0.00     0.027 A 
ATOM     86  C   UNL A   1      43.762  27.146  25.453  1.00  0.00     0.002 A 
BRANCH  83  87
ATOM     87  N   UNL A   1      43.688  23.463  24.840  1.00  0.00    -0.279 N 
ATOM     88  H   UNL A   1      42.791  23.092  25.006  1.00  0.00     0.180 HD
BRANCH  87  89
ATOM     89  S   UNL A   1      44.779  22.599  23.835  1.00  0.00     0.262 S 
ATOM     90  O   UNL A   1      44.151  22.367  22.553  1.00  0.00    -0.201 OA
ATOM     91  O   UNL A   1      46.032  23.316  23.905  1.00  0.00    -0.201 OA
BRANCH  89  92
ATOM     92  C   UNL A   1      45.039  20.980  24.515  1.00  0.00     0.094 A 
ATOM     93  C   UNL A   1      46.340  20.498  24.687  1.00  0.00     0.023 A 
ATOM     94  C   UNL A   1      43.935  20.180  24.828  1.00  0.00     0.107 A 
ATOM     95  C   UNL A   1      46.543  19.244  25.265  1.00  0.00     0.008 A 
ATOM     96  C   UNL A   1      44.152  18.972  25.494  1.00  0.00     0.270 A 
ATOM     97  C   UNL A   1      45.451  18.492  25.706  1.00  0.00     0.086 A 
BRANCH  96  98
ATOM     98  N   UNL A   1      43.010  18.257  26.072  1.00  0.00     0.062 N 
ATOM     99  O   UNL A   1      43.256  17.339  26.868  1.00  0.00    -0.258 OA
ATOM    100  O   UNL A   1      41.874  18.639  25.763  1.00  0.00    -0.258 OA
ENDBRANCH  96  98
ENDBRANCH  89  92
ENDBRANCH  87  89
ENDBRANCH  83  87
ENDBRANCH  78  81
ENDBRANCH  76  77
ENDBRANCH   1  76
TORSDOF 18
ENDMDL
MODEL 3
REMARK VINA RESULT:     -10.7      4.318      9.707
REMARK SMILES O=C(NCCCCNC(=O)c1ccccc1NS(=O)(=O)c1cccc([N+](=O)[O-])c1)c1ccc(-c2c3nc(c(-c4c(F)cc(S(=O)(=O)[O-])cc4F)c4ccc([nH]4)c(-c4c(F)cc(S(=O)(=O)[O-])cc4F)c4nc(c(-c5c(F)cc(S(=O)(=O)[O-])cc5F)c5ccc2[nH]5)C=C4)C=C3)cc1
REMARK SMILES IDX 6 1 5 2 4 3 3 4 1 5 2 6 30 8 31 9 95 10 32 11 94 12 33 13
REMARK SMILES IDX 34 14 35 15 88 16 36 17 93 18 87 19 89 20 37 21 92 22 86 23
REMARK SMILES IDX 85 24 38 26 72 27 51 28 71 29 52 30 55 31 70 32 90 33 53 34
REMARK SMILES IDX 54 35 69 37 91 38 56 39 39 40 40 41 49 42 41 43 42 44 48 45
REMARK SMILES IDX 50 46 43 47 44 48 45 49 46 50 47 51 73 52 74 53 83 54 75 55
REMARK SMILES IDX 76 56 82 57 84 58 77 59 78 60 79 61 80 62 81 63 57 64 58 65
REMARK SMILES IDX 67 66 59 67 60 68 66 69 68 70 61 71 62 72 63 73 64 74 65 75
REMARK SMILES IDX 7 76 8 77 9 78 10 80 11 81 12 82 16 83 13 84 15 85 14 86
REMARK SMILES IDX 17 87 18 89 19 90 20 91 21 92 22 93 29 94 23 95 25 96 24 97
REMARK SMILES IDX 26 98 27 99 28 100
REMARK H PARENT 3 7 89 25 55 36 8 79 17 88
REMARK Flexibility Score: inf
ROOT
ATOM      1  C   UNL A   1      34.029  28.213  24.543  1.00  0.00     0.023 C 
ENDROOT
BRANCH   1   2
ATOM      2  C   UNL A   1      33.009  28.350  25.671  1.00  0.00     0.023 C 
BRANCH   2   3
ATOM      3  C   UNL A   1      33.594  28.502  27.070  1.00  0.00     0.116 C 
BRANCH   3   4
ATOM      4  N   UNL A   1      33.508  29.859  27.593  1.00  0.00    -0.352 N 
ATOM      5  O   UNL A   1      34.192  31.686  28.743  1.00  0.00    -0.269 OA
ATOM      6  C   UNL A   1      34.472  30.600  28.243  1.00  0.00     0.251 C 
ATOM      7  H   UNL A   1      32.643  30.310  27.464  1.00  0.00     0.163 HD
BRANCH   6   8
ATOM      8  C   UNL A   1      35.840  30.053  28.365  1.00  0.00     0.039 A 
ATOM      9  C   UNL A   1      36.293  29.572  29.594  1.00  0.00     0.014 A 
ATOM     10  C   UNL A   1      36.699  30.084  27.264  1.00  0.00     0.014 A 
ATOM     11  C   UNL A   1      37.648  29.330  29.776  1.00  0.00     0.010 A 
ATOM     12  C   UNL A   1      38.041  29.722  27.424  1.00  0.00     0.010 A 
ATOM     13  C   UNL A   1      38.541  29.396  28.694  1.00  0.00    -0.014 A 
BRANCH  13  14
ATOM     14  C   UNL A   1      39.980  29.092  28.926  1.00  0.00     0.031 A 
ATOM     15  C   UNL A   1      40.576  27.763  28.536  1.00  0.00     0.074 A 
ATOM     16  C   UNL A   1      40.766  30.055  29.449  1.00  0.00     0.049 A 
ATOM     17  N   UNL A   1      41.818  27.360  28.628  1.00  0.00    -0.248 NA
ATOM     18  C   UNL A   1      39.662  26.751  27.982  1.00  0.00     0.031 C 
ATOM     19  C   UNL A   1      40.304  31.380  29.874  1.00  0.00     0.029 A 
ATOM     20  N   UNL A   1      42.115  30.085  29.689  1.00  0.00    -0.354 N 
ATOM     21  C   UNL A   1      41.833  26.045  28.172  1.00  0.00     0.074 A 
ATOM     22  C   UNL A   1      40.468  25.708  27.828  1.00  0.00     0.031 C 
ATOM     23  C   UNL A   1      41.357  32.112  30.259  1.00  0.00     0.029 A 
ATOM     24  C   UNL A   1      42.558  31.290  30.185  1.00  0.00     0.049 A 
ATOM     25  H   UNL A   1      42.711  29.320  29.522  1.00  0.00     0.167 HD
ATOM     26  C   UNL A   1      42.887  25.202  28.048  1.00  0.00     0.037 A 
ATOM     27  C   UNL A   1      43.789  31.689  30.555  1.00  0.00     0.037 A 
ATOM     28  C   UNL A   1      44.247  25.555  28.376  1.00  0.00     0.049 A 
ATOM     29  C   UNL A   1      44.934  30.727  30.424  1.00  0.00     0.074 A 
ATOM     30  C   UNL A   1      45.392  24.787  28.242  1.00  0.00     0.029 A 
ATOM     31  N   UNL A   1      44.649  26.772  28.908  1.00  0.00    -0.354 N 
ATOM     32  N   UNL A   1      44.932  29.501  29.957  1.00  0.00    -0.248 NA
ATOM     33  C   UNL A   1      46.249  31.202  30.870  1.00  0.00     0.031 C 
ATOM     34  C   UNL A   1      46.473  25.515  28.749  1.00  0.00     0.029 A 
ATOM     35  C   UNL A   1      46.016  26.765  29.135  1.00  0.00     0.049 A 
ATOM     36  H   UNL A   1      44.049  27.530  29.097  1.00  0.00     0.167 HD
ATOM     37  C   UNL A   1      46.251  29.069  30.024  1.00  0.00     0.074 A 
ATOM     38  C   UNL A   1      47.022  30.171  30.564  1.00  0.00     0.031 C 
ATOM     39  C   UNL A   1      46.775  27.870  29.669  1.00  0.00     0.037 A 
BRANCH  26  40
ATOM     40  C   UNL A   1      42.618  23.800  27.562  1.00  0.00     0.058 A 
ATOM     41  C   UNL A   1      42.548  23.481  26.196  1.00  0.00     0.135 A 
ATOM     42  C   UNL A   1      42.473  22.747  28.483  1.00  0.00     0.135 A 
ATOM     43  F   UNL A   1      42.668  24.445  25.270  1.00  0.00    -0.206 F 
ATOM     44  C   UNL A   1      42.315  22.179  25.762  1.00  0.00     0.059 A 
ATOM     45  C   UNL A   1      42.270  21.433  28.070  1.00  0.00     0.059 A 
ATOM     46  F   UNL A   1      42.535  22.989  29.801  1.00  0.00    -0.206 F 
ATOM     47  C   UNL A   1      42.177  21.160  26.707  1.00  0.00     0.060 A 
BRANCH  47  48
ATOM     48  S   UNL A   1      41.872  19.477  26.127  1.00  0.00     0.124 S 
ATOM     49  O   UNL A   1      42.792  19.388  24.997  1.00  0.00    -0.237 OA
ATOM     50  O   UNL A   1      42.223  18.677  27.295  1.00  0.00    -0.237 OA
ATOM     51  O   UNL A   1      40.454  19.488  25.781  1.00  0.00    -0.744 OA
ENDBRANCH  47  48
ENDBRANCH  26  40
BRANCH  27  52
ATOM     52  C   UNL A   1      43.994  33.064  31.082  1.00  0.00     0.058 A 
ATOM     53  C   UNL A   1      44.392  34.110  30.238  1.00  0.00     0.135 A 
ATOM     54  C   UNL A   1      43.774  33.364  32.437  1.00  0.00     0.135 A 
ATOM     55  F   UNL A   1      44.618  33.873  28.936  1.00  0.00    -0.206 F 
ATOM     56  C   UNL A   1      44.587  35.400  30.719  1.00  0.00     0.059 A 
ATOM     57  C   UNL A   1      43.929  34.653  32.935  1.00  0.00     0.059 A 
ATOM     58  F   UNL A   1      43.372  32.403  33.282  1.00  0.00    -0.206 F 
ATOM     59  C   UNL A   1      44.348  35.663  32.070  1.00  0.00     0.060 A 
BRANCH  59  60
ATOM     60  S   UNL A   1      44.564  37.349  32.675  1.00  0.00     0.124 S 
ATOM     61  O   UNL A   1      44.158  37.215  34.068  1.00  0.00    -0.237 OA
ATOM     62  O   UNL A   1      45.988  37.577  32.442  1.00  0.00    -0.237 OA
ATOM     63  O   UNL A   1      43.666  38.128  31.826  1.00  0.00    -0.744 OA
ENDBRANCH  59  60
ENDBRANCH  27  52
BRANCH  39  64
ATOM     64  C   UNL A   1      48.266  27.704  29.802  1.00  0.00     0.058 A 
ATOM     65  C   UNL A   1      49.147  28.001  28.750  1.00  0.00     0.135 A 
ATOM     66  C   UNL A   1      48.821  27.261  31.015  1.00  0.00     0.135 A 
ATOM     67  F   UNL A   1      48.670  28.421  27.567  1.00  0.00    -0.206 F 
ATOM     68  C   UNL A   1      50.521  27.826  28.882  1.00  0.00     0.059 A 
ATOM     69  C   UNL A   1      50.194  27.113  31.179  1.00  0.00     0.059 A 
ATOM     70  F   UNL A   1      48.026  26.974  32.059  1.00  0.00    -0.206 F 
ATOM     71  C   UNL A   1      51.035  27.381  30.101  1.00  0.00     0.060 A 
BRANCH  71  72
ATOM     72  S   UNL A   1      52.820  27.171  30.263  1.00  0.00     0.124 S 
ATOM     73  O   UNL A   1      53.250  27.228  28.870  1.00  0.00    -0.237 OA
ATOM     74  O   UNL A   1      53.195  28.313  31.090  1.00  0.00    -0.237 OA
ATOM     75  O   UNL A   1      52.952  25.868  30.908  1.00  0.00    -0.744 OA
ENDBRANCH  71  72
ENDBRANCH  39  64
ENDBRANCH  13  14
ENDBRANCH   6   8
ENDBRANCH   3   4
ENDBRANCH   2   3
ENDBRANCH   1   2
BRANCH   1  76
ATOM     76  C   UNL A   1      33.521  28.657  23.179  1.00  0.00     0.116 C 
BRANCH  76  77
ATOM     77  N   UNL A   1      33.701  27.666  22.144  1.00  0.00    -0.352 N 
ATOM     78  C   UNL A   1      32.888  26.624  21.810  1.00  0.00     0.253 C 
ATOM     79  H   UNL A   1      34.522  27.754  21.607  1.00  0.00     0.163 HD
ATOM     80  O   UNL A   1      33.207  25.853  20.910  1.00  0.00    -0.269 OA
BRANCH  78  81
ATOM     81  C   UNL A   1      31.631  26.376  22.538  1.00  0.00     0.063 A 
ATOM     82  C   UNL A   1      30.673  27.400  22.432  1.00  0.00     0.016 A 
ATOM     83  C   UNL A   1      31.462  25.333  23.465  1.00  0.00     0.062 A 
ATOM     84  C   UNL A   1      29.555  27.407  23.262  1.00  0.00     0.001 A 
ATOM     85  C   UNL A   1      30.395  25.430  24.367  1.00  0.00     0.027 A 
ATOM     86  C   UNL A   1      29.432  26.438  24.251  1.00  0.00     0.002 A 
BRANCH  83  87
ATOM     87  N   UNL A   1      32.354  24.204  23.603  1.00  0.00    -0.279 N 
ATOM     88  H   UNL A   1      32.158  23.374  23.109  1.00  0.00     0.180 HD
BRANCH  87  89
ATOM     89  S   UNL A   1      33.746  24.273  24.605  1.00  0.00     0.262 S 
ATOM     90  O   UNL A   1      34.749  25.090  23.958  1.00  0.00    -0.201 OA
ATOM     91  O   UNL A   1      33.266  24.628  25.922  1.00  0.00    -0.201 OA
BRANCH  89  92
ATOM     92  C   UNL A   1      34.471  22.657  24.708  1.00  0.00     0.094 A 
ATOM     93  C   UNL A   1      35.835  22.521  24.982  1.00  0.00     0.023 A 
ATOM     94  C   UNL A   1      33.677  21.530  24.465  1.00  0.00     0.107 A 
ATOM     95  C   UNL A   1      36.392  21.248  25.108  1.00  0.00     0.008 A 
ATOM     96  C   UNL A   1      34.224  20.265  24.690  1.00  0.00     0.270 A 
ATOM     97  C   UNL A   1      35.582  20.115  25.001  1.00  0.00     0.086 A 
BRANCH  96  98
ATOM     98  N   UNL A   1      33.340  19.096  24.710  1.00  0.00     0.062 N 
ATOM     99  O   UNL A   1      33.851  17.992  24.472  1.00  0.00    -0.258 OA
ATOM    100  O   UNL A   1      32.151  19.276  25.003  1.00  0.00    -0.258 OA
ENDBRANCH  96  98
ENDBRANCH  89  92
ENDBRANCH  87  89
ENDBRANCH  83  87
ENDBRANCH  78  81
ENDBRANCH  76  77
ENDBRANCH   1  76
TORSDOF 18
ENDMDL
