MODEL 1
REMARK VINA RESULT:     -13.1      0.000      0.000
REMARK SMILES Cc1nc2scc(C)n2c1CNc1ccc(C(=O)NCCCCNC(=O)c2ccc(-c3c4nc(c(-c5c(F)cc(S(=O)(=O)[O-])cc5F)c5ccc([nH]5)c(-c5c(F)cc(S(=O)(=O)[O-])cc5F)c5nc(c(-c6c(F)cc(S(=O)(=O)[O-])cc6F)c6ccc3[nH]6)C=C5)C=C4)cc2)cc1
REMARK SMILES IDX 21 1 20 2 19 3 17 4 18 5 16 7 13 8 14 9 94 10 15 11 93 12
REMARK SMILES IDX 12 13 11 15 10 16 1 17 2 18 3 19 4 20 9 21 5 22 7 23 6 24
REMARK SMILES IDX 8 25 22 26 23 27 24 28 25 29 26 31 27 32 28 33 92 34 29 35
REMARK SMILES IDX 91 36 30 37 31 38 32 39 85 40 33 41 90 42 84 43 86 44 34 45
REMARK SMILES IDX 89 46 83 47 82 48 35 50 69 51 48 52 68 53 49 54 52 55 67 56
REMARK SMILES IDX 87 57 50 58 51 59 66 61 88 62 53 63 36 64 37 65 46 66 38 67
REMARK SMILES IDX 39 68 45 69 47 70 40 71 41 72 42 73 43 74 44 75 70 76 71 77
REMARK SMILES IDX 80 78 72 79 73 80 79 81 81 82 74 83 75 84 76 85 77 86 78 87
REMARK SMILES IDX 54 88 55 89 64 90 56 91 57 92 63 93 65 94 58 95 59 96 60 97
REMARK SMILES IDX 61 98 62 99
REMARK H PARENT 19 6 12 14 24 30 86 49 52 60
REMARK Flexibility Score: inf
ROOT
ATOM      1  C   UNL A   1      36.212  21.107  24.744  1.00  0.00     0.023 C 
ENDROOT
BRANCH   1   2
ATOM      2  C   UNL A   1      35.214  21.102  25.908  1.00  0.00     0.116 C 
BRANCH   2   3
ATOM      3  N   UNL A   1      34.211  20.071  25.727  1.00  0.00    -0.352 N 
ATOM      4  C   UNL A   1      32.926  20.082  25.248  1.00  0.00     0.251 C 
ATOM      5  O   UNL A   1      32.316  19.011  25.255  1.00  0.00    -0.269 OA
ATOM      6  H   UNL A   1      34.515  19.177  26.007  1.00  0.00     0.163 HD
BRANCH   4   7
ATOM      7  C   UNL A   1      32.249  21.285  24.679  1.00  0.00     0.039 A 
ATOM      8  C   UNL A   1      31.223  23.631  23.456  1.00  0.00     0.034 A 
ATOM      9  C   UNL A   1      32.001  22.729  22.729  1.00  0.00     0.026 A 
ATOM     10  C   UNL A   1      30.894  23.298  24.771  1.00  0.00     0.026 A 
ATOM     11  C   UNL A   1      32.526  21.584  23.336  1.00  0.00     0.016 A 
ATOM     12  C   UNL A   1      31.371  22.122  25.364  1.00  0.00     0.016 A 
BRANCH   8  13
ATOM     13  N   UNL A   1      30.918  24.863  22.905  1.00  0.00    -0.379 N 
ATOM     14  H   UNL A   1      29.979  25.115  22.748  1.00  0.00     0.160 HD
BRANCH  13  15
ATOM     15  C   UNL A   1      31.986  25.782  22.558  1.00  0.00     0.169 C 
BRANCH  15  16
ATOM     16  C   UNL A   1      32.457  26.577  23.718  1.00  0.00     0.066 A 
ATOM     17  C   UNL A   1      34.359  25.118  24.706  1.00  0.00     0.069 C 
ATOM     18  C   UNL A   1      33.463  26.297  24.644  1.00  0.00     0.062 A 
ATOM     19  N   UNL A   1      33.569  27.290  25.593  1.00  0.00    -0.224 NA
ATOM     20  C   UNL A   1      32.658  28.149  25.233  1.00  0.00     0.194 A 
ATOM     21  N   UNL A   1      31.957  27.801  24.109  1.00  0.00    -0.290 N 
ATOM     22  S   UNL A   1      32.139  29.669  25.884  1.00  0.00    -0.105 S 
ATOM     23  C   UNL A   1      30.998  28.734  23.722  1.00  0.00     0.032 A 
ATOM     24  C   UNL A   1      30.977  29.789  24.565  1.00  0.00     0.090 A 
ATOM     25  C   UNL A   1      30.116  28.630  22.531  1.00  0.00     0.066 C 
ENDBRANCH  15  16
ENDBRANCH  13  15
ENDBRANCH   8  13
ENDBRANCH   4   7
ENDBRANCH   2   3
ENDBRANCH   1   2
BRANCH   1  26
ATOM     26  C   UNL A   1      36.737  22.496  24.348  1.00  0.00     0.023 C 
BRANCH  26  27
ATOM     27  C   UNL A   1      37.650  23.150  25.381  1.00  0.00     0.116 C 
BRANCH  27  28
ATOM     28  N   UNL A   1      38.417  22.173  26.154  1.00  0.00    -0.352 N 
ATOM     29  C   UNL A   1      39.636  22.349  26.784  1.00  0.00     0.251 C 
ATOM     30  H   UNL A   1      38.015  21.278  26.235  1.00  0.00     0.163 HD
ATOM     31  O   UNL A   1      40.351  21.397  27.043  1.00  0.00    -0.269 OA
BRANCH  29  32
ATOM     32  C   UNL A   1      40.040  23.717  27.157  1.00  0.00     0.039 A 
ATOM     33  C   UNL A   1      39.220  24.819  26.894  1.00  0.00     0.014 A 
ATOM     34  C   UNL A   1      41.255  23.870  27.819  1.00  0.00     0.014 A 
ATOM     35  C   UNL A   1      39.593  26.068  27.387  1.00  0.00     0.010 A 
ATOM     36  C   UNL A   1      41.555  25.069  28.414  1.00  0.00     0.010 A 
ATOM     37  C   UNL A   1      40.754  26.183  28.168  1.00  0.00    -0.014 A 
BRANCH  37  38
ATOM     38  C   UNL A   1      41.061  27.418  28.891  1.00  0.00     0.031 A 
ATOM     39  C   UNL A   1      42.221  28.164  28.319  1.00  0.00     0.074 A 
ATOM     40  C   UNL A   1      40.197  27.963  29.779  1.00  0.00     0.049 A 
ATOM     41  N   UNL A   1      43.377  28.380  28.856  1.00  0.00    -0.248 NA
ATOM     42  C   UNL A   1      42.152  28.575  26.903  1.00  0.00     0.031 C 
ATOM     43  C   UNL A   1      38.865  27.449  30.137  1.00  0.00     0.029 A 
ATOM     44  N   UNL A   1      40.242  29.149  30.453  1.00  0.00    -0.354 N 
ATOM     45  C   UNL A   1      44.056  29.208  27.959  1.00  0.00     0.074 A 
ATOM     46  C   UNL A   1      43.377  29.067  26.703  1.00  0.00     0.031 C 
ATOM     47  C   UNL A   1      38.146  28.420  30.738  1.00  0.00     0.029 A 
ATOM     48  C   UNL A   1      39.014  29.555  30.980  1.00  0.00     0.049 A 
ATOM     49  H   UNL A   1      41.069  29.673  30.558  1.00  0.00     0.167 HD
ATOM     50  C   UNL A   1      44.877  30.196  28.420  1.00  0.00     0.037 A 
ATOM     51  C   UNL A   1      38.721  30.737  31.580  1.00  0.00     0.037 A 
ATOM     52  C   UNL A   1      45.140  30.001  29.823  1.00  0.00     0.049 A 
ATOM     53  C   UNL A   1      40.003  31.327  32.027  1.00  0.00     0.074 A 
ATOM     54  C   UNL A   1      45.898  29.154  30.600  1.00  0.00     0.029 A 
ATOM     55  N   UNL A   1      44.202  30.580  30.637  1.00  0.00    -0.354 N 
ATOM     56  N   UNL A   1      40.755  30.788  32.947  1.00  0.00    -0.248 NA
ATOM     57  C   UNL A   1      40.656  32.335  31.199  1.00  0.00     0.031 C 
ATOM     58  C   UNL A   1      45.271  29.124  31.881  1.00  0.00     0.029 A 
ATOM     59  C   UNL A   1      44.180  29.988  31.870  1.00  0.00     0.049 A 
ATOM     60  H   UNL A   1      43.618  31.326  30.369  1.00  0.00     0.167 HD
ATOM     61  C   UNL A   1      42.044  31.058  32.536  1.00  0.00     0.074 A 
ATOM     62  C   UNL A   1      41.924  32.146  31.574  1.00  0.00     0.031 C 
ATOM     63  C   UNL A   1      43.042  30.154  32.748  1.00  0.00     0.037 A 
BRANCH  50  64
ATOM     64  C   UNL A   1      45.014  31.592  27.816  1.00  0.00     0.058 A 
ATOM     65  C   UNL A   1      46.247  31.950  27.219  1.00  0.00     0.135 A 
ATOM     66  C   UNL A   1      44.143  32.674  28.071  1.00  0.00     0.135 A 
ATOM     67  F   UNL A   1      47.152  31.010  26.902  1.00  0.00    -0.206 F 
ATOM     68  C   UNL A   1      46.625  33.278  26.999  1.00  0.00     0.059 A 
ATOM     69  C   UNL A   1      44.483  34.002  27.819  1.00  0.00     0.059 A 
ATOM     70  F   UNL A   1      42.952  32.526  28.658  1.00  0.00    -0.206 F 
ATOM     71  C   UNL A   1      45.742  34.299  27.326  1.00  0.00     0.060 A 
BRANCH  71  72
ATOM     72  S   UNL A   1      46.257  36.016  27.150  1.00  0.00     0.124 S 
ATOM     73  O   UNL A   1      47.209  36.148  28.246  1.00  0.00    -0.237 OA
ATOM     74  O   UNL A   1      46.819  36.025  25.804  1.00  0.00    -0.237 OA
ATOM     75  O   UNL A   1      45.007  36.757  27.305  1.00  0.00    -0.744 OA
ENDBRANCH  71  72
ENDBRANCH  50  64
BRANCH  51  76
ATOM     76  C   UNL A   1      37.447  31.499  31.621  1.00  0.00     0.058 A 
ATOM     77  C   UNL A   1      36.761  31.717  32.830  1.00  0.00     0.135 A 
ATOM     78  C   UNL A   1      37.038  32.282  30.524  1.00  0.00     0.135 A 
ATOM     79  F   UNL A   1      37.091  31.019  33.927  1.00  0.00    -0.206 F 
ATOM     80  C   UNL A   1      35.770  32.697  32.962  1.00  0.00     0.059 A 
ATOM     81  C   UNL A   1      36.049  33.264  30.631  1.00  0.00     0.059 A 
ATOM     82  F   UNL A   1      37.654  32.176  29.338  1.00  0.00    -0.206 F 
ATOM     83  C   UNL A   1      35.440  33.485  31.860  1.00  0.00     0.060 A 
BRANCH  83  84
ATOM     84  S   UNL A   1      34.301  34.876  32.075  1.00  0.00     0.124 S 
ATOM     85  O   UNL A   1      33.200  34.256  32.804  1.00  0.00    -0.237 OA
ATOM     86  O   UNL A   1      35.110  35.826  32.831  1.00  0.00    -0.237 OA
ATOM     87  O   UNL A   1      33.994  35.275  30.703  1.00  0.00    -0.744 OA
ENDBRANCH  83  84
ENDBRANCH  51  76
BRANCH  63  88
ATOM     88  C   UNL A   1      42.878  29.191  33.882  1.00  0.00     0.058 A 
ATOM     89  C   UNL A   1      43.027  29.506  35.242  1.00  0.00     0.135 A 
ATOM     90  C   UNL A   1      42.463  27.891  33.561  1.00  0.00     0.135 A 
ATOM     91  F   UNL A   1      43.346  30.748  35.632  1.00  0.00    -0.206 F 
ATOM     92  C   UNL A   1      42.804  28.556  36.240  1.00  0.00     0.059 A 
ATOM     93  C   UNL A   1      42.206  26.937  34.536  1.00  0.00     0.059 A 
ATOM     94  F   UNL A   1      42.260  27.549  32.277  1.00  0.00    -0.206 F 
ATOM     95  C   UNL A   1      42.391  27.272  35.874  1.00  0.00     0.060 A 
BRANCH  95  96
ATOM     96  S   UNL A   1      42.042  26.056  37.162  1.00  0.00     0.124 S 
ATOM     97  O   UNL A   1      40.667  26.379  37.525  1.00  0.00    -0.237 OA
ATOM     98  O   UNL A   1      42.233  24.790  36.459  1.00  0.00    -0.237 OA
ATOM     99  O   UNL A   1      43.043  26.347  38.186  1.00  0.00    -0.744 OA
ENDBRANCH  95  96
ENDBRANCH  63  88
ENDBRANCH  37  38
ENDBRANCH  29  32
ENDBRANCH  27  28
ENDBRANCH  26  27
ENDBRANCH   1  26
TORSDOF 17
ENDMDL
MODEL 2
REMARK VINA RESULT:     -13.0      2.748      3.988
REMARK SMILES Cc1nc2scc(C)n2c1CNc1ccc(C(=O)NCCCCNC(=O)c2ccc(-c3c4nc(c(-c5c(F)cc(S(=O)(=O)[O-])cc5F)c5ccc([nH]5)c(-c5c(F)cc(S(=O)(=O)[O-])cc5F)c5nc(c(-c6c(F)cc(S(=O)(=O)[O-])cc6F)c6ccc3[nH]6)C=C5)C=C4)cc2)cc1
REMARK SMILES IDX 21 1 20 2 19 3 17 4 18 5 16 7 13 8 14 9 94 10 15 11 93 12
REMARK SMILES IDX 12 13 11 15 10 16 1 17 2 18 3 19 4 20 9 21 5 22 7 23 6 24
REMARK SMILES IDX 8 25 22 26 23 27 24 28 25 29 26 31 27 32 28 33 92 34 29 35
REMARK SMILES IDX 91 36 30 37 31 38 32 39 85 40 33 41 90 42 84 43 86 44 34 45
REMARK SMILES IDX 89 46 83 47 82 48 35 50 69 51 48 52 68 53 49 54 52 55 67 56
REMARK SMILES IDX 87 57 50 58 51 59 66 61 88 62 53 63 36 64 37 65 46 66 38 67
REMARK SMILES IDX 39 68 45 69 47 70 40 71 41 72 42 73 43 74 44 75 70 76 71 77
REMARK SMILES IDX 80 78 72 79 73 80 79 81 81 82 74 83 75 84 76 85 77 86 78 87
REMARK SMILES IDX 54 88 55 89 64 90 56 91 57 92 63 93 65 94 58 95 59 96 60 97
REMARK SMILES IDX 61 98 62 99
REMARK H PARENT 19 6 12 14 24 30 86 49 52 60
REMARK Flexibility Score: inf
ROOT
ATOM      1  C   UNL A   1      40.703  21.135  26.553  1.00  0.00     0.023 C 
ENDROOT
BRANCH   1   2
ATOM      2  C   UNL A   1      39.293  21.451  26.036  1.00  0.00     0.116 C 
BRANCH   2   3
ATOM      3  N   UNL A   1      38.926  22.821  26.336  1.00  0.00    -0.352 N 
ATOM      4  C   UNL A   1      37.799  23.565  26.100  1.00  0.00     0.251 C 
ATOM      5  O   UNL A   1      37.818  24.743  26.466  1.00  0.00    -0.269 OA
ATOM      6  H   UNL A   1      39.632  23.321  26.806  1.00  0.00     0.163 HD
BRANCH   4   7
ATOM      7  C   UNL A   1      36.549  23.030  25.483  1.00  0.00     0.039 A 
ATOM      8  C   UNL A   1      34.148  22.280  24.171  1.00  0.00     0.034 A 
ATOM      9  C   UNL A   1      35.154  22.959  23.483  1.00  0.00     0.026 A 
ATOM     10  C   UNL A   1      34.397  21.905  25.492  1.00  0.00     0.026 A 
ATOM     11  C   UNL A   1      36.328  23.349  24.134  1.00  0.00     0.016 A 
ATOM     12  C   UNL A   1      35.597  22.244  26.130  1.00  0.00     0.016 A 
BRANCH   8  13
ATOM     13  N   UNL A   1      32.909  22.117  23.576  1.00  0.00    -0.379 N 
ATOM     14  H   UNL A   1      32.621  21.226  23.272  1.00  0.00     0.160 HD
BRANCH  13  15
ATOM     15  C   UNL A   1      32.038  23.264  23.400  1.00  0.00     0.169 C 
BRANCH  15  16
ATOM     16  C   UNL A   1      31.893  24.068  24.637  1.00  0.00     0.066 A 
ATOM     17  C   UNL A   1      30.570  22.495  26.217  1.00  0.00     0.069 C 
ATOM     18  C   UNL A   1      31.262  23.751  25.840  1.00  0.00     0.062 A 
ATOM     19  N   UNL A   1      31.327  24.794  26.738  1.00  0.00    -0.224 NA
ATOM     20  C   UNL A   1      31.995  25.706  26.091  1.00  0.00     0.194 A 
ATOM     21  N   UNL A   1      32.384  25.343  24.829  1.00  0.00    -0.290 N 
ATOM     22  S   UNL A   1      32.512  27.310  26.498  1.00  0.00    -0.105 S 
ATOM     23  C   UNL A   1      33.112  26.318  24.152  1.00  0.00     0.032 A 
ATOM     24  C   UNL A   1      33.269  27.423  24.911  1.00  0.00     0.090 A 
ATOM     25  C   UNL A   1      33.681  26.185  22.786  1.00  0.00     0.066 C 
ENDBRANCH  15  16
ENDBRANCH  13  15
ENDBRANCH   8  13
ENDBRANCH   4   7
ENDBRANCH   2   3
ENDBRANCH   1   2
BRANCH   1  26
ATOM     26  C   UNL A   1      41.253  19.764  26.133  1.00  0.00     0.023 C 
BRANCH  26  27
ATOM     27  C   UNL A   1      42.653  19.451  26.654  1.00  0.00     0.116 C 
BRANCH  27  28
ATOM     28  N   UNL A   1      43.620  19.241  25.576  1.00  0.00    -0.352 N 
ATOM     29  C   UNL A   1      44.192  20.188  24.745  1.00  0.00     0.251 C 
ATOM     30  H   UNL A   1      43.898  18.309  25.423  1.00  0.00     0.163 HD
ATOM     31  O   UNL A   1      44.653  19.873  23.661  1.00  0.00    -0.269 OA
BRANCH  29  32
ATOM     32  C   UNL A   1      44.253  21.584  25.212  1.00  0.00     0.039 A 
ATOM     33  C   UNL A   1      43.413  22.569  24.684  1.00  0.00     0.014 A 
ATOM     34  C   UNL A   1      45.153  21.882  26.232  1.00  0.00     0.014 A 
ATOM     35  C   UNL A   1      43.424  23.840  25.257  1.00  0.00     0.010 A 
ATOM     36  C   UNL A   1      45.070  23.089  26.878  1.00  0.00     0.010 A 
ATOM     37  C   UNL A   1      44.240  24.088  26.371  1.00  0.00    -0.014 A 
BRANCH  37  38
ATOM     38  C   UNL A   1      44.117  25.327  27.139  1.00  0.00     0.031 A 
ATOM     39  C   UNL A   1      45.202  26.312  26.853  1.00  0.00     0.074 A 
ATOM     40  C   UNL A   1      42.979  25.652  27.798  1.00  0.00     0.049 A 
ATOM     41  N   UNL A   1      46.135  26.728  27.645  1.00  0.00    -0.248 NA
ATOM     42  C   UNL A   1      45.380  26.761  25.458  1.00  0.00     0.031 C 
ATOM     43  C   UNL A   1      41.733  24.871  27.836  1.00  0.00     0.029 A 
ATOM     44  N   UNL A   1      42.627  26.794  28.458  1.00  0.00    -0.354 N 
ATOM     45  C   UNL A   1      46.821  27.711  26.928  1.00  0.00     0.074 A 
ATOM     46  C   UNL A   1      46.493  27.493  25.548  1.00  0.00     0.031 C 
ATOM     47  C   UNL A   1      40.714  25.655  28.246  1.00  0.00     0.029 A 
ATOM     48  C   UNL A   1      41.255  26.928  28.680  1.00  0.00     0.049 A 
ATOM     49  H   UNL A   1      43.285  27.466  28.752  1.00  0.00     0.167 HD
ATOM     50  C   UNL A   1      47.296  28.822  27.563  1.00  0.00     0.037 A 
ATOM     51  C   UNL A   1      40.599  28.002  29.189  1.00  0.00     0.037 A 
ATOM     52  C   UNL A   1      47.263  28.622  28.990  1.00  0.00     0.049 A 
ATOM     53  C   UNL A   1      41.597  28.814  29.921  1.00  0.00     0.074 A 
ATOM     54  C   UNL A   1      47.976  27.909  29.927  1.00  0.00     0.029 A 
ATOM     55  N   UNL A   1      46.066  28.969  29.559  1.00  0.00    -0.354 N 
ATOM     56  N   UNL A   1      42.210  28.394  30.994  1.00  0.00    -0.248 NA
ATOM     57  C   UNL A   1      42.206  29.965  29.264  1.00  0.00     0.031 C 
ATOM     58  C   UNL A   1      47.090  27.701  31.026  1.00  0.00     0.029 A 
ATOM     59  C   UNL A   1      45.879  28.333  30.754  1.00  0.00     0.049 A 
ATOM     60  H   UNL A   1      45.421  29.596  29.158  1.00  0.00     0.167 HD
ATOM     61  C   UNL A   1      43.477  28.931  30.896  1.00  0.00     0.074 A 
ATOM     62  C   UNL A   1      43.364  30.014  29.928  1.00  0.00     0.031 C 
ATOM     63  C   UNL A   1      44.561  28.233  31.340  1.00  0.00     0.037 A 
BRANCH  50  64
ATOM     64  C   UNL A   1      47.285  30.241  27.002  1.00  0.00     0.058 A 
ATOM     65  C   UNL A   1      48.466  31.017  27.104  1.00  0.00     0.135 A 
ATOM     66  C   UNL A   1      46.122  30.973  26.674  1.00  0.00     0.135 A 
ATOM     67  F   UNL A   1      49.643  30.436  27.385  1.00  0.00    -0.206 F 
ATOM     68  C   UNL A   1      48.467  32.411  26.999  1.00  0.00     0.059 A 
ATOM     69  C   UNL A   1      46.111  32.358  26.523  1.00  0.00     0.059 A 
ATOM     70  F   UNL A   1      44.915  30.410  26.567  1.00  0.00    -0.206 F 
ATOM     71  C   UNL A   1      47.277  33.074  26.731  1.00  0.00     0.060 A 
BRANCH  71  72
ATOM     72  S   UNL A   1      47.244  34.875  26.702  1.00  0.00     0.124 S 
ATOM     73  O   UNL A   1      46.511  35.173  27.926  1.00  0.00    -0.237 OA
ATOM     74  O   UNL A   1      48.666  35.201  26.708  1.00  0.00    -0.237 OA
ATOM     75  O   UNL A   1      46.544  35.176  25.456  1.00  0.00    -0.744 OA
ENDBRANCH  71  72
ENDBRANCH  50  64
BRANCH  51  76
ATOM     76  C   UNL A   1      39.223  28.495  28.926  1.00  0.00     0.058 A 
ATOM     77  C   UNL A   1      38.250  28.532  29.943  1.00  0.00     0.135 A 
ATOM     78  C   UNL A   1      38.926  29.217  27.754  1.00  0.00     0.135 A 
ATOM     79  F   UNL A   1      38.455  27.878  31.096  1.00  0.00    -0.206 F 
ATOM     80  C   UNL A   1      37.081  29.293  29.830  1.00  0.00     0.059 A 
ATOM     81  C   UNL A   1      37.763  29.979  27.618  1.00  0.00     0.059 A 
ATOM     82  F   UNL A   1      39.804  29.273  26.742  1.00  0.00    -0.206 F 
ATOM     83  C   UNL A   1      36.858  30.035  28.671  1.00  0.00     0.060 A 
BRANCH  83  84
ATOM     84  S   UNL A   1      35.446  31.166  28.600  1.00  0.00     0.124 S 
ATOM     85  O   UNL A   1      35.942  32.214  27.713  1.00  0.00    -0.237 OA
ATOM     86  O   UNL A   1      34.395  30.314  28.053  1.00  0.00    -0.237 OA
ATOM     87  O   UNL A   1      35.261  31.565  29.993  1.00  0.00    -0.744 OA
ENDBRANCH  83  84
ENDBRANCH  51  76
BRANCH  63  88
ATOM     88  C   UNL A   1      44.337  27.210  32.409  1.00  0.00     0.058 A 
ATOM     89  C   UNL A   1      44.069  27.490  33.759  1.00  0.00     0.135 A 
ATOM     90  C   UNL A   1      44.315  25.865  32.011  1.00  0.00     0.135 A 
ATOM     91  F   UNL A   1      43.996  28.754  34.200  1.00  0.00    -0.206 F 
ATOM     92  C   UNL A   1      43.820  26.471  34.680  1.00  0.00     0.059 A 
ATOM     93  C   UNL A   1      44.041  24.837  32.903  1.00  0.00     0.059 A 
ATOM     94  F   UNL A   1      44.519  25.543  30.722  1.00  0.00    -0.206 F 
ATOM     95  C   UNL A   1      43.808  25.146  34.240  1.00  0.00     0.060 A 
BRANCH  95  96
ATOM     96  S   UNL A   1      43.428  23.827  35.413  1.00  0.00     0.124 S 
ATOM     97  O   UNL A   1      41.986  23.972  35.582  1.00  0.00    -0.237 OA
ATOM     98  O   UNL A   1      43.867  22.633  34.698  1.00  0.00    -0.237 OA
ATOM     99  O   UNL A   1      44.231  24.172  36.584  1.00  0.00    -0.744 OA
ENDBRANCH  95  96
ENDBRANCH  63  88
ENDBRANCH  37  38
ENDBRANCH  29  32
ENDBRANCH  27  28
ENDBRANCH  26  27
ENDBRANCH   1  26
TORSDOF 17
ENDMDL
MODEL 3
REMARK VINA RESULT:     -12.8      3.088      9.432
REMARK SMILES Cc1nc2scc(C)n2c1CNc1ccc(C(=O)NCCCCNC(=O)c2ccc(-c3c4nc(c(-c5c(F)cc(S(=O)(=O)[O-])cc5F)c5ccc([nH]5)c(-c5c(F)cc(S(=O)(=O)[O-])cc5F)c5nc(c(-c6c(F)cc(S(=O)(=O)[O-])cc6F)c6ccc3[nH]6)C=C5)C=C4)cc2)cc1
REMARK SMILES IDX 21 1 20 2 19 3 17 4 18 5 16 7 13 8 14 9 94 10 15 11 93 12
REMARK SMILES IDX 12 13 11 15 10 16 1 17 2 18 3 19 4 20 9 21 5 22 7 23 6 24
REMARK SMILES IDX 8 25 22 26 23 27 24 28 25 29 26 31 27 32 28 33 92 34 29 35
REMARK SMILES IDX 91 36 30 37 31 38 32 39 85 40 33 41 90 42 84 43 86 44 34 45
REMARK SMILES IDX 89 46 83 47 82 48 35 50 69 51 48 52 68 53 49 54 52 55 67 56
REMARK SMILES IDX 87 57 50 58 51 59 66 61 88 62 53 63 36 64 37 65 46 66 38 67
REMARK SMILES IDX 39 68 45 69 47 70 40 71 41 72 42 73 43 74 44 75 70 76 71 77
REMARK SMILES IDX 80 78 72 79 73 80 79 81 81 82 74 83 75 84 76 85 77 86 78 87
REMARK SMILES IDX 54 88 55 89 64 90 56 91 57 92 63 93 65 94 58 95 59 96 60 97
REMARK SMILES IDX 61 98 62 99
REMARK H PARENT 19 6 12 14 24 30 86 49 52 60
REMARK Flexibility Score: inf
ROOT
ATOM      1  C   UNL A   1      31.700  29.896  25.786  1.00  0.00     0.023 C 
ENDROOT
BRANCH   1   2
ATOM      2  C   UNL A   1      32.322  29.533  24.432  1.00  0.00     0.116 C 
BRANCH   2   3
ATOM      3  N   UNL A   1      31.351  29.663  23.363  1.00  0.00    -0.352 N 
ATOM      4  C   UNL A   1      30.627  28.754  22.636  1.00  0.00     0.251 C 
ATOM      5  O   UNL A   1      29.890  29.201  21.754  1.00  0.00    -0.269 OA
ATOM      6  H   UNL A   1      31.176  30.597  23.106  1.00  0.00     0.163 HD
BRANCH   4   7
ATOM      7  C   UNL A   1      30.635  27.281  22.878  1.00  0.00     0.039 A 
ATOM      8  C   UNL A   1      30.653  24.546  23.633  1.00  0.00     0.034 A 
ATOM      9  C   UNL A   1      29.825  25.460  24.285  1.00  0.00     0.026 A 
ATOM     10  C   UNL A   1      31.401  25.000  22.546  1.00  0.00     0.026 A 
ATOM     11  C   UNL A   1      29.831  26.812  23.928  1.00  0.00     0.016 A 
ATOM     12  C   UNL A   1      31.366  26.343  22.150  1.00  0.00     0.016 A 
BRANCH   8  13
ATOM     13  N   UNL A   1      30.804  23.274  24.156  1.00  0.00    -0.379 N 
ATOM     14  H   UNL A   1      30.526  22.488  23.631  1.00  0.00     0.160 HD
BRANCH  13  15
ATOM     15  C   UNL A   1      31.370  23.101  25.481  1.00  0.00     0.169 C 
BRANCH  15  16
ATOM     16  C   UNL A   1      32.849  23.206  25.489  1.00  0.00     0.066 A 
ATOM     17  C   UNL A   1      33.264  25.723  25.953  1.00  0.00     0.069 C 
ATOM     18  C   UNL A   1      33.665  24.322  25.682  1.00  0.00     0.062 A 
ATOM     19  N   UNL A   1      35.000  23.997  25.585  1.00  0.00    -0.224 NA
ATOM     20  C   UNL A   1      34.982  22.716  25.354  1.00  0.00     0.194 A 
ATOM     21  N   UNL A   1      33.730  22.163  25.297  1.00  0.00    -0.290 N 
ATOM     22  S   UNL A   1      36.229  21.537  25.107  1.00  0.00    -0.105 S 
ATOM     23  C   UNL A   1      33.722  20.788  25.068  1.00  0.00     0.032 A 
ATOM     24  C   UNL A   1      34.978  20.307  24.950  1.00  0.00     0.090 A 
ATOM     25  C   UNL A   1      32.512  19.929  24.987  1.00  0.00     0.066 C 
ENDBRANCH  15  16
ENDBRANCH  13  15
ENDBRANCH   8  13
ENDBRANCH   4   7
ENDBRANCH   2   3
ENDBRANCH   1   2
BRANCH   1  26
ATOM     26  C   UNL A   1      32.211  29.068  26.975  1.00  0.00     0.023 C 
BRANCH  26  27
ATOM     27  C   UNL A   1      33.542  29.538  27.554  1.00  0.00     0.116 C 
BRANCH  27  28
ATOM     28  N   UNL A   1      33.866  30.913  27.174  1.00  0.00    -0.352 N 
ATOM     29  C   UNL A   1      34.903  31.706  27.636  1.00  0.00     0.251 C 
ATOM     30  H   UNL A   1      33.272  31.327  26.507  1.00  0.00     0.163 HD
ATOM     31  O   UNL A   1      34.843  32.921  27.563  1.00  0.00    -0.269 OA
BRANCH  29  32
ATOM     32  C   UNL A   1      36.094  31.043  28.197  1.00  0.00     0.039 A 
ATOM     33  C   UNL A   1      36.343  29.684  27.984  1.00  0.00     0.014 A 
ATOM     34  C   UNL A   1      36.987  31.831  28.918  1.00  0.00     0.014 A 
ATOM     35  C   UNL A   1      37.549  29.144  28.426  1.00  0.00     0.010 A 
ATOM     36  C   UNL A   1      38.225  31.332  29.236  1.00  0.00     0.010 A 
ATOM     37  C   UNL A   1      38.498  29.980  29.033  1.00  0.00    -0.014 A 
BRANCH  37  38
ATOM     38  C   UNL A   1      39.858  29.511  29.306  1.00  0.00     0.031 A 
ATOM     39  C   UNL A   1      40.159  29.385  30.762  1.00  0.00     0.074 A 
ATOM     40  C   UNL A   1      40.635  28.965  28.341  1.00  0.00     0.049 A 
ATOM     41  N   UNL A   1      40.997  30.072  31.468  1.00  0.00    -0.248 NA
ATOM     42  C   UNL A   1      39.297  28.506  31.576  1.00  0.00     0.031 C 
ATOM     43  C   UNL A   1      40.262  28.741  26.935  1.00  0.00     0.029 A 
ATOM     44  N   UNL A   1      41.860  28.368  28.415  1.00  0.00    -0.354 N 
ATOM     45  C   UNL A   1      40.973  29.495  32.740  1.00  0.00     0.074 A 
ATOM     46  C   UNL A   1      39.751  28.747  32.809  1.00  0.00     0.031 C 
ATOM     47  C   UNL A   1      41.105  27.851  26.373  1.00  0.00     0.029 A 
ATOM     48  C   UNL A   1      42.184  27.585  27.305  1.00  0.00     0.049 A 
ATOM     49  H   UNL A   1      42.463  28.479  29.185  1.00  0.00     0.167 HD
ATOM     50  C   UNL A   1      42.119  29.394  33.473  1.00  0.00     0.037 A 
ATOM     51  C   UNL A   1      43.262  26.775  27.149  1.00  0.00     0.037 A 
ATOM     52  C   UNL A   1      43.148  30.218  32.891  1.00  0.00     0.049 A 
ATOM     53  C   UNL A   1      44.283  27.219  28.123  1.00  0.00     0.074 A 
ATOM     54  C   UNL A   1      43.443  31.560  32.810  1.00  0.00     0.029 A 
ATOM     55  N   UNL A   1      43.869  29.577  31.917  1.00  0.00    -0.354 N 
ATOM     56  N   UNL A   1      44.867  28.385  28.064  1.00  0.00    -0.248 NA
ATOM     57  C   UNL A   1      44.410  26.521  29.398  1.00  0.00     0.031 C 
ATOM     58  C   UNL A   1      44.245  31.720  31.640  1.00  0.00     0.029 A 
ATOM     59  C   UNL A   1      44.461  30.469  31.067  1.00  0.00     0.049 A 
ATOM     60  H   UNL A   1      43.950  28.599  31.838  1.00  0.00     0.167 HD
ATOM     61  C   UNL A   1      45.045  28.745  29.384  1.00  0.00     0.074 A 
ATOM     62  C   UNL A   1      44.916  27.507  30.143  1.00  0.00     0.031 C 
ATOM     63  C   UNL A   1      44.936  30.048  29.767  1.00  0.00     0.037 A 
BRANCH  50  64
ATOM     64  C   UNL A   1      42.512  28.208  34.352  1.00  0.00     0.058 A 
ATOM     65  C   UNL A   1      42.656  28.419  35.745  1.00  0.00     0.135 A 
ATOM     66  C   UNL A   1      43.054  26.994  33.877  1.00  0.00     0.135 A 
ATOM     67  F   UNL A   1      42.160  29.524  36.324  1.00  0.00    -0.206 F 
ATOM     68  C   UNL A   1      43.375  27.551  36.571  1.00  0.00     0.059 A 
ATOM     69  C   UNL A   1      43.737  26.093  34.693  1.00  0.00     0.059 A 
ATOM     70  F   UNL A   1      43.037  26.645  32.588  1.00  0.00    -0.206 F 
ATOM     71  C   UNL A   1      43.932  26.400  36.028  1.00  0.00     0.060 A 
BRANCH  71  72
ATOM     72  S   UNL A   1      44.951  25.330  37.057  1.00  0.00     0.124 S 
ATOM     73  O   UNL A   1      44.802  24.047  36.381  1.00  0.00    -0.237 OA
ATOM     74  O   UNL A   1      46.260  25.966  36.950  1.00  0.00    -0.237 OA
ATOM     75  O   UNL A   1      44.320  25.430  38.371  1.00  0.00    -0.744 OA
ENDBRANCH  71  72
ENDBRANCH  50  64
BRANCH  51  76
ATOM     76  C   UNL A   1      43.410  25.519  26.370  1.00  0.00     0.058 A 
ATOM     77  C   UNL A   1      44.406  25.379  25.385  1.00  0.00     0.135 A 
ATOM     78  C   UNL A   1      42.775  24.332  26.785  1.00  0.00     0.135 A 
ATOM     79  F   UNL A   1      45.067  26.457  24.937  1.00  0.00    -0.206 F 
ATOM     80  C   UNL A   1      44.794  24.130  24.887  1.00  0.00     0.059 A 
ATOM     81  C   UNL A   1      43.143  23.075  26.299  1.00  0.00     0.059 A 
ATOM     82  F   UNL A   1      41.838  24.355  27.745  1.00  0.00    -0.206 F 
ATOM     83  C   UNL A   1      44.174  22.979  25.371  1.00  0.00     0.060 A 
BRANCH  83  84
ATOM     84  S   UNL A   1      44.802  21.356  24.872  1.00  0.00     0.124 S 
ATOM     85  O   UNL A   1      44.669  21.413  23.421  1.00  0.00    -0.237 OA
ATOM     86  O   UNL A   1      46.167  21.381  25.388  1.00  0.00    -0.237 OA
ATOM     87  O   UNL A   1      43.900  20.424  25.545  1.00  0.00    -0.744 OA
ENDBRANCH  83  84
ENDBRANCH  51  76
BRANCH  63  88
ATOM     88  C   UNL A   1      45.197  31.100  28.734  1.00  0.00     0.058 A 
ATOM     89  C   UNL A   1      44.227  31.677  27.899  1.00  0.00     0.135 A 
ATOM     90  C   UNL A   1      46.504  31.603  28.653  1.00  0.00     0.135 A 
ATOM     91  F   UNL A   1      42.942  31.304  27.974  1.00  0.00    -0.206 F 
ATOM     92  C   UNL A   1      44.552  32.692  26.998  1.00  0.00     0.059 A 
ATOM     93  C   UNL A   1      46.845  32.631  27.785  1.00  0.00     0.059 A 
ATOM     94  F   UNL A   1      47.461  31.118  29.462  1.00  0.00    -0.206 F 
ATOM     95  C   UNL A   1      45.866  33.163  26.950  1.00  0.00     0.060 A 
BRANCH  95  96
ATOM     96  S   UNL A   1      46.280  34.516  25.829  1.00  0.00     0.124 S 
ATOM     97  O   UNL A   1      45.990  35.690  26.644  1.00  0.00    -0.237 OA
ATOM     98  O   UNL A   1      47.691  34.271  25.547  1.00  0.00    -0.237 OA
ATOM     99  O   UNL A   1      45.382  34.306  24.696  1.00  0.00    -0.744 OA
ENDBRANCH  95  96
ENDBRANCH  63  88
ENDBRANCH  37  38
ENDBRANCH  29  32
ENDBRANCH  27  28
ENDBRANCH  26  27
ENDBRANCH   1  26
TORSDOF 17
ENDMDL
