MODEL 1
REMARK VINA RESULT:     -10.4      0.000      0.000
REMARK SMILES C[NH2+]C[C@H](C)C(=O)N1CC[C@@](C(=O)NCCCCNC(=O)c2ccc(-c3c4nc(c(-c5c(F)cc(S(=O)(=O)[O-])cc5F)c5ccc([nH]5)c(-c5c(F)cc(S(=O)(=O)[O-])cc5F)c5nc(c(-c6c(F)cc(S(=O)(=O)[O-])cc6F)c6ccc3[nH]6)C=C5)C=C4)cc2)(C(F)(F)F)C1
REMARK SMILES IDX 16 1 15 2 14 3 12 4 13 5 11 7 8 8 9 9 92 10 10 11 6 12 7 13
REMARK SMILES IDX 4 14 5 15 3 16 2 17 1 18 88 21 89 22 90 23 91 24 17 25 18 26
REMARK SMILES IDX 19 27 20 28 21 30 22 31 23 32 87 33 24 34 86 35 25 36 26 37
REMARK SMILES IDX 27 38 80 39 28 40 85 41 79 42 81 43 29 44 84 45 78 46 77 47
REMARK SMILES IDX 30 49 64 50 43 51 63 52 44 53 47 54 62 55 82 56 45 57 46 58
REMARK SMILES IDX 61 60 83 61 48 62 31 63 32 64 41 65 33 66 34 67 40 68 42 69
REMARK SMILES IDX 35 70 36 71 37 72 38 73 39 74 65 75 66 76 75 77 67 78 68 79
REMARK SMILES IDX 74 80 76 81 69 82 70 83 71 84 72 85 73 86 49 87 50 88 59 89
REMARK SMILES IDX 51 90 52 91 58 92 60 93 53 94 54 95 55 96 56 97 57 98
REMARK H PARENT 14 6 2 19 2 20 19 29 81 48 47 59
REMARK Flexibility Score: inf
ROOT
ATOM      1  C   UNL A   1      37.203  22.674  24.800  1.00  0.00     0.023 C 
ENDROOT
BRANCH   1   2
ATOM      2  C   UNL A   1      36.309  23.385  25.811  1.00  0.00     0.116 C 
BRANCH   2   3
ATOM      3  N   UNL A   1      35.531  22.480  26.639  1.00  0.00    -0.355 N 
ATOM      4  C   UNL A   1      34.253  22.011  26.532  1.00  0.00     0.237 C 
ATOM      5  O   UNL A   1      33.932  21.157  27.361  1.00  0.00    -0.274 OA
ATOM      6  H   UNL A   1      36.017  22.142  27.426  1.00  0.00     0.163 HD
BRANCH   4   7
ATOM      7  C   UNL A   1      33.269  22.513  25.479  1.00  0.00     0.163 C 
ATOM      8  N   UNL A   1      31.994  24.524  25.665  1.00  0.00    -0.341 N 
ATOM      9  C   UNL A   1      31.019  23.454  25.667  1.00  0.00     0.121 C 
ATOM     10  C   UNL A   1      33.318  24.028  25.308  1.00  0.00     0.146 C 
ATOM     11  C   UNL A   1      31.812  22.167  25.839  1.00  0.00     0.050 C 
BRANCH   8  12
ATOM     12  C   UNL A   1      31.799  25.877  25.824  1.00  0.00     0.231 C 
ATOM     13  O   UNL A   1      31.334  26.310  26.885  1.00  0.00    -0.274 OA
BRANCH  12  14
ATOM     14  C   UNL A   1      31.960  26.842  24.648  1.00  0.00     0.130 C 
ATOM     15  C   UNL A   1      30.735  27.693  24.326  1.00  0.00     0.024 C 
BRANCH  14  16
ATOM     16  C   UNL A   1      33.230  27.701  24.818  1.00  0.00     0.273 C 
BRANCH  16  17
ATOM     17  N   UNL A   1      33.686  27.918  26.199  1.00  0.00    -0.348 N 
ATOM     18  C   UNL A   1      33.388  29.264  26.681  1.00  0.00     0.330 C 
ATOM     19  H   UNL A   1      33.222  27.243  26.807  1.00  0.00     0.346 HD
ATOM     20  H   UNL A   1      34.699  27.802  26.213  1.00  0.00     0.346 HD
ENDBRANCH  16  17
ENDBRANCH  14  16
ENDBRANCH  12  14
ENDBRANCH   8  12
BRANCH   7  21
ATOM     21  C   UNL A   1      33.638  21.883  24.148  1.00  0.00     0.404 C 
ATOM     22  F   UNL A   1      32.515  21.429  23.525  1.00  0.00    -0.170 F 
ATOM     23  F   UNL A   1      34.215  22.756  23.296  1.00  0.00    -0.170 F 
ATOM     24  F   UNL A   1      34.446  20.809  24.282  1.00  0.00    -0.170 F 
ENDBRANCH   7  21
ENDBRANCH   4   7
ENDBRANCH   2   3
ENDBRANCH   1   2
BRANCH   1  25
ATOM     25  C   UNL A   1      37.776  21.341  25.272  1.00  0.00     0.023 C 
BRANCH  25  26
ATOM     26  C   UNL A   1      39.121  21.423  25.985  1.00  0.00     0.116 C 
BRANCH  26  27
ATOM     27  N   UNL A   1      39.867  20.171  25.975  1.00  0.00    -0.352 N 
ATOM     28  C   UNL A   1      41.226  19.989  26.111  1.00  0.00     0.251 C 
ATOM     29  H   UNL A   1      39.335  19.353  25.853  1.00  0.00     0.163 HD
ATOM     30  O   UNL A   1      41.729  18.879  25.964  1.00  0.00    -0.269 OA
BRANCH  28  31
ATOM     31  C   UNL A   1      42.081  21.160  26.408  1.00  0.00     0.039 A 
ATOM     32  C   UNL A   1      42.507  21.978  25.359  1.00  0.00     0.014 A 
ATOM     33  C   UNL A   1      42.403  21.477  27.729  1.00  0.00     0.014 A 
ATOM     34  C   UNL A   1      43.178  23.171  25.644  1.00  0.00     0.010 A 
ATOM     35  C   UNL A   1      43.010  22.697  28.014  1.00  0.00     0.010 A 
ATOM     36  C   UNL A   1      43.390  23.564  26.975  1.00  0.00    -0.014 A 
BRANCH  36  37
ATOM     37  C   UNL A   1      43.993  24.875  27.325  1.00  0.00     0.031 A 
ATOM     38  C   UNL A   1      43.112  25.995  27.805  1.00  0.00     0.074 A 
ATOM     39  C   UNL A   1      45.308  25.090  27.117  1.00  0.00     0.049 A 
ATOM     40  N   UNL A   1      43.402  27.257  27.983  1.00  0.00    -0.248 NA
ATOM     41  C   UNL A   1      41.709  25.653  28.092  1.00  0.00     0.031 C 
ATOM     42  C   UNL A   1      46.264  24.093  26.628  1.00  0.00     0.029 A 
ATOM     43  N   UNL A   1      46.064  26.226  27.266  1.00  0.00    -0.354 N 
ATOM     44  C   UNL A   1      42.218  27.864  28.384  1.00  0.00     0.074 A 
ATOM     45  C   UNL A   1      41.196  26.841  28.380  1.00  0.00     0.031 C 
ATOM     46  C   UNL A   1      47.478  24.661  26.525  1.00  0.00     0.029 A 
ATOM     47  C   UNL A   1      47.379  26.069  26.896  1.00  0.00     0.049 A 
ATOM     48  H   UNL A   1      45.699  27.075  27.607  1.00  0.00     0.167 HD
ATOM     49  C   UNL A   1      42.007  29.153  28.741  1.00  0.00     0.037 A 
ATOM     50  C   UNL A   1      48.386  26.963  26.839  1.00  0.00     0.037 A 
ATOM     51  C   UNL A   1      43.032  30.161  28.770  1.00  0.00     0.049 A 
ATOM     52  C   UNL A   1      48.123  28.393  27.230  1.00  0.00     0.074 A 
ATOM     53  C   UNL A   1      42.922  31.491  29.140  1.00  0.00     0.029 A 
ATOM     54  N   UNL A   1      44.359  29.950  28.427  1.00  0.00    -0.354 N 
ATOM     55  N   UNL A   1      47.001  28.944  27.626  1.00  0.00    -0.248 NA
ATOM     56  C   UNL A   1      49.261  29.323  27.164  1.00  0.00     0.031 C 
ATOM     57  C   UNL A   1      44.179  32.089  29.000  1.00  0.00     0.029 A 
ATOM     58  C   UNL A   1      45.077  31.124  28.575  1.00  0.00     0.049 A 
ATOM     59  H   UNL A   1      44.734  29.092  28.123  1.00  0.00     0.167 HD
ATOM     60  C   UNL A   1      47.305  30.276  27.887  1.00  0.00     0.074 A 
ATOM     61  C   UNL A   1      48.714  30.449  27.606  1.00  0.00     0.031 C 
ATOM     62  C   UNL A   1      46.488  31.267  28.320  1.00  0.00     0.037 A 
BRANCH  49  63
ATOM     63  C   UNL A   1      40.612  29.540  29.144  1.00  0.00     0.058 A 
ATOM     64  C   UNL A   1      40.289  29.813  30.483  1.00  0.00     0.135 A 
ATOM     65  C   UNL A   1      39.596  29.669  28.185  1.00  0.00     0.135 A 
ATOM     66  F   UNL A   1      41.221  29.689  31.442  1.00  0.00    -0.206 F 
ATOM     67  C   UNL A   1      39.002  30.175  30.860  1.00  0.00     0.059 A 
ATOM     68  C   UNL A   1      38.306  30.053  28.536  1.00  0.00     0.059 A 
ATOM     69  F   UNL A   1      39.852  29.419  26.890  1.00  0.00    -0.206 F 
ATOM     70  C   UNL A   1      38.015  30.289  29.880  1.00  0.00     0.060 A 
BRANCH  70  71
ATOM     71  S   UNL A   1      36.347  30.760  30.385  1.00  0.00     0.124 S 
ATOM     72  O   UNL A   1      36.588  32.058  31.007  1.00  0.00    -0.237 OA
ATOM     73  O   UNL A   1      35.631  30.789  29.114  1.00  0.00    -0.237 OA
ATOM     74  O   UNL A   1      35.954  29.690  31.296  1.00  0.00    -0.744 OA
ENDBRANCH  70  71
ENDBRANCH  49  63
BRANCH  50  75
ATOM     75  C   UNL A   1      49.742  26.538  26.400  1.00  0.00     0.058 A 
ATOM     76  C   UNL A   1      50.152  26.710  25.070  1.00  0.00     0.135 A 
ATOM     77  C   UNL A   1      50.648  25.945  27.293  1.00  0.00     0.135 A 
ATOM     78  F   UNL A   1      49.318  27.267  24.179  1.00  0.00    -0.206 F 
ATOM     79  C   UNL A   1      51.403  26.287  24.632  1.00  0.00     0.059 A 
ATOM     80  C   UNL A   1      51.913  25.534  26.884  1.00  0.00     0.059 A 
ATOM     81  F   UNL A   1      50.311  25.774  28.580  1.00  0.00    -0.206 F 
ATOM     82  C   UNL A   1      52.276  25.696  25.546  1.00  0.00     0.060 A 
BRANCH  82  83
ATOM     83  S   UNL A   1      53.909  25.173  24.979  1.00  0.00     0.124 S 
ATOM     84  O   UNL A   1      54.765  25.686  26.042  1.00  0.00    -0.237 OA
ATOM     85  O   UNL A   1      53.765  23.722  24.917  1.00  0.00    -0.237 OA
ATOM     86  O   UNL A   1      54.040  25.837  23.686  1.00  0.00    -0.744 OA
ENDBRANCH  82  83
ENDBRANCH  50  75
BRANCH  62  87
ATOM     87  C   UNL A   1      47.100  32.614  28.573  1.00  0.00     0.058 A 
ATOM     88  C   UNL A   1      47.674  32.940  29.811  1.00  0.00     0.135 A 
ATOM     89  C   UNL A   1      47.191  33.555  27.535  1.00  0.00     0.135 A 
ATOM     90  F   UNL A   1      47.605  32.077  30.837  1.00  0.00    -0.206 F 
ATOM     91  C   UNL A   1      48.319  34.156  30.011  1.00  0.00     0.059 A 
ATOM     92  C   UNL A   1      47.848  34.769  27.707  1.00  0.00     0.059 A 
ATOM     93  F   UNL A   1      46.662  33.286  26.330  1.00  0.00    -0.206 F 
ATOM     94  C   UNL A   1      48.407  35.062  28.951  1.00  0.00     0.060 A 
BRANCH  94  95
ATOM     95  S   UNL A   1      49.310  36.606  29.202  1.00  0.00     0.124 S 
ATOM     96  O   UNL A   1      48.264  37.597  28.974  1.00  0.00    -0.237 OA
ATOM     97  O   UNL A   1      49.774  36.477  30.580  1.00  0.00    -0.237 OA
ATOM     98  O   UNL A   1      50.358  36.553  28.187  1.00  0.00    -0.744 OA
ENDBRANCH  94  95
ENDBRANCH  62  87
ENDBRANCH  36  37
ENDBRANCH  28  31
ENDBRANCH  26  27
ENDBRANCH  25  26
ENDBRANCH   1  25
TORSDOF 19
ENDMDL
MODEL 2
REMARK VINA RESULT:     -10.3      5.963     10.556
REMARK SMILES C[NH2+]C[C@H](C)C(=O)N1CC[C@@](C(=O)NCCCCNC(=O)c2ccc(-c3c4nc(c(-c5c(F)cc(S(=O)(=O)[O-])cc5F)c5ccc([nH]5)c(-c5c(F)cc(S(=O)(=O)[O-])cc5F)c5nc(c(-c6c(F)cc(S(=O)(=O)[O-])cc6F)c6ccc3[nH]6)C=C5)C=C4)cc2)(C(F)(F)F)C1
REMARK SMILES IDX 16 1 15 2 14 3 12 4 13 5 11 7 8 8 9 9 92 10 10 11 6 12 7 13
REMARK SMILES IDX 4 14 5 15 3 16 2 17 1 18 88 21 89 22 90 23 91 24 17 25 18 26
REMARK SMILES IDX 19 27 20 28 21 30 22 31 23 32 87 33 24 34 86 35 25 36 26 37
REMARK SMILES IDX 27 38 80 39 28 40 85 41 79 42 81 43 29 44 84 45 78 46 77 47
REMARK SMILES IDX 30 49 64 50 43 51 63 52 44 53 47 54 62 55 82 56 45 57 46 58
REMARK SMILES IDX 61 60 83 61 48 62 31 63 32 64 41 65 33 66 34 67 40 68 42 69
REMARK SMILES IDX 35 70 36 71 37 72 38 73 39 74 65 75 66 76 75 77 67 78 68 79
REMARK SMILES IDX 74 80 76 81 69 82 70 83 71 84 72 85 73 86 49 87 50 88 59 89
REMARK SMILES IDX 51 90 52 91 58 92 60 93 53 94 54 95 55 96 56 97 57 98
REMARK H PARENT 14 6 2 19 2 20 19 29 81 48 47 59
REMARK Flexibility Score: inf
ROOT
ATOM      1  C   UNL A   1      37.781  23.966  25.953  1.00  0.00     0.023 C 
ENDROOT
BRANCH   1   2
ATOM      2  C   UNL A   1      36.318  23.707  25.604  1.00  0.00     0.116 C 
BRANCH   2   3
ATOM      3  N   UNL A   1      35.633  22.857  26.562  1.00  0.00    -0.355 N 
ATOM      4  C   UNL A   1      34.322  22.495  26.692  1.00  0.00     0.237 C 
ATOM      5  O   UNL A   1      34.089  21.659  27.567  1.00  0.00    -0.274 OA
ATOM      6  H   UNL A   1      36.225  22.469  27.247  1.00  0.00     0.163 HD
BRANCH   4   7
ATOM      7  C   UNL A   1      33.208  23.090  25.837  1.00  0.00     0.163 C 
ATOM      8  N   UNL A   1      32.193  25.218  26.223  1.00  0.00    -0.341 N 
ATOM      9  C   UNL A   1      31.138  24.250  26.433  1.00  0.00     0.121 C 
ATOM     10  C   UNL A   1      33.369  24.593  25.630  1.00  0.00     0.146 C 
ATOM     11  C   UNL A   1      31.820  22.891  26.476  1.00  0.00     0.050 C 
BRANCH   8  12
ATOM     12  C   UNL A   1      32.164  26.584  26.389  1.00  0.00     0.231 C 
ATOM     13  O   UNL A   1      31.322  27.094  27.138  1.00  0.00    -0.274 OA
BRANCH  12  14
ATOM     14  C   UNL A   1      33.022  27.504  25.518  1.00  0.00     0.130 C 
ATOM     15  C   UNL A   1      32.252  28.375  24.529  1.00  0.00     0.024 C 
BRANCH  14  16
ATOM     16  C   UNL A   1      33.987  28.335  26.388  1.00  0.00     0.273 C 
BRANCH  16  17
ATOM     17  N   UNL A   1      34.015  29.782  26.124  1.00  0.00    -0.348 N 
ATOM     18  C   UNL A   1      33.530  30.565  27.257  1.00  0.00     0.330 C 
ATOM     19  H   UNL A   1      34.975  30.059  25.921  1.00  0.00     0.346 HD
ATOM     20  H   UNL A   1      33.397  29.964  25.334  1.00  0.00     0.346 HD
ENDBRANCH  16  17
ENDBRANCH  14  16
ENDBRANCH  12  14
ENDBRANCH   8  12
BRANCH   7  21
ATOM     21  C   UNL A   1      33.251  22.426  24.473  1.00  0.00     0.404 C 
ATOM     22  F   UNL A   1      33.743  23.299  23.550  1.00  0.00    -0.170 F 
ATOM     23  F   UNL A   1      34.062  21.347  24.441  1.00  0.00    -0.170 F 
ATOM     24  F   UNL A   1      32.030  22.064  24.026  1.00  0.00    -0.170 F 
ENDBRANCH   7  21
ENDBRANCH   4   7
ENDBRANCH   2   3
ENDBRANCH   1   2
BRANCH   1  25
ATOM     25  C   UNL A   1      38.640  22.714  26.104  1.00  0.00     0.023 C 
BRANCH  25  26
ATOM     26  C   UNL A   1      39.915  22.890  26.919  1.00  0.00     0.116 C 
BRANCH  26  27
ATOM     27  N   UNL A   1      41.092  23.183  26.110  1.00  0.00    -0.352 N 
ATOM     28  C   UNL A   1      41.832  24.344  26.072  1.00  0.00     0.251 C 
ATOM     29  H   UNL A   1      41.396  22.461  25.515  1.00  0.00     0.163 HD
ATOM     30  O   UNL A   1      42.733  24.488  25.251  1.00  0.00    -0.269 OA
BRANCH  28  31
ATOM     31  C   UNL A   1      41.504  25.435  27.017  1.00  0.00     0.039 A 
ATOM     32  C   UNL A   1      40.559  25.210  28.020  1.00  0.00     0.014 A 
ATOM     33  C   UNL A   1      42.182  26.654  26.944  1.00  0.00     0.014 A 
ATOM     34  C   UNL A   1      40.362  26.176  29.011  1.00  0.00     0.010 A 
ATOM     35  C   UNL A   1      42.035  27.585  27.968  1.00  0.00     0.010 A 
ATOM     36  C   UNL A   1      41.134  27.349  29.020  1.00  0.00    -0.014 A 
BRANCH  36  37
ATOM     37  C   UNL A   1      41.040  28.347  30.117  1.00  0.00     0.031 A 
ATOM     38  C   UNL A   1      41.941  28.224  31.314  1.00  0.00     0.074 A 
ATOM     39  C   UNL A   1      40.083  29.297  30.083  1.00  0.00     0.049 A 
ATOM     40  N   UNL A   1      41.898  28.868  32.451  1.00  0.00    -0.248 NA
ATOM     41  C   UNL A   1      43.015  27.221  31.230  1.00  0.00     0.031 C 
ATOM     42  C   UNL A   1      39.129  29.503  28.992  1.00  0.00     0.029 A 
ATOM     43  N   UNL A   1      39.739  30.253  31.007  1.00  0.00    -0.354 N 
ATOM     44  C   UNL A   1      42.923  28.337  33.225  1.00  0.00     0.074 A 
ATOM     45  C   UNL A   1      43.542  27.288  32.445  1.00  0.00     0.031 C 
ATOM     46  C   UNL A   1      38.313  30.524  29.306  1.00  0.00     0.029 A 
ATOM     47  C   UNL A   1      38.656  31.016  30.637  1.00  0.00     0.049 A 
ATOM     48  H   UNL A   1      40.223  30.381  31.855  1.00  0.00     0.167 HD
ATOM     49  C   UNL A   1      43.323  28.703  34.465  1.00  0.00     0.037 A 
ATOM     50  C   UNL A   1      37.999  31.985  31.304  1.00  0.00     0.037 A 
ATOM     51  C   UNL A   1      42.722  29.766  35.226  1.00  0.00     0.049 A 
ATOM     52  C   UNL A   1      38.456  32.367  32.687  1.00  0.00     0.074 A 
ATOM     53  C   UNL A   1      43.072  30.228  36.483  1.00  0.00     0.029 A 
ATOM     54  N   UNL A   1      41.655  30.540  34.798  1.00  0.00    -0.354 N 
ATOM     55  N   UNL A   1      39.440  31.867  33.395  1.00  0.00    -0.248 NA
ATOM     56  C   UNL A   1      37.713  33.441  33.363  1.00  0.00     0.031 C 
ATOM     57  C   UNL A   1      42.201  31.269  36.824  1.00  0.00     0.029 A 
ATOM     58  C   UNL A   1      41.332  31.475  35.766  1.00  0.00     0.049 A 
ATOM     59  H   UNL A   1      41.195  30.439  33.933  1.00  0.00     0.167 HD
ATOM     60  C   UNL A   1      39.454  32.586  34.585  1.00  0.00     0.074 A 
ATOM     61  C   UNL A   1      38.384  33.557  34.502  1.00  0.00     0.031 C 
ATOM     62  C   UNL A   1      40.281  32.455  35.650  1.00  0.00     0.037 A 
BRANCH  49  63
ATOM     63  C   UNL A   1      44.478  27.955  35.069  1.00  0.00     0.058 A 
ATOM     64  C   UNL A   1      45.800  28.398  34.903  1.00  0.00     0.135 A 
ATOM     65  C   UNL A   1      44.262  26.806  35.844  1.00  0.00     0.135 A 
ATOM     66  F   UNL A   1      46.061  29.483  34.157  1.00  0.00    -0.206 F 
ATOM     67  C   UNL A   1      46.871  27.711  35.463  1.00  0.00     0.059 A 
ATOM     68  C   UNL A   1      45.318  26.116  36.435  1.00  0.00     0.059 A 
ATOM     69  F   UNL A   1      43.017  26.340  36.034  1.00  0.00    -0.206 F 
ATOM     70  C   UNL A   1      46.621  26.569  36.225  1.00  0.00     0.060 A 
BRANCH  70  71
ATOM     71  S   UNL A   1      48.022  25.688  36.945  1.00  0.00     0.124 S 
ATOM     72  O   UNL A   1      47.546  24.309  36.909  1.00  0.00    -0.237 OA
ATOM     73  O   UNL A   1      49.103  26.009  36.020  1.00  0.00    -0.237 OA
ATOM     74  O   UNL A   1      48.145  26.276  38.275  1.00  0.00    -0.744 OA
ENDBRANCH  70  71
ENDBRANCH  49  63
BRANCH  50  75
ATOM     75  C   UNL A   1      36.839  32.673  30.677  1.00  0.00     0.058 A 
ATOM     76  C   UNL A   1      37.031  33.761  29.814  1.00  0.00     0.135 A 
ATOM     77  C   UNL A   1      35.521  32.265  30.934  1.00  0.00     0.135 A 
ATOM     78  F   UNL A   1      38.272  34.191  29.543  1.00  0.00    -0.206 F 
ATOM     79  C   UNL A   1      35.957  34.439  29.245  1.00  0.00     0.059 A 
ATOM     80  C   UNL A   1      34.431  32.913  30.360  1.00  0.00     0.059 A 
ATOM     81  F   UNL A   1      35.284  31.218  31.738  1.00  0.00    -0.206 F 
ATOM     82  C   UNL A   1      34.660  34.010  29.528  1.00  0.00     0.060 A 
BRANCH  82  83
ATOM     83  S   UNL A   1      33.270  34.876  28.765  1.00  0.00     0.124 S 
ATOM     84  O   UNL A   1      32.544  35.351  29.937  1.00  0.00    -0.237 OA
ATOM     85  O   UNL A   1      33.943  35.901  27.972  1.00  0.00    -0.237 OA
ATOM     86  O   UNL A   1      32.609  33.831  27.992  1.00  0.00    -0.744 OA
ENDBRANCH  82  83
ENDBRANCH  50  75
BRANCH  62  87
ATOM     87  C   UNL A   1      40.104  33.412  36.793  1.00  0.00     0.058 A 
ATOM     88  C   UNL A   1      40.857  34.591  36.886  1.00  0.00     0.135 A 
ATOM     89  C   UNL A   1      39.107  33.187  37.755  1.00  0.00     0.135 A 
ATOM     90  F   UNL A   1      41.828  34.847  35.995  1.00  0.00    -0.206 F 
ATOM     91  C   UNL A   1      40.627  35.518  37.897  1.00  0.00     0.059 A 
ATOM     92  C   UNL A   1      38.846  34.109  38.763  1.00  0.00     0.059 A 
ATOM     93  F   UNL A   1      38.356  32.075  37.704  1.00  0.00    -0.206 F 
ATOM     94  C   UNL A   1      39.614  35.272  38.828  1.00  0.00     0.060 A 
BRANCH  94  95
ATOM     95  S   UNL A   1      39.276  36.516  40.092  1.00  0.00     0.124 S 
ATOM     96  O   UNL A   1      38.891  37.665  39.278  1.00  0.00    -0.237 OA
ATOM     97  O   UNL A   1      38.203  35.897  40.863  1.00  0.00    -0.237 OA
ATOM     98  O   UNL A   1      40.551  36.641  40.793  1.00  0.00    -0.744 OA
ENDBRANCH  94  95
ENDBRANCH  62  87
ENDBRANCH  36  37
ENDBRANCH  28  31
ENDBRANCH  26  27
ENDBRANCH  25  26
ENDBRANCH   1  25
TORSDOF 19
ENDMDL
MODEL 3
REMARK VINA RESULT:     -10.2      1.368      2.236
REMARK SMILES C[NH2+]C[C@H](C)C(=O)N1CC[C@@](C(=O)NCCCCNC(=O)c2ccc(-c3c4nc(c(-c5c(F)cc(S(=O)(=O)[O-])cc5F)c5ccc([nH]5)c(-c5c(F)cc(S(=O)(=O)[O-])cc5F)c5nc(c(-c6c(F)cc(S(=O)(=O)[O-])cc6F)c6ccc3[nH]6)C=C5)C=C4)cc2)(C(F)(F)F)C1
REMARK SMILES IDX 16 1 15 2 14 3 12 4 13 5 11 7 8 8 9 9 92 10 10 11 6 12 7 13
REMARK SMILES IDX 4 14 5 15 3 16 2 17 1 18 88 21 89 22 90 23 91 24 17 25 18 26
REMARK SMILES IDX 19 27 20 28 21 30 22 31 23 32 87 33 24 34 86 35 25 36 26 37
REMARK SMILES IDX 27 38 80 39 28 40 85 41 79 42 81 43 29 44 84 45 78 46 77 47
REMARK SMILES IDX 30 49 64 50 43 51 63 52 44 53 47 54 62 55 82 56 45 57 46 58
REMARK SMILES IDX 61 60 83 61 48 62 31 63 32 64 41 65 33 66 34 67 40 68 42 69
REMARK SMILES IDX 35 70 36 71 37 72 38 73 39 74 65 75 66 76 75 77 67 78 68 79
REMARK SMILES IDX 74 80 76 81 69 82 70 83 71 84 72 85 73 86 49 87 50 88 59 89
REMARK SMILES IDX 51 90 52 91 58 92 60 93 53 94 54 95 55 96 56 97 57 98
REMARK H PARENT 14 6 2 19 2 20 19 29 81 48 47 59
REMARK Flexibility Score: inf
ROOT
ATOM      1  C   UNL A   1      39.232  22.247  26.490  1.00  0.00     0.023 C 
ENDROOT
BRANCH   1   2
ATOM      2  C   UNL A   1      38.036  23.080  26.039  1.00  0.00     0.116 C 
BRANCH   2   3
ATOM      3  N   UNL A   1      37.774  22.997  24.613  1.00  0.00    -0.355 N 
ATOM      4  C   UNL A   1      36.613  22.954  23.895  1.00  0.00     0.237 C 
ATOM      5  O   UNL A   1      36.745  22.995  22.671  1.00  0.00    -0.274 OA
ATOM      6  H   UNL A   1      38.588  22.966  24.058  1.00  0.00     0.163 HD
BRANCH   4   7
ATOM      7  C   UNL A   1      35.238  22.843  24.548  1.00  0.00     0.163 C 
ATOM      8  N   UNL A   1      33.366  24.225  24.008  1.00  0.00    -0.341 N 
ATOM      9  C   UNL A   1      33.687  24.541  25.383  1.00  0.00     0.121 C 
ATOM     10  C   UNL A   1      34.100  23.051  23.553  1.00  0.00     0.146 C 
ATOM     11  C   UNL A   1      35.037  23.894  25.656  1.00  0.00     0.050 C 
BRANCH   8  12
ATOM     12  C   UNL A   1      32.419  24.792  23.185  1.00  0.00     0.231 C 
ATOM     13  O   UNL A   1      31.299  24.278  23.093  1.00  0.00    -0.274 OA
BRANCH  12  14
ATOM     14  C   UNL A   1      32.783  25.930  22.230  1.00  0.00     0.130 C 
ATOM     15  C   UNL A   1      32.589  25.628  20.746  1.00  0.00     0.024 C 
BRANCH  14  16
ATOM     16  C   UNL A   1      32.082  27.238  22.648  1.00  0.00     0.273 C 
BRANCH  16  17
ATOM     17  N   UNL A   1      31.350  27.202  23.923  1.00  0.00    -0.348 N 
ATOM     18  C   UNL A   1      29.917  27.420  23.751  1.00  0.00     0.330 C 
ATOM     19  H   UNL A   1      31.492  26.290  24.357  1.00  0.00     0.346 HD
ATOM     20  H   UNL A   1      31.710  27.955  24.508  1.00  0.00     0.346 HD
ENDBRANCH  16  17
ENDBRANCH  14  16
ENDBRANCH  12  14
ENDBRANCH   8  12
BRANCH   7  21
ATOM     21  C   UNL A   1      35.100  21.447  25.126  1.00  0.00     0.404 C 
ATOM     22  F   UNL A   1      33.854  20.961  24.867  1.00  0.00    -0.170 F 
ATOM     23  F   UNL A   1      35.968  20.566  24.585  1.00  0.00    -0.170 F 
ATOM     24  F   UNL A   1      35.235  21.419  26.469  1.00  0.00    -0.170 F 
ENDBRANCH   7  21
ENDBRANCH   4   7
ENDBRANCH   2   3
ENDBRANCH   1   2
BRANCH   1  25
ATOM     25  C   UNL A   1      39.396  20.911  25.773  1.00  0.00     0.023 C 
BRANCH  25  26
ATOM     26  C   UNL A   1      39.894  19.760  26.640  1.00  0.00     0.116 C 
BRANCH  26  27
ATOM     27  N   UNL A   1      41.049  19.065  26.085  1.00  0.00    -0.352 N 
ATOM     28  C   UNL A   1      42.302  19.573  25.822  1.00  0.00     0.251 C 
ATOM     29  H   UNL A   1      40.917  18.114  25.870  1.00  0.00     0.163 HD
ATOM     30  O   UNL A   1      43.145  18.894  25.242  1.00  0.00    -0.269 OA
BRANCH  28  31
ATOM     31  C   UNL A   1      42.611  20.964  26.219  1.00  0.00     0.039 A 
ATOM     32  C   UNL A   1      42.779  21.268  27.572  1.00  0.00     0.014 A 
ATOM     33  C   UNL A   1      42.796  21.948  25.245  1.00  0.00     0.014 A 
ATOM     34  C   UNL A   1      43.228  22.538  27.944  1.00  0.00     0.010 A 
ATOM     35  C   UNL A   1      43.307  23.189  25.611  1.00  0.00     0.010 A 
ATOM     36  C   UNL A   1      43.543  23.492  26.963  1.00  0.00    -0.014 A 
BRANCH  36  37
ATOM     37  C   UNL A   1      44.132  24.812  27.306  1.00  0.00     0.031 A 
ATOM     38  C   UNL A   1      43.238  25.926  27.778  1.00  0.00     0.074 A 
ATOM     39  C   UNL A   1      45.445  25.039  27.097  1.00  0.00     0.049 A 
ATOM     40  N   UNL A   1      43.516  27.192  27.949  1.00  0.00    -0.248 NA
ATOM     41  C   UNL A   1      41.840  25.570  28.066  1.00  0.00     0.031 C 
ATOM     42  C   UNL A   1      46.412  24.050  26.616  1.00  0.00     0.029 A 
ATOM     43  N   UNL A   1      46.189  26.184  27.241  1.00  0.00    -0.354 N 
ATOM     44  C   UNL A   1      42.325  27.788  28.345  1.00  0.00     0.074 A 
ATOM     45  C   UNL A   1      41.313  26.754  28.346  1.00  0.00     0.031 C 
ATOM     46  C   UNL A   1      47.620  24.630  26.510  1.00  0.00     0.029 A 
ATOM     47  C   UNL A   1      47.506  26.039  26.873  1.00  0.00     0.049 A 
ATOM     48  H   UNL A   1      45.815  27.031  27.577  1.00  0.00     0.167 HD
ATOM     49  C   UNL A   1      42.099  29.077  28.694  1.00  0.00     0.037 A 
ATOM     50  C   UNL A   1      48.504  26.943  26.812  1.00  0.00     0.037 A 
ATOM     51  C   UNL A   1      43.114  30.096  28.719  1.00  0.00     0.049 A 
ATOM     52  C   UNL A   1      48.225  28.373  27.194  1.00  0.00     0.074 A 
ATOM     53  C   UNL A   1      42.989  31.426  29.080  1.00  0.00     0.029 A 
ATOM     54  N   UNL A   1      44.443  29.897  28.378  1.00  0.00    -0.354 N 
ATOM     55  N   UNL A   1      47.097  28.914  27.585  1.00  0.00    -0.248 NA
ATOM     56  C   UNL A   1      49.352  29.315  27.124  1.00  0.00     0.031 C 
ATOM     57  C   UNL A   1      44.240  32.037  28.938  1.00  0.00     0.029 A 
ATOM     58  C   UNL A   1      45.149  31.079  28.520  1.00  0.00     0.049 A 
ATOM     59  H   UNL A   1      44.827  29.041  28.080  1.00  0.00     0.167 HD
ATOM     60  C   UNL A   1      47.386  30.251  27.839  1.00  0.00     0.074 A 
ATOM     61  C   UNL A   1      48.794  30.437  27.559  1.00  0.00     0.031 C 
ATOM     62  C   UNL A   1      46.559  31.236  28.265  1.00  0.00     0.037 A 
BRANCH  49  63
ATOM     63  C   UNL A   1      40.700  29.452  29.094  1.00  0.00     0.058 A 
ATOM     64  C   UNL A   1      39.672  29.547  28.143  1.00  0.00     0.135 A 
ATOM     65  C   UNL A   1      40.376  29.689  30.438  1.00  0.00     0.135 A 
ATOM     66  F   UNL A   1      39.933  29.345  26.841  1.00  0.00    -0.206 F 
ATOM     67  C   UNL A   1      38.375  29.890  28.508  1.00  0.00     0.059 A 
ATOM     68  C   UNL A   1      39.079  30.011  30.829  1.00  0.00     0.059 A 
ATOM     69  F   UNL A   1      41.323  29.612  31.387  1.00  0.00    -0.206 F 
ATOM     70  C   UNL A   1      38.089  30.124  29.853  1.00  0.00     0.060 A 
BRANCH  70  71
ATOM     71  S   UNL A   1      36.401  30.569  30.312  1.00  0.00     0.124 S 
ATOM     72  O   UNL A   1      35.681  30.292  29.073  1.00  0.00    -0.237 OA
ATOM     73  O   UNL A   1      36.127  29.660  31.420  1.00  0.00    -0.237 OA
ATOM     74  O   UNL A   1      36.508  31.979  30.675  1.00  0.00    -0.744 OA
ENDBRANCH  70  71
ENDBRANCH  49  63
BRANCH  50  75
ATOM     75  C   UNL A   1      49.864  26.531  26.376  1.00  0.00     0.058 A 
ATOM     76  C   UNL A   1      50.783  26.005  27.296  1.00  0.00     0.135 A 
ATOM     77  C   UNL A   1      50.276  26.663  25.041  1.00  0.00     0.135 A 
ATOM     78  F   UNL A   1      50.436  25.865  28.584  1.00  0.00    -0.206 F 
ATOM     79  C   UNL A   1      52.072  25.646  26.914  1.00  0.00     0.059 A 
ATOM     80  C   UNL A   1      51.553  26.291  24.631  1.00  0.00     0.059 A 
ATOM     81  F   UNL A   1      49.429  27.145  24.119  1.00  0.00    -0.206 F 
ATOM     82  C   UNL A   1      52.449  25.796  25.579  1.00  0.00     0.060 A 
BRANCH  82  83
ATOM     83  S   UNL A   1      54.115  25.303  25.084  1.00  0.00     0.124 S 
ATOM     84  O   UNL A   1      53.962  23.860  24.944  1.00  0.00    -0.237 OA
ATOM     85  O   UNL A   1      54.303  26.050  23.843  1.00  0.00    -0.237 OA
ATOM     86  O   UNL A   1      54.940  25.747  26.203  1.00  0.00    -0.744 OA
ENDBRANCH  82  83
ENDBRANCH  50  75
BRANCH  62  87
ATOM     87  C   UNL A   1      47.156  32.590  28.511  1.00  0.00     0.058 A 
ATOM     88  C   UNL A   1      47.754  32.919  29.737  1.00  0.00     0.135 A 
ATOM     89  C   UNL A   1      47.208  33.538  27.476  1.00  0.00     0.135 A 
ATOM     90  F   UNL A   1      47.722  32.050  30.759  1.00  0.00    -0.206 F 
ATOM     91  C   UNL A   1      48.385  34.143  29.928  1.00  0.00     0.059 A 
ATOM     92  C   UNL A   1      47.851  34.760  27.639  1.00  0.00     0.059 A 
ATOM     93  F   UNL A   1      46.655  33.267  26.283  1.00  0.00    -0.206 F 
ATOM     94  C   UNL A   1      48.434  35.056  28.871  1.00  0.00     0.060 A 
BRANCH  94  95
ATOM     95  S   UNL A   1      49.319  36.612  29.109  1.00  0.00     0.124 S 
ATOM     96  O   UNL A   1      50.702  36.200  28.892  1.00  0.00    -0.237 OA
ATOM     97  O   UNL A   1      48.741  37.463  28.074  1.00  0.00    -0.237 OA
ATOM     98  O   UNL A   1      48.982  36.986  30.480  1.00  0.00    -0.744 OA
ENDBRANCH  94  95
ENDBRANCH  62  87
ENDBRANCH  36  37
ENDBRANCH  28  31
ENDBRANCH  26  27
ENDBRANCH  25  26
ENDBRANCH   1  25
TORSDOF 19
ENDMDL
