MODEL 1
REMARK VINA RESULT:     -12.2      0.000      0.000
REMARK SMILES Cc1cc(F)cc(N[C@@](C)(C(=O)NCCCCNC(=O)c2ccc(-c3c4nc(c(-c5c(F)cc(S(=O)(=O)[O-])cc5F)c5ccc([nH]5)c(-c5c(F)cc(S(=O)(=O)[O-])cc5F)c5nc(c(-c6c(F)cc(S(=O)(=O)[O-])cc6F)c6ccc3[nH]6)C=C5)C=C4)cc2)c2cccc(F)c2)c1
REMARK SMILES IDX 16 1 15 2 14 3 13 4 11 5 12 6 9 8 10 9 8 10 7 12 1 13 2 14
REMARK SMILES IDX 3 15 94 16 4 17 5 18 6 19 87 20 88 21 93 22 89 23 91 24
REMARK SMILES IDX 90 25 92 26 17 27 18 28 19 29 20 31 21 32 22 33 86 34 23 35
REMARK SMILES IDX 85 36 24 37 25 38 26 39 79 40 27 41 84 42 78 43 80 44 28 45
REMARK SMILES IDX 83 46 77 47 76 48 29 50 63 51 42 52 62 53 43 54 46 55 61 56
REMARK SMILES IDX 81 57 44 58 45 59 60 61 82 62 47 63 30 64 31 65 40 66 32 67
REMARK SMILES IDX 33 68 39 69 41 70 34 71 35 72 36 73 37 74 38 75 64 76 65 77
REMARK SMILES IDX 74 78 66 79 67 80 73 81 75 82 68 83 69 84 70 85 71 86 72 87
REMARK SMILES IDX 48 88 49 89 58 90 50 91 51 92 57 93 59 94 52 95 53 96 54 97
REMARK SMILES IDX 55 98 56 99
REMARK H PARENT 13 7 8 11 18 30 80 49 46 60
REMARK Flexibility Score: inf
ROOT
ATOM      1  C   UNL A   1      32.622  27.845  26.663  1.00  0.00     0.023 C 
ENDROOT
BRANCH   1   2
ATOM      2  C   UNL A   1      32.901  26.447  26.139  1.00  0.00     0.023 C 
BRANCH   2   3
ATOM      3  C   UNL A   1      31.714  25.480  26.151  1.00  0.00     0.116 C 
BRANCH   3   4
ATOM      4  N   UNL A   1      31.925  24.395  27.089  1.00  0.00    -0.354 N 
ATOM      5  C   UNL A   1      32.214  23.070  26.922  1.00  0.00     0.250 C 
ATOM      6  O   UNL A   1      32.203  22.411  27.973  1.00  0.00    -0.272 OA
ATOM      7  H   UNL A   1      31.845  24.666  28.032  1.00  0.00     0.163 HD
BRANCH   5   8
ATOM      8  C   UNL A   1      32.561  22.375  25.524  1.00  0.00     0.139 C 
ATOM      9  C   UNL A   1      31.518  22.997  24.536  1.00  0.00     0.051 C 
BRANCH   8  10
ATOM     10  N   UNL A   1      32.165  20.938  25.556  1.00  0.00    -0.368 N 
ATOM     11  H   UNL A   1      31.597  20.740  26.335  1.00  0.00     0.161 HD
BRANCH  10  12
ATOM     12  C   UNL A   1      32.377  19.816  24.793  1.00  0.00     0.038 A 
ATOM     13  C   UNL A   1      34.033  16.406  25.428  1.00  0.00     0.044 C 
ATOM     14  C   UNL A   1      33.392  17.561  24.718  1.00  0.00    -0.046 A 
ATOM     15  C   UNL A   1      33.244  17.540  23.334  1.00  0.00     0.042 A 
ATOM     16  C   UNL A   1      32.978  18.705  25.423  1.00  0.00     0.029 A 
ATOM     17  C   UNL A   1      32.599  18.595  22.709  1.00  0.00     0.125 A 
ATOM     18  F   UNL A   1      32.431  18.565  21.380  1.00  0.00    -0.207 F 
ATOM     19  C   UNL A   1      32.131  19.694  23.431  1.00  0.00     0.065 A 
ENDBRANCH  10  12
ENDBRANCH   8  10
BRANCH   8  20
ATOM     20  C   UNL A   1      34.001  22.716  25.080  1.00  0.00    -0.011 A 
ATOM     21  C   UNL A   1      34.435  22.650  23.740  1.00  0.00     0.007 A 
ATOM     22  C   UNL A   1      34.961  23.155  26.003  1.00  0.00     0.046 A 
ATOM     23  C   UNL A   1      35.739  23.007  23.359  1.00  0.00     0.003 A 
ATOM     24  C   UNL A   1      36.253  23.517  25.628  1.00  0.00     0.123 A 
ATOM     25  C   UNL A   1      36.651  23.450  24.308  1.00  0.00     0.039 A 
ATOM     26  F   UNL A   1      37.122  23.909  26.568  1.00  0.00    -0.207 F 
ENDBRANCH   8  20
ENDBRANCH   5   8
ENDBRANCH   3   4
ENDBRANCH   2   3
ENDBRANCH   1   2
BRANCH   1  27
ATOM     27  C   UNL A   1      33.770  28.830  26.521  1.00  0.00     0.116 C 
BRANCH  27  28
ATOM     28  N   UNL A   1      33.630  30.038  27.323  1.00  0.00    -0.352 N 
ATOM     29  C   UNL A   1      34.559  30.620  28.158  1.00  0.00     0.251 C 
ATOM     30  H   UNL A   1      32.761  30.497  27.260  1.00  0.00     0.163 HD
ATOM     31  O   UNL A   1      34.274  31.617  28.813  1.00  0.00    -0.269 OA
BRANCH  29  32
ATOM     32  C   UNL A   1      35.888  29.990  28.284  1.00  0.00     0.039 A 
ATOM     33  C   UNL A   1      36.806  30.127  27.241  1.00  0.00     0.014 A 
ATOM     34  C   UNL A   1      36.256  29.365  29.479  1.00  0.00     0.014 A 
ATOM     35  C   UNL A   1      38.126  29.717  27.435  1.00  0.00     0.010 A 
ATOM     36  C   UNL A   1      37.590  29.054  29.703  1.00  0.00     0.010 A 
ATOM     37  C   UNL A   1      38.540  29.226  28.684  1.00  0.00    -0.014 A 
BRANCH  37  38
ATOM     38  C   UNL A   1      39.955  28.868  28.950  1.00  0.00     0.031 A 
ATOM     39  C   UNL A   1      40.876  29.887  29.566  1.00  0.00     0.074 A 
ATOM     40  C   UNL A   1      40.428  27.663  28.571  1.00  0.00     0.049 A 
ATOM     41  N   UNL A   1      42.163  29.816  29.781  1.00  0.00    -0.248 NA
ATOM     42  C   UNL A   1      40.274  31.174  29.955  1.00  0.00     0.031 C 
ATOM     43  C   UNL A   1      39.652  26.612  27.907  1.00  0.00     0.029 A 
ATOM     44  N   UNL A   1      41.684  27.120  28.684  1.00  0.00    -0.354 N 
ATOM     45  C   UNL A   1      42.526  31.050  30.305  1.00  0.00     0.074 A 
ATOM     46  C   UNL A   1      41.338  31.873  30.317  1.00  0.00     0.031 C 
ATOM     47  C   UNL A   1      40.438  25.542  27.705  1.00  0.00     0.029 A 
ATOM     48  C   UNL A   1      41.780  25.839  28.193  1.00  0.00     0.049 A 
ATOM     49  H   UNL A   1      42.445  27.603  29.081  1.00  0.00     0.167 HD
ATOM     50  C   UNL A   1      43.733  31.452  30.770  1.00  0.00     0.037 A 
ATOM     51  C   UNL A   1      42.834  25.000  28.146  1.00  0.00     0.037 A 
ATOM     52  C   UNL A   1      44.899  30.612  30.804  1.00  0.00     0.049 A 
ATOM     53  C   UNL A   1      44.155  25.458  28.703  1.00  0.00     0.074 A 
ATOM     54  C   UNL A   1      46.157  30.905  31.297  1.00  0.00     0.029 A 
ATOM     55  N   UNL A   1      44.942  29.305  30.343  1.00  0.00    -0.354 N 
ATOM     56  N   UNL A   1      44.470  26.615  29.234  1.00  0.00    -0.248 NA
ATOM     57  C   UNL A   1      45.263  24.492  28.663  1.00  0.00     0.031 C 
ATOM     58  C   UNL A   1      46.968  29.778  31.119  1.00  0.00     0.029 A 
ATOM     59  C   UNL A   1      46.205  28.776  30.542  1.00  0.00     0.049 A 
ATOM     60  H   UNL A   1      44.186  28.825  29.934  1.00  0.00     0.167 HD
ATOM     61  C   UNL A   1      45.802  26.508  29.616  1.00  0.00     0.074 A 
ATOM     62  C   UNL A   1      46.232  25.170  29.265  1.00  0.00     0.031 C 
ATOM     63  C   UNL A   1      46.600  27.433  30.203  1.00  0.00     0.037 A 
BRANCH  50  64
ATOM     64  C   UNL A   1      43.835  32.853  31.303  1.00  0.00     0.058 A 
ATOM     65  C   UNL A   1      43.546  33.145  32.646  1.00  0.00     0.135 A 
ATOM     66  C   UNL A   1      44.234  33.912  30.473  1.00  0.00     0.135 A 
ATOM     67  F   UNL A   1      43.139  32.173  33.477  1.00  0.00    -0.206 F 
ATOM     68  C   UNL A   1      43.618  34.443  33.139  1.00  0.00     0.059 A 
ATOM     69  C   UNL A   1      44.339  35.214  30.952  1.00  0.00     0.059 A 
ATOM     70  F   UNL A   1      44.518  33.687  29.180  1.00  0.00    -0.206 F 
ATOM     71  C   UNL A   1      44.013  35.472  32.283  1.00  0.00     0.060 A 
BRANCH  71  72
ATOM     72  S   UNL A   1      44.101  37.152  32.938  1.00  0.00     0.124 S 
ATOM     73  O   UNL A   1      45.438  37.164  33.523  1.00  0.00    -0.237 OA
ATOM     74  O   UNL A   1      43.925  37.966  31.740  1.00  0.00    -0.237 OA
ATOM     75  O   UNL A   1      42.998  37.201  33.892  1.00  0.00    -0.744 OA
ENDBRANCH  71  72
ENDBRANCH  50  64
BRANCH  51  76
ATOM     76  C   UNL A   1      42.679  23.629  27.593  1.00  0.00     0.058 A 
ATOM     77  C   UNL A   1      42.430  22.540  28.440  1.00  0.00     0.135 A 
ATOM     78  C   UNL A   1      42.789  23.376  26.217  1.00  0.00     0.135 A 
ATOM     79  F   UNL A   1      42.321  22.732  29.764  1.00  0.00    -0.206 F 
ATOM     80  C   UNL A   1      42.321  21.242  27.949  1.00  0.00     0.059 A 
ATOM     81  C   UNL A   1      42.662  22.090  25.699  1.00  0.00     0.059 A 
ATOM     82  F   UNL A   1      43.008  24.387  25.363  1.00  0.00    -0.206 F 
ATOM     83  C   UNL A   1      42.442  21.027  26.576  1.00  0.00     0.060 A 
BRANCH  83  84
ATOM     84  S   UNL A   1      42.276  19.344  25.943  1.00  0.00     0.124 S 
ATOM     85  O   UNL A   1      40.838  19.258  25.713  1.00  0.00    -0.237 OA
ATOM     86  O   UNL A   1      43.113  19.379  24.747  1.00  0.00    -0.237 OA
ATOM     87  O   UNL A   1      42.792  18.525  27.035  1.00  0.00    -0.744 OA
ENDBRANCH  83  84
ENDBRANCH  51  76
BRANCH  63  88
ATOM     88  C   UNL A   1      48.002  27.016  30.541  1.00  0.00     0.058 A 
ATOM     89  C   UNL A   1      49.077  27.289  29.682  1.00  0.00     0.135 A 
ATOM     90  C   UNL A   1      48.277  26.380  31.762  1.00  0.00     0.135 A 
ATOM     91  F   UNL A   1      48.863  27.890  28.501  1.00  0.00    -0.206 F 
ATOM     92  C   UNL A   1      50.378  26.927  30.013  1.00  0.00     0.059 A 
ATOM     93  C   UNL A   1      49.573  26.029  32.123  1.00  0.00     0.059 A 
ATOM     94  F   UNL A   1      47.282  26.107  32.621  1.00  0.00    -0.206 F 
ATOM     95  C   UNL A   1      50.616  26.297  31.236  1.00  0.00     0.060 A 
BRANCH  95  96
ATOM     96  S   UNL A   1      52.313  25.863  31.674  1.00  0.00     0.124 S 
ATOM     97  O   UNL A   1      52.608  26.845  32.712  1.00  0.00    -0.237 OA
ATOM     98  O   UNL A   1      52.178  24.482  32.128  1.00  0.00    -0.237 OA
ATOM     99  O   UNL A   1      53.040  26.036  30.420  1.00  0.00    -0.744 OA
ENDBRANCH  95  96
ENDBRANCH  63  88
ENDBRANCH  37  38
ENDBRANCH  29  32
ENDBRANCH  27  28
ENDBRANCH   1  27
TORSDOF 17
ENDMDL
MODEL 2
REMARK VINA RESULT:     -12.0      3.684      5.408
REMARK SMILES Cc1cc(F)cc(N[C@@](C)(C(=O)NCCCCNC(=O)c2ccc(-c3c4nc(c(-c5c(F)cc(S(=O)(=O)[O-])cc5F)c5ccc([nH]5)c(-c5c(F)cc(S(=O)(=O)[O-])cc5F)c5nc(c(-c6c(F)cc(S(=O)(=O)[O-])cc6F)c6ccc3[nH]6)C=C5)C=C4)cc2)c2cccc(F)c2)c1
REMARK SMILES IDX 16 1 15 2 14 3 13 4 11 5 12 6 9 8 10 9 8 10 7 12 1 13 2 14
REMARK SMILES IDX 3 15 94 16 4 17 5 18 6 19 87 20 88 21 93 22 89 23 91 24
REMARK SMILES IDX 90 25 92 26 17 27 18 28 19 29 20 31 21 32 22 33 86 34 23 35
REMARK SMILES IDX 85 36 24 37 25 38 26 39 79 40 27 41 84 42 78 43 80 44 28 45
REMARK SMILES IDX 83 46 77 47 76 48 29 50 63 51 42 52 62 53 43 54 46 55 61 56
REMARK SMILES IDX 81 57 44 58 45 59 60 61 82 62 47 63 30 64 31 65 40 66 32 67
REMARK SMILES IDX 33 68 39 69 41 70 34 71 35 72 36 73 37 74 38 75 64 76 65 77
REMARK SMILES IDX 74 78 66 79 67 80 73 81 75 82 68 83 69 84 70 85 71 86 72 87
REMARK SMILES IDX 48 88 49 89 58 90 50 91 51 92 57 93 59 94 52 95 53 96 54 97
REMARK SMILES IDX 55 98 56 99
REMARK H PARENT 13 7 8 11 18 30 80 49 46 60
REMARK Flexibility Score: inf
ROOT
ATOM      1  C   UNL A   1      33.799  28.929  27.219  1.00  0.00     0.023 C 
ENDROOT
BRANCH   1   2
ATOM      2  C   UNL A   1      32.594  29.819  26.971  1.00  0.00     0.023 C 
BRANCH   2   3
ATOM      3  C   UNL A   1      31.887  29.627  25.626  1.00  0.00     0.116 C 
BRANCH   3   4
ATOM      4  N   UNL A   1      32.821  29.719  24.521  1.00  0.00    -0.354 N 
ATOM      5  C   UNL A   1      33.072  28.906  23.451  1.00  0.00     0.250 C 
ATOM      6  O   UNL A   1      34.047  29.254  22.766  1.00  0.00    -0.272 OA
ATOM      7  H   UNL A   1      33.387  30.524  24.546  1.00  0.00     0.163 HD
BRANCH   5   8
ATOM      8  C   UNL A   1      32.211  27.618  23.055  1.00  0.00     0.139 C 
ATOM      9  C   UNL A   1      33.116  26.877  22.013  1.00  0.00     0.051 C 
BRANCH   8  10
ATOM     10  N   UNL A   1      31.034  28.023  22.236  1.00  0.00    -0.368 N 
ATOM     11  H   UNL A   1      31.120  27.712  21.305  1.00  0.00     0.161 HD
BRANCH  10  12
ATOM     12  C   UNL A   1      29.861  28.710  22.427  1.00  0.00     0.038 A 
ATOM     13  C   UNL A   1      28.856  32.416  22.249  1.00  0.00     0.044 C 
ATOM     14  C   UNL A   1      28.792  30.941  22.506  1.00  0.00    -0.046 A 
ATOM     15  C   UNL A   1      27.669  30.381  23.111  1.00  0.00     0.042 A 
ATOM     16  C   UNL A   1      29.877  30.103  22.194  1.00  0.00     0.029 A 
ATOM     17  C   UNL A   1      27.613  29.008  23.287  1.00  0.00     0.125 A 
ATOM     18  F   UNL A   1      26.521  28.464  23.843  1.00  0.00    -0.207 F 
ATOM     19  C   UNL A   1      28.670  28.180  22.909  1.00  0.00     0.065 A 
ENDBRANCH  10  12
ENDBRANCH   8  10
BRANCH   8  20
ATOM     20  C   UNL A   1      31.959  26.723  24.288  1.00  0.00    -0.011 A 
ATOM     21  C   UNL A   1      30.684  26.539  24.865  1.00  0.00     0.007 A 
ATOM     22  C   UNL A   1      33.001  26.004  24.891  1.00  0.00     0.046 A 
ATOM     23  C   UNL A   1      30.477  25.686  25.961  1.00  0.00     0.003 A 
ATOM     24  C   UNL A   1      32.798  25.151  25.973  1.00  0.00     0.123 A 
ATOM     25  C   UNL A   1      31.538  24.983  26.515  1.00  0.00     0.039 A 
ATOM     26  F   UNL A   1      33.844  24.510  26.509  1.00  0.00    -0.207 F 
ENDBRANCH   8  20
ENDBRANCH   5   8
ENDBRANCH   3   4
ENDBRANCH   2   3
ENDBRANCH   1   2
BRANCH   1  27
ATOM     27  C   UNL A   1      35.108  29.663  27.457  1.00  0.00     0.116 C 
BRANCH  27  28
ATOM     28  N   UNL A   1      35.176  30.377  28.725  1.00  0.00    -0.352 N 
ATOM     29  C   UNL A   1      36.246  30.484  29.586  1.00  0.00     0.251 C 
ATOM     30  H   UNL A   1      34.354  30.842  29.002  1.00  0.00     0.163 HD
ATOM     31  O   UNL A   1      36.135  31.081  30.652  1.00  0.00    -0.269 OA
BRANCH  29  32
ATOM     32  C   UNL A   1      37.515  29.823  29.222  1.00  0.00     0.039 A 
ATOM     33  C   UNL A   1      37.928  29.835  27.889  1.00  0.00     0.014 A 
ATOM     34  C   UNL A   1      38.341  29.295  30.219  1.00  0.00     0.014 A 
ATOM     35  C   UNL A   1      39.216  29.399  27.569  1.00  0.00     0.010 A 
ATOM     36  C   UNL A   1      39.652  28.959  29.911  1.00  0.00     0.010 A 
ATOM     37  C   UNL A   1      40.104  29.008  28.584  1.00  0.00    -0.014 A 
BRANCH  37  38
ATOM     38  C   UNL A   1      41.508  28.627  28.286  1.00  0.00     0.031 A 
ATOM     39  C   UNL A   1      42.578  29.685  28.277  1.00  0.00     0.074 A 
ATOM     40  C   UNL A   1      41.803  27.354  27.951  1.00  0.00     0.049 A 
ATOM     41  N   UNL A   1      43.837  29.585  27.938  1.00  0.00    -0.248 NA
ATOM     42  C   UNL A   1      42.167  31.047  28.661  1.00  0.00     0.031 C 
ATOM     43  C   UNL A   1      40.844  26.250  27.862  1.00  0.00     0.029 A 
ATOM     44  N   UNL A   1      43.002  26.775  27.615  1.00  0.00    -0.354 N 
ATOM     45  C   UNL A   1      44.358  30.868  28.046  1.00  0.00     0.074 A 
ATOM     46  C   UNL A   1      43.267  31.741  28.418  1.00  0.00     0.031 C 
ATOM     47  C   UNL A   1      41.496  25.123  27.532  1.00  0.00     0.029 A 
ATOM     48  C   UNL A   1      42.911  25.428  27.352  1.00  0.00     0.049 A 
ATOM     49  H   UNL A   1      43.847  27.276  27.568  1.00  0.00     0.167 HD
ATOM     50  C   UNL A   1      45.638  31.279  27.885  1.00  0.00     0.037 A 
ATOM     51  C   UNL A   1      43.865  24.540  27.008  1.00  0.00     0.037 A 
ATOM     52  C   UNL A   1      46.729  30.398  27.567  1.00  0.00     0.049 A 
ATOM     53  C   UNL A   1      45.287  25.015  26.872  1.00  0.00     0.074 A 
ATOM     54  C   UNL A   1      48.071  30.704  27.428  1.00  0.00     0.029 A 
ATOM     55  N   UNL A   1      46.604  29.033  27.357  1.00  0.00    -0.354 N 
ATOM     56  N   UNL A   1      45.770  26.226  27.018  1.00  0.00    -0.248 NA
ATOM     57  C   UNL A   1      46.296  24.002  26.533  1.00  0.00     0.031 C 
ATOM     58  C   UNL A   1      48.756  29.523  27.117  1.00  0.00     0.029 A 
ATOM     59  C   UNL A   1      47.844  28.480  27.092  1.00  0.00     0.049 A 
ATOM     60  H   UNL A   1      45.757  28.531  27.390  1.00  0.00     0.167 HD
ATOM     61  C   UNL A   1      47.140  26.116  26.817  1.00  0.00     0.074 A 
ATOM     62  C   UNL A   1      47.413  24.718  26.548  1.00  0.00     0.031 C 
ATOM     63  C   UNL A   1      48.090  27.083  26.849  1.00  0.00     0.037 A 
BRANCH  50  64
ATOM     64  C   UNL A   1      45.924  32.741  28.082  1.00  0.00     0.058 A 
ATOM     65  C   UNL A   1      46.299  33.248  29.337  1.00  0.00     0.135 A 
ATOM     66  C   UNL A   1      45.833  33.642  27.011  1.00  0.00     0.135 A 
ATOM     67  F   UNL A   1      46.380  32.432  30.400  1.00  0.00    -0.206 F 
ATOM     68  C   UNL A   1      46.543  34.603  29.530  1.00  0.00     0.059 A 
ATOM     69  C   UNL A   1      46.098  34.999  27.175  1.00  0.00     0.059 A 
ATOM     70  F   UNL A   1      45.473  33.211  25.792  1.00  0.00    -0.206 F 
ATOM     71  C   UNL A   1      46.437  35.472  28.443  1.00  0.00     0.060 A 
BRANCH  71  72
ATOM     72  S   UNL A   1      46.757  37.228  28.709  1.00  0.00     0.124 S 
ATOM     73  O   UNL A   1      46.439  37.368  30.127  1.00  0.00    -0.237 OA
ATOM     74  O   UNL A   1      48.168  37.348  28.360  1.00  0.00    -0.237 OA
ATOM     75  O   UNL A   1      45.830  37.884  27.791  1.00  0.00    -0.744 OA
ENDBRANCH  71  72
ENDBRANCH  50  64
BRANCH  51  76
ATOM     76  C   UNL A   1      43.524  23.107  26.810  1.00  0.00     0.058 A 
ATOM     77  C   UNL A   1      43.472  22.555  25.522  1.00  0.00     0.135 A 
ATOM     78  C   UNL A   1      43.232  22.266  27.895  1.00  0.00     0.135 A 
ATOM     79  F   UNL A   1      43.739  23.321  24.453  1.00  0.00    -0.206 F 
ATOM     80  C   UNL A   1      43.115  21.227  25.311  1.00  0.00     0.059 A 
ATOM     81  C   UNL A   1      42.895  20.928  27.711  1.00  0.00     0.059 A 
ATOM     82  F   UNL A   1      43.287  22.742  29.148  1.00  0.00    -0.206 F 
ATOM     83  C   UNL A   1      42.825  20.422  26.412  1.00  0.00     0.060 A 
BRANCH  83  84
ATOM     84  S   UNL A   1      42.388  18.692  26.133  1.00  0.00     0.124 S 
ATOM     85  O   UNL A   1      42.655  18.106  27.441  1.00  0.00    -0.237 OA
ATOM     86  O   UNL A   1      40.982  18.786  25.751  1.00  0.00    -0.237 OA
ATOM     87  O   UNL A   1      43.293  18.289  25.061  1.00  0.00    -0.744 OA
ENDBRANCH  83  84
ENDBRANCH  51  76
BRANCH  63  88
ATOM     88  C   UNL A   1      49.513  26.656  26.631  1.00  0.00     0.058 A 
ATOM     89  C   UNL A   1      50.379  26.411  27.706  1.00  0.00     0.135 A 
ATOM     90  C   UNL A   1      49.997  26.442  25.330  1.00  0.00     0.135 A 
ATOM     91  F   UNL A   1      49.964  26.607  28.967  1.00  0.00    -0.206 F 
ATOM     92  C   UNL A   1      51.687  25.986  27.499  1.00  0.00     0.059 A 
ATOM     93  C   UNL A   1      51.294  25.996  25.101  1.00  0.00     0.059 A 
ATOM     94  F   UNL A   1      49.201  26.653  24.269  1.00  0.00    -0.206 F 
ATOM     95  C   UNL A   1      52.135  25.782  26.192  1.00  0.00     0.060 A 
BRANCH  95  96
ATOM     96  S   UNL A   1      53.823  25.196  25.935  1.00  0.00     0.124 S 
ATOM     97  O   UNL A   1      53.591  23.877  25.358  1.00  0.00    -0.237 OA
ATOM     98  O   UNL A   1      54.369  26.199  25.025  1.00  0.00    -0.237 OA
ATOM     99  O   UNL A   1      54.392  25.204  27.279  1.00  0.00    -0.744 OA
ENDBRANCH  95  96
ENDBRANCH  63  88
ENDBRANCH  37  38
ENDBRANCH  29  32
ENDBRANCH  27  28
ENDBRANCH   1  27
TORSDOF 17
ENDMDL
MODEL 3
REMARK VINA RESULT:     -11.9      1.658      2.433
REMARK SMILES Cc1cc(F)cc(N[C@@](C)(C(=O)NCCCCNC(=O)c2ccc(-c3c4nc(c(-c5c(F)cc(S(=O)(=O)[O-])cc5F)c5ccc([nH]5)c(-c5c(F)cc(S(=O)(=O)[O-])cc5F)c5nc(c(-c6c(F)cc(S(=O)(=O)[O-])cc6F)c6ccc3[nH]6)C=C5)C=C4)cc2)c2cccc(F)c2)c1
REMARK SMILES IDX 16 1 15 2 14 3 13 4 11 5 12 6 9 8 10 9 8 10 7 12 1 13 2 14
REMARK SMILES IDX 3 15 94 16 4 17 5 18 6 19 87 20 88 21 93 22 89 23 91 24
REMARK SMILES IDX 90 25 92 26 17 27 18 28 19 29 20 31 21 32 22 33 86 34 23 35
REMARK SMILES IDX 85 36 24 37 25 38 26 39 79 40 27 41 84 42 78 43 80 44 28 45
REMARK SMILES IDX 83 46 77 47 76 48 29 50 63 51 42 52 62 53 43 54 46 55 61 56
REMARK SMILES IDX 81 57 44 58 45 59 60 61 82 62 47 63 30 64 31 65 40 66 32 67
REMARK SMILES IDX 33 68 39 69 41 70 34 71 35 72 36 73 37 74 38 75 64 76 65 77
REMARK SMILES IDX 74 78 66 79 67 80 73 81 75 82 68 83 69 84 70 85 71 86 72 87
REMARK SMILES IDX 48 88 49 89 58 90 50 91 51 92 57 93 59 94 52 95 53 96 54 97
REMARK SMILES IDX 55 98 56 99
REMARK H PARENT 13 7 8 11 18 30 80 49 46 60
REMARK Flexibility Score: inf
ROOT
ATOM      1  C   UNL A   1      31.923  27.961  27.544  1.00  0.00     0.023 C 
ENDROOT
BRANCH   1   2
ATOM      2  C   UNL A   1      31.596  26.901  26.506  1.00  0.00     0.023 C 
BRANCH   2   3
ATOM      3  C   UNL A   1      31.982  25.465  26.872  1.00  0.00     0.116 C 
BRANCH   3   4
ATOM      4  N   UNL A   1      31.235  24.502  26.088  1.00  0.00    -0.354 N 
ATOM      5  C   UNL A   1      31.532  23.802  24.952  1.00  0.00     0.250 C 
ATOM      6  O   UNL A   1      30.582  23.149  24.494  1.00  0.00    -0.272 OA
ATOM      7  H   UNL A   1      30.336  24.314  26.444  1.00  0.00     0.163 HD
BRANCH   5   8
ATOM      8  C   UNL A   1      32.964  23.774  24.240  1.00  0.00     0.139 C 
ATOM      9  C   UNL A   1      32.852  22.575  23.239  1.00  0.00     0.051 C 
BRANCH   8  10
ATOM     10  N   UNL A   1      34.003  23.304  25.199  1.00  0.00    -0.368 N 
ATOM     11  H   UNL A   1      33.646  23.250  26.116  1.00  0.00     0.161 HD
BRANCH  10  12
ATOM     12  C   UNL A   1      35.321  22.924  25.152  1.00  0.00     0.038 A 
ATOM     13  C   UNL A   1      37.139  19.554  24.817  1.00  0.00     0.044 C 
ATOM     14  C   UNL A   1      36.893  21.016  25.036  1.00  0.00    -0.046 A 
ATOM     15  C   UNL A   1      37.944  21.860  25.386  1.00  0.00     0.042 A 
ATOM     16  C   UNL A   1      35.597  21.555  24.946  1.00  0.00     0.029 A 
ATOM     17  C   UNL A   1      37.699  23.217  25.529  1.00  0.00     0.125 A 
ATOM     18  F   UNL A   1      38.714  24.036  25.838  1.00  0.00    -0.207 F 
ATOM     19  C   UNL A   1      36.419  23.748  25.368  1.00  0.00     0.065 A 
ENDBRANCH  10  12
ENDBRANCH   8  10
BRANCH   8  20
ATOM     20  C   UNL A   1      33.227  25.094  23.481  1.00  0.00    -0.011 A 
ATOM     21  C   UNL A   1      32.928  25.275  22.114  1.00  0.00     0.007 A 
ATOM     22  C   UNL A   1      33.756  26.215  24.135  1.00  0.00     0.046 A 
ATOM     23  C   UNL A   1      33.140  26.499  21.460  1.00  0.00     0.003 A 
ATOM     24  C   UNL A   1      33.960  27.434  23.491  1.00  0.00     0.123 A 
ATOM     25  C   UNL A   1      33.652  27.587  22.154  1.00  0.00     0.039 A 
ATOM     26  F   UNL A   1      34.486  28.457  24.176  1.00  0.00    -0.207 F 
ENDBRANCH   8  20
ENDBRANCH   5   8
ENDBRANCH   3   4
ENDBRANCH   2   3
ENDBRANCH   1   2
BRANCH   1  27
ATOM     27  C   UNL A   1      33.277  28.630  27.382  1.00  0.00     0.116 C 
BRANCH  27  28
ATOM     28  N   UNL A   1      33.292  30.047  27.721  1.00  0.00    -0.352 N 
ATOM     29  C   UNL A   1      34.354  30.806  28.164  1.00  0.00     0.251 C 
ATOM     30  H   UNL A   1      32.436  30.523  27.622  1.00  0.00     0.163 HD
ATOM     31  O   UNL A   1      34.199  31.986  28.462  1.00  0.00    -0.269 OA
BRANCH  29  32
ATOM     32  C   UNL A   1      35.671  30.157  28.319  1.00  0.00     0.039 A 
ATOM     33  C   UNL A   1      36.546  30.130  27.232  1.00  0.00     0.014 A 
ATOM     34  C   UNL A   1      36.073  29.679  29.569  1.00  0.00     0.014 A 
ATOM     35  C   UNL A   1      37.863  29.708  27.425  1.00  0.00     0.010 A 
ATOM     36  C   UNL A   1      37.407  29.358  29.779  1.00  0.00     0.010 A 
ATOM     37  C   UNL A   1      38.317  29.369  28.711  1.00  0.00    -0.014 A 
BRANCH  37  38
ATOM     38  C   UNL A   1      39.733  29.004  28.966  1.00  0.00     0.031 A 
ATOM     39  C   UNL A   1      40.668  30.026  29.555  1.00  0.00     0.074 A 
ATOM     40  C   UNL A   1      40.192  27.790  28.599  1.00  0.00     0.049 A 
ATOM     41  N   UNL A   1      41.957  29.949  29.755  1.00  0.00    -0.248 NA
ATOM     42  C   UNL A   1      40.080  31.323  29.931  1.00  0.00     0.031 C 
ATOM     43  C   UNL A   1      39.400  26.736  27.960  1.00  0.00     0.029 A 
ATOM     44  N   UNL A   1      41.445  27.240  28.706  1.00  0.00    -0.354 N 
ATOM     45  C   UNL A   1      42.335  31.188  30.256  1.00  0.00     0.074 A 
ATOM     46  C   UNL A   1      41.153  32.020  30.270  1.00  0.00     0.031 C 
ATOM     47  C   UNL A   1      40.177  25.656  27.766  1.00  0.00     0.029 A 
ATOM     48  C   UNL A   1      41.526  25.951  28.233  1.00  0.00     0.049 A 
ATOM     49  H   UNL A   1      42.214  27.723  29.086  1.00  0.00     0.167 HD
ATOM     50  C   UNL A   1      43.550  31.588  30.700  1.00  0.00     0.037 A 
ATOM     51  C   UNL A   1      42.574  25.104  28.186  1.00  0.00     0.037 A 
ATOM     52  C   UNL A   1      44.711  30.740  30.734  1.00  0.00     0.049 A 
ATOM     53  C   UNL A   1      43.905  25.560  28.721  1.00  0.00     0.074 A 
ATOM     54  C   UNL A   1      45.977  31.031  31.208  1.00  0.00     0.029 A 
ATOM     55  N   UNL A   1      44.739  29.426  30.292  1.00  0.00    -0.354 N 
ATOM     56  N   UNL A   1      44.234  26.723  29.230  1.00  0.00    -0.248 NA
ATOM     57  C   UNL A   1      45.005  24.585  28.683  1.00  0.00     0.031 C 
ATOM     58  C   UNL A   1      46.777  29.896  31.037  1.00  0.00     0.029 A 
ATOM     59  C   UNL A   1      46.000  28.890  30.485  1.00  0.00     0.049 A 
ATOM     60  H   UNL A   1      43.975  28.945  29.899  1.00  0.00     0.167 HD
ATOM     61  C   UNL A   1      45.569  26.612  29.598  1.00  0.00     0.074 A 
ATOM     62  C   UNL A   1      45.985  25.265  29.263  1.00  0.00     0.031 C 
ATOM     63  C   UNL A   1      46.382  27.540  30.161  1.00  0.00     0.037 A 
BRANCH  50  64
ATOM     64  C   UNL A   1      43.669  32.996  31.211  1.00  0.00     0.058 A 
ATOM     65  C   UNL A   1      43.332  33.323  32.535  1.00  0.00     0.135 A 
ATOM     66  C   UNL A   1      44.132  34.027  30.378  1.00  0.00     0.135 A 
ATOM     67  F   UNL A   1      42.863  32.379  33.366  1.00  0.00    -0.206 F 
ATOM     68  C   UNL A   1      43.419  34.628  33.005  1.00  0.00     0.059 A 
ATOM     69  C   UNL A   1      44.253  35.335  30.836  1.00  0.00     0.059 A 
ATOM     70  F   UNL A   1      44.463  33.769  29.103  1.00  0.00    -0.206 F 
ATOM     71  C   UNL A   1      43.878  35.628  32.148  1.00  0.00     0.060 A 
BRANCH  71  72
ATOM     72  S   UNL A   1      43.985  37.318  32.774  1.00  0.00     0.124 S 
ATOM     73  O   UNL A   1      42.897  37.336  33.746  1.00  0.00    -0.237 OA
ATOM     74  O   UNL A   1      45.334  37.363  33.330  1.00  0.00    -0.237 OA
ATOM     75  O   UNL A   1      43.775  38.135  31.582  1.00  0.00    -0.744 OA
ENDBRANCH  71  72
ENDBRANCH  50  64
BRANCH  51  76
ATOM     76  C   UNL A   1      42.403  23.725  27.657  1.00  0.00     0.058 A 
ATOM     77  C   UNL A   1      42.300  22.632  28.528  1.00  0.00     0.135 A 
ATOM     78  C   UNL A   1      42.351  23.471  26.278  1.00  0.00     0.135 A 
ATOM     79  F   UNL A   1      42.347  22.825  29.855  1.00  0.00    -0.206 F 
ATOM     80  C   UNL A   1      42.179  21.329  28.054  1.00  0.00     0.059 A 
ATOM     81  C   UNL A   1      42.208  22.179  25.779  1.00  0.00     0.059 A 
ATOM     82  F   UNL A   1      42.426  24.485  25.403  1.00  0.00    -0.206 F 
ATOM     83  C   UNL A   1      42.138  21.112  26.676  1.00  0.00     0.060 A 
BRANCH  83  84
ATOM     84  S   UNL A   1      41.957  19.421  26.068  1.00  0.00     0.124 S 
ATOM     85  O   UNL A   1      42.827  19.436  24.898  1.00  0.00    -0.237 OA
ATOM     86  O   UNL A   1      42.425  18.632  27.203  1.00  0.00    -0.237 OA
ATOM     87  O   UNL A   1      40.527  19.319  25.792  1.00  0.00    -0.744 OA
ENDBRANCH  83  84
ENDBRANCH  51  76
BRANCH  63  88
ATOM     88  C   UNL A   1      47.784  27.118  30.489  1.00  0.00     0.058 A 
ATOM     89  C   UNL A   1      48.844  27.334  29.596  1.00  0.00     0.135 A 
ATOM     90  C   UNL A   1      48.077  26.535  31.732  1.00  0.00     0.135 A 
ATOM     91  F   UNL A   1      48.613  27.883  28.393  1.00  0.00    -0.206 F 
ATOM     92  C   UNL A   1      50.147  26.968  29.916  1.00  0.00     0.059 A 
ATOM     93  C   UNL A   1      49.375  26.182  32.082  1.00  0.00     0.059 A 
ATOM     94  F   UNL A   1      47.097  26.317  32.624  1.00  0.00    -0.206 F 
ATOM     95  C   UNL A   1      50.403  26.392  31.163  1.00  0.00     0.060 A 
BRANCH  95  96
ATOM     96  S   UNL A   1      52.102  25.953  31.584  1.00  0.00     0.124 S 
ATOM     97  O   UNL A   1      51.939  24.588  32.072  1.00  0.00    -0.237 OA
ATOM     98  O   UNL A   1      52.790  26.091  30.304  1.00  0.00    -0.237 OA
ATOM     99  O   UNL A   1      52.466  26.943  32.593  1.00  0.00    -0.744 OA
ENDBRANCH  95  96
ENDBRANCH  63  88
ENDBRANCH  37  38
ENDBRANCH  29  32
ENDBRANCH  27  28
ENDBRANCH   1  27
TORSDOF 17
ENDMDL
