MODEL 1
REMARK VINA RESULT:     -13.4      0.000      0.000
REMARK SMILES O=C(NCCCCNC(=O)[C@H]1CC2(CCN(C(=O)c3cccc(O)c3)CC2)CN1C(=O)C1CC1)c1ccc(-c2c3nc(c(-c4c(F)cc(S(=O)(=O)[O-])cc4F)c4ccc([nH]4)c(-c4c(F)cc(S(=O)(=O)[O-])cc4F)c4nc(c(-c5c(F)cc(S(=O)(=O)[O-])cc5F)c5ccc2[nH]5)C=C4)C=C3)cc1
REMARK SMILES IDX 5 1 4 2 3 3 1 4 2 5 35 7 36 8 100 9 37 10 99 11 38 12 39 13
REMARK SMILES IDX 40 14 93 15 41 16 98 17 92 18 94 19 42 20 97 21 91 22 90 23
REMARK SMILES IDX 43 25 77 26 56 27 76 28 57 29 60 30 75 31 95 32 58 33 59 34
REMARK SMILES IDX 74 36 96 37 61 38 44 39 45 40 54 41 46 42 47 43 53 44 55 45
REMARK SMILES IDX 48 46 49 47 50 48 51 49 52 50 78 51 79 52 88 53 80 54 81 55
REMARK SMILES IDX 87 56 89 57 82 58 83 59 84 60 85 61 86 62 62 63 63 64 72 65
REMARK SMILES IDX 64 66 65 67 71 68 73 69 66 70 67 71 68 72 69 73 70 74 6 75
REMARK SMILES IDX 7 76 8 77 9 78 10 80 11 81 12 82 29 83 13 84 28 85 14 86
REMARK SMILES IDX 27 87 15 88 26 89 16 90 17 91 18 92 30 93 31 94 32 95 33 96
REMARK SMILES IDX 34 97 19 98 20 99 25 100 21 101 23 102 22 103 24 104
REMARK H PARENT 3 6 94 24 60 35 8 79 24 105
REMARK Flexibility Score: inf
ROOT
ATOM      1  C   UNL A   1      39.034  22.688  26.460  1.00  0.00     0.023 C 
ENDROOT
BRANCH   1   2
ATOM      2  C   UNL A   1      40.285  23.407  26.950  1.00  0.00     0.116 C 
BRANCH   2   3
ATOM      3  N   UNL A   1      40.938  24.203  25.922  1.00  0.00    -0.352 N 
ATOM      4  O   UNL A   1      41.845  26.047  24.993  1.00  0.00    -0.269 OA
ATOM      5  C   UNL A   1      41.391  25.500  25.995  1.00  0.00     0.251 C 
ATOM      6  H   UNL A   1      41.073  23.753  25.056  1.00  0.00     0.163 HD
BRANCH   5   7
ATOM      7  C   UNL A   1      41.283  26.243  27.270  1.00  0.00     0.039 A 
ATOM      8  C   UNL A   1      40.217  26.018  28.144  1.00  0.00     0.014 A 
ATOM      9  C   UNL A   1      42.249  27.206  27.575  1.00  0.00     0.014 A 
ATOM     10  C   UNL A   1      40.031  26.860  29.234  1.00  0.00     0.010 A 
ATOM     11  C   UNL A   1      42.102  28.000  28.716  1.00  0.00     0.010 A 
ATOM     12  C   UNL A   1      40.967  27.866  29.530  1.00  0.00    -0.014 A 
BRANCH  12  13
ATOM     13  C   UNL A   1      40.738  28.754  30.699  1.00  0.00     0.031 A 
ATOM     14  C   UNL A   1      41.627  28.682  31.912  1.00  0.00     0.074 A 
ATOM     15  C   UNL A   1      39.743  29.660  30.645  1.00  0.00     0.049 A 
ATOM     16  N   UNL A   1      41.598  29.412  32.998  1.00  0.00    -0.248 NA
ATOM     17  C   UNL A   1      42.678  27.652  31.911  1.00  0.00     0.031 C 
ATOM     18  C   UNL A   1      38.810  29.819  29.527  1.00  0.00     0.029 A 
ATOM     19  N   UNL A   1      39.366  30.632  31.535  1.00  0.00    -0.354 N 
ATOM     20  C   UNL A   1      42.605  28.916  33.820  1.00  0.00     0.074 A 
ATOM     21  C   UNL A   1      43.214  27.809  33.114  1.00  0.00     0.031 C 
ATOM     22  C   UNL A   1      38.002  30.860  29.775  1.00  0.00     0.029 A 
ATOM     23  C   UNL A   1      38.325  31.410  31.087  1.00  0.00     0.049 A 
ATOM     24  H   UNL A   1      39.797  30.759  32.410  1.00  0.00     0.167 HD
ATOM     25  C   UNL A   1      42.989  29.350  35.046  1.00  0.00     0.037 A 
ATOM     26  C   UNL A   1      37.698  32.451  31.666  1.00  0.00     0.037 A 
ATOM     27  C   UNL A   1      42.397  30.469  35.732  1.00  0.00     0.049 A 
ATOM     28  C   UNL A   1      38.147  32.916  33.022  1.00  0.00     0.074 A 
ATOM     29  C   UNL A   1      42.746  31.011  36.958  1.00  0.00     0.029 A 
ATOM     30  N   UNL A   1      41.332  31.219  35.255  1.00  0.00    -0.354 N 
ATOM     31  N   UNL A   1      39.120  32.454  33.769  1.00  0.00    -0.248 NA
ATOM     32  C   UNL A   1      37.413  34.043  33.611  1.00  0.00     0.031 C 
ATOM     33  C   UNL A   1      41.869  32.067  37.237  1.00  0.00     0.029 A 
ATOM     34  C   UNL A   1      41.000  32.208  36.168  1.00  0.00     0.049 A 
ATOM     35  H   UNL A   1      40.879  31.071  34.394  1.00  0.00     0.167 HD
ATOM     36  C   UNL A   1      39.131  33.248  34.910  1.00  0.00     0.074 A 
ATOM     37  C   UNL A   1      38.072  34.224  34.748  1.00  0.00     0.031 C 
ATOM     38  C   UNL A   1      39.946  33.176  35.990  1.00  0.00     0.037 A 
BRANCH  25  39
ATOM     39  C   UNL A   1      44.091  28.591  35.735  1.00  0.00     0.058 A 
ATOM     40  C   UNL A   1      43.823  27.530  36.615  1.00  0.00     0.135 A 
ATOM     41  C   UNL A   1      45.435  28.921  35.498  1.00  0.00     0.135 A 
ATOM     42  F   UNL A   1      42.555  27.183  36.889  1.00  0.00    -0.206 F 
ATOM     43  C   UNL A   1      44.847  26.848  37.265  1.00  0.00     0.059 A 
ATOM     44  C   UNL A   1      46.477  28.236  36.117  1.00  0.00     0.059 A 
ATOM     45  F   UNL A   1      45.748  29.923  34.662  1.00  0.00    -0.206 F 
ATOM     46  C   UNL A   1      46.172  27.213  37.015  1.00  0.00     0.060 A 
BRANCH  46  47
ATOM     47  S   UNL A   1      47.492  26.337  37.882  1.00  0.00     0.124 S 
ATOM     48  O   UNL A   1      48.361  25.955  36.773  1.00  0.00    -0.237 OA
ATOM     49  O   UNL A   1      48.019  27.365  38.773  1.00  0.00    -0.237 OA
ATOM     50  O   UNL A   1      46.793  25.239  38.542  1.00  0.00    -0.744 OA
ENDBRANCH  46  47
ENDBRANCH  25  39
BRANCH  26  51
ATOM     51  C   UNL A   1      36.597  33.135  30.945  1.00  0.00     0.058 A 
ATOM     52  C   UNL A   1      35.263  32.961  31.338  1.00  0.00     0.135 A 
ATOM     53  C   UNL A   1      36.859  34.014  29.882  1.00  0.00     0.135 A 
ATOM     54  F   UNL A   1      34.964  32.128  32.347  1.00  0.00    -0.206 F 
ATOM     55  C   UNL A   1      34.224  33.633  30.703  1.00  0.00     0.059 A 
ATOM     56  C   UNL A   1      35.840  34.715  29.246  1.00  0.00     0.059 A 
ATOM     57  F   UNL A   1      38.123  34.226  29.481  1.00  0.00    -0.206 F 
ATOM     58  C   UNL A   1      34.524  34.513  29.661  1.00  0.00     0.060 A 
BRANCH  58  59
ATOM     59  S   UNL A   1      33.178  35.439  28.892  1.00  0.00     0.124 S 
ATOM     60  O   UNL A   1      33.909  36.443  28.131  1.00  0.00    -0.237 OA
ATOM     61  O   UNL A   1      32.503  34.408  28.109  1.00  0.00    -0.237 OA
ATOM     62  O   UNL A   1      32.421  35.938  30.037  1.00  0.00    -0.744 OA
ENDBRANCH  58  59
ENDBRANCH  26  51
BRANCH  38  63
ATOM     63  C   UNL A   1      39.746  34.204  37.067  1.00  0.00     0.058 A 
ATOM     64  C   UNL A   1      38.974  33.936  38.208  1.00  0.00     0.135 A 
ATOM     65  C   UNL A   1      40.355  35.464  36.966  1.00  0.00     0.135 A 
ATOM     66  F   UNL A   1      38.364  32.749  38.348  1.00  0.00    -0.206 F 
ATOM     67  C   UNL A   1      38.793  34.893  39.201  1.00  0.00     0.059 A 
ATOM     68  C   UNL A   1      40.206  36.429  37.958  1.00  0.00     0.059 A 
ATOM     69  F   UNL A   1      41.111  35.766  35.898  1.00  0.00    -0.206 F 
ATOM     70  C   UNL A   1      39.409  36.138  39.065  1.00  0.00     0.060 A 
BRANCH  70  71
ATOM     71  S   UNL A   1      39.183  37.369  40.366  1.00  0.00     0.124 S 
ATOM     72  O   UNL A   1      40.544  37.861  40.544  1.00  0.00    -0.237 OA
ATOM     73  O   UNL A   1      38.244  38.305  39.756  1.00  0.00    -0.237 OA
ATOM     74  O   UNL A   1      38.645  36.590  41.478  1.00  0.00    -0.744 OA
ENDBRANCH  70  71
ENDBRANCH  38  63
ENDBRANCH  12  13
ENDBRANCH   5   7
ENDBRANCH   2   3
ENDBRANCH   1   2
BRANCH   1  75
ATOM     75  C   UNL A   1      37.814  23.580  26.233  1.00  0.00     0.023 C 
BRANCH  75  76
ATOM     76  C   UNL A   1      36.495  22.829  26.061  1.00  0.00     0.116 C 
BRANCH  76  77
ATOM     77  N   UNL A   1      36.651  21.542  25.398  1.00  0.00    -0.354 N 
ATOM     78  C   UNL A   1      35.727  20.538  25.236  1.00  0.00     0.242 C 
ATOM     79  H   UNL A   1      37.541  21.368  25.012  1.00  0.00     0.163 HD
ATOM     80  O   UNL A   1      36.031  19.542  24.580  1.00  0.00    -0.273 OA
BRANCH  78  81
ATOM     81  C   UNL A   1      34.319  20.774  25.803  1.00  0.00     0.175 C 
ATOM     82  C   UNL A   1      34.011  22.250  25.510  1.00  0.00     0.044 C 
ATOM     83  N   UNL A   1      33.156  20.086  25.263  1.00  0.00    -0.330 N 
ATOM     84  C   UNL A   1      32.478  22.386  25.493  1.00  0.00    -0.006 C 
ATOM     85  C   UNL A   1      31.982  20.941  25.320  1.00  0.00     0.127 C 
ATOM     86  C   UNL A   1      32.016  23.255  24.303  1.00  0.00     0.030 C 
ATOM     87  C   UNL A   1      31.955  23.016  26.803  1.00  0.00     0.030 C 
ATOM     88  C   UNL A   1      32.443  24.708  24.470  1.00  0.00     0.120 C 
ATOM     89  C   UNL A   1      32.292  24.507  26.929  1.00  0.00     0.120 C 
ATOM     90  N   UNL A   1      31.921  25.247  25.726  1.00  0.00    -0.339 N 
ATOM     91  C   UNL A   1      31.309  26.492  25.866  1.00  0.00     0.253 C 
ATOM     92  O   UNL A   1      31.113  27.037  26.950  1.00  0.00    -0.269 OA
BRANCH  83  93
ATOM     93  C   UNL A   1      32.946  18.721  25.153  1.00  0.00     0.226 C 
ATOM     94  O   UNL A   1      32.547  18.052  26.104  1.00  0.00    -0.275 OA
BRANCH  93  95
ATOM     95  C   UNL A   1      33.062  18.045  23.835  1.00  0.00     0.079 C 
ATOM     96  C   UNL A   1      34.229  17.265  23.299  1.00  0.00     0.014 C 
ATOM     97  C   UNL A   1      33.047  16.525  23.829  1.00  0.00     0.014 C 
ENDBRANCH  93  95
ENDBRANCH  83  93
BRANCH  91  98
ATOM     98  C   UNL A   1      30.851  27.202  24.653  1.00  0.00     0.043 A 
ATOM     99  C   UNL A   1      29.537  27.047  24.195  1.00  0.00     0.014 A 
ATOM    100  C   UNL A   1      31.733  28.064  24.000  1.00  0.00     0.060 A 
ATOM    101  C   UNL A   1      29.121  27.720  23.046  1.00  0.00     0.005 A 
ATOM    102  C   UNL A   1      31.303  28.732  22.859  1.00  0.00     0.116 A 
ATOM    103  C   UNL A   1      30.008  28.561  22.372  1.00  0.00     0.046 A 
BRANCH 102 104
ATOM    104  O   UNL A   1      32.192  29.557  22.234  1.00  0.00    -0.508 OA
ATOM    105  H   UNL A   1      33.068  29.265  22.072  1.00  0.00     0.293 HD
ENDBRANCH 102 104
ENDBRANCH  91  98
ENDBRANCH  78  81
ENDBRANCH  76  77
ENDBRANCH  75  76
ENDBRANCH   1  75
TORSDOF 18
ENDMDL
MODEL 2
REMARK VINA RESULT:     -12.9      1.165      4.690
REMARK SMILES O=C(NCCCCNC(=O)[C@H]1CC2(CCN(C(=O)c3cccc(O)c3)CC2)CN1C(=O)C1CC1)c1ccc(-c2c3nc(c(-c4c(F)cc(S(=O)(=O)[O-])cc4F)c4ccc([nH]4)c(-c4c(F)cc(S(=O)(=O)[O-])cc4F)c4nc(c(-c5c(F)cc(S(=O)(=O)[O-])cc5F)c5ccc2[nH]5)C=C4)C=C3)cc1
REMARK SMILES IDX 5 1 4 2 3 3 1 4 2 5 35 7 36 8 100 9 37 10 99 11 38 12 39 13
REMARK SMILES IDX 40 14 93 15 41 16 98 17 92 18 94 19 42 20 97 21 91 22 90 23
REMARK SMILES IDX 43 25 77 26 56 27 76 28 57 29 60 30 75 31 95 32 58 33 59 34
REMARK SMILES IDX 74 36 96 37 61 38 44 39 45 40 54 41 46 42 47 43 53 44 55 45
REMARK SMILES IDX 48 46 49 47 50 48 51 49 52 50 78 51 79 52 88 53 80 54 81 55
REMARK SMILES IDX 87 56 89 57 82 58 83 59 84 60 85 61 86 62 62 63 63 64 72 65
REMARK SMILES IDX 64 66 65 67 71 68 73 69 66 70 67 71 68 72 69 73 70 74 6 75
REMARK SMILES IDX 7 76 8 77 9 78 10 80 11 81 12 82 29 83 13 84 28 85 14 86
REMARK SMILES IDX 27 87 15 88 26 89 16 90 17 91 18 92 30 93 31 94 32 95 33 96
REMARK SMILES IDX 34 97 19 98 20 99 25 100 21 101 23 102 22 103 24 104
REMARK H PARENT 3 6 94 24 60 35 8 79 24 105
REMARK Flexibility Score: inf
ROOT
ATOM      1  C   UNL A   1      37.301  23.209  26.241  1.00  0.00     0.023 C 
ENDROOT
BRANCH   1   2
ATOM      2  C   UNL A   1      38.109  24.449  26.608  1.00  0.00     0.116 C 
BRANCH   2   3
ATOM      3  N   UNL A   1      39.353  24.573  25.865  1.00  0.00    -0.352 N 
ATOM      4  O   UNL A   1      41.398  25.384  25.369  1.00  0.00    -0.269 OA
ATOM      5  C   UNL A   1      40.461  25.333  26.162  1.00  0.00     0.251 C 
ATOM      6  H   UNL A   1      39.409  24.044  25.036  1.00  0.00     0.163 HD
BRANCH   5   7
ATOM      7  C   UNL A   1      40.494  26.122  27.413  1.00  0.00     0.039 A 
ATOM      8  C   UNL A   1      39.666  25.796  28.489  1.00  0.00     0.014 A 
ATOM      9  C   UNL A   1      41.346  27.227  27.493  1.00  0.00     0.014 A 
ATOM     10  C   UNL A   1      39.572  26.662  29.573  1.00  0.00     0.010 A 
ATOM     11  C   UNL A   1      41.308  28.054  28.619  1.00  0.00     0.010 A 
ATOM     12  C   UNL A   1      40.387  27.804  29.648  1.00  0.00    -0.014 A 
BRANCH  12  13
ATOM     13  C   UNL A   1      40.261  28.714  30.817  1.00  0.00     0.031 A 
ATOM     14  C   UNL A   1      41.186  28.590  31.998  1.00  0.00     0.074 A 
ATOM     15  C   UNL A   1      39.328  29.685  30.790  1.00  0.00     0.049 A 
ATOM     16  N   UNL A   1      41.245  29.328  33.077  1.00  0.00    -0.248 NA
ATOM     17  C   UNL A   1      42.165  27.492  31.969  1.00  0.00     0.031 C 
ATOM     18  C   UNL A   1      38.368  29.899  29.704  1.00  0.00     0.029 A 
ATOM     19  N   UNL A   1      39.049  30.686  31.683  1.00  0.00    -0.354 N 
ATOM     20  C   UNL A   1      42.245  28.771  33.867  1.00  0.00     0.074 A 
ATOM     21  C   UNL A   1      42.752  27.620  33.151  1.00  0.00     0.031 C 
ATOM     22  C   UNL A   1      37.641  30.995  29.970  1.00  0.00     0.029 A 
ATOM     23  C   UNL A   1      38.048  31.531  31.265  1.00  0.00     0.049 A 
ATOM     24  H   UNL A   1      39.519  30.790  32.541  1.00  0.00     0.167 HD
ATOM     25  C   UNL A   1      42.702  29.186  35.075  1.00  0.00     0.037 A 
ATOM     26  C   UNL A   1      37.514  32.615  31.857  1.00  0.00     0.037 A 
ATOM     27  C   UNL A   1      42.212  30.347  35.772  1.00  0.00     0.049 A 
ATOM     28  C   UNL A   1      38.042  33.058  33.191  1.00  0.00     0.074 A 
ATOM     29  C   UNL A   1      42.640  30.872  36.979  1.00  0.00     0.029 A 
ATOM     30  N   UNL A   1      41.184  31.164  35.325  1.00  0.00    -0.354 N 
ATOM     31  N   UNL A   1      39.008  32.536  33.908  1.00  0.00    -0.248 NA
ATOM     32  C   UNL A   1      37.407  34.236  33.796  1.00  0.00     0.031 C 
ATOM     33  C   UNL A   1      41.848  31.987  37.280  1.00  0.00     0.029 A 
ATOM     34  C   UNL A   1      40.952  32.180  36.240  1.00  0.00     0.049 A 
ATOM     35  H   UNL A   1      40.691  31.042  34.482  1.00  0.00     0.167 HD
ATOM     36  C   UNL A   1      39.113  33.335  35.040  1.00  0.00     0.074 A 
ATOM     37  C   UNL A   1      38.117  34.380  34.906  1.00  0.00     0.031 C 
ATOM     38  C   UNL A   1      39.960  33.215  36.092  1.00  0.00     0.037 A 
BRANCH  25  39
ATOM     39  C   UNL A   1      43.774  28.359  35.732  1.00  0.00     0.058 A 
ATOM     40  C   UNL A   1      43.467  27.323  36.629  1.00  0.00     0.135 A 
ATOM     41  C   UNL A   1      45.128  28.597  35.446  1.00  0.00     0.135 A 
ATOM     42  F   UNL A   1      42.189  27.062  36.948  1.00  0.00    -0.206 F 
ATOM     43  C   UNL A   1      44.465  26.577  37.248  1.00  0.00     0.059 A 
ATOM     44  C   UNL A   1      46.143  27.847  36.035  1.00  0.00     0.059 A 
ATOM     45  F   UNL A   1      45.478  29.572  34.593  1.00  0.00    -0.206 F 
ATOM     46  C   UNL A   1      45.802  26.851  36.950  1.00  0.00     0.060 A 
BRANCH  46  47
ATOM     47  S   UNL A   1      47.090  25.894  37.778  1.00  0.00     0.124 S 
ATOM     48  O   UNL A   1      46.368  25.386  38.941  1.00  0.00    -0.237 OA
ATOM     49  O   UNL A   1      47.442  24.901  36.769  1.00  0.00    -0.237 OA
ATOM     50  O   UNL A   1      48.121  26.888  38.062  1.00  0.00    -0.744 OA
ENDBRANCH  46  47
ENDBRANCH  25  39
BRANCH  26  51
ATOM     51  C   UNL A   1      36.436  33.367  31.168  1.00  0.00     0.058 A 
ATOM     52  C   UNL A   1      36.713  34.143  30.034  1.00  0.00     0.135 A 
ATOM     53  C   UNL A   1      35.102  33.286  31.599  1.00  0.00     0.135 A 
ATOM     54  F   UNL A   1      37.974  34.252  29.588  1.00  0.00    -0.206 F 
ATOM     55  C   UNL A   1      35.707  34.815  29.350  1.00  0.00     0.059 A 
ATOM     56  C   UNL A   1      34.075  33.930  30.918  1.00  0.00     0.059 A 
ATOM     57  F   UNL A   1      34.786  32.541  32.670  1.00  0.00    -0.206 F 
ATOM     58  C   UNL A   1      34.388  34.697  29.796  1.00  0.00     0.060 A 
BRANCH  58  59
ATOM     59  S   UNL A   1      33.078  35.510  28.858  1.00  0.00     0.124 S 
ATOM     60  O   UNL A   1      33.838  36.462  28.057  1.00  0.00    -0.237 OA
ATOM     61  O   UNL A   1      32.482  34.394  28.130  1.00  0.00    -0.237 OA
ATOM     62  O   UNL A   1      32.234  36.091  29.898  1.00  0.00    -0.744 OA
ENDBRANCH  58  59
ENDBRANCH  26  51
BRANCH  38  63
ATOM     63  C   UNL A   1      39.869  34.262  37.165  1.00  0.00     0.058 A 
ATOM     64  C   UNL A   1      40.554  35.482  37.065  1.00  0.00     0.135 A 
ATOM     65  C   UNL A   1      39.067  34.048  38.297  1.00  0.00     0.135 A 
ATOM     66  F   UNL A   1      41.340  35.732  36.006  1.00  0.00    -0.206 F 
ATOM     67  C   UNL A   1      40.467  36.447  38.065  1.00  0.00     0.059 A 
ATOM     68  C   UNL A   1      38.947  35.008  39.298  1.00  0.00     0.059 A 
ATOM     69  F   UNL A   1      38.385  32.901  38.436  1.00  0.00    -0.206 F 
ATOM     70  C   UNL A   1      39.664  36.199  39.179  1.00  0.00     0.060 A 
BRANCH  70  71
ATOM     71  S   UNL A   1      39.542  37.462  40.463  1.00  0.00     0.124 S 
ATOM     72  O   UNL A   1      38.950  36.706  41.561  1.00  0.00    -0.237 OA
ATOM     73  O   UNL A   1      40.934  37.861  40.646  1.00  0.00    -0.237 OA
ATOM     74  O   UNL A   1      38.680  38.475  39.859  1.00  0.00    -0.744 OA
ENDBRANCH  70  71
ENDBRANCH  38  63
ENDBRANCH  12  13
ENDBRANCH   5   7
ENDBRANCH   2   3
ENDBRANCH   1   2
BRANCH   1  75
ATOM     75  C   UNL A   1      36.381  23.364  25.030  1.00  0.00     0.023 C 
BRANCH  75  76
ATOM     76  C   UNL A   1      35.052  24.057  25.321  1.00  0.00     0.116 C 
BRANCH  76  77
ATOM     77  N   UNL A   1      34.912  25.336  24.638  1.00  0.00    -0.354 N 
ATOM     78  C   UNL A   1      33.833  25.829  23.943  1.00  0.00     0.242 C 
ATOM     79  H   UNL A   1      35.697  25.928  24.682  1.00  0.00     0.163 HD
ATOM     80  O   UNL A   1      33.883  26.971  23.488  1.00  0.00    -0.273 OA
BRANCH  78  81
ATOM     81  C   UNL A   1      32.578  24.946  23.866  1.00  0.00     0.175 C 
ATOM     82  C   UNL A   1      33.106  23.511  23.717  1.00  0.00     0.044 C 
ATOM     83  N   UNL A   1      31.654  24.838  24.985  1.00  0.00    -0.330 N 
ATOM     84  C   UNL A   1      31.994  22.577  24.228  1.00  0.00    -0.006 C 
ATOM     85  C   UNL A   1      31.087  23.503  25.055  1.00  0.00     0.127 C 
ATOM     86  C   UNL A   1      32.579  21.463  25.123  1.00  0.00     0.030 C 
ATOM     87  C   UNL A   1      31.227  21.924  23.056  1.00  0.00     0.030 C 
ATOM     88  C   UNL A   1      33.440  20.493  24.322  1.00  0.00     0.120 C 
ATOM     89  C   UNL A   1      32.055  20.869  22.310  1.00  0.00     0.120 C 
ATOM     90  N   UNL A   1      32.662  19.911  23.229  1.00  0.00    -0.339 N 
ATOM     91  C   UNL A   1      32.649  18.558  22.892  1.00  0.00     0.253 C 
ATOM     92  O   UNL A   1      32.207  18.124  21.831  1.00  0.00    -0.269 OA
BRANCH  83  93
ATOM     93  C   UNL A   1      30.971  25.856  25.630  1.00  0.00     0.226 C 
ATOM     94  O   UNL A   1      31.038  26.006  26.848  1.00  0.00    -0.275 OA
BRANCH  93  95
ATOM     95  C   UNL A   1      30.245  26.889  24.847  1.00  0.00     0.079 C 
ATOM     96  C   UNL A   1      30.117  26.992  23.352  1.00  0.00     0.014 C 
ATOM     97  C   UNL A   1      28.969  26.458  24.141  1.00  0.00     0.014 C 
ENDBRANCH  93  95
ENDBRANCH  83  93
BRANCH  91  98
ATOM     98  C   UNL A   1      33.182  17.577  23.861  1.00  0.00     0.043 A 
ATOM     99  C   UNL A   1      34.539  17.230  23.845  1.00  0.00     0.014 A 
ATOM    100  C   UNL A   1      32.323  17.038  24.820  1.00  0.00     0.060 A 
ATOM    101  C   UNL A   1      35.025  16.299  24.763  1.00  0.00     0.005 A 
ATOM    102  C   UNL A   1      32.823  16.115  25.731  1.00  0.00     0.116 A 
ATOM    103  C   UNL A   1      34.164  15.734  25.706  1.00  0.00     0.046 A 
BRANCH 102 104
ATOM    104  O   UNL A   1      31.957  15.595  26.648  1.00  0.00    -0.508 OA
ATOM    105  H   UNL A   1      31.273  16.129  27.001  1.00  0.00     0.293 HD
ENDBRANCH 102 104
ENDBRANCH  91  98
ENDBRANCH  78  81
ENDBRANCH  76  77
ENDBRANCH  75  76
ENDBRANCH   1  75
TORSDOF 18
ENDMDL
MODEL 3
REMARK VINA RESULT:     -12.8      1.361      9.177
REMARK SMILES O=C(NCCCCNC(=O)[C@H]1CC2(CCN(C(=O)c3cccc(O)c3)CC2)CN1C(=O)C1CC1)c1ccc(-c2c3nc(c(-c4c(F)cc(S(=O)(=O)[O-])cc4F)c4ccc([nH]4)c(-c4c(F)cc(S(=O)(=O)[O-])cc4F)c4nc(c(-c5c(F)cc(S(=O)(=O)[O-])cc5F)c5ccc2[nH]5)C=C4)C=C3)cc1
REMARK SMILES IDX 5 1 4 2 3 3 1 4 2 5 35 7 36 8 100 9 37 10 99 11 38 12 39 13
REMARK SMILES IDX 40 14 93 15 41 16 98 17 92 18 94 19 42 20 97 21 91 22 90 23
REMARK SMILES IDX 43 25 77 26 56 27 76 28 57 29 60 30 75 31 95 32 58 33 59 34
REMARK SMILES IDX 74 36 96 37 61 38 44 39 45 40 54 41 46 42 47 43 53 44 55 45
REMARK SMILES IDX 48 46 49 47 50 48 51 49 52 50 78 51 79 52 88 53 80 54 81 55
REMARK SMILES IDX 87 56 89 57 82 58 83 59 84 60 85 61 86 62 62 63 63 64 72 65
REMARK SMILES IDX 64 66 65 67 71 68 73 69 66 70 67 71 68 72 69 73 70 74 6 75
REMARK SMILES IDX 7 76 8 77 9 78 10 80 11 81 12 82 29 83 13 84 28 85 14 86
REMARK SMILES IDX 27 87 15 88 26 89 16 90 17 91 18 92 30 93 31 94 32 95 33 96
REMARK SMILES IDX 34 97 19 98 20 99 25 100 21 101 23 102 22 103 24 104
REMARK H PARENT 3 6 94 24 60 35 8 79 24 105
REMARK Flexibility Score: inf
ROOT
ATOM      1  C   UNL A   1      37.229  23.390  26.320  1.00  0.00     0.023 C 
ENDROOT
BRANCH   1   2
ATOM      2  C   UNL A   1      38.232  24.534  26.226  1.00  0.00     0.116 C 
BRANCH   2   3
ATOM      3  N   UNL A   1      39.616  24.090  26.163  1.00  0.00    -0.352 N 
ATOM      4  O   UNL A   1      41.831  24.146  26.584  1.00  0.00    -0.269 OA
ATOM      5  C   UNL A   1      40.713  24.594  26.825  1.00  0.00     0.251 C 
ATOM      6  H   UNL A   1      39.793  23.328  25.566  1.00  0.00     0.163 HD
BRANCH   5   7
ATOM      7  C   UNL A   1      40.541  25.705  27.787  1.00  0.00     0.039 A 
ATOM      8  C   UNL A   1      41.391  26.813  27.763  1.00  0.00     0.014 A 
ATOM      9  C   UNL A   1      39.533  25.614  28.751  1.00  0.00     0.014 A 
ATOM     10  C   UNL A   1      41.337  27.745  28.793  1.00  0.00     0.010 A 
ATOM     11  C   UNL A   1      39.430  26.595  29.742  1.00  0.00     0.010 A 
ATOM     12  C   UNL A   1      40.360  27.644  29.798  1.00  0.00    -0.014 A 
BRANCH  12  13
ATOM     13  C   UNL A   1      40.330  28.653  30.889  1.00  0.00     0.031 A 
ATOM     14  C   UNL A   1      39.313  29.763  30.890  1.00  0.00     0.074 A 
ATOM     15  C   UNL A   1      41.204  28.538  31.908  1.00  0.00     0.049 A 
ATOM     16  N   UNL A   1      39.116  30.698  31.784  1.00  0.00    -0.248 NA
ATOM     17  C   UNL A   1      38.405  29.840  29.734  1.00  0.00     0.031 C 
ATOM     18  C   UNL A   1      42.241  27.510  32.014  1.00  0.00     0.029 A 
ATOM     19  N   UNL A   1      41.344  29.273  33.056  1.00  0.00    -0.354 N 
ATOM     20  C   UNL A   1      38.084  31.489  31.291  1.00  0.00     0.074 A 
ATOM     21  C   UNL A   1      37.710  30.935  30.007  1.00  0.00     0.031 C 
ATOM     22  C   UNL A   1      42.878  27.647  33.187  1.00  0.00     0.029 A 
ATOM     23  C   UNL A   1      42.328  28.801  33.892  1.00  0.00     0.049 A 
ATOM     24  H   UNL A   1      40.795  30.063  33.262  1.00  0.00     0.167 HD
ATOM     25  C   UNL A   1      37.500  32.572  31.859  1.00  0.00     0.037 A 
ATOM     26  C   UNL A   1      42.745  29.245  35.092  1.00  0.00     0.037 A 
ATOM     27  C   UNL A   1      37.858  33.104  33.149  1.00  0.00     0.049 A 
ATOM     28  C   UNL A   1      42.076  30.443  35.704  1.00  0.00     0.074 A 
ATOM     29  C   UNL A   1      37.296  34.171  33.828  1.00  0.00     0.029 A 
ATOM     30  N   UNL A   1      38.873  32.610  33.956  1.00  0.00    -0.354 N 
ATOM     31  N   UNL A   1      41.083  31.158  35.236  1.00  0.00    -0.248 NA
ATOM     32  C   UNL A   1      42.586  30.892  37.005  1.00  0.00     0.031 C 
ATOM     33  C   UNL A   1      37.993  34.344  35.030  1.00  0.00     0.029 A 
ATOM     34  C   UNL A   1      38.964  33.360  35.118  1.00  0.00     0.049 A 
ATOM     35  H   UNL A   1      39.445  31.840  33.736  1.00  0.00     0.167 HD
ATOM     36  C   UNL A   1      40.832  32.132  36.195  1.00  0.00     0.074 A 
ATOM     37  C   UNL A   1      41.774  31.905  37.274  1.00  0.00     0.031 C 
ATOM     38  C   UNL A   1      39.905  33.120  36.185  1.00  0.00     0.037 A 
BRANCH  25  39
ATOM     39  C   UNL A   1      36.423  33.272  31.074  1.00  0.00     0.058 A 
ATOM     40  C   UNL A   1      36.720  34.072  29.959  1.00  0.00     0.135 A 
ATOM     41  C   UNL A   1      35.074  33.124  31.432  1.00  0.00     0.135 A 
ATOM     42  F   UNL A   1      37.995  34.259  29.581  1.00  0.00    -0.206 F 
ATOM     43  C   UNL A   1      35.720  34.732  29.251  1.00  0.00     0.059 A 
ATOM     44  C   UNL A   1      34.055  33.755  30.724  1.00  0.00     0.059 A 
ATOM     45  F   UNL A   1      34.734  32.366  32.487  1.00  0.00    -0.206 F 
ATOM     46  C   UNL A   1      34.390  34.573  29.646  1.00  0.00     0.060 A 
BRANCH  46  47
ATOM     47  S   UNL A   1      33.103  35.454  28.735  1.00  0.00     0.124 S 
ATOM     48  O   UNL A   1      32.331  36.043  29.825  1.00  0.00    -0.237 OA
ATOM     49  O   UNL A   1      33.874  36.393  27.928  1.00  0.00    -0.237 OA
ATOM     50  O   UNL A   1      32.431  34.395  27.989  1.00  0.00    -0.744 OA
ENDBRANCH  46  47
ENDBRANCH  25  39
BRANCH  26  51
ATOM     51  C   UNL A   1      43.834  28.527  35.800  1.00  0.00     0.058 A 
ATOM     52  C   UNL A   1      45.175  28.885  35.605  1.00  0.00     0.135 A 
ATOM     53  C   UNL A   1      43.554  27.506  36.721  1.00  0.00     0.135 A 
ATOM     54  F   UNL A   1      45.491  29.853  34.731  1.00  0.00    -0.206 F 
ATOM     55  C   UNL A   1      46.203  28.254  36.297  1.00  0.00     0.059 A 
ATOM     56  C   UNL A   1      44.562  26.877  37.443  1.00  0.00     0.059 A 
ATOM     57  F   UNL A   1      42.283  27.142  36.955  1.00  0.00    -0.206 F 
ATOM     58  C   UNL A   1      45.885  27.255  37.219  1.00  0.00     0.060 A 
BRANCH  58  59
ATOM     59  S   UNL A   1      47.220  26.495  38.169  1.00  0.00     0.124 S 
ATOM     60  O   UNL A   1      46.475  25.685  39.125  1.00  0.00    -0.237 OA
ATOM     61  O   UNL A   1      47.950  25.761  37.141  1.00  0.00    -0.237 OA
ATOM     62  O   UNL A   1      47.928  27.644  38.727  1.00  0.00    -0.744 OA
ENDBRANCH  58  59
ENDBRANCH  26  51
BRANCH  38  63
ATOM     63  C   UNL A   1      39.840  34.010  37.393  1.00  0.00     0.058 A 
ATOM     64  C   UNL A   1      40.566  35.209  37.465  1.00  0.00     0.135 A 
ATOM     65  C   UNL A   1      39.021  33.670  38.481  1.00  0.00     0.135 A 
ATOM     66  F   UNL A   1      41.370  35.575  36.455  1.00  0.00    -0.206 F 
ATOM     67  C   UNL A   1      40.502  36.028  38.588  1.00  0.00     0.059 A 
ATOM     68  C   UNL A   1      38.925  34.485  39.605  1.00  0.00     0.059 A 
ATOM     69  F   UNL A   1      38.300  32.538  38.457  1.00  0.00    -0.206 F 
ATOM     70  C   UNL A   1      39.682  35.656  39.654  1.00  0.00     0.060 A 
BRANCH  70  71
ATOM     71  S   UNL A   1      39.591  36.732  41.100  1.00  0.00     0.124 S 
ATOM     72  O   UNL A   1      41.001  36.885  41.440  1.00  0.00    -0.237 OA
ATOM     73  O   UNL A   1      38.935  37.922  40.568  1.00  0.00    -0.237 OA
ATOM     74  O   UNL A   1      38.795  35.958  42.049  1.00  0.00    -0.744 OA
ENDBRANCH  70  71
ENDBRANCH  38  63
ENDBRANCH  12  13
ENDBRANCH   5   7
ENDBRANCH   2   3
ENDBRANCH   1   2
BRANCH   1  75
ATOM     75  C   UNL A   1      36.122  23.404  25.266  1.00  0.00     0.023 C 
BRANCH  75  76
ATOM     76  C   UNL A   1      34.907  24.257  25.626  1.00  0.00     0.116 C 
BRANCH  76  77
ATOM     77  N   UNL A   1      34.793  25.462  24.817  1.00  0.00    -0.354 N 
ATOM     78  C   UNL A   1      33.741  25.882  24.039  1.00  0.00     0.242 C 
ATOM     79  H   UNL A   1      35.577  26.058  24.830  1.00  0.00     0.163 HD
ATOM     80  O   UNL A   1      33.808  26.974  23.477  1.00  0.00    -0.273 OA
BRANCH  78  81
ATOM     81  C   UNL A   1      32.488  24.994  24.004  1.00  0.00     0.175 C 
ATOM     82  C   UNL A   1      33.016  23.565  23.803  1.00  0.00     0.044 C 
ATOM     83  N   UNL A   1      31.619  24.858  25.164  1.00  0.00    -0.330 N 
ATOM     84  C   UNL A   1      31.935  22.614  24.347  1.00  0.00    -0.006 C 
ATOM     85  C   UNL A   1      31.062  23.518  25.234  1.00  0.00     0.127 C 
ATOM     86  C   UNL A   1      32.567  21.487  25.191  1.00  0.00     0.030 C 
ATOM     87  C   UNL A   1      31.116  21.979  23.200  1.00  0.00     0.030 C 
ATOM     88  C   UNL A   1      33.394  20.538  24.332  1.00  0.00     0.120 C 
ATOM     89  C   UNL A   1      31.913  20.944  22.395  1.00  0.00     0.120 C 
ATOM     90  N   UNL A   1      32.568  19.973  23.266  1.00  0.00    -0.339 N 
ATOM     91  C   UNL A   1      32.547  18.626  22.903  1.00  0.00     0.253 C 
ATOM     92  O   UNL A   1      32.057  18.210  21.856  1.00  0.00    -0.269 OA
BRANCH  83  93
ATOM     93  C   UNL A   1      30.961  25.859  25.859  1.00  0.00     0.226 C 
ATOM     94  O   UNL A   1      29.942  25.630  26.507  1.00  0.00    -0.275 OA
BRANCH  93  95
ATOM     95  C   UNL A   1      31.551  27.219  25.959  1.00  0.00     0.079 C 
ATOM     96  C   UNL A   1      31.449  28.185  27.106  1.00  0.00     0.014 C 
ATOM     97  C   UNL A   1      32.708  27.406  26.928  1.00  0.00     0.014 C 
ENDBRANCH  93  95
ENDBRANCH  83  93
BRANCH  91  98
ATOM     98  C   UNL A   1      33.130  17.630  23.826  1.00  0.00     0.043 A 
ATOM     99  C   UNL A   1      34.501  17.348  23.790  1.00  0.00     0.014 A 
ATOM    100  C   UNL A   1      32.303  17.010  24.763  1.00  0.00     0.060 A 
ATOM    101  C   UNL A   1      35.036  16.401  24.665  1.00  0.00     0.005 A 
ATOM    102  C   UNL A   1      32.850  16.072  25.632  1.00  0.00     0.116 A 
ATOM    103  C   UNL A   1      34.207  15.757  25.585  1.00  0.00     0.046 A 
BRANCH 102 104
ATOM    104  O   UNL A   1      32.014  15.473  26.527  1.00  0.00    -0.508 OA
ATOM    105  H   UNL A   1      31.149  15.809  26.659  1.00  0.00     0.293 HD
ENDBRANCH 102 104
ENDBRANCH  91  98
ENDBRANCH  78  81
ENDBRANCH  76  77
ENDBRANCH  75  76
ENDBRANCH   1  75
TORSDOF 18
ENDMDL
