MODEL 1
REMARK VINA RESULT:     -12.1      0.000      0.000
REMARK SMILES COc1ccc(/C=C/C(=O)NCCCCNC(=O)c2ccc(-c3c4nc(c(-c5c(F)cc(S(=O)(=O)[O-])cc5F)c5ccc([nH]5)c(-c5c(F)cc(S(=O)(=O)[O-])cc5F)c5nc(c(-c6c(F)cc(S(=O)(=O)[O-])cc6F)c6ccc3[nH]6)C=C5)C=C4)cc2)cc1S(=O)(=O)Nc1ccc(F)cc1F
REMARK SMILES IDX 13 1 12 2 11 3 9 4 10 5 8 7 7 8 6 9 3 10 4 11 86 12 5 13
REMARK SMILES IDX 85 14 2 15 1 16 87 17 88 18 89 19 90 20 91 22 92 23 97 24
REMARK SMILES IDX 93 25 96 26 98 27 94 28 95 29 14 30 15 31 16 32 17 33 18 35
REMARK SMILES IDX 19 36 20 37 84 38 21 39 83 40 22 41 23 42 24 43 77 44 25 45
REMARK SMILES IDX 82 46 76 47 78 48 26 49 81 50 75 51 74 52 27 54 61 55 40 56
REMARK SMILES IDX 60 57 41 58 44 59 59 60 79 61 42 62 43 63 58 65 80 66 45 67
REMARK SMILES IDX 28 68 29 69 38 70 30 71 31 72 37 73 39 74 32 75 33 76 34 77
REMARK SMILES IDX 35 78 36 79 62 80 63 81 72 82 64 83 65 84 71 85 73 86 66 87
REMARK SMILES IDX 67 88 68 89 69 90 70 91 46 92 47 93 56 94 48 95 49 96 55 97
REMARK SMILES IDX 57 98 50 99 51 100 52 101 53 102 54 103
REMARK H PARENT 11 6 90 21 16 34 78 53 44 64
REMARK Flexibility Score: inf
ROOT
ATOM      1  C   UNL A   1      33.029  29.471  26.710  1.00  0.00     0.023 C 
ENDROOT
BRANCH   1   2
ATOM      2  C   UNL A   1      33.146  29.723  25.209  1.00  0.00     0.116 C 
BRANCH   2   3
ATOM      3  N   UNL A   1      31.853  30.065  24.646  1.00  0.00    -0.353 N 
ATOM      4  C   UNL A   1      30.888  29.261  24.127  1.00  0.00     0.243 C 
ATOM      5  O   UNL A   1      29.827  29.731  23.728  1.00  0.00    -0.270 OA
ATOM      6  H   UNL A   1      31.643  31.026  24.638  1.00  0.00     0.163 HD
BRANCH   4   7
ATOM      7  C   UNL A   1      31.058  27.796  24.184  1.00  0.00     0.072 C 
ATOM      8  C   UNL A   1      31.543  27.032  23.191  1.00  0.00     0.014 C 
BRANCH   8   9
ATOM      9  C   UNL A   1      31.771  25.587  23.370  1.00  0.00    -0.024 A 
ATOM     10  C   UNL A   1      31.796  22.788  23.614  1.00  0.00     0.139 A 
ATOM     11  C   UNL A   1      32.260  23.396  22.449  1.00  0.00     0.048 A 
ATOM     12  C   UNL A   1      31.504  23.572  24.727  1.00  0.00     0.130 A 
ATOM     13  C   UNL A   1      32.262  24.785  22.334  1.00  0.00     0.012 A 
ATOM     14  C   UNL A   1      31.462  24.975  24.592  1.00  0.00     0.034 A 
BRANCH  10  15
ATOM     15  O   UNL A   1      31.708  21.428  23.570  1.00  0.00    -0.495 OA
ATOM     16  C   UNL A   1      32.074  20.914  22.289  1.00  0.00     0.278 C 
ENDBRANCH  10  15
BRANCH  12  17
ATOM     17  S   UNL A   1      31.239  22.923  26.358  1.00  0.00     0.265 S 
ATOM     18  O   UNL A   1      31.163  24.041  27.272  1.00  0.00    -0.201 OA
ATOM     19  O   UNL A   1      30.125  22.000  26.240  1.00  0.00    -0.201 OA
BRANCH  17  20
ATOM     20  N   UNL A   1      32.532  21.960  26.846  1.00  0.00    -0.277 N 
ATOM     21  H   UNL A   1      32.399  21.361  27.615  1.00  0.00     0.180 HD
BRANCH  20  22
ATOM     22  C   UNL A   1      33.810  21.964  26.208  1.00  0.00     0.085 A 
ATOM     23  C   UNL A   1      34.242  20.734  25.685  1.00  0.00     0.033 A 
ATOM     24  C   UNL A   1      34.618  23.092  26.034  1.00  0.00     0.150 A 
ATOM     25  C   UNL A   1      35.387  20.671  24.890  1.00  0.00     0.041 A 
ATOM     26  C   UNL A   1      35.764  23.034  25.246  1.00  0.00     0.080 A 
ATOM     27  F   UNL A   1      34.273  24.275  26.559  1.00  0.00    -0.205 F 
ATOM     28  C   UNL A   1      36.123  21.827  24.661  1.00  0.00     0.126 A 
ATOM     29  F   UNL A   1      37.192  21.774  23.856  1.00  0.00    -0.207 F 
ENDBRANCH  20  22
ENDBRANCH  17  20
ENDBRANCH  12  17
ENDBRANCH   8   9
ENDBRANCH   4   7
ENDBRANCH   2   3
ENDBRANCH   1   2
BRANCH   1  30
ATOM     30  C   UNL A   1      34.141  28.586  27.286  1.00  0.00     0.023 C 
BRANCH  30  31
ATOM     31  C   UNL A   1      35.409  29.326  27.708  1.00  0.00     0.116 C 
BRANCH  31  32
ATOM     32  N   UNL A   1      35.271  30.015  28.982  1.00  0.00    -0.352 N 
ATOM     33  C   UNL A   1      36.250  30.363  29.881  1.00  0.00     0.251 C 
ATOM     34  H   UNL A   1      34.353  30.264  29.234  1.00  0.00     0.163 HD
ATOM     35  O   UNL A   1      35.943  30.849  30.966  1.00  0.00    -0.269 OA
BRANCH  33  36
ATOM     36  C   UNL A   1      37.669  30.116  29.551  1.00  0.00     0.039 A 
ATOM     37  C   UNL A   1      38.569  29.878  30.592  1.00  0.00     0.014 A 
ATOM     38  C   UNL A   1      38.105  30.099  28.223  1.00  0.00     0.014 A 
ATOM     39  C   UNL A   1      39.896  29.557  30.300  1.00  0.00     0.010 A 
ATOM     40  C   UNL A   1      39.414  29.724  27.931  1.00  0.00     0.010 A 
ATOM     41  C   UNL A   1      40.319  29.443  28.966  1.00  0.00    -0.014 A 
BRANCH  41  42
ATOM     42  C   UNL A   1      41.699  29.013  28.632  1.00  0.00     0.031 A 
ATOM     43  C   UNL A   1      42.820  30.013  28.606  1.00  0.00     0.074 A 
ATOM     44  C   UNL A   1      41.927  27.731  28.280  1.00  0.00     0.049 A 
ATOM     45  N   UNL A   1      44.071  29.843  28.264  1.00  0.00    -0.248 NA
ATOM     46  C   UNL A   1      42.484  31.394  28.989  1.00  0.00     0.031 C 
ATOM     47  C   UNL A   1      40.910  26.678  28.218  1.00  0.00     0.029 A 
ATOM     48  N   UNL A   1      43.082  27.099  27.897  1.00  0.00    -0.354 N 
ATOM     49  C   UNL A   1      44.666  31.094  28.368  1.00  0.00     0.074 A 
ATOM     50  C   UNL A   1      43.631  32.022  28.769  1.00  0.00     0.031 C 
ATOM     51  C   UNL A   1      41.490  25.528  27.839  1.00  0.00     0.029 A 
ATOM     52  C   UNL A   1      42.911  25.766  27.602  1.00  0.00     0.049 A 
ATOM     53  H   UNL A   1      43.952  27.556  27.838  1.00  0.00     0.167 HD
ATOM     54  C   UNL A   1      45.961  31.433  28.164  1.00  0.00     0.037 A 
ATOM     55  C   UNL A   1      43.797  24.843  27.184  1.00  0.00     0.037 A 
ATOM     56  C   UNL A   1      46.994  30.498  27.803  1.00  0.00     0.049 A 
ATOM     57  C   UNL A   1      45.235  25.238  26.993  1.00  0.00     0.074 A 
ATOM     58  C   UNL A   1      48.350  30.731  27.646  1.00  0.00     0.029 A 
ATOM     59  N   UNL A   1      46.788  29.150  27.545  1.00  0.00    -0.354 N 
ATOM     60  N   UNL A   1      45.794  26.413  27.155  1.00  0.00    -0.248 NA
ATOM     61  C   UNL A   1      46.165  24.182  26.570  1.00  0.00     0.031 C 
ATOM     62  C   UNL A   1      48.959  29.531  27.264  1.00  0.00     0.029 A 
ATOM     63  C   UNL A   1      47.988  28.543  27.218  1.00  0.00     0.049 A 
ATOM     64  H   UNL A   1      45.917  28.695  27.590  1.00  0.00     0.167 HD
ATOM     65  C   UNL A   1      47.143  26.234  26.876  1.00  0.00     0.074 A 
ATOM     66  C   UNL A   1      47.320  24.835  26.544  1.00  0.00     0.031 C 
ATOM     67  C   UNL A   1      48.146  27.146  26.895  1.00  0.00     0.037 A 
BRANCH  54  68
ATOM     68  C   UNL A   1      46.336  32.879  28.330  1.00  0.00     0.058 A 
ATOM     69  C   UNL A   1      46.754  33.392  29.568  1.00  0.00     0.135 A 
ATOM     70  C   UNL A   1      46.306  33.755  27.233  1.00  0.00     0.135 A 
ATOM     71  F   UNL A   1      46.785  32.602  30.653  1.00  0.00    -0.206 F 
ATOM     72  C   UNL A   1      47.104  34.730  29.720  1.00  0.00     0.059 A 
ATOM     73  C   UNL A   1      46.676  35.092  27.357  1.00  0.00     0.059 A 
ATOM     74  F   UNL A   1      45.913  33.316  26.028  1.00  0.00    -0.206 F 
ATOM     75  C   UNL A   1      47.060  35.573  28.608  1.00  0.00     0.060 A 
BRANCH  75  76
ATOM     76  S   UNL A   1      47.519  37.306  28.818  1.00  0.00     0.124 S 
ATOM     77  O   UNL A   1      46.832  37.926  27.689  1.00  0.00    -0.237 OA
ATOM     78  O   UNL A   1      46.978  37.617  30.137  1.00  0.00    -0.237 OA
ATOM     79  O   UNL A   1      48.976  37.283  28.731  1.00  0.00    -0.744 OA
ENDBRANCH  75  76
ENDBRANCH  54  68
BRANCH  55  80
ATOM     80  C   UNL A   1      43.353  23.445  26.953  1.00  0.00     0.058 A 
ATOM     81  C   UNL A   1      43.230  22.938  25.651  1.00  0.00     0.135 A 
ATOM     82  C   UNL A   1      43.071  22.581  28.022  1.00  0.00     0.135 A 
ATOM     83  F   UNL A   1      43.485  23.729  24.597  1.00  0.00    -0.206 F 
ATOM     84  C   UNL A   1      42.836  21.626  25.414  1.00  0.00     0.059 A 
ATOM     85  C   UNL A   1      42.693  21.259  27.812  1.00  0.00     0.059 A 
ATOM     86  F   UNL A   1      43.190  23.015  29.287  1.00  0.00    -0.206 F 
ATOM     87  C   UNL A   1      42.571  20.792  26.502  1.00  0.00     0.060 A 
BRANCH  87  88
ATOM     88  S   UNL A   1      42.118  19.072  26.186  1.00  0.00     0.124 S 
ATOM     89  O   UNL A   1      42.387  18.455  27.478  1.00  0.00    -0.237 OA
ATOM     90  O   UNL A   1      40.711  19.189  25.813  1.00  0.00    -0.237 OA
ATOM     91  O   UNL A   1      43.014  18.686  25.099  1.00  0.00    -0.744 OA
ENDBRANCH  87  88
ENDBRANCH  55  80
BRANCH  67  92
ATOM     92  C   UNL A   1      49.530  26.657  26.577  1.00  0.00     0.058 A 
ATOM     93  C   UNL A   1      50.382  26.164  27.576  1.00  0.00     0.135 A 
ATOM     94  C   UNL A   1      49.987  26.632  25.250  1.00  0.00     0.135 A 
ATOM     95  F   UNL A   1      49.992  26.173  28.861  1.00  0.00    -0.206 F 
ATOM     96  C   UNL A   1      51.649  25.676  27.274  1.00  0.00     0.059 A 
ATOM     97  C   UNL A   1      51.242  26.128  24.921  1.00  0.00     0.059 A 
ATOM     98  F   UNL A   1      49.206  27.085  24.256  1.00  0.00    -0.206 F 
ATOM     99  C   UNL A   1      52.070  25.662  25.942  1.00  0.00     0.060 A 
BRANCH  99 100
ATOM    100  S   UNL A   1      53.700  24.991  25.554  1.00  0.00     0.124 S 
ATOM    101  O   UNL A   1      53.378  23.603  25.240  1.00  0.00    -0.237 OA
ATOM    102  O   UNL A   1      54.121  25.816  24.425  1.00  0.00    -0.237 OA
ATOM    103  O   UNL A   1      54.454  25.198  26.787  1.00  0.00    -0.744 OA
ENDBRANCH  99 100
ENDBRANCH  67  92
ENDBRANCH  41  42
ENDBRANCH  33  36
ENDBRANCH  31  32
ENDBRANCH  30  31
ENDBRANCH   1  30
TORSDOF 19
ENDMDL
MODEL 2
REMARK VINA RESULT:     -11.6      6.406     11.878
REMARK SMILES COc1ccc(/C=C/C(=O)NCCCCNC(=O)c2ccc(-c3c4nc(c(-c5c(F)cc(S(=O)(=O)[O-])cc5F)c5ccc([nH]5)c(-c5c(F)cc(S(=O)(=O)[O-])cc5F)c5nc(c(-c6c(F)cc(S(=O)(=O)[O-])cc6F)c6ccc3[nH]6)C=C5)C=C4)cc2)cc1S(=O)(=O)Nc1ccc(F)cc1F
REMARK SMILES IDX 13 1 12 2 11 3 9 4 10 5 8 7 7 8 6 9 3 10 4 11 86 12 5 13
REMARK SMILES IDX 85 14 2 15 1 16 87 17 88 18 89 19 90 20 91 22 92 23 97 24
REMARK SMILES IDX 93 25 96 26 98 27 94 28 95 29 14 30 15 31 16 32 17 33 18 35
REMARK SMILES IDX 19 36 20 37 84 38 21 39 83 40 22 41 23 42 24 43 77 44 25 45
REMARK SMILES IDX 82 46 76 47 78 48 26 49 81 50 75 51 74 52 27 54 61 55 40 56
REMARK SMILES IDX 60 57 41 58 44 59 59 60 79 61 42 62 43 63 58 65 80 66 45 67
REMARK SMILES IDX 28 68 29 69 38 70 30 71 31 72 37 73 39 74 32 75 33 76 34 77
REMARK SMILES IDX 35 78 36 79 62 80 63 81 72 82 64 83 65 84 71 85 73 86 66 87
REMARK SMILES IDX 67 88 68 89 69 90 70 91 46 92 47 93 56 94 48 95 49 96 55 97
REMARK SMILES IDX 57 98 50 99 51 100 52 101 53 102 54 103
REMARK H PARENT 11 6 90 21 16 34 78 53 44 64
REMARK Flexibility Score: inf
ROOT
ATOM      1  C   UNL A   1      39.478  23.400  27.269  1.00  0.00     0.023 C 
ENDROOT
BRANCH   1   2
ATOM      2  C   UNL A   1      38.562  23.228  26.060  1.00  0.00     0.116 C 
BRANCH   2   3
ATOM      3  N   UNL A   1      38.543  21.843  25.628  1.00  0.00    -0.353 N 
ATOM      4  C   UNL A   1      37.610  21.168  24.906  1.00  0.00     0.243 C 
ATOM      5  O   UNL A   1      37.784  19.993  24.597  1.00  0.00    -0.270 OA
ATOM      6  H   UNL A   1      39.324  21.310  25.901  1.00  0.00     0.163 HD
BRANCH   4   7
ATOM      7  C   UNL A   1      36.449  21.898  24.360  1.00  0.00     0.072 C 
ATOM      8  C   UNL A   1      35.226  21.936  24.915  1.00  0.00     0.014 C 
BRANCH   8   9
ATOM      9  C   UNL A   1      34.150  22.772  24.354  1.00  0.00    -0.024 A 
ATOM     10  C   UNL A   1      32.387  24.494  23.003  1.00  0.00     0.139 A 
ATOM     11  C   UNL A   1      32.376  23.127  22.737  1.00  0.00     0.048 A 
ATOM     12  C   UNL A   1      33.134  24.977  24.075  1.00  0.00     0.130 A 
ATOM     13  C   UNL A   1      33.239  22.270  23.418  1.00  0.00     0.012 A 
ATOM     14  C   UNL A   1      34.040  24.118  24.730  1.00  0.00     0.034 A 
BRANCH  10  15
ATOM     15  O   UNL A   1      31.605  25.257  22.187  1.00  0.00    -0.495 OA
ATOM     16  C   UNL A   1      32.323  25.713  21.040  1.00  0.00     0.278 C 
ENDBRANCH  10  15
BRANCH  12  17
ATOM     17  S   UNL A   1      32.976  26.617  24.736  1.00  0.00     0.265 S 
ATOM     18  O   UNL A   1      33.634  26.640  26.024  1.00  0.00    -0.201 OA
ATOM     19  O   UNL A   1      33.410  27.513  23.680  1.00  0.00    -0.201 OA
BRANCH  17  20
ATOM     20  N   UNL A   1      31.359  27.017  24.989  1.00  0.00    -0.277 N 
ATOM     21  H   UNL A   1      30.849  26.490  25.645  1.00  0.00     0.180 HD
BRANCH  20  22
ATOM     22  C   UNL A   1      30.687  28.077  24.308  1.00  0.00     0.085 A 
ATOM     23  C   UNL A   1      29.680  27.692  23.409  1.00  0.00     0.033 A 
ATOM     24  C   UNL A   1      30.929  29.441  24.509  1.00  0.00     0.150 A 
ATOM     25  C   UNL A   1      28.847  28.652  22.832  1.00  0.00     0.041 A 
ATOM     26  C   UNL A   1      30.103  30.402  23.932  1.00  0.00     0.080 A 
ATOM     27  F   UNL A   1      31.912  29.856  25.317  1.00  0.00    -0.205 F 
ATOM     28  C   UNL A   1      29.055  29.995  23.118  1.00  0.00     0.126 A 
ATOM     29  F   UNL A   1      28.222  30.910  22.605  1.00  0.00    -0.207 F 
ENDBRANCH  20  22
ENDBRANCH  17  20
ENDBRANCH  12  17
ENDBRANCH   8   9
ENDBRANCH   4   7
ENDBRANCH   2   3
ENDBRANCH   1   2
BRANCH   1  30
ATOM     30  C   UNL A   1      40.700  22.474  27.268  1.00  0.00     0.023 C 
BRANCH  30  31
ATOM     31  C   UNL A   1      42.050  23.178  27.150  1.00  0.00     0.116 C 
BRANCH  31  32
ATOM     32  N   UNL A   1      42.146  24.039  25.981  1.00  0.00    -0.352 N 
ATOM     33  C   UNL A   1      42.047  25.407  25.911  1.00  0.00     0.251 C 
ATOM     34  H   UNL A   1      42.303  23.579  25.125  1.00  0.00     0.163 HD
ATOM     35  O   UNL A   1      42.044  25.968  24.819  1.00  0.00    -0.269 OA
BRANCH  33  36
ATOM     36  C   UNL A   1      41.906  26.195  27.153  1.00  0.00     0.039 A 
ATOM     37  C   UNL A   1      42.901  27.122  27.476  1.00  0.00     0.014 A 
ATOM     38  C   UNL A   1      40.792  26.037  27.982  1.00  0.00     0.014 A 
ATOM     39  C   UNL A   1      42.747  27.938  28.599  1.00  0.00     0.010 A 
ATOM     40  C   UNL A   1      40.613  26.890  29.068  1.00  0.00     0.010 A 
ATOM     41  C   UNL A   1      41.585  27.852  29.382  1.00  0.00    -0.014 A 
BRANCH  41  42
ATOM     42  C   UNL A   1      41.359  28.773  30.523  1.00  0.00     0.031 A 
ATOM     43  C   UNL A   1      42.206  28.670  31.761  1.00  0.00     0.074 A 
ATOM     44  C   UNL A   1      40.340  29.654  30.472  1.00  0.00     0.049 A 
ATOM     45  N   UNL A   1      42.109  29.331  32.884  1.00  0.00    -0.248 NA
ATOM     46  C   UNL A   1      43.287  27.672  31.741  1.00  0.00     0.031 C 
ATOM     47  C   UNL A   1      39.416  29.814  29.345  1.00  0.00     0.029 A 
ATOM     48  N   UNL A   1      39.902  30.573  31.392  1.00  0.00    -0.354 N 
ATOM     49  C   UNL A   1      43.098  28.816  33.713  1.00  0.00     0.074 A 
ATOM     50  C   UNL A   1      43.761  27.762  32.976  1.00  0.00     0.031 C 
ATOM     51  C   UNL A   1      38.534  30.784  29.634  1.00  0.00     0.029 A 
ATOM     52  C   UNL A   1      38.809  31.295  30.974  1.00  0.00     0.049 A 
ATOM     53  H   UNL A   1      40.330  30.702  32.269  1.00  0.00     0.167 HD
ATOM     54  C   UNL A   1      43.434  29.201  34.968  1.00  0.00     0.037 A 
ATOM     55  C   UNL A   1      38.105  32.257  31.601  1.00  0.00     0.037 A 
ATOM     56  C   UNL A   1      42.797  30.276  35.681  1.00  0.00     0.049 A 
ATOM     57  C   UNL A   1      38.517  32.686  32.982  1.00  0.00     0.074 A 
ATOM     58  C   UNL A   1      43.115  30.791  36.927  1.00  0.00     0.029 A 
ATOM     59  N   UNL A   1      41.715  31.007  35.212  1.00  0.00    -0.354 N 
ATOM     60  N   UNL A   1      39.494  32.231  33.728  1.00  0.00    -0.248 NA
ATOM     61  C   UNL A   1      37.735  33.764  33.604  1.00  0.00     0.031 C 
ATOM     62  C   UNL A   1      42.205  31.811  37.224  1.00  0.00     0.029 A 
ATOM     63  C   UNL A   1      41.344  31.957  36.148  1.00  0.00     0.049 A 
ATOM     64  H   UNL A   1      41.277  30.869  34.341  1.00  0.00     0.167 HD
ATOM     65  C   UNL A   1      39.459  32.980  34.898  1.00  0.00     0.074 A 
ATOM     66  C   UNL A   1      38.371  33.926  34.757  1.00  0.00     0.031 C 
ATOM     67  C   UNL A   1      40.260  32.895  35.989  1.00  0.00     0.037 A 
BRANCH  54  68
ATOM     68  C   UNL A   1      44.545  28.454  35.650  1.00  0.00     0.058 A 
ATOM     69  C   UNL A   1      45.887  28.842  35.509  1.00  0.00     0.135 A 
ATOM     70  C   UNL A   1      44.264  27.357  36.480  1.00  0.00     0.135 A 
ATOM     71  F   UNL A   1      46.213  29.874  34.714  1.00  0.00    -0.206 F 
ATOM     72  C   UNL A   1      46.915  28.152  36.143  1.00  0.00     0.059 A 
ATOM     73  C   UNL A   1      45.274  26.667  37.145  1.00  0.00     0.059 A 
ATOM     74  F   UNL A   1      42.998  26.944  36.649  1.00  0.00    -0.206 F 
ATOM     75  C   UNL A   1      46.598  27.064  36.958  1.00  0.00     0.060 A 
BRANCH  75  76
ATOM     76  S   UNL A   1      47.940  26.178  37.779  1.00  0.00     0.124 S 
ATOM     77  O   UNL A   1      48.144  25.054  36.870  1.00  0.00    -0.237 OA
ATOM     78  O   UNL A   1      49.006  27.176  37.803  1.00  0.00    -0.237 OA
ATOM     79  O   UNL A   1      47.376  25.838  39.081  1.00  0.00    -0.744 OA
ENDBRANCH  75  76
ENDBRANCH  54  68
BRANCH  55  80
ATOM     80  C   UNL A   1      36.961  32.904  30.910  1.00  0.00     0.058 A 
ATOM     81  C   UNL A   1      35.640  32.589  31.262  1.00  0.00     0.135 A 
ATOM     82  C   UNL A   1      37.159  33.866  29.909  1.00  0.00     0.135 A 
ATOM     83  F   UNL A   1      35.401  31.670  32.212  1.00  0.00    -0.206 F 
ATOM     84  C   UNL A   1      34.555  33.197  30.642  1.00  0.00     0.059 A 
ATOM     85  C   UNL A   1      36.091  34.503  29.286  1.00  0.00     0.059 A 
ATOM     86  F   UNL A   1      38.405  34.213  29.548  1.00  0.00    -0.206 F 
ATOM     87  C   UNL A   1      34.791  34.157  29.656  1.00  0.00     0.060 A 
BRANCH  87  88
ATOM     88  S   UNL A   1      33.376  34.986  28.898  1.00  0.00     0.124 S 
ATOM     89  O   UNL A   1      33.011  34.044  27.848  1.00  0.00    -0.237 OA
ATOM     90  O   UNL A   1      32.444  35.089  30.017  1.00  0.00    -0.237 OA
ATOM     91  O   UNL A   1      33.938  36.255  28.444  1.00  0.00    -0.744 OA
ENDBRANCH  87  88
ENDBRANCH  55  80
BRANCH  67  92
ATOM     92  C   UNL A   1      40.009  33.866  37.107  1.00  0.00     0.058 A 
ATOM     93  C   UNL A   1      40.610  35.133  37.126  1.00  0.00     0.135 A 
ATOM     94  C   UNL A   1      39.115  33.545  38.141  1.00  0.00     0.135 A 
ATOM     95  F   UNL A   1      41.477  35.485  36.163  1.00  0.00    -0.206 F 
ATOM     96  C   UNL A   1      40.347  36.046  38.142  1.00  0.00     0.059 A 
ATOM     97  C   UNL A   1      38.820  34.449  39.155  1.00  0.00     0.059 A 
ATOM     98  F   UNL A   1      38.508  32.347  38.162  1.00  0.00    -0.206 F 
ATOM     99  C   UNL A   1      39.449  35.694  39.153  1.00  0.00     0.060 A 
BRANCH  99 100
ATOM    100  S   UNL A   1      39.083  36.899  40.447  1.00  0.00     0.124 S 
ATOM    101  O   UNL A   1      40.419  37.211  40.942  1.00  0.00    -0.237 OA
ATOM    102  O   UNL A   1      38.416  37.965  39.706  1.00  0.00    -0.237 OA
ATOM    103  O   UNL A   1      38.228  36.157  41.369  1.00  0.00    -0.744 OA
ENDBRANCH  99 100
ENDBRANCH  67  92
ENDBRANCH  41  42
ENDBRANCH  33  36
ENDBRANCH  31  32
ENDBRANCH  30  31
ENDBRANCH   1  30
TORSDOF 19
ENDMDL
MODEL 3
REMARK VINA RESULT:     -11.6      6.226     11.535
REMARK SMILES COc1ccc(/C=C/C(=O)NCCCCNC(=O)c2ccc(-c3c4nc(c(-c5c(F)cc(S(=O)(=O)[O-])cc5F)c5ccc([nH]5)c(-c5c(F)cc(S(=O)(=O)[O-])cc5F)c5nc(c(-c6c(F)cc(S(=O)(=O)[O-])cc6F)c6ccc3[nH]6)C=C5)C=C4)cc2)cc1S(=O)(=O)Nc1ccc(F)cc1F
REMARK SMILES IDX 13 1 12 2 11 3 9 4 10 5 8 7 7 8 6 9 3 10 4 11 86 12 5 13
REMARK SMILES IDX 85 14 2 15 1 16 87 17 88 18 89 19 90 20 91 22 92 23 97 24
REMARK SMILES IDX 93 25 96 26 98 27 94 28 95 29 14 30 15 31 16 32 17 33 18 35
REMARK SMILES IDX 19 36 20 37 84 38 21 39 83 40 22 41 23 42 24 43 77 44 25 45
REMARK SMILES IDX 82 46 76 47 78 48 26 49 81 50 75 51 74 52 27 54 61 55 40 56
REMARK SMILES IDX 60 57 41 58 44 59 59 60 79 61 42 62 43 63 58 65 80 66 45 67
REMARK SMILES IDX 28 68 29 69 38 70 30 71 31 72 37 73 39 74 32 75 33 76 34 77
REMARK SMILES IDX 35 78 36 79 62 80 63 81 72 82 64 83 65 84 71 85 73 86 66 87
REMARK SMILES IDX 67 88 68 89 69 90 70 91 46 92 47 93 56 94 48 95 49 96 55 97
REMARK SMILES IDX 57 98 50 99 51 100 52 101 53 102 54 103
REMARK H PARENT 11 6 90 21 16 34 78 53 44 64
REMARK Flexibility Score: inf
ROOT
ATOM      1  C   UNL A   1      41.619  21.433  26.414  1.00  0.00     0.023 C 
ENDROOT
BRANCH   1   2
ATOM      2  C   UNL A   1      40.141  21.731  26.176  1.00  0.00     0.116 C 
BRANCH   2   3
ATOM      3  N   UNL A   1      39.865  23.141  26.381  1.00  0.00    -0.353 N 
ATOM      4  C   UNL A   1      38.676  23.795  26.449  1.00  0.00     0.243 C 
ATOM      5  O   UNL A   1      38.635  25.002  26.670  1.00  0.00    -0.270 OA
ATOM      6  H   UNL A   1      40.660  23.711  26.485  1.00  0.00     0.163 HD
BRANCH   4   7
ATOM      7  C   UNL A   1      37.419  23.021  26.406  1.00  0.00     0.072 C 
ATOM      8  C   UNL A   1      36.257  23.456  25.893  1.00  0.00     0.014 C 
BRANCH   8   9
ATOM      9  C   UNL A   1      35.077  22.579  25.803  1.00  0.00    -0.024 A 
ATOM     10  C   UNL A   1      32.796  21.040  25.231  1.00  0.00     0.139 A 
ATOM     11  C   UNL A   1      34.062  20.458  25.200  1.00  0.00     0.048 A 
ATOM     12  C   UNL A   1      32.646  22.329  25.734  1.00  0.00     0.130 A 
ATOM     13  C   UNL A   1      35.192  21.217  25.499  1.00  0.00     0.012 A 
ATOM     14  C   UNL A   1      33.793  23.109  25.990  1.00  0.00     0.034 A 
BRANCH  10  15
ATOM     15  O   UNL A   1      31.777  20.248  24.789  1.00  0.00    -0.495 OA
ATOM     16  C   UNL A   1      32.219  19.315  23.802  1.00  0.00     0.278 C 
ENDBRANCH  10  15
BRANCH  12  17
ATOM     17  S   UNL A   1      31.082  23.058  26.150  1.00  0.00     0.265 S 
ATOM     18  O   UNL A   1      30.147  21.984  26.405  1.00  0.00    -0.201 OA
ATOM     19  O   UNL A   1      31.365  24.040  27.181  1.00  0.00    -0.201 OA
BRANCH  17  20
ATOM     20  N   UNL A   1      30.472  23.962  24.866  1.00  0.00    -0.277 N 
ATOM     21  H   UNL A   1      29.498  23.970  24.726  1.00  0.00     0.180 HD
BRANCH  20  22
ATOM     22  C   UNL A   1      31.287  24.717  23.969  1.00  0.00     0.085 A 
ATOM     23  C   UNL A   1      31.373  26.095  24.225  1.00  0.00     0.033 A 
ATOM     24  C   UNL A   1      32.023  24.181  22.907  1.00  0.00     0.150 A 
ATOM     25  C   UNL A   1      32.280  26.887  23.520  1.00  0.00     0.041 A 
ATOM     26  C   UNL A   1      32.926  24.967  22.197  1.00  0.00     0.080 A 
ATOM     27  F   UNL A   1      31.933  22.883  22.591  1.00  0.00    -0.205 F 
ATOM     28  C   UNL A   1      33.063  26.309  22.529  1.00  0.00     0.126 A 
ATOM     29  F   UNL A   1      33.970  27.060  21.889  1.00  0.00    -0.207 F 
ENDBRANCH  20  22
ENDBRANCH  17  20
ENDBRANCH  12  17
ENDBRANCH   8   9
ENDBRANCH   4   7
ENDBRANCH   2   3
ENDBRANCH   1   2
BRANCH   1  30
ATOM     30  C   UNL A   1      42.213  22.143  27.636  1.00  0.00     0.023 C 
BRANCH  30  31
ATOM     31  C   UNL A   1      43.287  23.184  27.327  1.00  0.00     0.116 C 
BRANCH  31  32
ATOM     32  N   UNL A   1      43.008  23.952  26.123  1.00  0.00    -0.352 N 
ATOM     33  C   UNL A   1      42.580  25.253  26.013  1.00  0.00     0.251 C 
ATOM     34  H   UNL A   1      43.144  23.476  25.273  1.00  0.00     0.163 HD
ATOM     35  O   UNL A   1      42.289  25.713  24.913  1.00  0.00    -0.269 OA
BRANCH  33  36
ATOM     36  C   UNL A   1      42.437  26.082  27.228  1.00  0.00     0.039 A 
ATOM     37  C   UNL A   1      43.258  27.203  27.376  1.00  0.00     0.014 A 
ATOM     38  C   UNL A   1      41.489  25.768  28.205  1.00  0.00     0.014 A 
ATOM     39  C   UNL A   1      43.082  28.049  28.473  1.00  0.00     0.010 A 
ATOM     40  C   UNL A   1      41.277  26.641  29.268  1.00  0.00     0.010 A 
ATOM     41  C   UNL A   1      42.067  27.793  29.408  1.00  0.00    -0.014 A 
BRANCH  41  42
ATOM     42  C   UNL A   1      41.803  28.728  30.530  1.00  0.00     0.031 A 
ATOM     43  C   UNL A   1      42.649  28.683  31.770  1.00  0.00     0.074 A 
ATOM     44  C   UNL A   1      40.750  29.568  30.458  1.00  0.00     0.049 A 
ATOM     45  N   UNL A   1      42.524  29.364  32.880  1.00  0.00    -0.248 NA
ATOM     46  C   UNL A   1      43.769  27.728  31.774  1.00  0.00     0.031 C 
ATOM     47  C   UNL A   1      39.824  29.668  29.327  1.00  0.00     0.029 A 
ATOM     48  N   UNL A   1      40.275  30.488  31.358  1.00  0.00    -0.354 N 
ATOM     49  C   UNL A   1      43.530  28.905  33.721  1.00  0.00     0.074 A 
ATOM     50  C   UNL A   1      44.236  27.862  33.007  1.00  0.00     0.031 C 
ATOM     51  C   UNL A   1      38.904  30.609  29.593  1.00  0.00     0.029 A 
ATOM     52  C   UNL A   1      39.155  31.158  30.923  1.00  0.00     0.049 A 
ATOM     53  H   UNL A   1      40.695  30.652  32.232  1.00  0.00     0.167 HD
ATOM     54  C   UNL A   1      43.848  29.329  34.968  1.00  0.00     0.037 A 
ATOM     55  C   UNL A   1      38.414  32.105  31.528  1.00  0.00     0.037 A 
ATOM     56  C   UNL A   1      43.169  30.393  35.657  1.00  0.00     0.049 A 
ATOM     57  C   UNL A   1      38.805  32.579  32.901  1.00  0.00     0.074 A 
ATOM     58  C   UNL A   1      43.462  30.945  36.892  1.00  0.00     0.029 A 
ATOM     59  N   UNL A   1      42.060  31.072  35.171  1.00  0.00    -0.354 N 
ATOM     60  N   UNL A   1      39.797  32.177  33.658  1.00  0.00    -0.248 NA
ATOM     61  C   UNL A   1      37.981  33.638  33.498  1.00  0.00     0.031 C 
ATOM     62  C   UNL A   1      42.513  31.936  37.166  1.00  0.00     0.029 A 
ATOM     63  C   UNL A   1      41.650  32.026  36.086  1.00  0.00     0.049 A 
ATOM     64  H   UNL A   1      41.629  30.899  34.302  1.00  0.00     0.167 HD
ATOM     65  C   UNL A   1      39.731  32.949  34.811  1.00  0.00     0.074 A 
ATOM     66  C   UNL A   1      38.606  33.848  34.649  1.00  0.00     0.031 C 
ATOM     67  C   UNL A   1      40.531  32.917  35.905  1.00  0.00     0.037 A 
BRANCH  54  68
ATOM     68  C   UNL A   1      44.986  28.640  35.667  1.00  0.00     0.058 A 
ATOM     69  C   UNL A   1      44.773  27.533  36.504  1.00  0.00     0.135 A 
ATOM     70  C   UNL A   1      46.308  29.072  35.475  1.00  0.00     0.135 A 
ATOM     71  F   UNL A   1      43.527  27.089  36.734  1.00  0.00    -0.206 F 
ATOM     72  C   UNL A   1      45.828  26.894  37.147  1.00  0.00     0.059 A 
ATOM     73  C   UNL A   1      47.381  28.433  36.090  1.00  0.00     0.059 A 
ATOM     74  F   UNL A   1      46.567  30.126  34.686  1.00  0.00    -0.206 F 
ATOM     75  C   UNL A   1      47.129  27.353  36.936  1.00  0.00     0.060 A 
BRANCH  75  76
ATOM     76  S   UNL A   1      48.490  26.514  37.775  1.00  0.00     0.124 S 
ATOM     77  O   UNL A   1      48.572  27.270  39.021  1.00  0.00    -0.237 OA
ATOM     78  O   UNL A   1      47.990  25.148  37.894  1.00  0.00    -0.237 OA
ATOM     79  O   UNL A   1      49.612  26.689  36.859  1.00  0.00    -0.744 OA
ENDBRANCH  75  76
ENDBRANCH  54  68
BRANCH  55  80
ATOM     80  C   UNL A   1      37.247  32.693  30.822  1.00  0.00     0.058 A 
ATOM     81  C   UNL A   1      35.940  32.304  31.152  1.00  0.00     0.135 A 
ATOM     82  C   UNL A   1      37.409  33.669  29.828  1.00  0.00     0.135 A 
ATOM     83  F   UNL A   1      35.736  31.370  32.093  1.00  0.00    -0.206 F 
ATOM     84  C   UNL A   1      34.834  32.857  30.517  1.00  0.00     0.059 A 
ATOM     85  C   UNL A   1      36.317  34.251  29.191  1.00  0.00     0.059 A 
ATOM     86  F   UNL A   1      38.639  34.085  29.488  1.00  0.00    -0.206 F 
ATOM     87  C   UNL A   1      35.032  33.832  29.538  1.00  0.00     0.060 A 
BRANCH  87  88
ATOM     88  S   UNL A   1      33.587  34.588  28.761  1.00  0.00     0.124 S 
ATOM     89  O   UNL A   1      32.708  34.786  29.907  1.00  0.00    -0.237 OA
ATOM     90  O   UNL A   1      34.152  35.797  28.171  1.00  0.00    -0.237 OA
ATOM     91  O   UNL A   1      33.157  33.575  27.801  1.00  0.00    -0.744 OA
ENDBRANCH  87  88
ENDBRANCH  55  80
BRANCH  67  92
ATOM     92  C   UNL A   1      40.240  33.901  37.002  1.00  0.00     0.058 A 
ATOM     93  C   UNL A   1      40.827  35.175  37.019  1.00  0.00     0.135 A 
ATOM     94  C   UNL A   1      39.322  33.585  38.016  1.00  0.00     0.135 A 
ATOM     95  F   UNL A   1      41.715  35.523  36.074  1.00  0.00    -0.206 F 
ATOM     96  C   UNL A   1      40.526  36.099  38.015  1.00  0.00     0.059 A 
ATOM     97  C   UNL A   1      38.990  34.500  39.009  1.00  0.00     0.059 A 
ATOM     98  F   UNL A   1      38.728  32.381  38.039  1.00  0.00    -0.206 F 
ATOM     99  C   UNL A   1      39.606  35.752  39.007  1.00  0.00     0.060 A 
BRANCH  99 100
ATOM    100  S   UNL A   1      39.192  36.971  40.273  1.00  0.00     0.124 S 
ATOM    101  O   UNL A   1      40.495  37.211  40.884  1.00  0.00    -0.237 OA
ATOM    102  O   UNL A   1      38.648  38.072  39.484  1.00  0.00    -0.237 OA
ATOM    103  O   UNL A   1      38.224  36.271  41.112  1.00  0.00    -0.744 OA
ENDBRANCH  99 100
ENDBRANCH  67  92
ENDBRANCH  41  42
ENDBRANCH  33  36
ENDBRANCH  31  32
ENDBRANCH  30  31
ENDBRANCH   1  30
TORSDOF 19
ENDMDL
