MODEL 1
REMARK VINA RESULT:     -10.7      0.000      0.000
REMARK SMILES CC(C)(CNC(=O)NCc1cccs1)C(=O)NCCCCNC(=O)c1ccc(-c2c3nc(c(-c4c(F)cc(S(=O)(=O)[O-])cc4F)c4ccc([nH]4)c(-c4c(F)cc(S(=O)(=O)[O-])cc4F)c4nc(c(-c5c(F)cc(S(=O)(=O)[O-])cc5F)c5ccc2[nH]5)C=C4)C=C3)cc1
REMARK SMILES IDX 19 1 18 2 17 3 15 4 16 5 2 7 1 8 3 9 4 10 5 11 6 12 7 14
REMARK SMILES IDX 8 15 9 17 10 18 11 19 14 20 12 21 13 22 20 23 21 24 22 25
REMARK SMILES IDX 23 26 24 28 25 29 26 30 90 31 27 32 89 33 28 34 29 35 30 36
REMARK SMILES IDX 83 37 31 38 88 39 82 40 84 41 32 42 87 43 81 44 80 45 33 47
REMARK SMILES IDX 67 48 46 49 66 50 47 51 50 52 65 53 85 54 48 55 49 56 64 58
REMARK SMILES IDX 86 59 51 60 34 61 35 62 44 63 36 64 37 65 43 66 45 67 38 68
REMARK SMILES IDX 39 69 40 70 41 71 42 72 68 73 69 74 78 75 70 76 71 77 77 78
REMARK SMILES IDX 79 79 72 80 73 81 74 82 75 83 76 84 52 85 53 86 62 87 54 88
REMARK SMILES IDX 55 89 61 90 63 91 56 92 57 93 58 94 59 95 60 96
REMARK H PARENT 17 6 5 13 8 16 22 27 84 46 50 57
REMARK Flexibility Score: inf
ROOT
ATOM      1  C   UNL A   1      34.884  30.939  28.068  1.00  0.00     0.023 C 
ENDROOT
BRANCH   1   2
ATOM      2  C   UNL A   1      34.765  29.541  27.462  1.00  0.00     0.116 C 
BRANCH   2   3
ATOM      3  N   UNL A   1      33.580  28.845  27.925  1.00  0.00    -0.356 N 
ATOM      4  C   UNL A   1      32.457  28.415  27.293  1.00  0.00     0.227 C 
ATOM      5  O   UNL A   1      31.619  27.856  28.010  1.00  0.00    -0.274 OA
ATOM      6  H   UNL A   1      33.594  28.642  28.889  1.00  0.00     0.163 HD
BRANCH   4   7
ATOM      7  C   UNL A   1      32.213  28.571  25.777  1.00  0.00     0.061 C 
ATOM      8  C   UNL A   1      33.558  28.353  25.039  1.00  0.00     0.023 C 
ATOM      9  C   UNL A   1      31.773  30.014  25.457  1.00  0.00     0.023 C 
BRANCH   7  10
ATOM     10  C   UNL A   1      31.191  27.559  25.212  1.00  0.00     0.134 C 
BRANCH  10  11
ATOM     11  N   UNL A   1      31.409  27.177  23.824  1.00  0.00    -0.337 N 
ATOM     12  C   UNL A   1      30.850  27.508  22.649  1.00  0.00     0.315 C 
ATOM     13  H   UNL A   1      32.138  26.523  23.724  1.00  0.00     0.165 HD
ATOM     14  O   UNL A   1      31.290  26.976  21.629  1.00  0.00    -0.249 OA
ATOM     15  N   UNL A   1      29.836  28.378  22.522  1.00  0.00    -0.333 N 
ATOM     16  H   UNL A   1      29.487  28.471  21.607  1.00  0.00     0.165 HD
BRANCH  15  17
ATOM     17  C   UNL A   1      29.175  29.199  23.500  1.00  0.00     0.164 C 
BRANCH  17  18
ATOM     18  C   UNL A   1      28.838  30.576  23.028  1.00  0.00     0.024 A 
ATOM     19  C   UNL A   1      29.053  31.823  23.585  1.00  0.00     0.017 A 
ATOM     20  S   UNL A   1      28.163  30.712  21.447  1.00  0.00    -0.147 S 
ATOM     21  C   UNL A   1      28.672  32.883  22.707  1.00  0.00     0.012 A 
ATOM     22  C   UNL A   1      28.189  32.415  21.507  1.00  0.00     0.065 A 
ENDBRANCH  17  18
ENDBRANCH  15  17
ENDBRANCH  10  11
ENDBRANCH   7  10
ENDBRANCH   4   7
ENDBRANCH   2   3
ENDBRANCH   1   2
BRANCH   1  23
ATOM     23  C   UNL A   1      33.602  31.764  28.082  1.00  0.00     0.023 C 
BRANCH  23  24
ATOM     24  C   UNL A   1      33.637  33.037  27.248  1.00  0.00     0.116 C 
BRANCH  24  25
ATOM     25  N   UNL A   1      33.002  34.180  27.889  1.00  0.00    -0.352 N 
ATOM     26  C   UNL A   1      33.328  34.824  29.061  1.00  0.00     0.251 C 
ATOM     27  H   UNL A   1      32.222  34.546  27.414  1.00  0.00     0.163 HD
ATOM     28  O   UNL A   1      32.604  35.726  29.478  1.00  0.00    -0.269 OA
BRANCH  26  29
ATOM     29  C   UNL A   1      34.516  34.405  29.836  1.00  0.00     0.039 A 
ATOM     30  C   UNL A   1      34.329  33.760  31.061  1.00  0.00     0.014 A 
ATOM     31  C   UNL A   1      35.809  34.611  29.349  1.00  0.00     0.014 A 
ATOM     32  C   UNL A   1      35.432  33.249  31.749  1.00  0.00     0.010 A 
ATOM     33  C   UNL A   1      36.892  34.006  29.978  1.00  0.00     0.010 A 
ATOM     34  C   UNL A   1      36.719  33.323  31.189  1.00  0.00    -0.014 A 
BRANCH  34  35
ATOM     35  C   UNL A   1      37.882  32.680  31.856  1.00  0.00     0.031 A 
ATOM     36  C   UNL A   1      38.386  33.192  33.180  1.00  0.00     0.074 A 
ATOM     37  C   UNL A   1      38.522  31.666  31.238  1.00  0.00     0.049 A 
ATOM     38  N   UNL A   1      39.379  32.753  33.911  1.00  0.00    -0.248 NA
ATOM     39  C   UNL A   1      37.712  34.374  33.742  1.00  0.00     0.031 C 
ATOM     40  C   UNL A   1      38.196  31.145  29.907  1.00  0.00     0.029 A 
ATOM     41  N   UNL A   1      39.579  30.891  31.643  1.00  0.00    -0.354 N 
ATOM     42  C   UNL A   1      39.461  33.613  34.999  1.00  0.00     0.074 A 
ATOM     43  C   UNL A   1      38.460  34.639  34.802  1.00  0.00     0.031 C 
ATOM     44  C   UNL A   1      39.004  30.109  29.628  1.00  0.00     0.029 A 
ATOM     45  C   UNL A   1      39.921  29.909  30.744  1.00  0.00     0.049 A 
ATOM     46  H   UNL A   1      40.048  31.026  32.498  1.00  0.00     0.167 HD
ATOM     47  C   UNL A   1      40.272  33.540  36.083  1.00  0.00     0.037 A 
ATOM     48  C   UNL A   1      40.858  28.944  30.816  1.00  0.00     0.037 A 
ATOM     49  C   UNL A   1      41.237  32.493  36.291  1.00  0.00     0.049 A 
ATOM     50  C   UNL A   1      41.693  28.833  32.062  1.00  0.00     0.074 A 
ATOM     51  C   UNL A   1      42.054  32.280  37.387  1.00  0.00     0.029 A 
ATOM     52  N   UNL A   1      41.513  31.480  35.384  1.00  0.00    -0.354 N 
ATOM     53  N   UNL A   1      41.694  29.602  33.124  1.00  0.00    -0.248 NA
ATOM     54  C   UNL A   1      42.637  27.710  32.129  1.00  0.00     0.031 C 
ATOM     55  C   UNL A   1      42.849  31.157  37.129  1.00  0.00     0.029 A 
ATOM     56  C   UNL A   1      42.494  30.644  35.892  1.00  0.00     0.049 A 
ATOM     57  H   UNL A   1      41.076  31.371  34.509  1.00  0.00     0.167 HD
ATOM     58  C   UNL A   1      42.621  29.045  33.997  1.00  0.00     0.074 A 
ATOM     59  C   UNL A   1      43.146  27.862  33.344  1.00  0.00     0.031 C 
ATOM     60  C   UNL A   1      43.006  29.472  35.226  1.00  0.00     0.037 A 
BRANCH  47  61
ATOM     61  C   UNL A   1      40.133  34.614  37.129  1.00  0.00     0.058 A 
ATOM     62  C   UNL A   1      40.951  35.757  37.125  1.00  0.00     0.135 A 
ATOM     63  C   UNL A   1      39.162  34.511  38.137  1.00  0.00     0.135 A 
ATOM     64  F   UNL A   1      41.908  35.901  36.194  1.00  0.00    -0.206 F 
ATOM     65  C   UNL A   1      40.837  36.738  38.104  1.00  0.00     0.059 A 
ATOM     66  C   UNL A   1      39.009  35.496  39.109  1.00  0.00     0.059 A 
ATOM     67  F   UNL A   1      38.352  33.442  38.190  1.00  0.00    -0.206 F 
ATOM     68  C   UNL A   1      39.864  36.598  39.095  1.00  0.00     0.060 A 
BRANCH  68  69
ATOM     69  S   UNL A   1      39.731  37.878  40.360  1.00  0.00     0.124 S 
ATOM     70  O   UNL A   1      38.319  38.237  40.262  1.00  0.00    -0.237 OA
ATOM     71  O   UNL A   1      40.119  37.164  41.571  1.00  0.00    -0.237 OA
ATOM     72  O   UNL A   1      40.671  38.900  39.909  1.00  0.00    -0.744 OA
ENDBRANCH  68  69
ENDBRANCH  47  61
BRANCH  48  73
ATOM     73  C   UNL A   1      41.009  27.972  29.700  1.00  0.00     0.058 A 
ATOM     74  C   UNL A   1      40.068  26.951  29.500  1.00  0.00     0.135 A 
ATOM     75  C   UNL A   1      42.078  28.061  28.795  1.00  0.00     0.135 A 
ATOM     76  F   UNL A   1      39.029  26.823  30.341  1.00  0.00    -0.206 F 
ATOM     77  C   UNL A   1      40.187  26.044  28.453  1.00  0.00     0.059 A 
ATOM     78  C   UNL A   1      42.205  27.181  27.725  1.00  0.00     0.059 A 
ATOM     79  F   UNL A   1      42.994  29.032  28.931  1.00  0.00    -0.206 F 
ATOM     80  C   UNL A   1      41.258  26.169  27.567  1.00  0.00     0.060 A 
BRANCH  80  81
ATOM     81  S   UNL A   1      41.370  25.024  26.174  1.00  0.00     0.124 S 
ATOM     82  O   UNL A   1      40.179  24.206  26.369  1.00  0.00    -0.237 OA
ATOM     83  O   UNL A   1      41.343  25.930  25.029  1.00  0.00    -0.237 OA
ATOM     84  O   UNL A   1      42.645  24.350  26.397  1.00  0.00    -0.744 OA
ENDBRANCH  80  81
ENDBRANCH  48  73
BRANCH  60  85
ATOM     85  C   UNL A   1      44.018  28.633  35.955  1.00  0.00     0.058 A 
ATOM     86  C   UNL A   1      43.634  27.566  36.783  1.00  0.00     0.135 A 
ATOM     87  C   UNL A   1      45.390  28.895  35.815  1.00  0.00     0.135 A 
ATOM     88  F   UNL A   1      42.334  27.276  36.952  1.00  0.00    -0.206 F 
ATOM     89  C   UNL A   1      44.574  26.816  37.481  1.00  0.00     0.059 A 
ATOM     90  C   UNL A   1      46.349  28.139  36.481  1.00  0.00     0.059 A 
ATOM     91  F   UNL A   1      45.811  29.894  35.023  1.00  0.00    -0.206 F 
ATOM     92  C   UNL A   1      45.929  27.115  37.330  1.00  0.00     0.060 A 
BRANCH  92  93
ATOM     93  S   UNL A   1      47.142  26.144  38.248  1.00  0.00     0.124 S 
ATOM     94  O   UNL A   1      48.350  26.944  38.072  1.00  0.00    -0.237 OA
ATOM     95  O   UNL A   1      46.581  26.132  39.596  1.00  0.00    -0.237 OA
ATOM     96  O   UNL A   1      47.136  24.857  37.562  1.00  0.00    -0.744 OA
ENDBRANCH  92  93
ENDBRANCH  60  85
ENDBRANCH  34  35
ENDBRANCH  26  29
ENDBRANCH  24  25
ENDBRANCH  23  24
ENDBRANCH   1  23
TORSDOF 18
ENDMDL
MODEL 2
REMARK VINA RESULT:     -10.5      5.041     10.414
REMARK SMILES CC(C)(CNC(=O)NCc1cccs1)C(=O)NCCCCNC(=O)c1ccc(-c2c3nc(c(-c4c(F)cc(S(=O)(=O)[O-])cc4F)c4ccc([nH]4)c(-c4c(F)cc(S(=O)(=O)[O-])cc4F)c4nc(c(-c5c(F)cc(S(=O)(=O)[O-])cc5F)c5ccc2[nH]5)C=C4)C=C3)cc1
REMARK SMILES IDX 19 1 18 2 17 3 15 4 16 5 2 7 1 8 3 9 4 10 5 11 6 12 7 14
REMARK SMILES IDX 8 15 9 17 10 18 11 19 14 20 12 21 13 22 20 23 21 24 22 25
REMARK SMILES IDX 23 26 24 28 25 29 26 30 90 31 27 32 89 33 28 34 29 35 30 36
REMARK SMILES IDX 83 37 31 38 88 39 82 40 84 41 32 42 87 43 81 44 80 45 33 47
REMARK SMILES IDX 67 48 46 49 66 50 47 51 50 52 65 53 85 54 48 55 49 56 64 58
REMARK SMILES IDX 86 59 51 60 34 61 35 62 44 63 36 64 37 65 43 66 45 67 38 68
REMARK SMILES IDX 39 69 40 70 41 71 42 72 68 73 69 74 78 75 70 76 71 77 77 78
REMARK SMILES IDX 79 79 72 80 73 81 74 82 75 83 76 84 52 85 53 86 62 87 54 88
REMARK SMILES IDX 55 89 61 90 63 91 56 92 57 93 58 94 59 95 60 96
REMARK H PARENT 17 6 5 13 8 16 22 27 84 46 50 57
REMARK Flexibility Score: inf
ROOT
ATOM      1  C   UNL A   1      42.423  20.043  26.603  1.00  0.00     0.023 C 
ENDROOT
BRANCH   1   2
ATOM      2  C   UNL A   1      42.887  21.270  25.820  1.00  0.00     0.116 C 
BRANCH   2   3
ATOM      3  N   UNL A   1      44.320  21.268  25.600  1.00  0.00    -0.356 N 
ATOM      4  C   UNL A   1      45.300  22.161  25.895  1.00  0.00     0.227 C 
ATOM      5  O   UNL A   1      46.442  21.842  25.543  1.00  0.00    -0.274 OA
ATOM      6  H   UNL A   1      44.648  20.457  25.147  1.00  0.00     0.163 HD
BRANCH   4   7
ATOM      7  C   UNL A   1      45.053  23.489  26.644  1.00  0.00     0.061 C 
ATOM      8  C   UNL A   1      44.494  23.162  28.051  1.00  0.00     0.023 C 
ATOM      9  C   UNL A   1      43.962  24.307  25.924  1.00  0.00     0.023 C 
BRANCH   7  10
ATOM     10  C   UNL A   1      46.331  24.340  26.824  1.00  0.00     0.134 C 
BRANCH  10  11
ATOM     11  N   UNL A   1      46.923  24.827  25.587  1.00  0.00    -0.337 N 
ATOM     12  C   UNL A   1      47.034  26.028  24.997  1.00  0.00     0.315 C 
ATOM     13  H   UNL A   1      47.342  24.108  25.062  1.00  0.00     0.165 HD
ATOM     14  O   UNL A   1      47.616  26.087  23.912  1.00  0.00    -0.249 OA
ATOM     15  N   UNL A   1      46.542  27.164  25.514  1.00  0.00    -0.333 N 
ATOM     16  H   UNL A   1      46.641  27.954  24.936  1.00  0.00     0.165 HD
BRANCH  15  17
ATOM     17  C   UNL A   1      45.894  27.420  26.772  1.00  0.00     0.164 C 
BRANCH  17  18
ATOM     18  C   UNL A   1      44.700  28.314  26.684  1.00  0.00     0.024 A 
ATOM     19  C   UNL A   1      43.448  28.133  26.127  1.00  0.00     0.017 A 
ATOM     20  S   UNL A   1      44.795  29.821  27.517  1.00  0.00    -0.147 S 
ATOM     21  C   UNL A   1      42.571  29.227  26.396  1.00  0.00     0.012 A 
ATOM     22  C   UNL A   1      43.174  30.203  27.156  1.00  0.00     0.065 A 
ENDBRANCH  17  18
ENDBRANCH  15  17
ENDBRANCH  10  11
ENDBRANCH   7  10
ENDBRANCH   4   7
ENDBRANCH   2   3
ENDBRANCH   1   2
BRANCH   1  23
ATOM     23  C   UNL A   1      41.065  20.168  27.284  1.00  0.00     0.023 C 
BRANCH  23  24
ATOM     24  C   UNL A   1      40.495  21.578  27.344  1.00  0.00     0.116 C 
BRANCH  24  25
ATOM     25  N   UNL A   1      39.417  21.819  26.395  1.00  0.00    -0.352 N 
ATOM     26  C   UNL A   1      38.721  22.977  26.130  1.00  0.00     0.251 C 
ATOM     27  H   UNL A   1      39.144  21.037  25.864  1.00  0.00     0.163 HD
ATOM     28  O   UNL A   1      37.777  22.950  25.343  1.00  0.00    -0.269 OA
BRANCH  26  29
ATOM     29  C   UNL A   1      39.079  24.236  26.821  1.00  0.00     0.039 A 
ATOM     30  C   UNL A   1      38.586  24.462  28.108  1.00  0.00     0.014 A 
ATOM     31  C   UNL A   1      39.922  25.176  26.224  1.00  0.00     0.014 A 
ATOM     32  C   UNL A   1      39.009  25.584  28.824  1.00  0.00     0.010 A 
ATOM     33  C   UNL A   1      40.427  26.231  26.976  1.00  0.00     0.010 A 
ATOM     34  C   UNL A   1      39.972  26.453  28.283  1.00  0.00    -0.014 A 
BRANCH  34  35
ATOM     35  C   UNL A   1      40.516  27.585  29.080  1.00  0.00     0.031 A 
ATOM     36  C   UNL A   1      39.684  28.815  29.332  1.00  0.00     0.074 A 
ATOM     37  C   UNL A   1      41.786  27.526  29.530  1.00  0.00     0.049 A 
ATOM     38  N   UNL A   1      39.988  29.893  30.008  1.00  0.00    -0.248 NA
ATOM     39  C   UNL A   1      38.349  28.859  28.713  1.00  0.00     0.031 C 
ATOM     40  C   UNL A   1      42.729  26.435  29.267  1.00  0.00     0.029 A 
ATOM     41  N   UNL A   1      42.506  28.401  30.304  1.00  0.00    -0.354 N 
ATOM     42  C   UNL A   1      38.898  30.745  29.879  1.00  0.00     0.074 A 
ATOM     43  C   UNL A   1      37.951  30.087  29.006  1.00  0.00     0.031 C 
ATOM     44  C   UNL A   1      43.883  26.684  29.906  1.00  0.00     0.029 A 
ATOM     45  C   UNL A   1      43.775  27.962  30.601  1.00  0.00     0.049 A 
ATOM     46  H   UNL A   1      42.147  29.263  30.617  1.00  0.00     0.167 HD
ATOM     47  C   UNL A   1      38.687  31.951  30.460  1.00  0.00     0.037 A 
ATOM     48  C   UNL A   1      44.737  28.517  31.362  1.00  0.00     0.037 A 
ATOM     49  C   UNL A   1      39.617  32.579  31.361  1.00  0.00     0.049 A 
ATOM     50  C   UNL A   1      44.452  29.818  32.061  1.00  0.00     0.074 A 
ATOM     51  C   UNL A   1      39.470  33.762  32.065  1.00  0.00     0.029 A 
ATOM     52  N   UNL A   1      40.868  32.074  31.686  1.00  0.00    -0.354 N 
ATOM     53  N   UNL A   1      43.377  30.568  32.000  1.00  0.00    -0.248 NA
ATOM     54  C   UNL A   1      45.500  30.336  32.950  1.00  0.00     0.031 C 
ATOM     55  C   UNL A   1      40.646  33.989  32.790  1.00  0.00     0.029 A 
ATOM     56  C   UNL A   1      41.508  32.925  32.572  1.00  0.00     0.049 A 
ATOM     57  H   UNL A   1      41.246  31.235  31.337  1.00  0.00     0.167 HD
ATOM     58  C   UNL A   1      43.610  31.635  32.859  1.00  0.00     0.074 A 
ATOM     59  C   UNL A   1      44.920  31.422  33.442  1.00  0.00     0.031 C 
ATOM     60  C   UNL A   1      42.813  32.697  33.140  1.00  0.00     0.037 A 
BRANCH  47  61
ATOM     61  C   UNL A   1      37.394  32.656  30.149  1.00  0.00     0.058 A 
ATOM     62  C   UNL A   1      36.214  32.380  30.859  1.00  0.00     0.135 A 
ATOM     63  C   UNL A   1      37.336  33.632  29.141  1.00  0.00     0.135 A 
ATOM     64  F   UNL A   1      36.208  31.444  31.822  1.00  0.00    -0.206 F 
ATOM     65  C   UNL A   1      35.015  33.016  30.557  1.00  0.00     0.059 A 
ATOM     66  C   UNL A   1      36.154  34.304  28.841  1.00  0.00     0.059 A 
ATOM     67  F   UNL A   1      38.433  33.938  28.430  1.00  0.00    -0.206 F 
ATOM     68  C   UNL A   1      34.994  33.976  29.543  1.00  0.00     0.060 A 
BRANCH  68  69
ATOM     69  S   UNL A   1      33.430  34.791  29.161  1.00  0.00     0.124 S 
ATOM     70  O   UNL A   1      33.892  36.058  28.601  1.00  0.00    -0.237 OA
ATOM     71  O   UNL A   1      32.818  33.866  28.212  1.00  0.00    -0.237 OA
ATOM     72  O   UNL A   1      32.768  34.883  30.459  1.00  0.00    -0.744 OA
ENDBRANCH  68  69
ENDBRANCH  47  61
BRANCH  48  73
ATOM     73  C   UNL A   1      46.034  27.812  31.549  1.00  0.00     0.058 A 
ATOM     74  C   UNL A   1      46.155  26.755  32.463  1.00  0.00     0.135 A 
ATOM     75  C   UNL A   1      47.168  28.158  30.798  1.00  0.00     0.135 A 
ATOM     76  F   UNL A   1      45.100  26.388  33.207  1.00  0.00    -0.206 F 
ATOM     77  C   UNL A   1      47.356  26.076  32.639  1.00  0.00     0.059 A 
ATOM     78  C   UNL A   1      48.373  27.477  30.937  1.00  0.00     0.059 A 
ATOM     79  F   UNL A   1      47.098  29.149  29.895  1.00  0.00    -0.206 F 
ATOM     80  C   UNL A   1      48.460  26.443  31.868  1.00  0.00     0.060 A 
BRANCH  80  81
ATOM     81  S   UNL A   1      49.998  25.514  32.059  1.00  0.00     0.124 S 
ATOM     82  O   UNL A   1      49.672  24.631  33.172  1.00  0.00    -0.237 OA
ATOM     83  O   UNL A   1      50.134  24.874  30.754  1.00  0.00    -0.237 OA
ATOM     84  O   UNL A   1      50.983  26.554  32.342  1.00  0.00    -0.744 OA
ENDBRANCH  80  81
ENDBRANCH  48  73
BRANCH  60  85
ATOM     85  C   UNL A   1      43.326  33.688  34.148  1.00  0.00     0.058 A 
ATOM     86  C   UNL A   1      43.053  33.555  35.519  1.00  0.00     0.135 A 
ATOM     87  C   UNL A   1      44.109  34.778  33.736  1.00  0.00     0.135 A 
ATOM     88  F   UNL A   1      42.308  32.531  35.964  1.00  0.00    -0.206 F 
ATOM     89  C   UNL A   1      43.502  34.494  36.441  1.00  0.00     0.059 A 
ATOM     90  C   UNL A   1      44.592  35.714  34.645  1.00  0.00     0.059 A 
ATOM     91  F   UNL A   1      44.411  34.942  32.438  1.00  0.00    -0.206 F 
ATOM     92  C   UNL A   1      44.264  35.575  35.994  1.00  0.00     0.060 A 
BRANCH  92  93
ATOM     93  S   UNL A   1      44.834  36.795  37.195  1.00  0.00     0.124 S 
ATOM     94  O   UNL A   1      43.838  37.849  37.034  1.00  0.00    -0.237 OA
ATOM     95  O   UNL A   1      44.773  36.052  38.450  1.00  0.00    -0.237 OA
ATOM     96  O   UNL A   1      46.178  37.124  36.734  1.00  0.00    -0.744 OA
ENDBRANCH  92  93
ENDBRANCH  60  85
ENDBRANCH  34  35
ENDBRANCH  26  29
ENDBRANCH  24  25
ENDBRANCH  23  24
ENDBRANCH   1  23
TORSDOF 18
ENDMDL
MODEL 3
REMARK VINA RESULT:     -10.4      1.986      3.297
REMARK SMILES CC(C)(CNC(=O)NCc1cccs1)C(=O)NCCCCNC(=O)c1ccc(-c2c3nc(c(-c4c(F)cc(S(=O)(=O)[O-])cc4F)c4ccc([nH]4)c(-c4c(F)cc(S(=O)(=O)[O-])cc4F)c4nc(c(-c5c(F)cc(S(=O)(=O)[O-])cc5F)c5ccc2[nH]5)C=C4)C=C3)cc1
REMARK SMILES IDX 19 1 18 2 17 3 15 4 16 5 2 7 1 8 3 9 4 10 5 11 6 12 7 14
REMARK SMILES IDX 8 15 9 17 10 18 11 19 14 20 12 21 13 22 20 23 21 24 22 25
REMARK SMILES IDX 23 26 24 28 25 29 26 30 90 31 27 32 89 33 28 34 29 35 30 36
REMARK SMILES IDX 83 37 31 38 88 39 82 40 84 41 32 42 87 43 81 44 80 45 33 47
REMARK SMILES IDX 67 48 46 49 66 50 47 51 50 52 65 53 85 54 48 55 49 56 64 58
REMARK SMILES IDX 86 59 51 60 34 61 35 62 44 63 36 64 37 65 43 66 45 67 38 68
REMARK SMILES IDX 39 69 40 70 41 71 42 72 68 73 69 74 78 75 70 76 71 77 77 78
REMARK SMILES IDX 79 79 72 80 73 81 74 82 75 83 76 84 52 85 53 86 62 87 54 88
REMARK SMILES IDX 55 89 61 90 63 91 56 92 57 93 58 94 59 95 60 96
REMARK H PARENT 17 6 5 13 8 16 22 27 84 46 50 57
REMARK Flexibility Score: inf
ROOT
ATOM      1  C   UNL A   1      34.713  30.533  27.627  1.00  0.00     0.023 C 
ENDROOT
BRANCH   1   2
ATOM      2  C   UNL A   1      34.109  29.336  26.893  1.00  0.00     0.116 C 
BRANCH   2   3
ATOM      3  N   UNL A   1      32.919  28.836  27.553  1.00  0.00    -0.356 N 
ATOM      4  C   UNL A   1      31.915  28.014  27.147  1.00  0.00     0.227 C 
ATOM      5  O   UNL A   1      31.026  27.802  27.980  1.00  0.00    -0.274 OA
ATOM      6  H   UNL A   1      32.819  29.154  28.480  1.00  0.00     0.163 HD
BRANCH   4   7
ATOM      7  C   UNL A   1      31.862  27.348  25.755  1.00  0.00     0.061 C 
ATOM      8  C   UNL A   1      31.297  28.374  24.741  1.00  0.00     0.023 C 
ATOM      9  C   UNL A   1      30.872  26.166  25.772  1.00  0.00     0.023 C 
BRANCH   7  10
ATOM     10  C   UNL A   1      33.244  26.884  25.243  1.00  0.00     0.134 C 
BRANCH  10  11
ATOM     11  N   UNL A   1      33.389  26.872  23.795  1.00  0.00    -0.337 N 
ATOM     12  C   UNL A   1      33.646  25.929  22.875  1.00  0.00     0.315 C 
ATOM     13  H   UNL A   1      33.270  27.764  23.397  1.00  0.00     0.165 HD
ATOM     14  O   UNL A   1      33.705  26.274  21.693  1.00  0.00    -0.249 OA
ATOM     15  N   UNL A   1      33.849  24.635  23.166  1.00  0.00    -0.333 N 
ATOM     16  H   UNL A   1      34.093  24.074  22.395  1.00  0.00     0.165 HD
BRANCH  15  17
ATOM     17  C   UNL A   1      33.771  23.931  24.418  1.00  0.00     0.164 C 
BRANCH  17  18
ATOM     18  C   UNL A   1      33.459  22.475  24.291  1.00  0.00     0.024 A 
ATOM     19  C   UNL A   1      33.832  21.380  25.049  1.00  0.00     0.017 A 
ATOM     20  S   UNL A   1      32.333  22.024  23.066  1.00  0.00    -0.147 S 
ATOM     21  C   UNL A   1      33.183  20.181  24.626  1.00  0.00     0.012 A 
ATOM     22  C   UNL A   1      32.331  20.396  23.568  1.00  0.00     0.065 A 
ENDBRANCH  17  18
ENDBRANCH  15  17
ENDBRANCH  10  11
ENDBRANCH   7  10
ENDBRANCH   4   7
ENDBRANCH   2   3
ENDBRANCH   1   2
BRANCH   1  23
ATOM     23  C   UNL A   1      33.724  31.607  28.065  1.00  0.00     0.023 C 
BRANCH  23  24
ATOM     24  C   UNL A   1      33.543  32.763  27.092  1.00  0.00     0.116 C 
BRANCH  24  25
ATOM     25  N   UNL A   1      32.916  33.937  27.681  1.00  0.00    -0.352 N 
ATOM     26  C   UNL A   1      33.251  34.635  28.820  1.00  0.00     0.251 C 
ATOM     27  H   UNL A   1      32.136  34.285  27.193  1.00  0.00     0.163 HD
ATOM     28  O   UNL A   1      32.533  35.558  29.198  1.00  0.00    -0.269 OA
BRANCH  26  29
ATOM     29  C   UNL A   1      34.441  34.246  29.609  1.00  0.00     0.039 A 
ATOM     30  C   UNL A   1      34.256  33.638  30.852  1.00  0.00     0.014 A 
ATOM     31  C   UNL A   1      35.733  34.445  29.117  1.00  0.00     0.014 A 
ATOM     32  C   UNL A   1      35.360  33.154  31.557  1.00  0.00     0.010 A 
ATOM     33  C   UNL A   1      36.819  33.866  29.766  1.00  0.00     0.010 A 
ATOM     34  C   UNL A   1      36.648  33.219  30.997  1.00  0.00    -0.014 A 
BRANCH  34  35
ATOM     35  C   UNL A   1      37.814  32.604  31.684  1.00  0.00     0.031 A 
ATOM     36  C   UNL A   1      38.285  33.129  33.015  1.00  0.00     0.074 A 
ATOM     37  C   UNL A   1      38.486  31.603  31.079  1.00  0.00     0.049 A 
ATOM     38  N   UNL A   1      39.275  32.715  33.763  1.00  0.00    -0.248 NA
ATOM     39  C   UNL A   1      37.575  34.297  33.563  1.00  0.00     0.031 C 
ATOM     40  C   UNL A   1      38.194  31.073  29.744  1.00  0.00     0.029 A 
ATOM     41  N   UNL A   1      39.554  30.853  31.503  1.00  0.00    -0.354 N 
ATOM     42  C   UNL A   1      39.320  33.579  34.851  1.00  0.00     0.074 A 
ATOM     43  C   UNL A   1      38.299  34.580  34.635  1.00  0.00     0.031 C 
ATOM     44  C   UNL A   1      39.030  30.055  29.480  1.00  0.00     0.029 A 
ATOM     45  C   UNL A   1      39.933  29.878  30.612  1.00  0.00     0.049 A 
ATOM     46  H   UNL A   1      40.006  31.000  32.365  1.00  0.00     0.167 HD
ATOM     47  C   UNL A   1      40.114  33.526  35.947  1.00  0.00     0.037 A 
ATOM     48  C   UNL A   1      40.890  28.934  30.702  1.00  0.00     0.037 A 
ATOM     49  C   UNL A   1      41.099  32.501  36.174  1.00  0.00     0.049 A 
ATOM     50  C   UNL A   1      41.707  28.844  31.961  1.00  0.00     0.074 A 
ATOM     51  C   UNL A   1      41.903  32.308  37.284  1.00  0.00     0.029 A 
ATOM     52  N   UNL A   1      41.413  31.493  35.274  1.00  0.00    -0.354 N 
ATOM     53  N   UNL A   1      41.673  29.616  33.022  1.00  0.00    -0.248 NA
ATOM     54  C   UNL A   1      42.675  27.743  32.046  1.00  0.00     0.031 C 
ATOM     55  C   UNL A   1      42.727  31.203  37.041  1.00  0.00     0.029 A 
ATOM     56  C   UNL A   1      42.404  30.680  35.799  1.00  0.00     0.049 A 
ATOM     57  H   UNL A   1      40.992  31.372  34.392  1.00  0.00     0.167 HD
ATOM     58  C   UNL A   1      42.598  29.080  33.911  1.00  0.00     0.074 A 
ATOM     59  C   UNL A   1      43.160  27.908  33.269  1.00  0.00     0.031 C 
ATOM     60  C   UNL A   1      42.953  29.518  35.145  1.00  0.00     0.037 A 
BRANCH  47  61
ATOM     61  C   UNL A   1      39.935  34.598  36.989  1.00  0.00     0.058 A 
ATOM     62  C   UNL A   1      39.072  34.426  38.084  1.00  0.00     0.135 A 
ATOM     63  C   UNL A   1      40.645  35.806  36.902  1.00  0.00     0.135 A 
ATOM     64  F   UNL A   1      38.355  33.297  38.209  1.00  0.00    -0.206 F 
ATOM     65  C   UNL A   1      38.890  35.425  39.034  1.00  0.00     0.059 A 
ATOM     66  C   UNL A   1      40.503  36.809  37.857  1.00  0.00     0.059 A 
ATOM     67  F   UNL A   1      41.484  36.026  35.877  1.00  0.00    -0.206 F 
ATOM     68  C   UNL A   1      39.609  36.616  38.911  1.00  0.00     0.060 A 
BRANCH  68  69
ATOM     69  S   UNL A   1      39.360  37.905  40.150  1.00  0.00     0.124 S 
ATOM     70  O   UNL A   1      39.204  37.112  41.366  1.00  0.00    -0.237 OA
ATOM     71  O   UNL A   1      40.595  38.676  40.052  1.00  0.00    -0.237 OA
ATOM     72  O   UNL A   1      38.157  38.591  39.689  1.00  0.00    -0.744 OA
ENDBRANCH  68  69
ENDBRANCH  47  61
BRANCH  48  73
ATOM     73  C   UNL A   1      41.081  27.963  29.590  1.00  0.00     0.058 A 
ATOM     74  C   UNL A   1      42.182  28.063  28.726  1.00  0.00     0.135 A 
ATOM     75  C   UNL A   1      40.188  26.901  29.389  1.00  0.00     0.135 A 
ATOM     76  F   UNL A   1      43.064  29.064  28.877  1.00  0.00    -0.206 F 
ATOM     77  C   UNL A   1      42.383  27.155  27.692  1.00  0.00     0.059 A 
ATOM     78  C   UNL A   1      40.380  25.965  28.377  1.00  0.00     0.059 A 
ATOM     79  F   UNL A   1      39.130  26.749  30.201  1.00  0.00    -0.206 F 
ATOM     80  C   UNL A   1      41.477  26.106  27.528  1.00  0.00     0.060 A 
BRANCH  80  81
ATOM     81  S   UNL A   1      41.780  24.896  26.221  1.00  0.00     0.124 S 
ATOM     82  O   UNL A   1      40.729  23.918  26.476  1.00  0.00    -0.237 OA
ATOM     83  O   UNL A   1      41.623  25.702  25.014  1.00  0.00    -0.237 OA
ATOM     84  O   UNL A   1      43.143  24.447  26.490  1.00  0.00    -0.744 OA
ENDBRANCH  80  81
ENDBRANCH  48  73
BRANCH  60  85
ATOM     85  C   UNL A   1      43.971  28.704  35.892  1.00  0.00     0.058 A 
ATOM     86  C   UNL A   1      43.598  27.632  36.718  1.00  0.00     0.135 A 
ATOM     87  C   UNL A   1      45.340  28.995  35.772  1.00  0.00     0.135 A 
ATOM     88  F   UNL A   1      42.302  27.314  36.869  1.00  0.00    -0.206 F 
ATOM     89  C   UNL A   1      44.543  26.905  37.433  1.00  0.00     0.059 A 
ATOM     90  C   UNL A   1      46.304  28.262  36.455  1.00  0.00     0.059 A 
ATOM     91  F   UNL A   1      45.751  30.000  34.982  1.00  0.00    -0.206 F 
ATOM     92  C   UNL A   1      45.894  27.232  37.302  1.00  0.00     0.060 A 
BRANCH  92  93
ATOM     93  S   UNL A   1      47.113  26.291  38.242  1.00  0.00     0.124 S 
ATOM     94  O   UNL A   1      46.562  24.942  38.165  1.00  0.00    -0.237 OA
ATOM     95  O   UNL A   1      48.339  26.519  37.484  1.00  0.00    -0.237 OA
ATOM     96  O   UNL A   1      47.075  26.910  39.562  1.00  0.00    -0.744 OA
ENDBRANCH  92  93
ENDBRANCH  60  85
ENDBRANCH  34  35
ENDBRANCH  26  29
ENDBRANCH  24  25
ENDBRANCH  23  24
ENDBRANCH   1  23
TORSDOF 18
ENDMDL
