MODEL 1
REMARK VINA RESULT:     -13.5      0.000      0.000
REMARK SMILES O=C(NCCCCNC(=O)c1ccc(-c2c3nc(c(-c4c(F)cc(S(=O)(=O)[O-])cc4F)c4ccc([nH]4)c(-c4c(F)cc(S(=O)(=O)[O-])cc4F)c4nc(c(-c5c(F)cc(S(=O)(=O)[O-])cc5F)c5ccc2[nH]5)C=C4)C=C3)cc1)C1=Cc2cc(Cl)cc(-c3ccc(CO)cc3)c2O[C@@H]1C(F)(F)F
REMARK SMILES IDX 5 1 4 2 3 3 1 4 2 5 77 7 78 8 95 9 79 10 94 11 80 12 93 13
REMARK SMILES IDX 81 14 84 15 82 16 83 17 96 18 97 19 98 20 99 21 85 22 86 23
REMARK SMILES IDX 92 24 87 25 91 26 88 27 89 28 90 29 6 31 7 32 8 33 9 34
REMARK SMILES IDX 10 36 11 37 12 38 76 39 13 40 75 41 14 42 15 43 16 44 69 45
REMARK SMILES IDX 17 46 74 47 68 48 70 49 18 50 73 51 67 52 66 53 19 55 53 56
REMARK SMILES IDX 32 57 52 58 33 59 36 60 51 61 71 62 34 63 35 64 50 66 72 67
REMARK SMILES IDX 37 68 20 69 21 70 30 71 22 72 23 73 29 74 31 75 24 76 25 77
REMARK SMILES IDX 26 78 27 79 28 80 54 81 55 82 64 83 56 84 57 85 63 86 65 87
REMARK SMILES IDX 58 88 59 89 60 90 61 91 62 92 38 93 39 94 48 95 40 96 41 97
REMARK SMILES IDX 47 98 49 99 42 100 43 101 44 102 45 103 46 104
REMARK H PARENT 3 6 90 30 8 35 70 54 36 65
REMARK Flexibility Score: inf
ROOT
ATOM      1  C   UNL A   1      31.400  27.632  27.143  1.00  0.00     0.023 C 
ENDROOT
BRANCH   1   2
ATOM      2  C   UNL A   1      31.140  26.438  26.219  1.00  0.00     0.116 C 
BRANCH   2   3
ATOM      3  N   UNL A   1      31.271  25.132  26.862  1.00  0.00    -0.352 N 
ATOM      4  O   UNL A   1      32.346  23.270  27.528  1.00  0.00    -0.270 OA
ATOM      5  C   UNL A   1      32.137  24.092  26.639  1.00  0.00     0.251 C 
ATOM      6  H   UNL A   1      30.623  24.969  27.584  1.00  0.00     0.163 HD
BRANCH   5   7
ATOM      7  C   UNL A   1      32.898  23.975  25.370  1.00  0.00     0.067 C 
ATOM      8  C   UNL A   1      34.218  24.196  25.369  1.00  0.00     0.025 C 
ATOM      9  C   UNL A   1      32.314  23.046  24.345  1.00  0.00     0.314 C 
ATOM     10  C   UNL A   1      35.026  23.040  24.977  1.00  0.00     0.019 A 
ATOM     11  O   UNL A   1      33.036  21.793  24.300  1.00  0.00    -0.475 OA
ATOM     12  C   UNL A   1      36.370  23.046  25.356  1.00  0.00     0.032 A 
ATOM     13  C   UNL A   1      34.377  21.835  24.622  1.00  0.00     0.135 A 
ATOM     14  C   UNL A   1      37.048  21.839  25.456  1.00  0.00     0.042 A 
ATOM     15  C   UNL A   1      35.045  20.610  24.775  1.00  0.00     0.026 A 
ATOM     16  Cl  UNL A   1      38.652  21.820  26.076  1.00  0.00    -0.084 Cl
ATOM     17  C   UNL A   1      36.395  20.636  25.186  1.00  0.00     0.033 A 
BRANCH   9  18
ATOM     18  C   UNL A   1      32.260  23.737  22.964  1.00  0.00     0.429 C 
ATOM     19  F   UNL A   1      33.101  24.797  22.900  1.00  0.00    -0.167 F 
ATOM     20  F   UNL A   1      32.622  22.892  21.966  1.00  0.00    -0.167 F 
ATOM     21  F   UNL A   1      31.021  24.194  22.655  1.00  0.00    -0.167 F 
ENDBRANCH   9  18
BRANCH  15  22
ATOM     22  C   UNL A   1      34.356  19.306  24.766  1.00  0.00    -0.015 A 
ATOM     23  C   UNL A   1      33.084  19.178  25.348  1.00  0.00     0.009 A 
ATOM     24  C   UNL A   1      35.007  18.140  24.345  1.00  0.00     0.009 A 
ATOM     25  C   UNL A   1      32.521  17.924  25.589  1.00  0.00     0.007 A 
ATOM     26  C   UNL A   1      34.442  16.881  24.576  1.00  0.00     0.007 A 
ATOM     27  C   UNL A   1      33.209  16.762  25.231  1.00  0.00    -0.023 A 
BRANCH  27  28
ATOM     28  C   UNL A   1      32.671  15.418  25.636  1.00  0.00     0.191 C 
BRANCH  28  29
ATOM     29  O   UNL A   1      33.648  14.426  25.344  1.00  0.00    -0.392 OA
ATOM     30  H   UNL A   1      33.247  13.546  25.418  1.00  0.00     0.211 HD
ENDBRANCH  28  29
ENDBRANCH  27  28
ENDBRANCH  15  22
ENDBRANCH   5   7
ENDBRANCH   2   3
ENDBRANCH   1   2
BRANCH   1  31
ATOM     31  C   UNL A   1      32.198  28.767  26.487  1.00  0.00     0.023 C 
BRANCH  31  32
ATOM     32  C   UNL A   1      33.539  29.135  27.122  1.00  0.00     0.116 C 
BRANCH  32  33
ATOM     33  N   UNL A   1      33.573  30.427  27.798  1.00  0.00    -0.352 N 
ATOM     34  C   UNL A   1      34.643  30.998  28.466  1.00  0.00     0.251 C 
ATOM     35  H   UNL A   1      32.742  30.953  27.777  1.00  0.00     0.163 HD
ATOM     36  O   UNL A   1      34.554  32.073  29.000  1.00  0.00    -0.269 OA
BRANCH  34  37
ATOM     37  C   UNL A   1      35.906  30.210  28.554  1.00  0.00     0.039 A 
ATOM     38  C   UNL A   1      36.780  30.208  27.465  1.00  0.00     0.014 A 
ATOM     39  C   UNL A   1      36.269  29.595  29.754  1.00  0.00     0.014 A 
ATOM     40  C   UNL A   1      38.069  29.687  27.619  1.00  0.00     0.010 A 
ATOM     41  C   UNL A   1      37.574  29.131  29.920  1.00  0.00     0.010 A 
ATOM     42  C   UNL A   1      38.501  29.206  28.867  1.00  0.00    -0.014 A 
BRANCH  42  43
ATOM     43  C   UNL A   1      39.931  28.867  29.117  1.00  0.00     0.031 A 
ATOM     44  C   UNL A   1      40.892  29.908  29.627  1.00  0.00     0.074 A 
ATOM     45  C   UNL A   1      40.390  27.641  28.782  1.00  0.00     0.049 A 
ATOM     46  N   UNL A   1      42.182  29.810  29.825  1.00  0.00    -0.248 NA
ATOM     47  C   UNL A   1      40.338  31.237  29.932  1.00  0.00     0.031 C 
ATOM     48  C   UNL A   1      39.581  26.560  28.209  1.00  0.00     0.029 A 
ATOM     49  N   UNL A   1      41.651  27.099  28.850  1.00  0.00    -0.354 N 
ATOM     50  C   UNL A   1      42.598  31.064  30.254  1.00  0.00     0.074 A 
ATOM     51  C   UNL A   1      41.429  31.917  30.261  1.00  0.00     0.031 C 
ATOM     52  C   UNL A   1      40.362  25.490  27.986  1.00  0.00     0.029 A 
ATOM     53  C   UNL A   1      41.734  25.812  28.367  1.00  0.00     0.049 A 
ATOM     54  H   UNL A   1      42.427  27.588  29.211  1.00  0.00     0.167 HD
ATOM     55  C   UNL A   1      43.839  31.465  30.621  1.00  0.00     0.037 A 
ATOM     56  C   UNL A   1      42.791  24.987  28.231  1.00  0.00     0.037 A 
ATOM     57  C   UNL A   1      44.995  30.607  30.650  1.00  0.00     0.049 A 
ATOM     58  C   UNL A   1      44.153  25.452  28.673  1.00  0.00     0.074 A 
ATOM     59  C   UNL A   1      46.270  30.902  31.104  1.00  0.00     0.029 A 
ATOM     60  N   UNL A   1      45.023  29.295  30.205  1.00  0.00    -0.354 N 
ATOM     61  N   UNL A   1      44.502  26.609  29.181  1.00  0.00    -0.248 NA
ATOM     62  C   UNL A   1      45.265  24.500  28.532  1.00  0.00     0.031 C 
ATOM     63  C   UNL A   1      47.080  29.781  30.895  1.00  0.00     0.029 A 
ATOM     64  C   UNL A   1      46.298  28.774  30.352  1.00  0.00     0.049 A 
ATOM     65  H   UNL A   1      44.251  28.805  29.840  1.00  0.00     0.167 HD
ATOM     66  C   UNL A   1      45.862  26.511  29.453  1.00  0.00     0.074 A 
ATOM     67  C   UNL A   1      46.274  25.181  29.058  1.00  0.00     0.031 C 
ATOM     68  C   UNL A   1      46.692  27.439  29.985  1.00  0.00     0.037 A 
BRANCH  55  69
ATOM     69  C   UNL A   1      44.027  32.896  31.040  1.00  0.00     0.058 A 
ATOM     70  C   UNL A   1      44.416  33.884  30.124  1.00  0.00     0.135 A 
ATOM     71  C   UNL A   1      43.716  33.301  32.349  1.00  0.00     0.135 A 
ATOM     72  F   UNL A   1      44.735  33.550  28.863  1.00  0.00    -0.206 F 
ATOM     73  C   UNL A   1      44.498  35.223  30.491  1.00  0.00     0.059 A 
ATOM     74  C   UNL A   1      43.769  34.637  32.733  1.00  0.00     0.059 A 
ATOM     75  F   UNL A   1      43.337  32.394  33.264  1.00  0.00    -0.206 F 
ATOM     76  C   UNL A   1      44.165  35.592  31.797  1.00  0.00     0.060 A 
BRANCH  76  77
ATOM     77  S   UNL A   1      44.228  37.340  32.242  1.00  0.00     0.124 S 
ATOM     78  O   UNL A   1      45.640  37.505  32.574  1.00  0.00    -0.237 OA
ATOM     79  O   UNL A   1      43.787  37.992  31.013  1.00  0.00    -0.237 OA
ATOM     80  O   UNL A   1      43.305  37.438  33.367  1.00  0.00    -0.744 OA
ENDBRANCH  76  77
ENDBRANCH  55  69
BRANCH  56  81
ATOM     81  C   UNL A   1      42.616  23.624  27.658  1.00  0.00     0.058 A 
ATOM     82  C   UNL A   1      42.394  22.514  28.488  1.00  0.00     0.135 A 
ATOM     83  C   UNL A   1      42.706  23.397  26.276  1.00  0.00     0.135 A 
ATOM     84  F   UNL A   1      42.307  22.678  29.816  1.00  0.00    -0.206 F 
ATOM     85  C   UNL A   1      42.304  21.224  27.973  1.00  0.00     0.059 A 
ATOM     86  C   UNL A   1      42.592  22.120  25.735  1.00  0.00     0.059 A 
ATOM     87  F   UNL A   1      42.898  24.425  25.436  1.00  0.00    -0.206 F 
ATOM     88  C   UNL A   1      42.412  21.036  26.595  1.00  0.00     0.060 A 
BRANCH  88  89
ATOM     89  S   UNL A   1      42.287  19.361  25.932  1.00  0.00     0.124 S 
ATOM     90  O   UNL A   1      42.837  18.572  27.027  1.00  0.00    -0.237 OA
ATOM     91  O   UNL A   1      40.851  19.224  25.705  1.00  0.00    -0.237 OA
ATOM     92  O   UNL A   1      43.101  19.421  24.722  1.00  0.00    -0.744 OA
ENDBRANCH  88  89
ENDBRANCH  56  81
BRANCH  68  93
ATOM     93  C   UNL A   1      48.121  27.044  30.230  1.00  0.00     0.058 A 
ATOM     94  C   UNL A   1      49.142  27.369  29.325  1.00  0.00     0.135 A 
ATOM     95  C   UNL A   1      48.481  26.401  31.425  1.00  0.00     0.135 A 
ATOM     96  F   UNL A   1      48.849  27.976  28.164  1.00  0.00    -0.206 F 
ATOM     97  C   UNL A   1      50.473  27.062  29.593  1.00  0.00     0.059 A 
ATOM     98  C   UNL A   1      49.807  26.105  31.724  1.00  0.00     0.059 A 
ATOM     99  F   UNL A   1      47.542  26.075  32.327  1.00  0.00    -0.206 F 
ATOM    100  C   UNL A   1      50.796  26.436  30.798  1.00  0.00     0.060 A 
BRANCH 100 101
ATOM    101  S   UNL A   1      52.532  26.098  31.162  1.00  0.00     0.124 S 
ATOM    102  O   UNL A   1      52.446  24.806  31.836  1.00  0.00    -0.237 OA
ATOM    103  O   UNL A   1      53.134  26.081  29.832  1.00  0.00    -0.237 OA
ATOM    104  O   UNL A   1      52.928  27.221  32.006  1.00  0.00    -0.744 OA
ENDBRANCH 100 101
ENDBRANCH  68  93
ENDBRANCH  42  43
ENDBRANCH  34  37
ENDBRANCH  32  33
ENDBRANCH  31  32
ENDBRANCH   1  31
TORSDOF 18
ENDMDL
MODEL 2
REMARK VINA RESULT:     -13.3      0.516      7.879
REMARK SMILES O=C(NCCCCNC(=O)c1ccc(-c2c3nc(c(-c4c(F)cc(S(=O)(=O)[O-])cc4F)c4ccc([nH]4)c(-c4c(F)cc(S(=O)(=O)[O-])cc4F)c4nc(c(-c5c(F)cc(S(=O)(=O)[O-])cc5F)c5ccc2[nH]5)C=C4)C=C3)cc1)C1=Cc2cc(Cl)cc(-c3ccc(CO)cc3)c2O[C@@H]1C(F)(F)F
REMARK SMILES IDX 5 1 4 2 3 3 1 4 2 5 77 7 78 8 95 9 79 10 94 11 80 12 93 13
REMARK SMILES IDX 81 14 84 15 82 16 83 17 96 18 97 19 98 20 99 21 85 22 86 23
REMARK SMILES IDX 92 24 87 25 91 26 88 27 89 28 90 29 6 31 7 32 8 33 9 34
REMARK SMILES IDX 10 36 11 37 12 38 76 39 13 40 75 41 14 42 15 43 16 44 69 45
REMARK SMILES IDX 17 46 74 47 68 48 70 49 18 50 73 51 67 52 66 53 19 55 53 56
REMARK SMILES IDX 32 57 52 58 33 59 36 60 51 61 71 62 34 63 35 64 50 66 72 67
REMARK SMILES IDX 37 68 20 69 21 70 30 71 22 72 23 73 29 74 31 75 24 76 25 77
REMARK SMILES IDX 26 78 27 79 28 80 54 81 55 82 64 83 56 84 57 85 63 86 65 87
REMARK SMILES IDX 58 88 59 89 60 90 61 91 62 92 38 93 39 94 48 95 40 96 41 97
REMARK SMILES IDX 47 98 49 99 42 100 43 101 44 102 45 103 46 104
REMARK H PARENT 3 6 90 30 8 35 70 54 36 65
REMARK Flexibility Score: inf
ROOT
ATOM      1  C   UNL A   1      31.317  27.595  27.061  1.00  0.00     0.023 C 
ENDROOT
BRANCH   1   2
ATOM      2  C   UNL A   1      31.028  26.358  26.205  1.00  0.00     0.116 C 
BRANCH   2   3
ATOM      3  N   UNL A   1      31.241  25.083  26.888  1.00  0.00    -0.352 N 
ATOM      4  O   UNL A   1      32.426  23.304  27.594  1.00  0.00    -0.270 OA
ATOM      5  C   UNL A   1      32.157  24.083  26.683  1.00  0.00     0.251 C 
ATOM      6  H   UNL A   1      30.615  24.911  27.628  1.00  0.00     0.163 HD
BRANCH   5   7
ATOM      7  C   UNL A   1      32.900  23.965  25.403  1.00  0.00     0.067 C 
ATOM      8  C   UNL A   1      34.222  24.177  25.386  1.00  0.00     0.025 C 
ATOM      9  C   UNL A   1      32.298  23.041  24.385  1.00  0.00     0.314 C 
ATOM     10  C   UNL A   1      35.018  23.018  24.980  1.00  0.00     0.019 A 
ATOM     11  O   UNL A   1      33.012  21.783  24.328  1.00  0.00    -0.475 OA
ATOM     12  C   UNL A   1      36.367  23.015  25.342  1.00  0.00     0.032 A 
ATOM     13  C   UNL A   1      34.357  21.817  24.633  1.00  0.00     0.135 A 
ATOM     14  C   UNL A   1      37.039  21.803  25.431  1.00  0.00     0.042 A 
ATOM     15  C   UNL A   1      35.020  20.587  24.775  1.00  0.00     0.026 A 
ATOM     16  Cl  UNL A   1      38.651  21.773  26.030  1.00  0.00    -0.084 Cl
ATOM     17  C   UNL A   1      36.375  20.605  25.168  1.00  0.00     0.033 A 
BRANCH   9  18
ATOM     18  C   UNL A   1      32.230  23.735  23.006  1.00  0.00     0.429 C 
ATOM     19  F   UNL A   1      31.019  23.573  22.422  1.00  0.00    -0.167 F 
ATOM     20  F   UNL A   1      32.438  25.072  23.107  1.00  0.00    -0.167 F 
ATOM     21  F   UNL A   1      33.157  23.263  22.135  1.00  0.00    -0.167 F 
ENDBRANCH   9  18
BRANCH  15  22
ATOM     22  C   UNL A   1      34.323  19.288  24.772  1.00  0.00    -0.015 A 
ATOM     23  C   UNL A   1      33.075  19.158  25.403  1.00  0.00     0.009 A 
ATOM     24  C   UNL A   1      34.949  18.126  24.305  1.00  0.00     0.009 A 
ATOM     25  C   UNL A   1      32.514  17.902  25.646  1.00  0.00     0.007 A 
ATOM     26  C   UNL A   1      34.386  16.867  24.539  1.00  0.00     0.007 A 
ATOM     27  C   UNL A   1      33.180  16.743  25.242  1.00  0.00    -0.023 A 
BRANCH  27  28
ATOM     28  C   UNL A   1      32.651  15.395  25.646  1.00  0.00     0.191 C 
BRANCH  28  29
ATOM     29  O   UNL A   1      33.644  14.414  25.379  1.00  0.00    -0.392 OA
ATOM     30  H   UNL A   1      34.436  14.602  25.907  1.00  0.00     0.211 HD
ENDBRANCH  28  29
ENDBRANCH  27  28
ENDBRANCH  15  22
ENDBRANCH   5   7
ENDBRANCH   2   3
ENDBRANCH   1   2
BRANCH   1  31
ATOM     31  C   UNL A   1      32.380  28.530  26.470  1.00  0.00     0.023 C 
BRANCH  31  32
ATOM     32  C   UNL A   1      33.612  28.816  27.327  1.00  0.00     0.116 C 
BRANCH  32  33
ATOM     33  N   UNL A   1      33.657  30.144  27.928  1.00  0.00    -0.352 N 
ATOM     34  C   UNL A   1      34.758  30.787  28.468  1.00  0.00     0.251 C 
ATOM     35  H   UNL A   1      32.807  30.641  27.954  1.00  0.00     0.163 HD
ATOM     36  O   UNL A   1      34.675  31.887  28.951  1.00  0.00    -0.269 OA
BRANCH  34  37
ATOM     37  C   UNL A   1      36.053  30.048  28.485  1.00  0.00     0.039 A 
ATOM     38  C   UNL A   1      36.870  30.089  27.353  1.00  0.00     0.014 A 
ATOM     39  C   UNL A   1      36.498  29.437  29.659  1.00  0.00     0.014 A 
ATOM     40  C   UNL A   1      38.185  29.618  27.438  1.00  0.00     0.010 A 
ATOM     41  C   UNL A   1      37.827  29.023  29.755  1.00  0.00     0.010 A 
ATOM     42  C   UNL A   1      38.697  29.143  28.658  1.00  0.00    -0.014 A 
BRANCH  42  43
ATOM     43  C   UNL A   1      40.150  28.858  28.832  1.00  0.00     0.031 A 
ATOM     44  C   UNL A   1      40.721  27.517  28.457  1.00  0.00     0.074 A 
ATOM     45  C   UNL A   1      40.938  29.777  29.431  1.00  0.00     0.049 A 
ATOM     46  N   UNL A   1      41.942  27.070  28.614  1.00  0.00    -0.248 NA
ATOM     47  C   UNL A   1      39.800  26.543  27.849  1.00  0.00     0.031 C 
ATOM     48  C   UNL A   1      40.496  31.091  29.911  1.00  0.00     0.029 A 
ATOM     49  N   UNL A   1      42.272  29.745  29.761  1.00  0.00    -0.354 N 
ATOM     50  C   UNL A   1      41.931  25.762  28.147  1.00  0.00     0.074 A 
ATOM     51  C   UNL A   1      40.577  25.474  27.728  1.00  0.00     0.031 C 
ATOM     52  C   UNL A   1      41.537  31.735  30.464  1.00  0.00     0.029 A 
ATOM     53  C   UNL A   1      42.714  30.875  30.412  1.00  0.00     0.049 A 
ATOM     54  H   UNL A   1      42.859  28.981  29.553  1.00  0.00     0.167 HD
ATOM     55  C   UNL A   1      42.960  24.884  28.065  1.00  0.00     0.037 A 
ATOM     56  C   UNL A   1      43.923  31.183  30.923  1.00  0.00     0.037 A 
ATOM     57  C   UNL A   1      44.316  25.182  28.447  1.00  0.00     0.049 A 
ATOM     58  C   UNL A   1      45.054  30.197  30.791  1.00  0.00     0.074 A 
ATOM     59  C   UNL A   1      45.441  24.388  28.304  1.00  0.00     0.029 A 
ATOM     60  N   UNL A   1      44.732  26.358  29.050  1.00  0.00    -0.354 N 
ATOM     61  N   UNL A   1      45.046  29.005  30.245  1.00  0.00    -0.248 NA
ATOM     62  C   UNL A   1      46.360  30.597  31.337  1.00  0.00     0.031 C 
ATOM     63  C   UNL A   1      46.531  25.066  28.858  1.00  0.00     0.029 A 
ATOM     64  C   UNL A   1      46.092  26.301  29.307  1.00  0.00     0.049 A 
ATOM     65  H   UNL A   1      44.147  27.121  29.264  1.00  0.00     0.167 HD
ATOM     66  C   UNL A   1      46.349  28.531  30.348  1.00  0.00     0.074 A 
ATOM     67  C   UNL A   1      47.121  29.564  31.006  1.00  0.00     0.031 C 
ATOM     68  C   UNL A   1      46.858  27.347  29.933  1.00  0.00     0.037 A 
BRANCH  55  69
ATOM     69  C   UNL A   1      42.678  23.509  27.526  1.00  0.00     0.058 A 
ATOM     70  C   UNL A   1      42.780  23.223  26.157  1.00  0.00     0.135 A 
ATOM     71  C   UNL A   1      42.404  22.444  28.401  1.00  0.00     0.135 A 
ATOM     72  F   UNL A   1      43.030  24.205  25.277  1.00  0.00    -0.206 F 
ATOM     73  C   UNL A   1      42.612  21.930  25.671  1.00  0.00     0.059 A 
ATOM     74  C   UNL A   1      42.254  21.140  27.940  1.00  0.00     0.059 A 
ATOM     75  F   UNL A   1      42.297  22.665  29.721  1.00  0.00    -0.206 F 
ATOM     76  C   UNL A   1      42.356  20.893  26.571  1.00  0.00     0.060 A 
BRANCH  76  77
ATOM     77  S   UNL A   1      42.191  19.215  25.929  1.00  0.00     0.124 S 
ATOM     78  O   UNL A   1      43.043  19.270  24.745  1.00  0.00    -0.237 OA
ATOM     79  O   UNL A   1      42.696  18.406  27.034  1.00  0.00    -0.237 OA
ATOM     80  O   UNL A   1      40.761  19.090  25.666  1.00  0.00    -0.744 OA
ENDBRANCH  76  77
ENDBRANCH  55  69
BRANCH  56  81
ATOM     81  C   UNL A   1      44.146  32.489  31.603  1.00  0.00     0.058 A 
ATOM     82  C   UNL A   1      43.942  32.627  32.985  1.00  0.00     0.135 A 
ATOM     83  C   UNL A   1      44.529  33.630  30.883  1.00  0.00     0.135 A 
ATOM     84  F   UNL A   1      43.569  31.566  33.716  1.00  0.00    -0.206 F 
ATOM     85  C   UNL A   1      44.073  33.857  33.622  1.00  0.00     0.059 A 
ATOM     86  C   UNL A   1      44.692  34.866  31.503  1.00  0.00     0.059 A 
ATOM     87  F   UNL A   1      44.756  33.549  29.563  1.00  0.00    -0.206 F 
ATOM     88  C   UNL A   1      44.441  34.973  32.871  1.00  0.00     0.060 A 
BRANCH  88  89
ATOM     89  S   UNL A   1      44.617  36.565  33.705  1.00  0.00     0.124 S 
ATOM     90  O   UNL A   1      43.239  37.042  33.717  1.00  0.00    -0.237 OA
ATOM     91  O   UNL A   1      45.170  36.178  34.999  1.00  0.00    -0.237 OA
ATOM     92  O   UNL A   1      45.533  37.297  32.835  1.00  0.00    -0.744 OA
ENDBRANCH  88  89
ENDBRANCH  56  81
BRANCH  68  93
ATOM     93  C   UNL A   1      48.331  27.112  30.119  1.00  0.00     0.058 A 
ATOM     94  C   UNL A   1      49.272  27.549  29.176  1.00  0.00     0.135 A 
ATOM     95  C   UNL A   1      48.807  26.512  31.295  1.00  0.00     0.135 A 
ATOM     96  F   UNL A   1      48.868  28.122  28.032  1.00  0.00    -0.206 F 
ATOM     97  C   UNL A   1      50.639  27.391  29.390  1.00  0.00     0.059 A 
ATOM     98  C   UNL A   1      50.169  26.364  31.540  1.00  0.00     0.059 A 
ATOM     99  F   UNL A   1      47.946  26.083  32.232  1.00  0.00    -0.206 F 
ATOM    100  C   UNL A   1      51.077  26.803  30.578  1.00  0.00     0.060 A 
BRANCH 100 101
ATOM    101  S   UNL A   1      52.853  26.659  30.871  1.00  0.00     0.124 S 
ATOM    102  O   UNL A   1      53.367  26.528  29.511  1.00  0.00    -0.237 OA
ATOM    103  O   UNL A   1      53.163  27.914  31.547  1.00  0.00    -0.237 OA
ATOM    104  O   UNL A   1      52.964  25.464  31.702  1.00  0.00    -0.744 OA
ENDBRANCH 100 101
ENDBRANCH  68  93
ENDBRANCH  42  43
ENDBRANCH  34  37
ENDBRANCH  32  33
ENDBRANCH  31  32
ENDBRANCH   1  31
TORSDOF 18
ENDMDL
MODEL 3
REMARK VINA RESULT:     -12.8      2.536      3.252
REMARK SMILES O=C(NCCCCNC(=O)c1ccc(-c2c3nc(c(-c4c(F)cc(S(=O)(=O)[O-])cc4F)c4ccc([nH]4)c(-c4c(F)cc(S(=O)(=O)[O-])cc4F)c4nc(c(-c5c(F)cc(S(=O)(=O)[O-])cc5F)c5ccc2[nH]5)C=C4)C=C3)cc1)C1=Cc2cc(Cl)cc(-c3ccc(CO)cc3)c2O[C@@H]1C(F)(F)F
REMARK SMILES IDX 5 1 4 2 3 3 1 4 2 5 77 7 78 8 95 9 79 10 94 11 80 12 93 13
REMARK SMILES IDX 81 14 84 15 82 16 83 17 96 18 97 19 98 20 99 21 85 22 86 23
REMARK SMILES IDX 92 24 87 25 91 26 88 27 89 28 90 29 6 31 7 32 8 33 9 34
REMARK SMILES IDX 10 36 11 37 12 38 76 39 13 40 75 41 14 42 15 43 16 44 69 45
REMARK SMILES IDX 17 46 74 47 68 48 70 49 18 50 73 51 67 52 66 53 19 55 53 56
REMARK SMILES IDX 32 57 52 58 33 59 36 60 51 61 71 62 34 63 35 64 50 66 72 67
REMARK SMILES IDX 37 68 20 69 21 70 30 71 22 72 23 73 29 74 31 75 24 76 25 77
REMARK SMILES IDX 26 78 27 79 28 80 54 81 55 82 64 83 56 84 57 85 63 86 65 87
REMARK SMILES IDX 58 88 59 89 60 90 61 91 62 92 38 93 39 94 48 95 40 96 41 97
REMARK SMILES IDX 47 98 49 99 42 100 43 101 44 102 45 103 46 104
REMARK H PARENT 3 6 90 30 8 35 70 54 36 65
REMARK Flexibility Score: inf
ROOT
ATOM      1  C   UNL A   1      31.571  27.845  27.033  1.00  0.00     0.023 C 
ENDROOT
BRANCH   1   2
ATOM      2  C   UNL A   1      31.137  26.675  26.145  1.00  0.00     0.116 C 
BRANCH   2   3
ATOM      3  N   UNL A   1      31.213  25.364  26.788  1.00  0.00    -0.352 N 
ATOM      4  O   UNL A   1      32.210  23.463  27.463  1.00  0.00    -0.270 OA
ATOM      5  C   UNL A   1      32.041  24.293  26.573  1.00  0.00     0.251 C 
ATOM      6  H   UNL A   1      30.550  25.225  27.502  1.00  0.00     0.163 HD
BRANCH   5   7
ATOM      7  C   UNL A   1      32.812  24.149  25.312  1.00  0.00     0.067 C 
ATOM      8  C   UNL A   1      34.132  24.372  25.316  1.00  0.00     0.025 C 
ATOM      9  C   UNL A   1      32.238  23.196  24.305  1.00  0.00     0.314 C 
ATOM     10  C   UNL A   1      34.944  23.210  24.956  1.00  0.00     0.019 A 
ATOM     11  O   UNL A   1      32.962  21.944  24.293  1.00  0.00    -0.475 OA
ATOM     12  C   UNL A   1      36.286  23.227  25.344  1.00  0.00     0.032 A 
ATOM     13  C   UNL A   1      34.300  21.996  24.624  1.00  0.00     0.135 A 
ATOM     14  C   UNL A   1      36.965  22.024  25.476  1.00  0.00     0.042 A 
ATOM     15  C   UNL A   1      34.970  20.776  24.809  1.00  0.00     0.026 A 
ATOM     16  Cl  UNL A   1      38.565  22.022  26.109  1.00  0.00    -0.084 Cl
ATOM     17  C   UNL A   1      36.316  20.814  25.229  1.00  0.00     0.033 A 
BRANCH   9  18
ATOM     18  C   UNL A   1      32.192  23.856  22.908  1.00  0.00     0.429 C 
ATOM     19  F   UNL A   1      32.915  25.001  22.870  1.00  0.00    -0.167 F 
ATOM     20  F   UNL A   1      32.704  23.041  21.951  1.00  0.00    -0.167 F 
ATOM     21  F   UNL A   1      30.932  24.169  22.517  1.00  0.00    -0.167 F 
ENDBRANCH   9  18
BRANCH  15  22
ATOM     22  C   UNL A   1      34.283  19.471  24.823  1.00  0.00    -0.015 A 
ATOM     23  C   UNL A   1      33.058  19.328  25.495  1.00  0.00     0.009 A 
ATOM     24  C   UNL A   1      34.902  18.316  24.331  1.00  0.00     0.009 A 
ATOM     25  C   UNL A   1      32.515  18.067  25.751  1.00  0.00     0.007 A 
ATOM     26  C   UNL A   1      34.357  17.051  24.578  1.00  0.00     0.007 A 
ATOM     27  C   UNL A   1      33.177  16.914  25.320  1.00  0.00    -0.023 A 
BRANCH  27  28
ATOM     28  C   UNL A   1      32.671  15.561  25.736  1.00  0.00     0.191 C 
BRANCH  28  29
ATOM     29  O   UNL A   1      33.637  14.581  25.375  1.00  0.00    -0.392 OA
ATOM     30  H   UNL A   1      34.486  15.015  25.194  1.00  0.00     0.211 HD
ENDBRANCH  28  29
ENDBRANCH  27  28
ENDBRANCH  15  22
ENDBRANCH   5   7
ENDBRANCH   2   3
ENDBRANCH   1   2
BRANCH   1  31
ATOM     31  C   UNL A   1      33.093  28.012  27.146  1.00  0.00     0.023 C 
BRANCH  31  32
ATOM     32  C   UNL A   1      33.755  29.023  26.211  1.00  0.00     0.116 C 
BRANCH  32  33
ATOM     33  N   UNL A   1      33.709  30.410  26.661  1.00  0.00    -0.352 N 
ATOM     34  C   UNL A   1      34.624  31.062  27.470  1.00  0.00     0.251 C 
ATOM     35  H   UNL A   1      32.939  30.943  26.356  1.00  0.00     0.163 HD
ATOM     36  O   UNL A   1      34.477  32.214  27.789  1.00  0.00    -0.269 OA
BRANCH  34  37
ATOM     37  C   UNL A   1      35.779  30.274  27.987  1.00  0.00     0.039 A 
ATOM     38  C   UNL A   1      36.974  30.270  27.262  1.00  0.00     0.014 A 
ATOM     39  C   UNL A   1      35.708  29.660  29.239  1.00  0.00     0.014 A 
ATOM     40  C   UNL A   1      38.132  29.750  27.850  1.00  0.00     0.010 A 
ATOM     41  C   UNL A   1      36.877  29.196  29.842  1.00  0.00     0.010 A 
ATOM     42  C   UNL A   1      38.109  29.270  29.171  1.00  0.00    -0.014 A 
BRANCH  42  43
ATOM     43  C   UNL A   1      39.367  28.930  29.896  1.00  0.00     0.031 A 
ATOM     44  C   UNL A   1      39.831  29.760  31.063  1.00  0.00     0.074 A 
ATOM     45  C   UNL A   1      40.149  27.931  29.433  1.00  0.00     0.049 A 
ATOM     46  N   UNL A   1      40.936  29.657  31.758  1.00  0.00    -0.248 NA
ATOM     47  C   UNL A   1      38.954  30.861  31.491  1.00  0.00     0.031 C 
ATOM     48  C   UNL A   1      39.855  27.093  28.265  1.00  0.00     0.029 A 
ATOM     49  N   UNL A   1      41.365  27.460  29.869  1.00  0.00    -0.354 N 
ATOM     50  C   UNL A   1      40.899  30.689  32.687  1.00  0.00     0.074 A 
ATOM     51  C   UNL A   1      39.676  31.426  32.450  1.00  0.00     0.031 C 
ATOM     52  C   UNL A   1      40.853  26.214  28.085  1.00  0.00     0.029 A 
ATOM     53  C   UNL A   1      41.878  26.440  29.099  1.00  0.00     0.049 A 
ATOM     54  H   UNL A   1      41.828  27.821  30.660  1.00  0.00     0.167 HD
ATOM     55  C   UNL A   1      41.796  30.988  33.657  1.00  0.00     0.037 A 
ATOM     56  C   UNL A   1      43.044  25.769  29.186  1.00  0.00     0.037 A 
ATOM     57  C   UNL A   1      42.994  30.232  33.917  1.00  0.00     0.049 A 
ATOM     58  C   UNL A   1      44.009  26.106  30.293  1.00  0.00     0.074 A 
ATOM     59  C   UNL A   1      43.908  30.402  34.943  1.00  0.00     0.029 A 
ATOM     60  N   UNL A   1      43.448  29.172  33.149  1.00  0.00    -0.354 N 
ATOM     61  N   UNL A   1      43.900  27.017  31.229  1.00  0.00    -0.248 NA
ATOM     62  C   UNL A   1      45.252  25.322  30.360  1.00  0.00     0.031 C 
ATOM     63  C   UNL A   1      44.938  29.471  34.771  1.00  0.00     0.029 A 
ATOM     64  C   UNL A   1      44.641  28.693  33.663  1.00  0.00     0.049 A 
ATOM     65  H   UNL A   1      42.990  28.812  32.355  1.00  0.00     0.167 HD
ATOM     66  C   UNL A   1      45.039  26.890  32.017  1.00  0.00     0.074 A 
ATOM     67  C   UNL A   1      45.824  25.813  31.451  1.00  0.00     0.031 C 
ATOM     68  C   UNL A   1      45.399  27.601  33.112  1.00  0.00     0.037 A 
BRANCH  55  69
ATOM     69  C   UNL A   1      41.523  32.178  34.534  1.00  0.00     0.058 A 
ATOM     70  C   UNL A   1      40.785  32.060  35.721  1.00  0.00     0.135 A 
ATOM     71  C   UNL A   1      42.094  33.427  34.236  1.00  0.00     0.135 A 
ATOM     72  F   UNL A   1      40.210  30.892  36.047  1.00  0.00    -0.206 F 
ATOM     73  C   UNL A   1      40.614  33.141  36.579  1.00  0.00     0.059 A 
ATOM     74  C   UNL A   1      41.954  34.516  35.091  1.00  0.00     0.059 A 
ATOM     75  F   UNL A   1      42.810  33.591  33.113  1.00  0.00    -0.206 F 
ATOM     76  C   UNL A   1      41.208  34.364  36.259  1.00  0.00     0.060 A 
BRANCH  76  77
ATOM     77  S   UNL A   1      41.018  35.743  37.409  1.00  0.00     0.124 S 
ATOM     78  O   UNL A   1      39.929  36.491  36.789  1.00  0.00    -0.237 OA
ATOM     79  O   UNL A   1      40.688  35.065  38.659  1.00  0.00    -0.237 OA
ATOM     80  O   UNL A   1      42.322  36.395  37.378  1.00  0.00    -0.744 OA
ENDBRANCH  76  77
ENDBRANCH  55  69
BRANCH  56  81
ATOM     81  C   UNL A   1      43.376  24.699  28.206  1.00  0.00     0.058 A 
ATOM     82  C   UNL A   1      44.155  24.974  27.072  1.00  0.00     0.135 A 
ATOM     83  C   UNL A   1      42.890  23.391  28.362  1.00  0.00     0.135 A 
ATOM     84  F   UNL A   1      44.636  26.211  26.874  1.00  0.00    -0.206 F 
ATOM     85  C   UNL A   1      44.410  24.003  26.108  1.00  0.00     0.059 A 
ATOM     86  C   UNL A   1      43.155  22.396  27.426  1.00  0.00     0.059 A 
ATOM     87  F   UNL A   1      42.158  23.069  29.439  1.00  0.00    -0.206 F 
ATOM     88  C   UNL A   1      43.900  22.718  26.291  1.00  0.00     0.060 A 
BRANCH  88  89
ATOM     89  S   UNL A   1      44.240  21.460  25.041  1.00  0.00     0.124 S 
ATOM     90  O   UNL A   1      44.057  22.216  23.808  1.00  0.00    -0.237 OA
ATOM     91  O   UNL A   1      45.612  21.073  25.356  1.00  0.00    -0.237 OA
ATOM     92  O   UNL A   1      43.233  20.438  25.313  1.00  0.00    -0.744 OA
ENDBRANCH  88  89
ENDBRANCH  56  81
BRANCH  68  93
ATOM     93  C   UNL A   1      46.669  27.211  33.815  1.00  0.00     0.058 A 
ATOM     94  C   UNL A   1      47.897  27.815  33.510  1.00  0.00     0.135 A 
ATOM     95  C   UNL A   1      46.638  26.276  34.862  1.00  0.00     0.135 A 
ATOM     96  F   UNL A   1      47.982  28.709  32.512  1.00  0.00    -0.206 F 
ATOM     97  C   UNL A   1      49.055  27.500  34.215  1.00  0.00     0.059 A 
ATOM     98  C   UNL A   1      47.778  25.962  35.595  1.00  0.00     0.059 A 
ATOM     99  F   UNL A   1      45.485  25.675  35.197  1.00  0.00    -0.206 F 
ATOM    100  C   UNL A   1      48.984  26.576  35.260  1.00  0.00     0.060 A 
BRANCH 100 101
ATOM    101  S   UNL A   1      50.479  26.220  36.206  1.00  0.00     0.124 S 
ATOM    102  O   UNL A   1      50.438  27.261  37.227  1.00  0.00    -0.237 OA
ATOM    103  O   UNL A   1      50.237  24.860  36.677  1.00  0.00    -0.237 OA
ATOM    104  O   UNL A   1      51.546  26.352  35.218  1.00  0.00    -0.744 OA
ENDBRANCH 100 101
ENDBRANCH  68  93
ENDBRANCH  42  43
ENDBRANCH  34  37
ENDBRANCH  32  33
ENDBRANCH  31  32
ENDBRANCH   1  31
TORSDOF 18
ENDMDL
