MODEL 1
REMARK VINA RESULT:     -11.4      0.000      0.000
REMARK SMILES CC(C)=CC(=O)Nc1ccc(C(=O)NCCCCNC(=O)c2ccc(-c3c4nc(c(-c5c(F)cc(S(=O)(=O)[O-])cc5F)c5ccc([nH]5)c(-c5c(F)cc(S(=O)(=O)[O-])cc5F)c5nc(c(-c6c(F)cc(S(=O)(=O)[O-])cc6F)c6ccc3[nH]6)C=C5)C=C4)cc2)cc1
REMARK SMILES IDX 17 1 16 2 15 3 14 4 12 5 13 6 11 8 8 9 9 10 89 11 10 12
REMARK SMILES IDX 88 13 7 14 5 15 6 16 4 18 1 19 2 20 3 21 18 22 19 23 20 24
REMARK SMILES IDX 21 26 22 27 23 28 87 29 24 30 86 31 25 32 26 33 27 34 80 35
REMARK SMILES IDX 28 36 85 37 79 38 81 39 29 40 84 41 78 42 77 43 30 45 64 46
REMARK SMILES IDX 43 47 63 48 44 49 47 50 62 51 82 52 45 53 46 54 61 56 83 57
REMARK SMILES IDX 48 58 31 59 32 60 41 61 33 62 34 63 40 64 42 65 35 66 36 67
REMARK SMILES IDX 37 68 38 69 39 70 65 71 66 72 75 73 67 74 68 75 74 76 76 77
REMARK SMILES IDX 69 78 70 79 71 80 72 81 73 82 49 83 50 84 59 85 51 86 52 87
REMARK SMILES IDX 58 88 60 89 53 90 54 91 55 92 56 93 57 94
REMARK H PARENT 14 7 7 17 19 25 81 44 47 55
REMARK Flexibility Score: inf
ROOT
ATOM      1  C   UNL A   1      33.234  28.266  25.839  1.00  0.00     0.023 C 
ENDROOT
BRANCH   1   2
ATOM      2  C   UNL A   1      32.775  29.497  25.053  1.00  0.00     0.023 C 
BRANCH   2   3
ATOM      3  C   UNL A   1      31.256  29.683  25.026  1.00  0.00     0.116 C 
BRANCH   3   4
ATOM      4  N   UNL A   1      30.804  29.986  23.678  1.00  0.00    -0.352 N 
ATOM      5  C   UNL A   1      30.439  29.177  22.631  1.00  0.00     0.251 C 
ATOM      6  O   UNL A   1      30.062  29.701  21.585  1.00  0.00    -0.269 OA
ATOM      7  H   UNL A   1      30.751  30.948  23.480  1.00  0.00     0.163 HD
BRANCH   5   8
ATOM      8  C   UNL A   1      30.379  27.697  22.758  1.00  0.00     0.039 A 
ATOM      9  C   UNL A   1      30.396  25.008  23.496  1.00  0.00     0.041 A 
ATOM     10  C   UNL A   1      29.314  25.813  23.853  1.00  0.00     0.027 A 
ATOM     11  C   UNL A   1      31.359  25.491  22.613  1.00  0.00     0.027 A 
ATOM     12  C   UNL A   1      29.327  27.166  23.517  1.00  0.00     0.016 A 
ATOM     13  C   UNL A   1      31.324  26.827  22.213  1.00  0.00     0.016 A 
BRANCH   9  14
ATOM     14  N   UNL A   1      30.497  23.755  24.107  1.00  0.00    -0.323 N 
ATOM     15  C   UNL A   1      31.605  23.012  24.392  1.00  0.00     0.248 C 
ATOM     16  O   UNL A   1      31.476  21.842  24.754  1.00  0.00    -0.270 OA
ATOM     17  H   UNL A   1      29.641  23.347  24.370  1.00  0.00     0.170 HD
BRANCH  15  18
ATOM     18  C   UNL A   1      32.983  23.580  24.331  1.00  0.00     0.070 C 
ATOM     19  C   UNL A   1      33.160  24.753  26.592  1.00  0.00     0.039 C 
ATOM     20  C   UNL A   1      33.669  24.289  25.254  1.00  0.00    -0.071 C 
ATOM     21  C   UNL A   1      35.115  24.648  25.013  1.00  0.00     0.039 C 
ENDBRANCH  15  18
ENDBRANCH   9  14
ENDBRANCH   5   8
ENDBRANCH   3   4
ENDBRANCH   2   3
ENDBRANCH   1   2
BRANCH   1  22
ATOM     22  C   UNL A   1      33.494  28.509  27.322  1.00  0.00     0.116 C 
BRANCH  22  23
ATOM     23  N   UNL A   1      33.507  29.924  27.669  1.00  0.00    -0.352 N 
ATOM     24  C   UNL A   1      34.528  30.674  28.202  1.00  0.00     0.251 C 
ATOM     25  H   UNL A   1      32.669  30.410  27.498  1.00  0.00     0.163 HD
ATOM     26  O   UNL A   1      34.321  31.832  28.554  1.00  0.00    -0.269 OA
BRANCH  24  27
ATOM     27  C   UNL A   1      35.862  30.064  28.384  1.00  0.00     0.039 A 
ATOM     28  C   UNL A   1      36.747  30.046  27.303  1.00  0.00     0.014 A 
ATOM     29  C   UNL A   1      36.251  29.555  29.625  1.00  0.00     0.014 A 
ATOM     30  C   UNL A   1      38.057  29.600  27.492  1.00  0.00     0.010 A 
ATOM     31  C   UNL A   1      37.572  29.164  29.827  1.00  0.00     0.010 A 
ATOM     32  C   UNL A   1      38.491  29.203  28.768  1.00  0.00    -0.014 A 
BRANCH  32  33
ATOM     33  C   UNL A   1      39.916  28.885  29.034  1.00  0.00     0.031 A 
ATOM     34  C   UNL A   1      40.850  29.946  29.542  1.00  0.00     0.074 A 
ATOM     35  C   UNL A   1      40.387  27.660  28.724  1.00  0.00     0.049 A 
ATOM     36  N   UNL A   1      42.144  29.886  29.723  1.00  0.00    -0.248 NA
ATOM     37  C   UNL A   1      40.255  31.251  29.868  1.00  0.00     0.031 C 
ATOM     38  C   UNL A   1      39.585  26.559  28.182  1.00  0.00     0.029 A 
ATOM     39  N   UNL A   1      41.654  27.140  28.797  1.00  0.00    -0.354 N 
ATOM     40  C   UNL A   1      42.521  31.146  30.171  1.00  0.00     0.074 A 
ATOM     41  C   UNL A   1      41.326  31.961  30.197  1.00  0.00     0.031 C 
ATOM     42  C   UNL A   1      40.378  25.495  27.981  1.00  0.00     0.029 A 
ATOM     43  C   UNL A   1      41.749  25.847  28.337  1.00  0.00     0.049 A 
ATOM     44  H   UNL A   1      42.424  27.644  29.147  1.00  0.00     0.167 HD
ATOM     45  C   UNL A   1      43.751  31.575  30.542  1.00  0.00     0.037 A 
ATOM     46  C   UNL A   1      42.820  25.043  28.196  1.00  0.00     0.037 A 
ATOM     47  C   UNL A   1      44.932  30.753  30.533  1.00  0.00     0.049 A 
ATOM     48  C   UNL A   1      44.179  25.553  28.588  1.00  0.00     0.074 A 
ATOM     49  C   UNL A   1      46.208  31.075  30.965  1.00  0.00     0.029 A 
ATOM     50  N   UNL A   1      44.988  29.450  30.060  1.00  0.00    -0.354 N 
ATOM     51  N   UNL A   1      44.507  26.725  29.077  1.00  0.00    -0.248 NA
ATOM     52  C   UNL A   1      45.312  24.638  28.403  1.00  0.00     0.031 C 
ATOM     53  C   UNL A   1      47.044  29.982  30.710  1.00  0.00     0.029 A 
ATOM     54  C   UNL A   1      46.282  28.965  30.157  1.00  0.00     0.049 A 
ATOM     55  H   UNL A   1      44.221  28.945  29.706  1.00  0.00     0.167 HD
ATOM     56  C   UNL A   1      45.883  26.684  29.267  1.00  0.00     0.074 A 
ATOM     57  C   UNL A   1      46.324  25.367  28.857  1.00  0.00     0.031 C 
ATOM     58  C   UNL A   1      46.707  27.654  29.735  1.00  0.00     0.037 A 
BRANCH  45  59
ATOM     59  C   UNL A   1      43.881  33.003  30.995  1.00  0.00     0.058 A 
ATOM     60  C   UNL A   1      44.281  34.019  30.114  1.00  0.00     0.135 A 
ATOM     61  C   UNL A   1      43.565  33.366  32.315  1.00  0.00     0.135 A 
ATOM     62  F   UNL A   1      44.607  33.724  28.845  1.00  0.00    -0.206 F 
ATOM     63  C   UNL A   1      44.394  35.342  30.531  1.00  0.00     0.059 A 
ATOM     64  C   UNL A   1      43.646  34.687  32.747  1.00  0.00     0.059 A 
ATOM     65  F   UNL A   1      43.176  32.434  33.198  1.00  0.00    -0.206 F 
ATOM     66  C   UNL A   1      44.077  35.665  31.851  1.00  0.00     0.060 A 
BRANCH  66  67
ATOM     67  S   UNL A   1      44.228  37.385  32.379  1.00  0.00     0.124 S 
ATOM     68  O   UNL A   1      43.784  38.094  31.182  1.00  0.00    -0.237 OA
ATOM     69  O   UNL A   1      43.321  37.443  33.521  1.00  0.00    -0.237 OA
ATOM     70  O   UNL A   1      45.645  37.520  32.699  1.00  0.00    -0.744 OA
ENDBRANCH  66  67
ENDBRANCH  45  59
BRANCH  46  71
ATOM     71  C   UNL A   1      42.648  23.669  27.655  1.00  0.00     0.058 A 
ATOM     72  C   UNL A   1      42.715  23.427  26.276  1.00  0.00     0.135 A 
ATOM     73  C   UNL A   1      42.437  22.572  28.504  1.00  0.00     0.135 A 
ATOM     74  F   UNL A   1      42.906  24.446  25.424  1.00  0.00    -0.206 F 
ATOM     75  C   UNL A   1      42.570  22.146  25.754  1.00  0.00     0.059 A 
ATOM     76  C   UNL A   1      42.312  21.278  28.008  1.00  0.00     0.059 A 
ATOM     77  F   UNL A   1      42.381  22.751  29.833  1.00  0.00    -0.206 F 
ATOM     78  C   UNL A   1      42.372  21.076  26.630  1.00  0.00     0.060 A 
BRANCH  78  79
ATOM     79  S   UNL A   1      42.246  19.409  25.947  1.00  0.00     0.124 S 
ATOM     80  O   UNL A   1      40.807  19.281  25.749  1.00  0.00    -0.237 OA
ATOM     81  O   UNL A   1      43.051  19.512  24.734  1.00  0.00    -0.237 OA
ATOM     82  O   UNL A   1      42.817  18.574  26.999  1.00  0.00    -0.744 OA
ENDBRANCH  78  79
ENDBRANCH  46  71
BRANCH  58  83
ATOM     83  C   UNL A   1      48.171  27.329  29.830  1.00  0.00     0.058 A 
ATOM     84  C   UNL A   1      49.061  27.671  28.800  1.00  0.00     0.135 A 
ATOM     85  C   UNL A   1      48.700  26.734  30.985  1.00  0.00     0.135 A 
ATOM     86  F   UNL A   1      48.603  28.233  27.669  1.00  0.00    -0.206 F 
ATOM     87  C   UNL A   1      50.425  27.424  28.908  1.00  0.00     0.059 A 
ATOM     88  C   UNL A   1      50.064  26.498  31.125  1.00  0.00     0.059 A 
ATOM     89  F   UNL A   1      47.891  26.394  32.001  1.00  0.00    -0.206 F 
ATOM     90  C   UNL A   1      50.918  26.841  30.077  1.00  0.00     0.060 A 
BRANCH  90  91
ATOM     91  S   UNL A   1      52.698  26.576  30.228  1.00  0.00     0.124 S 
ATOM     92  O   UNL A   1      52.753  25.492  31.202  1.00  0.00    -0.237 OA
ATOM     93  O   UNL A   1      53.079  26.222  28.863  1.00  0.00    -0.237 OA
ATOM     94  O   UNL A   1      53.195  27.867  30.696  1.00  0.00    -0.744 OA
ENDBRANCH  90  91
ENDBRANCH  58  83
ENDBRANCH  32  33
ENDBRANCH  24  27
ENDBRANCH  22  23
ENDBRANCH   1  22
TORSDOF 16
ENDMDL
MODEL 2
REMARK VINA RESULT:     -11.4      1.209      2.038
REMARK SMILES CC(C)=CC(=O)Nc1ccc(C(=O)NCCCCNC(=O)c2ccc(-c3c4nc(c(-c5c(F)cc(S(=O)(=O)[O-])cc5F)c5ccc([nH]5)c(-c5c(F)cc(S(=O)(=O)[O-])cc5F)c5nc(c(-c6c(F)cc(S(=O)(=O)[O-])cc6F)c6ccc3[nH]6)C=C5)C=C4)cc2)cc1
REMARK SMILES IDX 17 1 16 2 15 3 14 4 12 5 13 6 11 8 8 9 9 10 89 11 10 12
REMARK SMILES IDX 88 13 7 14 5 15 6 16 4 18 1 19 2 20 3 21 18 22 19 23 20 24
REMARK SMILES IDX 21 26 22 27 23 28 87 29 24 30 86 31 25 32 26 33 27 34 80 35
REMARK SMILES IDX 28 36 85 37 79 38 81 39 29 40 84 41 78 42 77 43 30 45 64 46
REMARK SMILES IDX 43 47 63 48 44 49 47 50 62 51 82 52 45 53 46 54 61 56 83 57
REMARK SMILES IDX 48 58 31 59 32 60 41 61 33 62 34 63 40 64 42 65 35 66 36 67
REMARK SMILES IDX 37 68 38 69 39 70 65 71 66 72 75 73 67 74 68 75 74 76 76 77
REMARK SMILES IDX 69 78 70 79 71 80 72 81 73 82 49 83 50 84 59 85 51 86 52 87
REMARK SMILES IDX 58 88 60 89 53 90 54 91 55 92 56 93 57 94
REMARK H PARENT 14 7 7 17 19 25 81 44 47 55
REMARK Flexibility Score: inf
ROOT
ATOM      1  C   UNL A   1      33.465  28.220  25.852  1.00  0.00     0.023 C 
ENDROOT
BRANCH   1   2
ATOM      2  C   UNL A   1      33.545  26.752  25.428  1.00  0.00     0.023 C 
BRANCH   2   3
ATOM      3  C   UNL A   1      33.116  26.501  23.981  1.00  0.00     0.116 C 
BRANCH   3   4
ATOM      4  N   UNL A   1      31.669  26.413  23.885  1.00  0.00    -0.352 N 
ATOM      5  C   UNL A   1      30.822  25.339  23.773  1.00  0.00     0.251 C 
ATOM      6  O   UNL A   1      29.611  25.546  23.737  1.00  0.00    -0.269 OA
ATOM      7  H   UNL A   1      31.212  27.285  23.904  1.00  0.00     0.163 HD
BRANCH   5   8
ATOM      8  C   UNL A   1      31.313  23.937  23.806  1.00  0.00     0.039 A 
ATOM      9  C   UNL A   1      32.639  21.506  24.136  1.00  0.00     0.041 A 
ATOM     10  C   UNL A   1      31.925  22.051  25.204  1.00  0.00     0.027 A 
ATOM     11  C   UNL A   1      32.527  22.068  22.867  1.00  0.00     0.027 A 
ATOM     12  C   UNL A   1      31.296  23.286  25.047  1.00  0.00     0.016 A 
ATOM     13  C   UNL A   1      31.828  23.263  22.697  1.00  0.00     0.016 A 
BRANCH   9  14
ATOM     14  N   UNL A   1      33.502  20.442  24.414  1.00  0.00    -0.323 N 
ATOM     15  C   UNL A   1      34.784  20.459  24.878  1.00  0.00     0.248 C 
ATOM     16  O   UNL A   1      35.447  19.421  24.870  1.00  0.00    -0.270 OA
ATOM     17  H   UNL A   1      33.128  19.546  24.249  1.00  0.00     0.170 HD
BRANCH  15  18
ATOM     18  C   UNL A   1      35.410  21.687  25.449  1.00  0.00     0.070 C 
ATOM     19  C   UNL A   1      36.138  22.926  23.339  1.00  0.00     0.039 C 
ATOM     20  C   UNL A   1      35.959  22.750  24.822  1.00  0.00    -0.071 C 
ATOM     21  C   UNL A   1      36.417  23.946  25.621  1.00  0.00     0.039 C 
ENDBRANCH  15  18
ENDBRANCH   9  14
ENDBRANCH   5   8
ENDBRANCH   3   4
ENDBRANCH   2   3
ENDBRANCH   1   2
BRANCH   1  22
ATOM     22  C   UNL A   1      33.568  28.463  27.355  1.00  0.00     0.116 C 
BRANCH  22  23
ATOM     23  N   UNL A   1      33.573  29.878  27.699  1.00  0.00    -0.352 N 
ATOM     24  C   UNL A   1      34.589  30.635  28.233  1.00  0.00     0.251 C 
ATOM     25  H   UNL A   1      32.733  30.361  27.525  1.00  0.00     0.163 HD
ATOM     26  O   UNL A   1      34.375  31.792  28.582  1.00  0.00    -0.269 OA
BRANCH  24  27
ATOM     27  C   UNL A   1      35.926  30.033  28.418  1.00  0.00     0.039 A 
ATOM     28  C   UNL A   1      36.818  30.030  27.344  1.00  0.00     0.014 A 
ATOM     29  C   UNL A   1      36.309  29.514  29.658  1.00  0.00     0.014 A 
ATOM     30  C   UNL A   1      38.130  29.591  27.538  1.00  0.00     0.010 A 
ATOM     31  C   UNL A   1      37.631  29.131  29.866  1.00  0.00     0.010 A 
ATOM     32  C   UNL A   1      38.558  29.186  28.813  1.00  0.00    -0.014 A 
BRANCH  32  33
ATOM     33  C   UNL A   1      39.983  28.875  29.087  1.00  0.00     0.031 A 
ATOM     34  C   UNL A   1      40.906  29.938  29.610  1.00  0.00     0.074 A 
ATOM     35  C   UNL A   1      40.464  27.655  28.771  1.00  0.00     0.049 A 
ATOM     36  N   UNL A   1      42.200  29.885  29.799  1.00  0.00    -0.248 NA
ATOM     37  C   UNL A   1      40.300  31.236  29.942  1.00  0.00     0.031 C 
ATOM     38  C   UNL A   1      39.673  26.554  28.214  1.00  0.00     0.029 A 
ATOM     39  N   UNL A   1      41.734  27.143  28.849  1.00  0.00    -0.354 N 
ATOM     40  C   UNL A   1      42.565  31.143  30.261  1.00  0.00     0.074 A 
ATOM     41  C   UNL A   1      41.365  31.950  30.285  1.00  0.00     0.031 C 
ATOM     42  C   UNL A   1      40.475  25.496  28.010  1.00  0.00     0.029 A 
ATOM     43  C   UNL A   1      41.840  25.855  28.378  1.00  0.00     0.049 A 
ATOM     44  H   UNL A   1      42.498  27.650  29.208  1.00  0.00     0.167 HD
ATOM     45  C   UNL A   1      43.790  31.578  30.644  1.00  0.00     0.037 A 
ATOM     46  C   UNL A   1      42.917  25.058  28.239  1.00  0.00     0.037 A 
ATOM     47  C   UNL A   1      44.976  30.764  30.636  1.00  0.00     0.049 A 
ATOM     48  C   UNL A   1      44.270  25.574  28.644  1.00  0.00     0.074 A 
ATOM     49  C   UNL A   1      46.247  31.090  31.079  1.00  0.00     0.029 A 
ATOM     50  N   UNL A   1      45.044  29.465  30.153  1.00  0.00    -0.354 N 
ATOM     51  N   UNL A   1      44.587  26.745  29.145  1.00  0.00    -0.248 NA
ATOM     52  C   UNL A   1      45.411  24.668  28.459  1.00  0.00     0.031 C 
ATOM     53  C   UNL A   1      47.092  30.005  30.822  1.00  0.00     0.029 A 
ATOM     54  C   UNL A   1      46.340  28.987  30.255  1.00  0.00     0.049 A 
ATOM     55  H   UNL A   1      44.283  28.958  29.790  1.00  0.00     0.167 HD
ATOM     56  C   UNL A   1      45.962  26.711  29.344  1.00  0.00     0.074 A 
ATOM     57  C   UNL A   1      46.415  25.400  28.927  1.00  0.00     0.031 C 
ATOM     58  C   UNL A   1      46.777  27.682  29.825  1.00  0.00     0.037 A 
BRANCH  45  59
ATOM     59  C   UNL A   1      43.907  33.003  31.109  1.00  0.00     0.058 A 
ATOM     60  C   UNL A   1      44.187  34.046  30.213  1.00  0.00     0.135 A 
ATOM     61  C   UNL A   1      43.699  33.334  32.458  1.00  0.00     0.135 A 
ATOM     62  F   UNL A   1      44.407  33.783  28.915  1.00  0.00    -0.206 F 
ATOM     63  C   UNL A   1      44.288  35.366  30.643  1.00  0.00     0.059 A 
ATOM     64  C   UNL A   1      43.770  34.650  32.905  1.00  0.00     0.059 A 
ATOM     65  F   UNL A   1      43.427  32.374  33.355  1.00  0.00    -0.206 F 
ATOM     66  C   UNL A   1      44.081  35.657  31.992  1.00  0.00     0.060 A 
BRANCH  66  67
ATOM     67  S   UNL A   1      44.216  37.374  32.535  1.00  0.00     0.124 S 
ATOM     68  O   UNL A   1      43.946  38.091  31.292  1.00  0.00    -0.237 OA
ATOM     69  O   UNL A   1      43.175  37.462  33.555  1.00  0.00    -0.237 OA
ATOM     70  O   UNL A   1      45.585  37.468  33.030  1.00  0.00    -0.744 OA
ENDBRANCH  66  67
ENDBRANCH  45  59
BRANCH  46  71
ATOM     71  C   UNL A   1      42.758  23.688  27.685  1.00  0.00     0.058 A 
ATOM     72  C   UNL A   1      42.513  22.597  28.530  1.00  0.00     0.135 A 
ATOM     73  C   UNL A   1      42.824  23.448  26.304  1.00  0.00     0.135 A 
ATOM     74  F   UNL A   1      42.451  22.777  29.858  1.00  0.00    -0.206 F 
ATOM     75  C   UNL A   1      42.347  21.310  28.028  1.00  0.00     0.059 A 
ATOM     76  C   UNL A   1      42.639  22.174  25.776  1.00  0.00     0.059 A 
ATOM     77  F   UNL A   1      43.040  24.463  25.454  1.00  0.00    -0.206 F 
ATOM     78  C   UNL A   1      42.409  21.110  26.647  1.00  0.00     0.060 A 
BRANCH  78  79
ATOM     79  S   UNL A   1      42.131  19.446  26.000  1.00  0.00     0.124 S 
ATOM     80  O   UNL A   1      42.912  19.477  24.769  1.00  0.00    -0.237 OA
ATOM     81  O   UNL A   1      42.660  18.608  27.071  1.00  0.00    -0.237 OA
ATOM     82  O   UNL A   1      40.683  19.392  25.829  1.00  0.00    -0.744 OA
ENDBRANCH  78  79
ENDBRANCH  46  71
BRANCH  58  83
ATOM     83  C   UNL A   1      48.243  27.367  29.928  1.00  0.00     0.058 A 
ATOM     84  C   UNL A   1      49.127  27.669  28.882  1.00  0.00     0.135 A 
ATOM     85  C   UNL A   1      48.777  26.820  31.105  1.00  0.00     0.135 A 
ATOM     86  F   UNL A   1      48.663  28.183  27.731  1.00  0.00    -0.206 F 
ATOM     87  C   UNL A   1      50.493  27.431  28.995  1.00  0.00     0.059 A 
ATOM     88  C   UNL A   1      50.142  26.594  31.249  1.00  0.00     0.059 A 
ATOM     89  F   UNL A   1      47.973  26.519  32.136  1.00  0.00    -0.206 F 
ATOM     90  C   UNL A   1      50.992  26.897  30.185  1.00  0.00     0.060 A 
BRANCH  90  91
ATOM     91  S   UNL A   1      52.773  26.645  30.339  1.00  0.00     0.124 S 
ATOM     92  O   UNL A   1      52.831  25.529  31.278  1.00  0.00    -0.237 OA
ATOM     93  O   UNL A   1      53.167  26.340  28.966  1.00  0.00    -0.237 OA
ATOM     94  O   UNL A   1      53.254  27.923  30.853  1.00  0.00    -0.744 OA
ENDBRANCH  90  91
ENDBRANCH  58  83
ENDBRANCH  32  33
ENDBRANCH  24  27
ENDBRANCH  22  23
ENDBRANCH   1  22
TORSDOF 16
ENDMDL
MODEL 3
REMARK VINA RESULT:     -11.3      5.040     10.766
REMARK SMILES CC(C)=CC(=O)Nc1ccc(C(=O)NCCCCNC(=O)c2ccc(-c3c4nc(c(-c5c(F)cc(S(=O)(=O)[O-])cc5F)c5ccc([nH]5)c(-c5c(F)cc(S(=O)(=O)[O-])cc5F)c5nc(c(-c6c(F)cc(S(=O)(=O)[O-])cc6F)c6ccc3[nH]6)C=C5)C=C4)cc2)cc1
REMARK SMILES IDX 17 1 16 2 15 3 14 4 12 5 13 6 11 8 8 9 9 10 89 11 10 12
REMARK SMILES IDX 88 13 7 14 5 15 6 16 4 18 1 19 2 20 3 21 18 22 19 23 20 24
REMARK SMILES IDX 21 26 22 27 23 28 87 29 24 30 86 31 25 32 26 33 27 34 80 35
REMARK SMILES IDX 28 36 85 37 79 38 81 39 29 40 84 41 78 42 77 43 30 45 64 46
REMARK SMILES IDX 43 47 63 48 44 49 47 50 62 51 82 52 45 53 46 54 61 56 83 57
REMARK SMILES IDX 48 58 31 59 32 60 41 61 33 62 34 63 40 64 42 65 35 66 36 67
REMARK SMILES IDX 37 68 38 69 39 70 65 71 66 72 75 73 67 74 68 75 74 76 76 77
REMARK SMILES IDX 69 78 70 79 71 80 72 81 73 82 49 83 50 84 59 85 51 86 52 87
REMARK SMILES IDX 58 88 60 89 53 90 54 91 55 92 56 93 57 94
REMARK H PARENT 14 7 7 17 19 25 81 44 47 55
REMARK Flexibility Score: inf
ROOT
ATOM      1  C   UNL A   1      37.236  23.485  25.132  1.00  0.00     0.023 C 
ENDROOT
BRANCH   1   2
ATOM      2  C   UNL A   1      36.976  21.981  25.251  1.00  0.00     0.023 C 
BRANCH   2   3
ATOM      3  C   UNL A   1      35.787  21.628  26.147  1.00  0.00     0.116 C 
BRANCH   3   4
ATOM      4  N   UNL A   1      34.919  20.668  25.488  1.00  0.00    -0.352 N 
ATOM      5  C   UNL A   1      33.863  20.828  24.625  1.00  0.00     0.251 C 
ATOM      6  O   UNL A   1      33.306  19.825  24.184  1.00  0.00    -0.269 OA
ATOM      7  H   UNL A   1      35.125  19.729  25.700  1.00  0.00     0.163 HD
BRANCH   5   8
ATOM      8  C   UNL A   1      33.447  22.164  24.124  1.00  0.00     0.039 A 
ATOM      9  C   UNL A   1      32.274  24.408  22.956  1.00  0.00     0.041 A 
ATOM     10  C   UNL A   1      31.708  23.855  24.105  1.00  0.00     0.027 A 
ATOM     11  C   UNL A   1      33.519  23.967  22.513  1.00  0.00     0.027 A 
ATOM     12  C   UNL A   1      32.275  22.709  24.663  1.00  0.00     0.016 A 
ATOM     13  C   UNL A   1      34.123  22.869  23.127  1.00  0.00     0.016 A 
BRANCH   9  14
ATOM     14  N   UNL A   1      31.517  25.350  22.253  1.00  0.00    -0.323 N 
ATOM     15  C   UNL A   1      31.481  26.708  22.380  1.00  0.00     0.248 C 
ATOM     16  O   UNL A   1      30.601  27.349  21.805  1.00  0.00    -0.270 OA
ATOM     17  H   UNL A   1      30.921  24.978  21.565  1.00  0.00     0.170 HD
BRANCH  15  18
ATOM     18  C   UNL A   1      32.506  27.464  23.156  1.00  0.00     0.070 C 
ATOM     19  C   UNL A   1      31.507  27.427  25.506  1.00  0.00     0.039 C 
ATOM     20  C   UNL A   1      32.553  27.753  24.475  1.00  0.00    -0.071 C 
ATOM     21  C   UNL A   1      33.771  28.428  25.059  1.00  0.00     0.039 C 
ENDBRANCH  15  18
ENDBRANCH   9  14
ENDBRANCH   5   8
ENDBRANCH   3   4
ENDBRANCH   2   3
ENDBRANCH   1   2
BRANCH   1  22
ATOM     22  C   UNL A   1      38.083  24.082  26.252  1.00  0.00     0.116 C 
BRANCH  22  23
ATOM     23  N   UNL A   1      39.494  23.742  26.136  1.00  0.00    -0.352 N 
ATOM     24  C   UNL A   1      40.588  24.403  26.642  1.00  0.00     0.251 C 
ATOM     25  H   UNL A   1      39.693  22.924  25.625  1.00  0.00     0.163 HD
ATOM     26  O   UNL A   1      41.720  24.041  26.335  1.00  0.00    -0.269 OA
BRANCH  24  27
ATOM     27  C   UNL A   1      40.388  25.572  27.524  1.00  0.00     0.039 A 
ATOM     28  C   UNL A   1      39.460  25.481  28.564  1.00  0.00     0.014 A 
ATOM     29  C   UNL A   1      41.145  26.733  27.350  1.00  0.00     0.014 A 
ATOM     30  C   UNL A   1      39.357  26.522  29.489  1.00  0.00     0.010 A 
ATOM     31  C   UNL A   1      41.083  27.745  28.305  1.00  0.00     0.010 A 
ATOM     32  C   UNL A   1      40.203  27.639  29.393  1.00  0.00    -0.014 A 
BRANCH  32  33
ATOM     33  C   UNL A   1      40.233  28.678  30.452  1.00  0.00     0.031 A 
ATOM     34  C   UNL A   1      41.148  28.533  31.634  1.00  0.00     0.074 A 
ATOM     35  C   UNL A   1      39.362  29.705  30.391  1.00  0.00     0.049 A 
ATOM     36  N   UNL A   1      41.230  29.276  32.708  1.00  0.00    -0.248 NA
ATOM     37  C   UNL A   1      42.077  27.393  31.617  1.00  0.00     0.031 C 
ATOM     38  C   UNL A   1      38.393  29.929  29.315  1.00  0.00     0.029 A 
ATOM     39  N   UNL A   1      39.132  30.740  31.262  1.00  0.00    -0.354 N 
ATOM     40  C   UNL A   1      42.208  28.688  33.500  1.00  0.00     0.074 A 
ATOM     41  C   UNL A   1      42.663  27.505  32.802  1.00  0.00     0.031 C 
ATOM     42  C   UNL A   1      37.681  31.035  29.586  1.00  0.00     0.029 A 
ATOM     43  C   UNL A   1      38.110  31.574  30.872  1.00  0.00     0.049 A 
ATOM     44  H   UNL A   1      39.650  30.874  32.088  1.00  0.00     0.167 HD
ATOM     45  C   UNL A   1      42.692  29.108  34.693  1.00  0.00     0.037 A 
ATOM     46  C   UNL A   1      37.564  32.640  31.488  1.00  0.00     0.037 A 
ATOM     47  C   UNL A   1      42.250  30.297  35.373  1.00  0.00     0.049 A 
ATOM     48  C   UNL A   1      38.100  33.069  32.826  1.00  0.00     0.074 A 
ATOM     49  C   UNL A   1      42.734  30.847  36.547  1.00  0.00     0.029 A 
ATOM     50  N   UNL A   1      41.213  31.115  34.947  1.00  0.00    -0.354 N 
ATOM     51  N   UNL A   1      39.074  32.542  33.529  1.00  0.00    -0.248 NA
ATOM     52  C   UNL A   1      37.460  34.230  33.458  1.00  0.00     0.031 C 
ATOM     53  C   UNL A   1      41.960  31.972  36.855  1.00  0.00     0.029 A 
ATOM     54  C   UNL A   1      41.020  32.146  35.851  1.00  0.00     0.049 A 
ATOM     55  H   UNL A   1      40.691  30.981  34.123  1.00  0.00     0.167 HD
ATOM     56  C   UNL A   1      39.170  33.313  34.681  1.00  0.00     0.074 A 
ATOM     57  C   UNL A   1      38.168  34.353  34.574  1.00  0.00     0.031 C 
ATOM     58  C   UNL A   1      40.010  33.168  35.735  1.00  0.00     0.037 A 
BRANCH  45  59
ATOM     59  C   UNL A   1      43.763  28.274  35.341  1.00  0.00     0.058 A 
ATOM     60  C   UNL A   1      43.450  27.274  36.275  1.00  0.00     0.135 A 
ATOM     61  C   UNL A   1      45.113  28.452  34.996  1.00  0.00     0.135 A 
ATOM     62  F   UNL A   1      42.177  27.072  36.649  1.00  0.00    -0.206 F 
ATOM     63  C   UNL A   1      44.441  26.498  36.868  1.00  0.00     0.059 A 
ATOM     64  C   UNL A   1      46.118  27.670  35.558  1.00  0.00     0.059 A 
ATOM     65  F   UNL A   1      45.466  29.393  34.109  1.00  0.00    -0.206 F 
ATOM     66  C   UNL A   1      45.773  26.705  36.505  1.00  0.00     0.060 A 
BRANCH  66  67
ATOM     67  S   UNL A   1      47.047  25.691  37.284  1.00  0.00     0.124 S 
ATOM     68  O   UNL A   1      46.696  25.820  38.696  1.00  0.00    -0.237 OA
ATOM     69  O   UNL A   1      46.810  24.380  36.690  1.00  0.00    -0.237 OA
ATOM     70  O   UNL A   1      48.291  26.341  36.885  1.00  0.00    -0.744 OA
ENDBRANCH  66  67
ENDBRANCH  45  59
BRANCH  46  71
ATOM     71  C   UNL A   1      36.443  33.373  30.845  1.00  0.00     0.058 A 
ATOM     72  C   UNL A   1      35.138  33.273  31.346  1.00  0.00     0.135 A 
ATOM     73  C   UNL A   1      36.657  34.204  29.734  1.00  0.00     0.135 A 
ATOM     74  F   UNL A   1      34.883  32.484  32.401  1.00  0.00    -0.206 F 
ATOM     75  C   UNL A   1      34.080  33.964  30.765  1.00  0.00     0.059 A 
ATOM     76  C   UNL A   1      35.620  34.923  29.149  1.00  0.00     0.059 A 
ATOM     77  F   UNL A   1      37.892  34.345  29.228  1.00  0.00    -0.206 F 
ATOM     78  C   UNL A   1      34.332  34.790  29.667  1.00  0.00     0.060 A 
BRANCH  78  79
ATOM     79  S   UNL A   1      32.963  35.730  28.957  1.00  0.00     0.124 S 
ATOM     80  O   UNL A   1      33.668  36.823  28.298  1.00  0.00    -0.237 OA
ATOM     81  O   UNL A   1      32.340  34.748  28.075  1.00  0.00    -0.237 OA
ATOM     82  O   UNL A   1      32.171  36.101  30.126  1.00  0.00    -0.744 OA
ENDBRANCH  78  79
ENDBRANCH  46  71
BRANCH  58  83
ATOM     83  C   UNL A   1      39.884  34.157  36.860  1.00  0.00     0.058 A 
ATOM     84  C   UNL A   1      40.480  35.425  36.784  1.00  0.00     0.135 A 
ATOM     85  C   UNL A   1      39.108  33.861  37.991  1.00  0.00     0.135 A 
ATOM     86  F   UNL A   1      41.242  35.752  35.727  1.00  0.00    -0.206 F 
ATOM     87  C   UNL A   1      40.319  36.364  37.797  1.00  0.00     0.059 A 
ATOM     88  C   UNL A   1      38.914  34.793  39.006  1.00  0.00     0.059 A 
ATOM     89  F   UNL A   1      38.512  32.664  38.107  1.00  0.00    -0.206 F 
ATOM     90  C   UNL A   1      39.529  36.040  38.903  1.00  0.00     0.060 A 
BRANCH  90  91
ATOM     91  S   UNL A   1      39.282  37.288  40.184  1.00  0.00     0.124 S 
ATOM     92  O   UNL A   1      38.499  38.291  39.471  1.00  0.00    -0.237 OA
ATOM     93  O   UNL A   1      38.567  36.540  41.216  1.00  0.00    -0.237 OA
ATOM     94  O   UNL A   1      40.641  37.687  40.537  1.00  0.00    -0.744 OA
ENDBRANCH  90  91
ENDBRANCH  58  83
ENDBRANCH  32  33
ENDBRANCH  24  27
ENDBRANCH  22  23
ENDBRANCH   1  22
TORSDOF 16
ENDMDL
