MODEL 1
REMARK VINA RESULT:     -14.4      0.000      0.000
REMARK SMILES Cc1coc2cc3c(cc12)[C@@H](C)[C@H](CCC(=O)N[C@@H](Cc1c[nH]c2ccccc12)C(=O)NCCCCNC(=O)c1ccc(-c2c4nc(c(-c5c(F)cc(S(=O)(=O)[O-])cc5F)c5ccc([nH]5)c(-c5c(F)cc(S(=O)(=O)[O-])cc5F)c5nc(c(-c6c(F)cc(S(=O)(=O)[O-])cc6F)c6ccc2[nH]6)C=C5)C=C4)cc1)C(=O)O3
REMARK SMILES IDX 34 1 33 2 32 3 30 4 31 5 19 7 18 8 16 9 17 10 15 12 14 13
REMARK SMILES IDX 13 14 1 15 2 16 3 17 10 18 4 19 5 20 9 21 6 22 8 23 7 24
REMARK SMILES IDX 11 25 108 26 12 27 106 28 107 29 20 30 21 31 22 32 29 33
REMARK SMILES IDX 23 34 24 35 28 36 25 38 27 39 26 40 35 41 36 42 37 43 38 44
REMARK SMILES IDX 39 46 40 47 41 48 105 49 42 50 104 51 43 52 44 53 45 54
REMARK SMILES IDX 98 55 46 56 103 57 97 58 99 59 47 60 102 61 96 62 95 63
REMARK SMILES IDX 48 65 82 66 61 67 81 68 62 69 65 70 80 71 100 72 63 73 64 74
REMARK SMILES IDX 79 76 101 77 66 78 49 79 50 80 59 81 51 82 52 83 58 84 60 85
REMARK SMILES IDX 53 86 54 87 55 88 56 89 57 90 83 91 84 92 93 93 85 94 86 95
REMARK SMILES IDX 92 96 94 97 87 98 88 99 89 100 90 101 91 102 67 103 68 104
REMARK SMILES IDX 77 105 69 106 70 107 76 108 78 109 71 110 72 111 73 112
REMARK SMILES IDX 74 113 75 114
REMARK H PARENT 32 6 18 11 23 37 37 45 99 64 65 75
REMARK Flexibility Score: inf
ROOT
ATOM      1  C   UNL A   1      34.931  30.377  27.269  1.00  0.00     0.023 C 
ENDROOT
BRANCH   1   2
ATOM      2  C   UNL A   1      34.413  28.969  27.331  1.00  0.00     0.116 C 
BRANCH   2   3
ATOM      3  N   UNL A   1      33.146  28.746  27.972  1.00  0.00    -0.354 N 
ATOM      4  C   UNL A   1      32.066  28.170  27.355  1.00  0.00     0.242 C 
ATOM      5  O   UNL A   1      31.164  27.689  28.046  1.00  0.00    -0.273 OA
ATOM      6  H   UNL A   1      33.048  29.023  28.911  1.00  0.00     0.163 HD
BRANCH   4   7
ATOM      7  C   UNL A   1      32.014  28.097  25.815  1.00  0.00     0.175 C 
BRANCH   7   8
ATOM      8  N   UNL A   1      31.527  26.753  25.405  1.00  0.00    -0.344 N 
ATOM      9  C   UNL A   1      32.098  25.566  25.060  1.00  0.00     0.220 C 
ATOM     10  O   UNL A   1      31.337  24.649  24.735  1.00  0.00    -0.275 OA
ATOM     11  H   UNL A   1      30.543  26.712  25.375  1.00  0.00     0.164 HD
BRANCH   9  12
ATOM     12  C   UNL A   1      33.609  25.328  25.003  1.00  0.00     0.101 C 
BRANCH  12  13
ATOM     13  C   UNL A   1      34.214  24.107  25.762  1.00  0.00     0.026 C 
BRANCH  13  14
ATOM     14  C   UNL A   1      34.807  23.075  24.809  1.00  0.00     0.107 C 
ATOM     15  C   UNL A   1      35.583  15.935  25.243  1.00  0.00     0.048 C 
ATOM     16  C   UNL A   1      34.592  16.737  24.499  1.00  0.00    -0.005 A 
ATOM     17  C   UNL A   1      33.508  16.270  23.783  1.00  0.00     0.199 A 
ATOM     18  C   UNL A   1      34.492  18.157  24.490  1.00  0.00     0.024 A 
ATOM     19  O   UNL A   1      32.699  17.291  23.414  1.00  0.00    -0.464 OA
ATOM     20  C   UNL A   1      33.257  18.425  23.911  1.00  0.00     0.137 A 
ATOM     21  C   UNL A   1      35.280  19.228  24.978  1.00  0.00     0.020 A 
ATOM     22  C   UNL A   1      32.656  19.663  23.913  1.00  0.00     0.095 A 
ATOM     23  C   UNL A   1      34.735  20.516  24.980  1.00  0.00    -0.001 A 
ATOM     24  C   UNL A   1      33.399  20.660  24.544  1.00  0.00     0.138 A 
ATOM     25  C   UNL A   1      35.541  21.791  25.305  1.00  0.00     0.034 C 
ATOM     26  O   UNL A   1      32.773  21.875  24.685  1.00  0.00    -0.426 OA
ATOM     27  C   UNL A   1      36.914  21.737  24.581  1.00  0.00     0.014 C 
ATOM     28  C   UNL A   1      33.677  22.571  23.980  1.00  0.00     0.314 C 
ATOM     29  O   UNL A   1      33.651  22.653  22.767  1.00  0.00    -0.251 OA
ENDBRANCH  13  14
ENDBRANCH  12  13
ENDBRANCH   9  12
ENDBRANCH   7   8
BRANCH   7  30
ATOM     30  C   UNL A   1      31.440  29.434  25.188  1.00  0.00     0.072 C 
BRANCH  30  31
ATOM     31  C   UNL A   1      30.746  29.658  23.823  1.00  0.00    -0.020 A 
ATOM     32  C   UNL A   1      31.183  28.963  22.698  1.00  0.00     0.087 A 
ATOM     33  C   UNL A   1      29.601  30.456  23.342  1.00  0.00     0.003 A 
ATOM     34  N   UNL A   1      30.460  29.341  21.605  1.00  0.00    -0.361 N 
ATOM     35  C   UNL A   1      29.508  30.262  21.958  1.00  0.00     0.046 A 
ATOM     36  C   UNL A   1      28.669  31.393  23.872  1.00  0.00     0.010 A 
ATOM     37  H   UNL A   1      30.602  29.001  20.693  1.00  0.00     0.166 HD
ATOM     38  C   UNL A   1      28.606  30.952  21.127  1.00  0.00     0.026 A 
ATOM     39  C   UNL A   1      27.718  32.043  23.074  1.00  0.00     0.001 A 
ATOM     40  C   UNL A   1      27.708  31.845  21.707  1.00  0.00     0.002 A 
ENDBRANCH  30  31
ENDBRANCH   7  30
ENDBRANCH   4   7
ENDBRANCH   2   3
ENDBRANCH   1   2
BRANCH   1  41
ATOM     41  C   UNL A   1      33.845  31.414  27.489  1.00  0.00     0.023 C 
BRANCH  41  42
ATOM     42  C   UNL A   1      34.235  32.600  28.387  1.00  0.00     0.116 C 
BRANCH  42  43
ATOM     43  N   UNL A   1      34.228  32.317  29.807  1.00  0.00    -0.352 N 
ATOM     44  C   UNL A   1      35.212  31.951  30.688  1.00  0.00     0.251 C 
ATOM     45  H   UNL A   1      33.340  32.406  30.223  1.00  0.00     0.163 HD
ATOM     46  O   UNL A   1      34.996  32.138  31.888  1.00  0.00    -0.269 OA
BRANCH  44  47
ATOM     47  C   UNL A   1      36.441  31.226  30.272  1.00  0.00     0.039 A 
ATOM     48  C   UNL A   1      36.585  29.843  30.313  1.00  0.00     0.014 A 
ATOM     49  C   UNL A   1      37.568  32.013  29.980  1.00  0.00     0.014 A 
ATOM     50  C   UNL A   1      37.843  29.275  30.306  1.00  0.00     0.010 A 
ATOM     51  C   UNL A   1      38.830  31.439  29.890  1.00  0.00     0.010 A 
ATOM     52  C   UNL A   1      38.970  30.081  30.143  1.00  0.00    -0.014 A 
BRANCH  52  53
ATOM     53  C   UNL A   1      40.258  29.401  30.096  1.00  0.00     0.031 A 
ATOM     54  C   UNL A   1      40.807  29.133  31.456  1.00  0.00     0.074 A 
ATOM     55  C   UNL A   1      40.878  29.030  28.958  1.00  0.00     0.049 A 
ATOM     56  N   UNL A   1      41.816  29.710  32.021  1.00  0.00    -0.248 NA
ATOM     57  C   UNL A   1      40.004  28.308  32.375  1.00  0.00     0.031 C 
ATOM     58  C   UNL A   1      40.376  29.061  27.584  1.00  0.00     0.029 A 
ATOM     59  N   UNL A   1      42.113  28.473  28.809  1.00  0.00    -0.354 N 
ATOM     60  C   UNL A   1      41.920  29.143  33.288  1.00  0.00     0.074 A 
ATOM     61  C   UNL A   1      40.687  28.436  33.514  1.00  0.00     0.031 C 
ATOM     62  C   UNL A   1      41.194  28.331  26.787  1.00  0.00     0.029 A 
ATOM     63  C   UNL A   1      42.353  27.913  27.555  1.00  0.00     0.049 A 
ATOM     64  H   UNL A   1      42.784  28.468  29.530  1.00  0.00     0.167 HD
ATOM     65  C   UNL A   1      43.112  29.112  33.943  1.00  0.00     0.037 A 
ATOM     66  C   UNL A   1      43.417  27.140  27.204  1.00  0.00     0.037 A 
ATOM     67  C   UNL A   1      44.026  30.083  33.395  1.00  0.00     0.049 A 
ATOM     68  C   UNL A   1      44.502  27.454  28.174  1.00  0.00     0.074 A 
ATOM     69  C   UNL A   1      44.043  31.461  33.305  1.00  0.00     0.029 A 
ATOM     70  N   UNL A   1      44.951  29.635  32.485  1.00  0.00    -0.354 N 
ATOM     71  N   UNL A   1      45.090  28.618  28.240  1.00  0.00    -0.248 NA
ATOM     72  C   UNL A   1      44.568  26.648  29.385  1.00  0.00     0.031 C 
ATOM     73  C   UNL A   1      44.611  31.739  32.027  1.00  0.00     0.029 A 
ATOM     74  C   UNL A   1      44.977  30.526  31.444  1.00  0.00     0.049 A 
ATOM     75  H   UNL A   1      45.498  28.820  32.566  1.00  0.00     0.167 HD
ATOM     76  C   UNL A   1      45.216  28.874  29.598  1.00  0.00     0.074 A 
ATOM     77  C   UNL A   1      44.916  27.602  30.254  1.00  0.00     0.031 C 
ATOM     78  C   UNL A   1      45.267  30.153  30.077  1.00  0.00     0.037 A 
BRANCH  65  79
ATOM     79  C   UNL A   1      43.589  27.942  34.776  1.00  0.00     0.058 A 
ATOM     80  C   UNL A   1      44.071  28.185  36.080  1.00  0.00     0.135 A 
ATOM     81  C   UNL A   1      43.883  26.665  34.250  1.00  0.00     0.135 A 
ATOM     82  F   UNL A   1      43.843  29.359  36.688  1.00  0.00    -0.206 F 
ATOM     83  C   UNL A   1      44.872  27.269  36.764  1.00  0.00     0.059 A 
ATOM     84  C   UNL A   1      44.639  25.720  34.933  1.00  0.00     0.059 A 
ATOM     85  F   UNL A   1      43.536  26.297  33.011  1.00  0.00    -0.206 F 
ATOM     86  C   UNL A   1      45.166  26.045  36.170  1.00  0.00     0.060 A 
BRANCH  86  87
ATOM     87  S   UNL A   1      46.282  24.906  37.004  1.00  0.00     0.124 S 
ATOM     88  O   UNL A   1      47.053  25.815  37.845  1.00  0.00    -0.237 OA
ATOM     89  O   UNL A   1      45.346  24.028  37.699  1.00  0.00    -0.237 OA
ATOM     90  O   UNL A   1      47.015  24.288  35.904  1.00  0.00    -0.744 OA
ENDBRANCH  86  87
ENDBRANCH  65  79
BRANCH  66  91
ATOM     91  C   UNL A   1      43.407  25.869  26.419  1.00  0.00     0.058 A 
ATOM     92  C   UNL A   1      44.329  25.643  25.376  1.00  0.00     0.135 A 
ATOM     93  C   UNL A   1      42.704  24.735  26.870  1.00  0.00     0.135 A 
ATOM     94  F   UNL A   1      45.060  26.658  24.892  1.00  0.00    -0.206 F 
ATOM     95  C   UNL A   1      44.579  24.364  24.855  1.00  0.00     0.059 A 
ATOM     96  C   UNL A   1      42.933  23.453  26.364  1.00  0.00     0.059 A 
ATOM     97  F   UNL A   1      41.834  24.822  27.887  1.00  0.00    -0.206 F 
ATOM     98  C   UNL A   1      43.892  23.269  25.376  1.00  0.00     0.060 A 
BRANCH  98  99
ATOM     99  S   UNL A   1      44.331  21.596  24.838  1.00  0.00     0.124 S 
ATOM    100  O   UNL A   1      45.599  21.377  25.526  1.00  0.00    -0.237 OA
ATOM    101  O   UNL A   1      43.201  20.810  25.323  1.00  0.00    -0.237 OA
ATOM    102  O   UNL A   1      44.423  21.718  23.386  1.00  0.00    -0.744 OA
ENDBRANCH  98  99
ENDBRANCH  66  91
BRANCH  78 103
ATOM    103  C   UNL A   1      45.449  31.282  29.096  1.00  0.00     0.058 A 
ATOM    104  C   UNL A   1      46.692  31.723  28.601  1.00  0.00     0.135 A 
ATOM    105  C   UNL A   1      44.298  31.821  28.503  1.00  0.00     0.135 A 
ATOM    106  F   UNL A   1      47.839  31.190  29.046  1.00  0.00    -0.206 F 
ATOM    107  C   UNL A   1      46.779  32.678  27.583  1.00  0.00     0.059 A 
ATOM    108  C   UNL A   1      44.361  32.748  27.469  1.00  0.00     0.059 A 
ATOM    109  F   UNL A   1      43.084  31.395  28.889  1.00  0.00    -0.206 F 
ATOM    110  C   UNL A   1      45.606  33.181  27.020  1.00  0.00     0.060 A 
BRANCH 110 111
ATOM    111  S   UNL A   1      45.712  34.363  25.656  1.00  0.00     0.124 S 
ATOM    112  O   UNL A   1      44.831  33.763  24.660  1.00  0.00    -0.237 OA
ATOM    113  O   UNL A   1      45.230  35.597  26.272  1.00  0.00    -0.237 OA
ATOM    114  O   UNL A   1      47.132  34.362  25.312  1.00  0.00    -0.744 OA
ENDBRANCH 110 111
ENDBRANCH  78 103
ENDBRANCH  52  53
ENDBRANCH  44  47
ENDBRANCH  42  43
ENDBRANCH  41  42
ENDBRANCH   1  41
TORSDOF 20
ENDMDL
MODEL 2
REMARK VINA RESULT:     -13.3      1.461      2.707
REMARK SMILES Cc1coc2cc3c(cc12)[C@@H](C)[C@H](CCC(=O)N[C@@H](Cc1c[nH]c2ccccc12)C(=O)NCCCCNC(=O)c1ccc(-c2c4nc(c(-c5c(F)cc(S(=O)(=O)[O-])cc5F)c5ccc([nH]5)c(-c5c(F)cc(S(=O)(=O)[O-])cc5F)c5nc(c(-c6c(F)cc(S(=O)(=O)[O-])cc6F)c6ccc2[nH]6)C=C5)C=C4)cc1)C(=O)O3
REMARK SMILES IDX 34 1 33 2 32 3 30 4 31 5 19 7 18 8 16 9 17 10 15 12 14 13
REMARK SMILES IDX 13 14 1 15 2 16 3 17 10 18 4 19 5 20 9 21 6 22 8 23 7 24
REMARK SMILES IDX 11 25 108 26 12 27 106 28 107 29 20 30 21 31 22 32 29 33
REMARK SMILES IDX 23 34 24 35 28 36 25 38 27 39 26 40 35 41 36 42 37 43 38 44
REMARK SMILES IDX 39 46 40 47 41 48 105 49 42 50 104 51 43 52 44 53 45 54
REMARK SMILES IDX 98 55 46 56 103 57 97 58 99 59 47 60 102 61 96 62 95 63
REMARK SMILES IDX 48 65 82 66 61 67 81 68 62 69 65 70 80 71 100 72 63 73 64 74
REMARK SMILES IDX 79 76 101 77 66 78 49 79 50 80 59 81 51 82 52 83 58 84 60 85
REMARK SMILES IDX 53 86 54 87 55 88 56 89 57 90 83 91 84 92 93 93 85 94 86 95
REMARK SMILES IDX 92 96 94 97 87 98 88 99 89 100 90 101 91 102 67 103 68 104
REMARK SMILES IDX 77 105 69 106 70 107 76 108 78 109 71 110 72 111 73 112
REMARK SMILES IDX 74 113 75 114
REMARK H PARENT 32 6 18 11 23 37 37 45 99 64 65 75
REMARK Flexibility Score: inf
ROOT
ATOM      1  C   UNL A   1      34.241  28.845  25.695  1.00  0.00     0.023 C 
ENDROOT
BRANCH   1   2
ATOM      2  C   UNL A   1      33.227  27.891  25.134  1.00  0.00     0.116 C 
BRANCH   2   3
ATOM      3  N   UNL A   1      32.009  27.691  25.872  1.00  0.00    -0.354 N 
ATOM      4  C   UNL A   1      31.183  26.610  25.710  1.00  0.00     0.242 C 
ATOM      5  O   UNL A   1      30.379  26.328  26.602  1.00  0.00    -0.273 OA
ATOM      6  H   UNL A   1      31.753  28.373  26.534  1.00  0.00     0.163 HD
BRANCH   4   7
ATOM      7  C   UNL A   1      31.298  25.743  24.439  1.00  0.00     0.175 C 
BRANCH   7   8
ATOM      8  N   UNL A   1      31.279  24.307  24.823  1.00  0.00    -0.344 N 
ATOM      9  C   UNL A   1      31.792  23.150  24.320  1.00  0.00     0.220 C 
ATOM     10  O   UNL A   1      31.523  22.106  24.923  1.00  0.00    -0.275 OA
ATOM     11  H   UNL A   1      30.764  24.153  25.648  1.00  0.00     0.164 HD
BRANCH   9  12
ATOM     12  C   UNL A   1      32.626  23.070  23.038  1.00  0.00     0.101 C 
BRANCH  12  13
ATOM     13  C   UNL A   1      34.182  23.085  23.144  1.00  0.00     0.026 C 
BRANCH  13  14
ATOM     14  C   UNL A   1      34.682  22.322  24.364  1.00  0.00     0.107 C 
ATOM     15  C   UNL A   1      41.126  19.645  26.120  1.00  0.00     0.048 C 
ATOM     16  C   UNL A   1      40.451  20.872  26.586  1.00  0.00    -0.005 A 
ATOM     17  C   UNL A   1      40.971  21.850  27.410  1.00  0.00     0.199 A 
ATOM     18  C   UNL A   1      39.177  21.346  26.163  1.00  0.00     0.024 A 
ATOM     19  O   UNL A   1      40.154  22.929  27.452  1.00  0.00    -0.464 OA
ATOM     20  C   UNL A   1      39.107  22.652  26.634  1.00  0.00     0.137 A 
ATOM     21  C   UNL A   1      38.120  20.832  25.372  1.00  0.00     0.020 A 
ATOM     22  C   UNL A   1      38.142  23.557  26.257  1.00  0.00     0.095 A 
ATOM     23  C   UNL A   1      37.094  21.697  24.980  1.00  0.00    -0.001 A 
ATOM     24  C   UNL A   1      37.207  23.056  25.352  1.00  0.00     0.138 A 
ATOM     25  C   UNL A   1      35.797  21.234  24.281  1.00  0.00     0.034 C 
ATOM     26  O   UNL A   1      36.310  23.967  24.849  1.00  0.00    -0.426 OA
ATOM     27  C   UNL A   1      35.253  19.962  24.987  1.00  0.00     0.014 C 
ATOM     28  C   UNL A   1      35.216  23.342  25.308  1.00  0.00     0.314 C 
ATOM     29  O   UNL A   1      34.794  23.491  26.439  1.00  0.00    -0.251 OA
ENDBRANCH  13  14
ENDBRANCH  12  13
ENDBRANCH   9  12
ENDBRANCH   7   8
BRANCH   7  30
ATOM     30  C   UNL A   1      30.409  26.317  23.260  1.00  0.00     0.072 C 
BRANCH  30  31
ATOM     31  C   UNL A   1      29.234  27.322  23.318  1.00  0.00    -0.020 A 
ATOM     32  C   UNL A   1      27.965  26.888  23.696  1.00  0.00     0.087 A 
ATOM     33  C   UNL A   1      29.078  28.775  23.103  1.00  0.00     0.003 A 
ATOM     34  N   UNL A   1      27.082  27.926  23.642  1.00  0.00    -0.361 N 
ATOM     35  C   UNL A   1      27.719  29.077  23.263  1.00  0.00     0.046 A 
ATOM     36  C   UNL A   1      29.888  29.877  22.709  1.00  0.00     0.010 A 
ATOM     37  H   UNL A   1      26.121  27.856  23.845  1.00  0.00     0.166 HD
ATOM     38  C   UNL A   1      27.165  30.348  23.021  1.00  0.00     0.026 A 
ATOM     39  C   UNL A   1      29.368  31.166  22.525  1.00  0.00     0.001 A 
ATOM     40  C   UNL A   1      28.011  31.391  22.652  1.00  0.00     0.002 A 
ENDBRANCH  30  31
ENDBRANCH   7  30
ENDBRANCH   4   7
ENDBRANCH   2   3
ENDBRANCH   1   2
BRANCH   1  41
ATOM     41  C   UNL A   1      33.709  29.645  26.871  1.00  0.00     0.023 C 
BRANCH  41  42
ATOM     42  C   UNL A   1      34.587  30.825  27.318  1.00  0.00     0.116 C 
BRANCH  42  43
ATOM     43  N   UNL A   1      34.201  31.430  28.576  1.00  0.00    -0.352 N 
ATOM     44  C   UNL A   1      34.916  31.827  29.675  1.00  0.00     0.251 C 
ATOM     45  H   UNL A   1      33.233  31.588  28.658  1.00  0.00     0.163 HD
ATOM     46  O   UNL A   1      34.382  32.638  30.435  1.00  0.00    -0.269 OA
BRANCH  44  47
ATOM     47  C   UNL A   1      36.221  31.223  30.052  1.00  0.00     0.039 A 
ATOM     48  C   UNL A   1      37.378  31.953  30.305  1.00  0.00     0.014 A 
ATOM     49  C   UNL A   1      36.310  29.822  29.981  1.00  0.00     0.014 A 
ATOM     50  C   UNL A   1      38.613  31.341  30.247  1.00  0.00     0.010 A 
ATOM     51  C   UNL A   1      37.547  29.188  30.004  1.00  0.00     0.010 A 
ATOM     52  C   UNL A   1      38.698  29.962  30.048  1.00  0.00    -0.014 A 
BRANCH  52  53
ATOM     53  C   UNL A   1      40.036  29.384  30.049  1.00  0.00     0.031 A 
ATOM     54  C   UNL A   1      40.548  29.144  31.429  1.00  0.00     0.074 A 
ATOM     55  C   UNL A   1      40.728  29.073  28.935  1.00  0.00     0.049 A 
ATOM     56  N   UNL A   1      41.485  29.791  32.040  1.00  0.00    -0.248 NA
ATOM     57  C   UNL A   1      39.774  28.249  32.307  1.00  0.00     0.031 C 
ATOM     58  C   UNL A   1      40.281  29.081  27.541  1.00  0.00     0.029 A 
ATOM     59  N   UNL A   1      42.008  28.615  28.833  1.00  0.00    -0.354 N 
ATOM     60  C   UNL A   1      41.581  29.220  33.305  1.00  0.00     0.074 A 
ATOM     61  C   UNL A   1      40.399  28.417  33.475  1.00  0.00     0.031 C 
ATOM     62  C   UNL A   1      41.184  28.425  26.773  1.00  0.00     0.029 A 
ATOM     63  C   UNL A   1      42.341  28.089  27.585  1.00  0.00     0.049 A 
ATOM     64  H   UNL A   1      42.647  28.654  29.581  1.00  0.00     0.167 HD
ATOM     65  C   UNL A   1      42.745  29.273  34.008  1.00  0.00     0.037 A 
ATOM     66  C   UNL A   1      43.475  27.404  27.273  1.00  0.00     0.037 A 
ATOM     67  C   UNL A   1      43.602  30.318  33.505  1.00  0.00     0.049 A 
ATOM     68  C   UNL A   1      44.492  27.790  28.289  1.00  0.00     0.074 A 
ATOM     69  C   UNL A   1      43.517  31.694  33.427  1.00  0.00     0.029 A 
ATOM     70  N   UNL A   1      44.595  29.952  32.632  1.00  0.00    -0.354 N 
ATOM     71  N   UNL A   1      44.985  28.995  28.388  1.00  0.00    -0.248 NA
ATOM     72  C   UNL A   1      44.571  26.979  29.496  1.00  0.00     0.031 C 
ATOM     73  C   UNL A   1      44.112  32.029  32.176  1.00  0.00     0.029 A 
ATOM     74  C   UNL A   1      44.594  30.854  31.599  1.00  0.00     0.049 A 
ATOM     75  H   UNL A   1      45.200  29.181  32.729  1.00  0.00     0.167 HD
ATOM     76  C   UNL A   1      45.035  29.245  29.752  1.00  0.00     0.074 A 
ATOM     77  C   UNL A   1      44.808  27.946  30.385  1.00  0.00     0.031 C 
ATOM     78  C   UNL A   1      44.968  30.519  30.243  1.00  0.00     0.037 A 
BRANCH  65  79
ATOM     79  C   UNL A   1      43.277  28.134  34.851  1.00  0.00     0.058 A 
ATOM     80  C   UNL A   1      43.670  28.397  36.181  1.00  0.00     0.135 A 
ATOM     81  C   UNL A   1      43.705  26.895  34.326  1.00  0.00     0.135 A 
ATOM     82  F   UNL A   1      43.311  29.538  36.790  1.00  0.00    -0.206 F 
ATOM     83  C   UNL A   1      44.509  27.540  36.895  1.00  0.00     0.059 A 
ATOM     84  C   UNL A   1      44.503  26.007  35.037  1.00  0.00     0.059 A 
ATOM     85  F   UNL A   1      43.453  26.520  33.067  1.00  0.00    -0.206 F 
ATOM     86  C   UNL A   1      44.936  26.356  36.303  1.00  0.00     0.060 A 
BRANCH  86  87
ATOM     87  S   UNL A   1      46.102  25.302  37.181  1.00  0.00     0.124 S 
ATOM     88  O   UNL A   1      45.318  24.904  38.344  1.00  0.00    -0.237 OA
ATOM     89  O   UNL A   1      46.359  24.258  36.194  1.00  0.00    -0.237 OA
ATOM     90  O   UNL A   1      47.225  26.194  37.450  1.00  0.00    -0.744 OA
ENDBRANCH  86  87
ENDBRANCH  65  79
BRANCH  66  91
ATOM     91  C   UNL A   1      43.595  26.144  26.478  1.00  0.00     0.058 A 
ATOM     92  C   UNL A   1      44.476  26.050  25.381  1.00  0.00     0.135 A 
ATOM     93  C   UNL A   1      43.084  24.923  26.960  1.00  0.00     0.135 A 
ATOM     94  F   UNL A   1      45.028  27.158  24.864  1.00  0.00    -0.206 F 
ATOM     95  C   UNL A   1      44.869  24.819  24.835  1.00  0.00     0.059 A 
ATOM     96  C   UNL A   1      43.459  23.686  26.430  1.00  0.00     0.059 A 
ATOM     97  F   UNL A   1      42.273  24.887  28.026  1.00  0.00    -0.206 F 
ATOM     98  C   UNL A   1      44.374  23.638  25.385  1.00  0.00     0.060 A 
BRANCH  98  99
ATOM     99  S   UNL A   1      45.008  22.043  24.808  1.00  0.00     0.124 S 
ATOM    100  O   UNL A   1      44.625  22.054  23.400  1.00  0.00    -0.237 OA
ATOM    101  O   UNL A   1      46.438  22.162  25.078  1.00  0.00    -0.237 OA
ATOM    102  O   UNL A   1      44.299  21.073  25.638  1.00  0.00    -0.744 OA
ENDBRANCH  98  99
ENDBRANCH  66  91
BRANCH  78 103
ATOM    103  C   UNL A   1      45.102  31.669  29.278  1.00  0.00     0.058 A 
ATOM    104  C   UNL A   1      46.325  32.184  28.808  1.00  0.00     0.135 A 
ATOM    105  C   UNL A   1      43.931  32.152  28.675  1.00  0.00     0.135 A 
ATOM    106  F   UNL A   1      47.493  31.709  29.263  1.00  0.00    -0.206 F 
ATOM    107  C   UNL A   1      46.375  33.156  27.803  1.00  0.00     0.059 A 
ATOM    108  C   UNL A   1      43.958  33.095  27.654  1.00  0.00     0.059 A 
ATOM    109  F   UNL A   1      42.737  31.656  29.038  1.00  0.00    -0.206 F 
ATOM    110  C   UNL A   1      45.184  33.602  27.229  1.00  0.00     0.060 A 
BRANCH 110 111
ATOM    111  S   UNL A   1      45.244  34.805  25.882  1.00  0.00     0.124 S 
ATOM    112  O   UNL A   1      46.505  34.474  25.229  1.00  0.00    -0.237 OA
ATOM    113  O   UNL A   1      44.034  34.492  25.126  1.00  0.00    -0.237 OA
ATOM    114  O   UNL A   1      45.220  36.093  26.573  1.00  0.00    -0.744 OA
ENDBRANCH 110 111
ENDBRANCH  78 103
ENDBRANCH  52  53
ENDBRANCH  44  47
ENDBRANCH  42  43
ENDBRANCH  41  42
ENDBRANCH   1  41
TORSDOF 20
ENDMDL
MODEL 3
REMARK VINA RESULT:     -12.7      1.451      2.671
REMARK SMILES Cc1coc2cc3c(cc12)[C@@H](C)[C@H](CCC(=O)N[C@@H](Cc1c[nH]c2ccccc12)C(=O)NCCCCNC(=O)c1ccc(-c2c4nc(c(-c5c(F)cc(S(=O)(=O)[O-])cc5F)c5ccc([nH]5)c(-c5c(F)cc(S(=O)(=O)[O-])cc5F)c5nc(c(-c6c(F)cc(S(=O)(=O)[O-])cc6F)c6ccc2[nH]6)C=C5)C=C4)cc1)C(=O)O3
REMARK SMILES IDX 34 1 33 2 32 3 30 4 31 5 19 7 18 8 16 9 17 10 15 12 14 13
REMARK SMILES IDX 13 14 1 15 2 16 3 17 10 18 4 19 5 20 9 21 6 22 8 23 7 24
REMARK SMILES IDX 11 25 108 26 12 27 106 28 107 29 20 30 21 31 22 32 29 33
REMARK SMILES IDX 23 34 24 35 28 36 25 38 27 39 26 40 35 41 36 42 37 43 38 44
REMARK SMILES IDX 39 46 40 47 41 48 105 49 42 50 104 51 43 52 44 53 45 54
REMARK SMILES IDX 98 55 46 56 103 57 97 58 99 59 47 60 102 61 96 62 95 63
REMARK SMILES IDX 48 65 82 66 61 67 81 68 62 69 65 70 80 71 100 72 63 73 64 74
REMARK SMILES IDX 79 76 101 77 66 78 49 79 50 80 59 81 51 82 52 83 58 84 60 85
REMARK SMILES IDX 53 86 54 87 55 88 56 89 57 90 83 91 84 92 93 93 85 94 86 95
REMARK SMILES IDX 92 96 94 97 87 98 88 99 89 100 90 101 91 102 67 103 68 104
REMARK SMILES IDX 77 105 69 106 70 107 76 108 78 109 71 110 72 111 73 112
REMARK SMILES IDX 74 113 75 114
REMARK H PARENT 32 6 18 11 23 37 37 45 99 64 65 75
REMARK Flexibility Score: inf
ROOT
ATOM      1  C   UNL A   1      32.994  29.704  25.876  1.00  0.00     0.023 C 
ENDROOT
BRANCH   1   2
ATOM      2  C   UNL A   1      32.500  28.374  25.385  1.00  0.00     0.116 C 
BRANCH   2   3
ATOM      3  N   UNL A   1      32.954  27.920  24.099  1.00  0.00    -0.354 N 
ATOM      4  C   UNL A   1      32.122  27.466  23.108  1.00  0.00     0.242 C 
ATOM      5  O   UNL A   1      32.529  27.442  21.944  1.00  0.00    -0.273 OA
ATOM      6  H   UNL A   1      33.921  27.935  23.918  1.00  0.00     0.163 HD
BRANCH   4   7
ATOM      7  C   UNL A   1      30.683  27.033  23.457  1.00  0.00     0.175 C 
BRANCH   7   8
ATOM      8  N   UNL A   1      30.621  26.649  24.892  1.00  0.00    -0.344 N 
ATOM      9  C   UNL A   1      30.544  25.484  25.592  1.00  0.00     0.220 C 
ATOM     10  O   UNL A   1      30.475  25.571  26.822  1.00  0.00    -0.275 OA
ATOM     11  H   UNL A   1      30.642  27.435  25.485  1.00  0.00     0.164 HD
BRANCH   9  12
ATOM     12  C   UNL A   1      30.483  24.098  24.945  1.00  0.00     0.101 C 
BRANCH  12  13
ATOM     13  C   UNL A   1      31.609  23.064  25.259  1.00  0.00     0.026 C 
BRANCH  13  14
ATOM     14  C   UNL A   1      32.947  23.471  24.653  1.00  0.00     0.107 C 
ATOM     15  C   UNL A   1      39.621  23.717  27.331  1.00  0.00     0.048 C 
ATOM     16  C   UNL A   1      38.994  22.721  26.439  1.00  0.00    -0.005 A 
ATOM     17  C   UNL A   1      39.542  21.534  25.996  1.00  0.00     0.199 A 
ATOM     18  C   UNL A   1      37.647  22.734  25.976  1.00  0.00     0.024 A 
ATOM     19  O   UNL A   1      38.609  20.775  25.374  1.00  0.00    -0.464 OA
ATOM     20  C   UNL A   1      37.444  21.470  25.433  1.00  0.00     0.137 A 
ATOM     21  C   UNL A   1      36.570  23.651  26.030  1.00  0.00     0.020 A 
ATOM     22  C   UNL A   1      36.212  20.974  25.075  1.00  0.00     0.095 A 
ATOM     23  C   UNL A   1      35.296  23.214  25.652  1.00  0.00    -0.001 A 
ATOM     24  C   UNL A   1      35.153  21.855  25.292  1.00  0.00     0.138 A 
ATOM     25  C   UNL A   1      34.079  24.148  25.485  1.00  0.00     0.034 C 
ATOM     26  O   UNL A   1      33.896  21.347  25.074  1.00  0.00    -0.426 OA
ATOM     27  C   UNL A   1      34.509  25.430  24.720  1.00  0.00     0.014 C 
ATOM     28  C   UNL A   1      33.562  22.225  24.118  1.00  0.00     0.314 C 
ATOM     29  O   UNL A   1      33.866  22.080  22.949  1.00  0.00    -0.251 OA
ENDBRANCH  13  14
ENDBRANCH  12  13
ENDBRANCH   9  12
ENDBRANCH   7   8
BRANCH   7  30
ATOM     30  C   UNL A   1      29.610  27.989  22.789  1.00  0.00     0.072 C 
BRANCH  30  31
ATOM     31  C   UNL A   1      29.438  29.520  22.929  1.00  0.00    -0.020 A 
ATOM     32  C   UNL A   1      29.914  30.172  24.064  1.00  0.00     0.087 A 
ATOM     33  C   UNL A   1      28.891  30.601  22.085  1.00  0.00     0.003 A 
ATOM     34  N   UNL A   1      29.624  31.503  23.993  1.00  0.00    -0.361 N 
ATOM     35  C   UNL A   1      28.983  31.791  22.817  1.00  0.00     0.046 A 
ATOM     36  C   UNL A   1      28.246  30.730  20.822  1.00  0.00     0.010 A 
ATOM     37  H   UNL A   1      29.843  32.163  24.690  1.00  0.00     0.166 HD
ATOM     38  C   UNL A   1      28.454  33.021  22.385  1.00  0.00     0.026 A 
ATOM     39  C   UNL A   1      27.769  31.959  20.343  1.00  0.00     0.001 A 
ATOM     40  C   UNL A   1      27.848  33.089  21.133  1.00  0.00     0.002 A 
ENDBRANCH  30  31
ENDBRANCH   7  30
ENDBRANCH   4   7
ENDBRANCH   2   3
ENDBRANCH   1   2
BRANCH   1  41
ATOM     41  C   UNL A   1      33.819  29.593  27.145  1.00  0.00     0.023 C 
BRANCH  41  42
ATOM     42  C   UNL A   1      34.710  30.805  27.463  1.00  0.00     0.116 C 
BRANCH  42  43
ATOM     43  N   UNL A   1      34.391  31.489  28.699  1.00  0.00    -0.352 N 
ATOM     44  C   UNL A   1      35.155  31.893  29.762  1.00  0.00     0.251 C 
ATOM     45  H   UNL A   1      33.436  31.707  28.795  1.00  0.00     0.163 HD
ATOM     46  O   UNL A   1      34.689  32.768  30.495  1.00  0.00    -0.269 OA
BRANCH  44  47
ATOM     47  C   UNL A   1      36.433  31.232  30.137  1.00  0.00     0.039 A 
ATOM     48  C   UNL A   1      37.629  31.907  30.355  1.00  0.00     0.014 A 
ATOM     49  C   UNL A   1      36.449  29.826  30.101  1.00  0.00     0.014 A 
ATOM     50  C   UNL A   1      38.831  31.230  30.297  1.00  0.00     0.010 A 
ATOM     51  C   UNL A   1      37.652  29.130  30.124  1.00  0.00     0.010 A 
ATOM     52  C   UNL A   1      38.841  29.844  30.133  1.00  0.00    -0.014 A 
BRANCH  52  53
ATOM     53  C   UNL A   1      40.147  29.197  30.132  1.00  0.00     0.031 A 
ATOM     54  C   UNL A   1      40.690  29.013  31.508  1.00  0.00     0.074 A 
ATOM     55  C   UNL A   1      40.788  28.785  29.019  1.00  0.00     0.049 A 
ATOM     56  N   UNL A   1      41.677  29.645  32.051  1.00  0.00    -0.248 NA
ATOM     57  C   UNL A   1      39.900  28.215  32.461  1.00  0.00     0.031 C 
ATOM     58  C   UNL A   1      40.298  28.733  27.641  1.00  0.00     0.029 A 
ATOM     59  N   UNL A   1      42.038  28.255  28.909  1.00  0.00    -0.354 N 
ATOM     60  C   UNL A   1      41.784  29.147  33.346  1.00  0.00     0.074 A 
ATOM     61  C   UNL A   1      40.568  28.419  33.598  1.00  0.00     0.031 C 
ATOM     62  C   UNL A   1      41.142  27.986  26.889  1.00  0.00     0.029 A 
ATOM     63  C   UNL A   1      42.305  27.639  27.687  1.00  0.00     0.049 A 
ATOM     64  H   UNL A   1      42.702  28.304  29.635  1.00  0.00     0.167 HD
ATOM     65  C   UNL A   1      42.971  29.180  34.012  1.00  0.00     0.037 A 
ATOM     66  C   UNL A   1      43.392  26.878  27.385  1.00  0.00     0.037 A 
ATOM     67  C   UNL A   1      43.863  30.146  33.422  1.00  0.00     0.049 A 
ATOM     68  C   UNL A   1      44.459  27.269  28.346  1.00  0.00     0.074 A 
ATOM     69  C   UNL A   1      43.846  31.518  33.262  1.00  0.00     0.029 A 
ATOM     70  N   UNL A   1      44.809  29.678  32.544  1.00  0.00    -0.354 N 
ATOM     71  N   UNL A   1      45.016  28.450  28.358  1.00  0.00    -0.248 NA
ATOM     72  C   UNL A   1      44.534  26.528  29.597  1.00  0.00     0.031 C 
ATOM     73  C   UNL A   1      44.418  31.746  31.976  1.00  0.00     0.029 A 
ATOM     74  C   UNL A   1      44.821  30.515  31.459  1.00  0.00     0.049 A 
ATOM     75  H   UNL A   1      45.376  28.883  32.671  1.00  0.00     0.167 HD
ATOM     76  C   UNL A   1      45.121  28.778  29.701  1.00  0.00     0.074 A 
ATOM     77  C   UNL A   1      44.849  27.533  30.419  1.00  0.00     0.031 C 
ATOM     78  C   UNL A   1      45.134  30.081  30.115  1.00  0.00     0.037 A 
BRANCH  65  79
ATOM     79  C   UNL A   1      43.470  28.067  34.907  1.00  0.00     0.058 A 
ATOM     80  C   UNL A   1      43.888  28.382  36.217  1.00  0.00     0.135 A 
ATOM     81  C   UNL A   1      43.846  26.787  34.442  1.00  0.00     0.135 A 
ATOM     82  F   UNL A   1      43.579  29.566  36.770  1.00  0.00    -0.206 F 
ATOM     83  C   UNL A   1      44.704  27.533  36.966  1.00  0.00     0.059 A 
ATOM     84  C   UNL A   1      44.619  25.908  35.190  1.00  0.00     0.059 A 
ATOM     85  F   UNL A   1      43.566  26.357  33.207  1.00  0.00    -0.206 F 
ATOM     86  C   UNL A   1      45.080  26.305  36.432  1.00  0.00     0.060 A 
BRANCH  86  87
ATOM     87  S   UNL A   1      46.216  25.255  37.352  1.00  0.00     0.124 S 
ATOM     88  O   UNL A   1      46.376  24.128  36.440  1.00  0.00    -0.237 OA
ATOM     89  O   UNL A   1      47.375  26.129  37.500  1.00  0.00    -0.237 OA
ATOM     90  O   UNL A   1      45.490  24.972  38.586  1.00  0.00    -0.744 OA
ENDBRANCH  86  87
ENDBRANCH  65  79
BRANCH  66  91
ATOM     91  C   UNL A   1      43.422  25.568  26.665  1.00  0.00     0.058 A 
ATOM     92  C   UNL A   1      44.098  25.422  25.437  1.00  0.00     0.135 A 
ATOM     93  C   UNL A   1      43.058  24.370  27.309  1.00  0.00     0.135 A 
ATOM     94  F   UNL A   1      44.503  26.506  24.757  1.00  0.00    -0.206 F 
ATOM     95  C   UNL A   1      44.441  24.167  24.910  1.00  0.00     0.059 A 
ATOM     96  C   UNL A   1      43.385  23.110  26.803  1.00  0.00     0.059 A 
ATOM     97  F   UNL A   1      42.450  24.386  28.504  1.00  0.00    -0.206 F 
ATOM     98  C   UNL A   1      44.102  23.015  25.616  1.00  0.00     0.060 A 
BRANCH  98  99
ATOM     99  S   UNL A   1      44.691  21.402  25.039  1.00  0.00     0.124 S 
ATOM    100  O   UNL A   1      43.724  20.491  25.642  1.00  0.00    -0.237 OA
ATOM    101  O   UNL A   1      44.611  21.544  23.589  1.00  0.00    -0.237 OA
ATOM    102  O   UNL A   1      46.045  21.320  25.581  1.00  0.00    -0.744 OA
ENDBRANCH  98  99
ENDBRANCH  66  91
BRANCH  78 103
ATOM    103  C   UNL A   1      45.296  31.163  29.079  1.00  0.00     0.058 A 
ATOM    104  C   UNL A   1      44.240  31.738  28.346  1.00  0.00     0.135 A 
ATOM    105  C   UNL A   1      46.559  31.759  28.954  1.00  0.00     0.135 A 
ATOM    106  F   UNL A   1      42.984  31.289  28.481  1.00  0.00    -0.206 F 
ATOM    107  C   UNL A   1      44.442  32.838  27.507  1.00  0.00     0.059 A 
ATOM    108  C   UNL A   1      46.777  32.872  28.149  1.00  0.00     0.059 A 
ATOM    109  F   UNL A   1      47.594  31.294  29.673  1.00  0.00    -0.206 F 
ATOM    110  C   UNL A   1      45.716  33.401  27.419  1.00  0.00     0.060 A 
BRANCH 110 111
ATOM    111  S   UNL A   1      45.971  34.866  26.391  1.00  0.00     0.124 S 
ATOM    112  O   UNL A   1      46.718  35.743  27.285  1.00  0.00    -0.237 OA
ATOM    113  O   UNL A   1      46.717  34.327  25.257  1.00  0.00    -0.237 OA
ATOM    114  O   UNL A   1      44.612  35.305  26.079  1.00  0.00    -0.744 OA
ENDBRANCH 110 111
ENDBRANCH  78 103
ENDBRANCH  52  53
ENDBRANCH  44  47
ENDBRANCH  42  43
ENDBRANCH  41  42
ENDBRANCH   1  41
TORSDOF 20
ENDMDL
