MODEL 1
REMARK VINA RESULT:     -11.9      0.000      0.000
REMARK SMILES CCC(CC)COc1cc2c(cc1Cl)C=C(C(=O)NCCCCNC(=O)c1ccc(-c3c4nc(c(-c5c(F)cc(S(=O)(=O)[O-])cc5F)c5ccc([nH]5)c(-c5c(F)cc(S(=O)(=O)[O-])cc5F)c5nc(c(-c6c(F)cc(S(=O)(=O)[O-])cc6F)c6ccc3[nH]6)C=C5)C=C4)cc1)[C@@H](C(F)(F)F)O2
REMARK SMILES IDX 21 1 20 2 19 3 17 4 18 5 16 7 8 8 9 9 13 10 10 11 12 12
REMARK SMILES IDX 14 13 11 14 98 15 15 16 93 17 7 18 6 19 3 20 2 21 1 22 4 23
REMARK SMILES IDX 5 24 94 25 95 26 96 27 97 28 22 29 23 30 24 31 25 32 26 34
REMARK SMILES IDX 27 35 28 36 92 37 29 38 91 39 30 40 31 41 32 42 85 43 33 44
REMARK SMILES IDX 90 45 84 46 86 47 34 48 89 49 83 50 82 51 35 53 69 54 48 55
REMARK SMILES IDX 68 56 49 57 52 58 67 59 87 60 50 61 51 62 66 64 88 65 53 66
REMARK SMILES IDX 36 67 37 68 46 69 38 70 39 71 45 72 47 73 40 74 41 75 42 76
REMARK SMILES IDX 43 77 44 78 70 79 71 80 80 81 72 82 73 83 79 84 81 85 74 86
REMARK SMILES IDX 75 87 76 88 77 89 78 90 54 91 55 92 64 93 56 94 57 95 63 96
REMARK SMILES IDX 65 97 58 98 59 99 60 100 61 101 62 102
REMARK H PARENT 19 6 24 33 86 52 52 63
REMARK Flexibility Score: inf
ROOT
ATOM      1  C   UNL A   1      38.417  22.621  26.126  1.00  0.00     0.023 C 
ENDROOT
BRANCH   1   2
ATOM      2  C   UNL A   1      37.895  21.958  24.852  1.00  0.00     0.116 C 
BRANCH   2   3
ATOM      3  N   UNL A   1      36.744  21.114  25.114  1.00  0.00    -0.352 N 
ATOM      4  C   UNL A   1      35.401  21.234  24.997  1.00  0.00     0.251 C 
ATOM      5  O   UNL A   1      34.747  20.224  25.275  1.00  0.00    -0.270 OA
ATOM      6  H   UNL A   1      37.006  20.233  25.466  1.00  0.00     0.163 HD
BRANCH   4   7
ATOM      7  C   UNL A   1      34.686  22.476  24.593  1.00  0.00     0.067 C 
ATOM      8  C   UNL A   1      33.435  27.307  24.149  1.00  0.00     0.141 A 
ATOM      9  C   UNL A   1      33.661  26.289  23.224  1.00  0.00     0.095 A 
ATOM     10  C   UNL A   1      33.423  27.022  25.522  1.00  0.00     0.083 A 
ATOM     11  C   UNL A   1      33.995  25.022  23.686  1.00  0.00     0.131 A 
ATOM     12  C   UNL A   1      33.841  25.770  25.978  1.00  0.00     0.036 A 
ATOM     13  Cl  UNL A   1      32.984  28.215  26.690  1.00  0.00    -0.080 Cl
ATOM     14  C   UNL A   1      34.163  24.777  25.055  1.00  0.00     0.019 A 
ATOM     15  O   UNL A   1      34.175  24.033  22.753  1.00  0.00    -0.475 OA
ATOM     16  C   UNL A   1      34.736  23.500  25.467  1.00  0.00     0.025 C 
ATOM     17  C   UNL A   1      33.978  22.685  23.284  1.00  0.00     0.314 C 
BRANCH   8  18
ATOM     18  O   UNL A   1      33.224  28.587  23.709  1.00  0.00    -0.492 OA
BRANCH  18  19
ATOM     19  C   UNL A   1      31.988  28.720  22.971  1.00  0.00     0.233 C 
BRANCH  19  20
ATOM     20  C   UNL A   1      30.773  28.841  23.923  1.00  0.00     0.026 C 
BRANCH  20  21
ATOM     21  C   UNL A   1      29.819  29.981  23.492  1.00  0.00     0.003 C 
ATOM     22  C   UNL A   1      28.526  29.466  22.874  1.00  0.00     0.004 C 
ENDBRANCH  20  21
BRANCH  20  23
ATOM     23  C   UNL A   1      30.031  27.494  24.068  1.00  0.00     0.003 C 
ATOM     24  C   UNL A   1      30.251  26.501  22.934  1.00  0.00     0.004 C 
ENDBRANCH  20  23
ENDBRANCH  19  20
ENDBRANCH  18  19
ENDBRANCH   8  18
BRANCH  17  25
ATOM     25  C   UNL A   1      32.471  22.347  23.381  1.00  0.00     0.429 C 
ATOM     26  F   UNL A   1      31.748  23.161  22.573  1.00  0.00    -0.167 F 
ATOM     27  F   UNL A   1      32.204  21.076  22.992  1.00  0.00    -0.167 F 
ATOM     28  F   UNL A   1      31.973  22.475  24.631  1.00  0.00    -0.167 F 
ENDBRANCH  17  25
ENDBRANCH   4   7
ENDBRANCH   2   3
ENDBRANCH   1   2
BRANCH   1  29
ATOM     29  C   UNL A   1      39.744  22.055  26.635  1.00  0.00     0.023 C 
BRANCH  29  30
ATOM     30  C   UNL A   1      40.796  23.094  27.011  1.00  0.00     0.116 C 
BRANCH  30  31
ATOM     31  N   UNL A   1      41.045  24.100  25.987  1.00  0.00    -0.352 N 
ATOM     32  C   UNL A   1      41.193  25.462  26.163  1.00  0.00     0.251 C 
ATOM     33  H   UNL A   1      41.116  23.771  25.062  1.00  0.00     0.163 HD
ATOM     34  O   UNL A   1      41.325  26.208  25.207  1.00  0.00    -0.269 OA
BRANCH  32  35
ATOM     35  C   UNL A   1      41.122  25.996  27.541  1.00  0.00     0.039 A 
ATOM     36  C   UNL A   1      39.915  25.969  28.236  1.00  0.00     0.014 A 
ATOM     37  C   UNL A   1      42.239  26.641  28.078  1.00  0.00     0.014 A 
ATOM     38  C   UNL A   1      39.766  26.759  29.368  1.00  0.00     0.010 A 
ATOM     39  C   UNL A   1      42.108  27.365  29.267  1.00  0.00     0.010 A 
ATOM     40  C   UNL A   1      40.852  27.490  29.880  1.00  0.00    -0.014 A 
BRANCH  40  41
ATOM     41  C   UNL A   1      40.620  28.421  31.016  1.00  0.00     0.031 A 
ATOM     42  C   UNL A   1      41.540  28.418  32.211  1.00  0.00     0.074 A 
ATOM     43  C   UNL A   1      39.641  29.341  30.923  1.00  0.00     0.049 A 
ATOM     44  N   UNL A   1      41.537  29.210  33.254  1.00  0.00    -0.248 NA
ATOM     45  C   UNL A   1      42.599  27.396  32.245  1.00  0.00     0.031 C 
ATOM     46  C   UNL A   1      38.696  29.453  29.809  1.00  0.00     0.029 A 
ATOM     47  N   UNL A   1      39.305  30.383  31.748  1.00  0.00    -0.354 N 
ATOM     48  C   UNL A   1      42.574  28.774  34.071  1.00  0.00     0.074 A 
ATOM     49  C   UNL A   1      43.168  27.627  33.420  1.00  0.00     0.031 C 
ATOM     50  C   UNL A   1      37.937  30.545  29.985  1.00  0.00     0.029 A 
ATOM     51  C   UNL A   1      38.300  31.177  31.249  1.00  0.00     0.049 A 
ATOM     52  H   UNL A   1      39.741  30.546  32.616  1.00  0.00     0.167 HD
ATOM     53  C   UNL A   1      43.004  29.291  35.246  1.00  0.00     0.037 A 
ATOM     54  C   UNL A   1      37.731  32.289  31.751  1.00  0.00     0.037 A 
ATOM     55  C   UNL A   1      42.436  30.455  35.875  1.00  0.00     0.049 A 
ATOM     56  C   UNL A   1      38.201  32.821  33.074  1.00  0.00     0.074 A 
ATOM     57  C   UNL A   1      42.825  31.075  37.050  1.00  0.00     0.029 A 
ATOM     58  N   UNL A   1      41.362  31.177  35.379  1.00  0.00    -0.354 N 
ATOM     59  N   UNL A   1      39.183  32.393  33.829  1.00  0.00    -0.248 NA
ATOM     60  C   UNL A   1      37.471  33.972  33.623  1.00  0.00     0.031 C 
ATOM     61  C   UNL A   1      41.963  32.151  37.283  1.00  0.00     0.029 A 
ATOM     62  C   UNL A   1      41.058  32.223  36.236  1.00  0.00     0.049 A 
ATOM     63  H   UNL A   1      40.885  30.979  34.541  1.00  0.00     0.167 HD
ATOM     64  C   UNL A   1      39.186  33.217  34.949  1.00  0.00     0.074 A 
ATOM     65  C   UNL A   1      38.126  34.185  34.758  1.00  0.00     0.031 C 
ATOM     66  C   UNL A   1      39.987  33.166  36.040  1.00  0.00     0.037 A 
BRANCH  53  67
ATOM     67  C   UNL A   1      44.147  28.602  35.940  1.00  0.00     0.058 A 
ATOM     68  C   UNL A   1      45.478  28.994  35.729  1.00  0.00     0.135 A 
ATOM     69  C   UNL A   1      43.905  27.570  36.861  1.00  0.00     0.135 A 
ATOM     70  F   UNL A   1      45.765  29.964  34.845  1.00  0.00    -0.206 F 
ATOM     71  C   UNL A   1      46.532  28.373  36.392  1.00  0.00     0.059 A 
ATOM     72  C   UNL A   1      44.943  26.949  37.551  1.00  0.00     0.059 A 
ATOM     73  F   UNL A   1      42.650  27.157  37.099  1.00  0.00    -0.206 F 
ATOM     74  C   UNL A   1      46.254  27.351  37.300  1.00  0.00     0.060 A 
BRANCH  74  75
ATOM     75  S   UNL A   1      47.634  26.557  38.153  1.00  0.00     0.124 S 
ATOM     76  O   UNL A   1      48.754  27.396  37.735  1.00  0.00    -0.237 OA
ATOM     77  O   UNL A   1      47.245  26.675  39.555  1.00  0.00    -0.237 OA
ATOM     78  O   UNL A   1      47.632  25.200  37.616  1.00  0.00    -0.744 OA
ENDBRANCH  74  75
ENDBRANCH  53  67
BRANCH  54  79
ATOM     79  C   UNL A   1      36.649  32.965  30.991  1.00  0.00     0.058 A 
ATOM     80  C   UNL A   1      35.305  32.797  31.349  1.00  0.00     0.135 A 
ATOM     81  C   UNL A   1      36.942  33.827  29.923  1.00  0.00     0.135 A 
ATOM     82  F   UNL A   1      34.977  31.978  32.359  1.00  0.00    -0.206 F 
ATOM     83  C   UNL A   1      34.286  33.465  30.678  1.00  0.00     0.059 A 
ATOM     84  C   UNL A   1      35.944  34.523  29.251  1.00  0.00     0.059 A 
ATOM     85  F   UNL A   1      38.217  34.029  29.552  1.00  0.00    -0.206 F 
ATOM     86  C   UNL A   1      34.617  34.332  29.634  1.00  0.00     0.060 A 
BRANCH  86  87
ATOM     87  S   UNL A   1      33.294  35.252  28.818  1.00  0.00     0.124 S 
ATOM     88  O   UNL A   1      32.681  34.216  27.997  1.00  0.00    -0.237 OA
ATOM     89  O   UNL A   1      32.503  35.722  29.951  1.00  0.00    -0.237 OA
ATOM     90  O   UNL A   1      34.012  36.295  28.091  1.00  0.00    -0.744 OA
ENDBRANCH  86  87
ENDBRANCH  54  79
BRANCH  66  91
ATOM     91  C   UNL A   1      39.734  34.167  37.129  1.00  0.00     0.058 A 
ATOM     92  C   UNL A   1      38.978  33.827  38.261  1.00  0.00     0.135 A 
ATOM     93  C   UNL A   1      40.312  35.445  37.080  1.00  0.00     0.135 A 
ATOM     94  F   UNL A   1      38.398  32.619  38.347  1.00  0.00    -0.206 F 
ATOM     95  C   UNL A   1      38.799  34.722  39.309  1.00  0.00     0.059 A 
ATOM     96  C   UNL A   1      40.161  36.350  38.127  1.00  0.00     0.059 A 
ATOM     97  F   UNL A   1      41.049  35.815  36.022  1.00  0.00    -0.206 F 
ATOM     98  C   UNL A   1      39.400  35.980  39.236  1.00  0.00     0.060 A 
BRANCH  98  99
ATOM     99  S   UNL A   1      39.209  37.110  40.631  1.00  0.00     0.124 S 
ATOM    100  O   UNL A   1      40.586  37.539  40.853  1.00  0.00    -0.237 OA
ATOM    101  O   UNL A   1      38.309  38.124  40.088  1.00  0.00    -0.237 OA
ATOM    102  O   UNL A   1      38.636  36.267  41.676  1.00  0.00    -0.744 OA
ENDBRANCH  98  99
ENDBRANCH  66  91
ENDBRANCH  40  41
ENDBRANCH  32  35
ENDBRANCH  30  31
ENDBRANCH  29  30
ENDBRANCH   1  29
TORSDOF 20
ENDMDL
MODEL 2
REMARK VINA RESULT:     -11.7      1.272      1.793
REMARK SMILES CCC(CC)COc1cc2c(cc1Cl)C=C(C(=O)NCCCCNC(=O)c1ccc(-c3c4nc(c(-c5c(F)cc(S(=O)(=O)[O-])cc5F)c5ccc([nH]5)c(-c5c(F)cc(S(=O)(=O)[O-])cc5F)c5nc(c(-c6c(F)cc(S(=O)(=O)[O-])cc6F)c6ccc3[nH]6)C=C5)C=C4)cc1)[C@@H](C(F)(F)F)O2
REMARK SMILES IDX 21 1 20 2 19 3 17 4 18 5 16 7 8 8 9 9 13 10 10 11 12 12
REMARK SMILES IDX 14 13 11 14 98 15 15 16 93 17 7 18 6 19 3 20 2 21 1 22 4 23
REMARK SMILES IDX 5 24 94 25 95 26 96 27 97 28 22 29 23 30 24 31 25 32 26 34
REMARK SMILES IDX 27 35 28 36 92 37 29 38 91 39 30 40 31 41 32 42 85 43 33 44
REMARK SMILES IDX 90 45 84 46 86 47 34 48 89 49 83 50 82 51 35 53 69 54 48 55
REMARK SMILES IDX 68 56 49 57 52 58 67 59 87 60 50 61 51 62 66 64 88 65 53 66
REMARK SMILES IDX 36 67 37 68 46 69 38 70 39 71 45 72 47 73 40 74 41 75 42 76
REMARK SMILES IDX 43 77 44 78 70 79 71 80 80 81 72 82 73 83 79 84 81 85 74 86
REMARK SMILES IDX 75 87 76 88 77 89 78 90 54 91 55 92 64 93 56 94 57 95 63 96
REMARK SMILES IDX 65 97 58 98 59 99 60 100 61 101 62 102
REMARK H PARENT 19 6 24 33 86 52 52 63
REMARK Flexibility Score: inf
ROOT
ATOM      1  C   UNL A   1      37.470  22.615  25.722  1.00  0.00     0.023 C 
ENDROOT
BRANCH   1   2
ATOM      2  C   UNL A   1      36.987  21.915  24.453  1.00  0.00     0.116 C 
BRANCH   2   3
ATOM      3  N   UNL A   1      35.952  20.937  24.735  1.00  0.00    -0.352 N 
ATOM      4  C   UNL A   1      34.600  20.934  24.776  1.00  0.00     0.251 C 
ATOM      5  O   UNL A   1      34.073  19.840  25.001  1.00  0.00    -0.270 OA
ATOM      6  H   UNL A   1      36.329  20.054  24.952  1.00  0.00     0.163 HD
BRANCH   4   7
ATOM      7  C   UNL A   1      33.737  22.135  24.597  1.00  0.00     0.067 C 
ATOM      8  C   UNL A   1      31.611  26.200  22.581  1.00  0.00     0.141 A 
ATOM      9  C   UNL A   1      31.098  25.042  23.165  1.00  0.00     0.095 A 
ATOM     10  C   UNL A   1      32.993  26.443  22.595  1.00  0.00     0.083 A 
ATOM     11  C   UNL A   1      31.981  24.083  23.645  1.00  0.00     0.131 A 
ATOM     12  C   UNL A   1      33.873  25.440  23.002  1.00  0.00     0.036 A 
ATOM     13  Cl  UNL A   1      33.654  27.936  22.034  1.00  0.00    -0.080 Cl
ATOM     14  C   UNL A   1      33.365  24.240  23.495  1.00  0.00     0.019 A 
ATOM     15  O   UNL A   1      31.446  22.973  24.247  1.00  0.00    -0.475 OA
ATOM     16  C   UNL A   1      34.230  23.106  23.804  1.00  0.00     0.025 C 
ATOM     17  C   UNL A   1      32.362  22.312  25.176  1.00  0.00     0.314 C 
BRANCH   8  18
ATOM     18  O   UNL A   1      30.759  27.098  21.996  1.00  0.00    -0.492 OA
BRANCH  18  19
ATOM     19  C   UNL A   1      29.900  27.750  22.958  1.00  0.00     0.233 C 
BRANCH  19  20
ATOM     20  C   UNL A   1      30.332  29.218  23.195  1.00  0.00     0.026 C 
BRANCH  20  21
ATOM     21  C   UNL A   1      29.124  30.185  23.154  1.00  0.00     0.003 C 
ATOM     22  C   UNL A   1      27.830  29.496  22.746  1.00  0.00     0.004 C 
ENDBRANCH  20  21
BRANCH  20  23
ATOM     23  C   UNL A   1      31.141  29.366  24.503  1.00  0.00     0.003 C 
ATOM     24  C   UNL A   1      31.176  28.130  25.393  1.00  0.00     0.004 C 
ENDBRANCH  20  23
ENDBRANCH  19  20
ENDBRANCH  18  19
ENDBRANCH   8  18
BRANCH  17  25
ATOM     25  C   UNL A   1      32.397  23.055  26.533  1.00  0.00     0.429 C 
ATOM     26  F   UNL A   1      33.604  23.643  26.721  1.00  0.00    -0.167 F 
ATOM     27  F   UNL A   1      31.469  24.039  26.604  1.00  0.00    -0.167 F 
ATOM     28  F   UNL A   1      32.176  22.245  27.593  1.00  0.00    -0.167 F 
ENDBRANCH  17  25
ENDBRANCH   4   7
ENDBRANCH   2   3
ENDBRANCH   1   2
BRANCH   1  29
ATOM     29  C   UNL A   1      38.902  22.265  26.131  1.00  0.00     0.023 C 
BRANCH  29  30
ATOM     30  C   UNL A   1      39.654  23.362  26.879  1.00  0.00     0.116 C 
BRANCH  30  31
ATOM     31  N   UNL A   1      40.963  23.682  26.326  1.00  0.00    -0.352 N 
ATOM     32  C   UNL A   1      41.700  24.836  26.518  1.00  0.00     0.251 C 
ATOM     33  H   UNL A   1      41.371  22.997  25.749  1.00  0.00     0.163 HD
ATOM     34  O   UNL A   1      42.756  25.010  25.934  1.00  0.00    -0.269 OA
BRANCH  32  35
ATOM     35  C   UNL A   1      41.136  25.879  27.402  1.00  0.00     0.039 A 
ATOM     36  C   UNL A   1      41.706  27.151  27.429  1.00  0.00     0.014 A 
ATOM     37  C   UNL A   1      40.121  25.535  28.298  1.00  0.00     0.014 A 
ATOM     38  C   UNL A   1      41.406  28.007  28.480  1.00  0.00     0.010 A 
ATOM     39  C   UNL A   1      39.759  26.435  29.304  1.00  0.00     0.010 A 
ATOM     40  C   UNL A   1      40.451  27.647  29.447  1.00  0.00    -0.014 A 
BRANCH  40  41
ATOM     41  C   UNL A   1      40.251  28.534  30.624  1.00  0.00     0.031 A 
ATOM     42  C   UNL A   1      41.188  28.465  31.804  1.00  0.00     0.074 A 
ATOM     43  C   UNL A   1      39.289  29.476  30.582  1.00  0.00     0.049 A 
ATOM     44  N   UNL A   1      41.214  29.213  32.879  1.00  0.00    -0.248 NA
ATOM     45  C   UNL A   1      42.228  27.424  31.780  1.00  0.00     0.031 C 
ATOM     46  C   UNL A   1      38.331  29.650  29.488  1.00  0.00     0.029 A 
ATOM     47  N   UNL A   1      38.984  30.488  31.455  1.00  0.00    -0.354 N 
ATOM     48  C   UNL A   1      42.254  28.724  33.661  1.00  0.00     0.074 A 
ATOM     49  C   UNL A   1      42.817  27.595  32.955  1.00  0.00     0.031 C 
ATOM     50  C   UNL A   1      37.595  30.748  29.720  1.00  0.00     0.029 A 
ATOM     51  C   UNL A   1      37.987  31.320  31.004  1.00  0.00     0.049 A 
ATOM     52  H   UNL A   1      39.435  30.607  32.323  1.00  0.00     0.167 HD
ATOM     53  C   UNL A   1      42.710  29.185  34.851  1.00  0.00     0.037 A 
ATOM     54  C   UNL A   1      37.445  32.420  31.560  1.00  0.00     0.037 A 
ATOM     55  C   UNL A   1      42.172  30.331  35.536  1.00  0.00     0.049 A 
ATOM     56  C   UNL A   1      37.944  32.888  32.897  1.00  0.00     0.074 A 
ATOM     57  C   UNL A   1      42.589  30.894  36.730  1.00  0.00     0.029 A 
ATOM     58  N   UNL A   1      41.104  31.093  35.085  1.00  0.00    -0.354 N 
ATOM     59  N   UNL A   1      38.928  32.411  33.619  1.00  0.00    -0.248 NA
ATOM     60  C   UNL A   1      37.243  34.028  33.504  1.00  0.00     0.031 C 
ATOM     61  C   UNL A   1      41.751  31.975  37.019  1.00  0.00     0.029 A 
ATOM     62  C   UNL A   1      40.832  32.106  35.990  1.00  0.00     0.049 A 
ATOM     63  H   UNL A   1      40.613  30.938  34.247  1.00  0.00     0.167 HD
ATOM     64  C   UNL A   1      38.961  33.187  34.772  1.00  0.00     0.074 A 
ATOM     65  C   UNL A   1      37.917  34.182  34.637  1.00  0.00     0.031 C 
ATOM     66  C   UNL A   1      39.777  33.076  35.849  1.00  0.00     0.037 A 
BRANCH  53  67
ATOM     67  C   UNL A   1      43.849  28.446  35.498  1.00  0.00     0.058 A 
ATOM     68  C   UNL A   1      43.624  27.410  36.418  1.00  0.00     0.135 A 
ATOM     69  C   UNL A   1      45.178  28.745  35.159  1.00  0.00     0.135 A 
ATOM     70  F   UNL A   1      42.373  27.095  36.790  1.00  0.00    -0.206 F 
ATOM     71  C   UNL A   1      44.679  26.709  36.995  1.00  0.00     0.059 A 
ATOM     72  C   UNL A   1      46.248  28.044  35.708  1.00  0.00     0.059 A 
ATOM     73  F   UNL A   1      45.447  29.728  34.284  1.00  0.00    -0.206 F 
ATOM     74  C   UNL A   1      45.988  27.035  36.634  1.00  0.00     0.060 A 
BRANCH  74  75
ATOM     75  S   UNL A   1      47.344  26.114  37.392  1.00  0.00     0.124 S 
ATOM     76  O   UNL A   1      48.496  26.924  37.005  1.00  0.00    -0.237 OA
ATOM     77  O   UNL A   1      46.993  26.151  38.808  1.00  0.00    -0.237 OA
ATOM     78  O   UNL A   1      47.260  24.801  36.761  1.00  0.00    -0.744 OA
ENDBRANCH  74  75
ENDBRANCH  53  67
BRANCH  54  79
ATOM     79  C   UNL A   1      36.366  33.147  30.844  1.00  0.00     0.058 A 
ATOM     80  C   UNL A   1      35.039  33.083  31.289  1.00  0.00     0.135 A 
ATOM     81  C   UNL A   1      36.649  33.954  29.732  1.00  0.00     0.135 A 
ATOM     82  F   UNL A   1      34.720  32.319  32.344  1.00  0.00    -0.206 F 
ATOM     83  C   UNL A   1      34.027  33.800  30.658  1.00  0.00     0.059 A 
ATOM     84  C   UNL A   1      35.659  34.697  29.099  1.00  0.00     0.059 A 
ATOM     85  F   UNL A   1      37.908  34.056  29.277  1.00  0.00    -0.206 F 
ATOM     86  C   UNL A   1      34.350  34.611  29.568  1.00  0.00     0.060 A 
BRANCH  86  87
ATOM     87  S   UNL A   1      33.043  35.595  28.803  1.00  0.00     0.124 S 
ATOM     88  O   UNL A   1      32.354  34.594  27.999  1.00  0.00    -0.237 OA
ATOM     89  O   UNL A   1      32.315  36.094  29.965  1.00  0.00    -0.237 OA
ATOM     90  O   UNL A   1      33.783  36.608  28.056  1.00  0.00    -0.744 OA
ENDBRANCH  86  87
ENDBRANCH  54  79
BRANCH  66  91
ATOM     91  C   UNL A   1      39.557  34.035  36.982  1.00  0.00     0.058 A 
ATOM     92  C   UNL A   1      38.756  33.685  38.079  1.00  0.00     0.135 A 
ATOM     93  C   UNL A   1      40.210  35.277  37.010  1.00  0.00     0.135 A 
ATOM     94  F   UNL A   1      38.103  32.512  38.091  1.00  0.00    -0.206 F 
ATOM     95  C   UNL A   1      38.605  34.537  39.167  1.00  0.00     0.059 A 
ATOM     96  C   UNL A   1      40.089  36.137  38.099  1.00  0.00     0.059 A 
ATOM     97  F   UNL A   1      40.993  35.654  35.988  1.00  0.00    -0.206 F 
ATOM     98  C   UNL A   1      39.281  35.758  39.171  1.00  0.00     0.060 A 
BRANCH  98  99
ATOM     99  S   UNL A   1      39.123  36.827  40.617  1.00  0.00     0.124 S 
ATOM    100  O   UNL A   1      38.392  37.963  40.065  1.00  0.00    -0.237 OA
ATOM    101  O   UNL A   1      38.377  35.985  41.547  1.00  0.00    -0.237 OA
ATOM    102  O   UNL A   1      40.507  37.094  40.996  1.00  0.00    -0.744 OA
ENDBRANCH  98  99
ENDBRANCH  66  91
ENDBRANCH  40  41
ENDBRANCH  32  35
ENDBRANCH  30  31
ENDBRANCH  29  30
ENDBRANCH   1  29
TORSDOF 20
ENDMDL
MODEL 3
REMARK VINA RESULT:     -11.7      4.914      6.076
REMARK SMILES CCC(CC)COc1cc2c(cc1Cl)C=C(C(=O)NCCCCNC(=O)c1ccc(-c3c4nc(c(-c5c(F)cc(S(=O)(=O)[O-])cc5F)c5ccc([nH]5)c(-c5c(F)cc(S(=O)(=O)[O-])cc5F)c5nc(c(-c6c(F)cc(S(=O)(=O)[O-])cc6F)c6ccc3[nH]6)C=C5)C=C4)cc1)[C@@H](C(F)(F)F)O2
REMARK SMILES IDX 21 1 20 2 19 3 17 4 18 5 16 7 8 8 9 9 13 10 10 11 12 12
REMARK SMILES IDX 14 13 11 14 98 15 15 16 93 17 7 18 6 19 3 20 2 21 1 22 4 23
REMARK SMILES IDX 5 24 94 25 95 26 96 27 97 28 22 29 23 30 24 31 25 32 26 34
REMARK SMILES IDX 27 35 28 36 92 37 29 38 91 39 30 40 31 41 32 42 85 43 33 44
REMARK SMILES IDX 90 45 84 46 86 47 34 48 89 49 83 50 82 51 35 53 69 54 48 55
REMARK SMILES IDX 68 56 49 57 52 58 67 59 87 60 50 61 51 62 66 64 88 65 53 66
REMARK SMILES IDX 36 67 37 68 46 69 38 70 39 71 45 72 47 73 40 74 41 75 42 76
REMARK SMILES IDX 43 77 44 78 70 79 71 80 80 81 72 82 73 83 79 84 81 85 74 86
REMARK SMILES IDX 75 87 76 88 77 89 78 90 54 91 55 92 64 93 56 94 57 95 63 96
REMARK SMILES IDX 65 97 58 98 59 99 60 100 61 101 62 102
REMARK H PARENT 19 6 24 33 86 52 52 63
REMARK Flexibility Score: inf
ROOT
ATOM      1  C   UNL A   1      35.447  21.532  25.848  1.00  0.00     0.023 C 
ENDROOT
BRANCH   1   2
ATOM      2  C   UNL A   1      33.990  21.149  26.100  1.00  0.00     0.116 C 
BRANCH   2   3
ATOM      3  N   UNL A   1      33.303  20.797  24.871  1.00  0.00    -0.352 N 
ATOM      4  C   UNL A   1      32.581  21.457  23.935  1.00  0.00     0.251 C 
ATOM      5  O   UNL A   1      32.211  20.780  22.971  1.00  0.00    -0.270 OA
ATOM      6  H   UNL A   1      33.381  19.837  24.667  1.00  0.00     0.163 HD
BRANCH   4   7
ATOM      7  C   UNL A   1      32.198  22.894  24.008  1.00  0.00     0.067 C 
ATOM      8  C   UNL A   1      31.720  27.747  22.858  1.00  0.00     0.141 A 
ATOM      9  C   UNL A   1      30.808  26.754  23.214  1.00  0.00     0.095 A 
ATOM     10  C   UNL A   1      33.097  27.485  22.895  1.00  0.00     0.083 A 
ATOM     11  C   UNL A   1      31.278  25.475  23.483  1.00  0.00     0.131 A 
ATOM     12  C   UNL A   1      33.554  26.179  23.084  1.00  0.00     0.036 A 
ATOM     13  Cl  UNL A   1      34.263  28.729  22.624  1.00  0.00    -0.080 Cl
ATOM     14  C   UNL A   1      32.636  25.163  23.343  1.00  0.00     0.019 A 
ATOM     15  O   UNL A   1      30.361  24.530  23.866  1.00  0.00    -0.475 OA
ATOM     16  C   UNL A   1      33.038  23.762  23.411  1.00  0.00     0.025 C 
ATOM     17  C   UNL A   1      30.941  23.429  24.634  1.00  0.00     0.314 C 
BRANCH   8  18
ATOM     18  O   UNL A   1      31.263  28.979  22.473  1.00  0.00    -0.492 OA
BRANCH  18  19
ATOM     19  C   UNL A   1      30.336  29.546  23.426  1.00  0.00     0.233 C 
BRANCH  19  20
ATOM     20  C   UNL A   1      29.126  30.201  22.715  1.00  0.00     0.026 C 
BRANCH  20  21
ATOM     21  C   UNL A   1      28.096  29.146  22.246  1.00  0.00     0.003 C 
ATOM     22  C   UNL A   1      27.045  28.836  23.303  1.00  0.00     0.004 C 
ENDBRANCH  20  21
BRANCH  20  23
ATOM     23  C   UNL A   1      28.473  31.289  23.596  1.00  0.00     0.003 C 
ATOM     24  C   UNL A   1      28.706  32.725  23.144  1.00  0.00     0.004 C 
ENDBRANCH  20  23
ENDBRANCH  19  20
ENDBRANCH  18  19
ENDBRANCH   8  18
BRANCH  17  25
ATOM     25  C   UNL A   1      31.160  23.842  26.109  1.00  0.00     0.429 C 
ATOM     26  F   UNL A   1      30.564  25.033  26.362  1.00  0.00    -0.167 F 
ATOM     27  F   UNL A   1      30.628  22.948  26.977  1.00  0.00    -0.167 F 
ATOM     28  F   UNL A   1      32.465  23.967  26.442  1.00  0.00    -0.167 F 
ENDBRANCH  17  25
ENDBRANCH   4   7
ENDBRANCH   2   3
ENDBRANCH   1   2
BRANCH   1  29
ATOM     29  C   UNL A   1      35.707  23.039  25.812  1.00  0.00     0.023 C 
BRANCH  29  30
ATOM     30  C   UNL A   1      37.068  23.454  25.259  1.00  0.00     0.116 C 
BRANCH  30  31
ATOM     31  N   UNL A   1      38.153  22.535  25.573  1.00  0.00    -0.352 N 
ATOM     32  C   UNL A   1      39.324  22.815  26.252  1.00  0.00     0.251 C 
ATOM     33  H   UNL A   1      38.040  21.606  25.268  1.00  0.00     0.163 HD
ATOM     34  O   UNL A   1      40.190  21.968  26.386  1.00  0.00    -0.269 OA
BRANCH  32  35
ATOM     35  C   UNL A   1      39.522  24.193  26.755  1.00  0.00     0.039 A 
ATOM     36  C   UNL A   1      40.079  25.163  25.924  1.00  0.00     0.014 A 
ATOM     37  C   UNL A   1      39.268  24.468  28.101  1.00  0.00     0.014 A 
ATOM     38  C   UNL A   1      40.572  26.334  26.485  1.00  0.00     0.010 A 
ATOM     39  C   UNL A   1      39.688  25.686  28.643  1.00  0.00     0.010 A 
ATOM     40  C   UNL A   1      40.408  26.597  27.856  1.00  0.00    -0.014 A 
BRANCH  40  41
ATOM     41  C   UNL A   1      41.059  27.799  28.439  1.00  0.00     0.031 A 
ATOM     42  C   UNL A   1      42.547  28.007  28.305  1.00  0.00     0.074 A 
ATOM     43  C   UNL A   1      40.293  28.756  28.998  1.00  0.00     0.049 A 
ATOM     44  N   UNL A   1      43.272  29.032  28.681  1.00  0.00    -0.248 NA
ATOM     45  C   UNL A   1      43.325  26.931  27.671  1.00  0.00     0.031 C 
ATOM     46  C   UNL A   1      38.841  28.675  29.171  1.00  0.00     0.029 A 
ATOM     47  N   UNL A   1      40.616  29.998  29.481  1.00  0.00    -0.354 N 
ATOM     48  C   UNL A   1      44.584  28.717  28.347  1.00  0.00     0.074 A 
ATOM     49  C   UNL A   1      44.564  27.393  27.765  1.00  0.00     0.031 C 
ATOM     50  C   UNL A   1      38.390  29.844  29.652  1.00  0.00     0.029 A 
ATOM     51  C   UNL A   1      39.525  30.734  29.877  1.00  0.00     0.049 A 
ATOM     52  H   UNL A   1      41.541  30.330  29.540  1.00  0.00     0.167 HD
ATOM     53  C   UNL A   1      45.701  29.468  28.494  1.00  0.00     0.037 A 
ATOM     54  C   UNL A   1      39.443  31.985  30.368  1.00  0.00     0.037 A 
ATOM     55  C   UNL A   1      45.715  30.800  29.040  1.00  0.00     0.049 A 
ATOM     56  C   UNL A   1      40.701  32.783  30.556  1.00  0.00     0.074 A 
ATOM     57  C   UNL A   1      46.794  31.654  29.199  1.00  0.00     0.029 A 
ATOM     58  N   UNL A   1      44.599  31.474  29.510  1.00  0.00    -0.354 N 
ATOM     59  N   UNL A   1      41.930  32.466  30.233  1.00  0.00    -0.248 NA
ATOM     60  C   UNL A   1      40.562  34.099  31.196  1.00  0.00     0.031 C 
ATOM     61  C   UNL A   1      46.334  32.831  29.797  1.00  0.00     0.029 A 
ATOM     62  C   UNL A   1      44.965  32.724  29.982  1.00  0.00     0.049 A 
ATOM     63  H   UNL A   1      43.681  31.119  29.508  1.00  0.00     0.167 HD
ATOM     64  C   UNL A   1      42.717  33.539  30.638  1.00  0.00     0.074 A 
ATOM     65  C   UNL A   1      41.819  34.526  31.203  1.00  0.00     0.031 C 
ATOM     66  C   UNL A   1      44.061  33.686  30.558  1.00  0.00     0.037 A 
BRANCH  53  67
ATOM     67  C   UNL A   1      47.012  28.868  28.063  1.00  0.00     0.058 A 
ATOM     68  C   UNL A   1      47.487  29.010  26.751  1.00  0.00     0.135 A 
ATOM     69  C   UNL A   1      47.822  28.186  28.985  1.00  0.00     0.135 A 
ATOM     70  F   UNL A   1      46.744  29.638  25.826  1.00  0.00    -0.206 F 
ATOM     71  C   UNL A   1      48.713  28.477  26.361  1.00  0.00     0.059 A 
ATOM     72  C   UNL A   1      49.060  27.663  28.622  1.00  0.00     0.059 A 
ATOM     73  F   UNL A   1      47.412  28.022  30.253  1.00  0.00    -0.206 F 
ATOM     74  C   UNL A   1      49.491  27.805  27.305  1.00  0.00     0.060 A 
BRANCH  74  75
ATOM     75  S   UNL A   1      51.079  27.121  26.781  1.00  0.00     0.124 S 
ATOM     76  O   UNL A   1      50.924  25.716  27.146  1.00  0.00    -0.237 OA
ATOM     77  O   UNL A   1      51.084  27.405  25.349  1.00  0.00    -0.237 OA
ATOM     78  O   UNL A   1      52.050  27.872  27.570  1.00  0.00    -0.744 OA
ENDBRANCH  74  75
ENDBRANCH  53  67
BRANCH  54  79
ATOM     79  C   UNL A   1      38.115  32.550  30.716  1.00  0.00     0.058 A 
ATOM     80  C   UNL A   1      37.587  32.404  32.007  1.00  0.00     0.135 A 
ATOM     81  C   UNL A   1      37.370  33.284  29.780  1.00  0.00     0.135 A 
ATOM     82  F   UNL A   1      38.260  31.706  32.932  1.00  0.00    -0.206 F 
ATOM     83  C   UNL A   1      36.367  32.973  32.360  1.00  0.00     0.059 A 
ATOM     84  C   UNL A   1      36.160  33.879  30.116  1.00  0.00     0.059 A 
ATOM     85  F   UNL A   1      37.841  33.459  28.535  1.00  0.00    -0.206 F 
ATOM     86  C   UNL A   1      35.665  33.715  31.409  1.00  0.00     0.060 A 
BRANCH  86  87
ATOM     87  S   UNL A   1      34.119  34.511  31.898  1.00  0.00     0.124 S 
ATOM     88  O   UNL A   1      34.604  35.744  32.506  1.00  0.00    -0.237 OA
ATOM     89  O   UNL A   1      33.431  34.656  30.619  1.00  0.00    -0.237 OA
ATOM     90  O   UNL A   1      33.522  33.545  32.815  1.00  0.00    -0.744 OA
ENDBRANCH  86  87
ENDBRANCH  54  79
BRANCH  66  91
ATOM     91  C   UNL A   1      44.652  34.947  31.119  1.00  0.00     0.058 A 
ATOM     92  C   UNL A   1      45.122  34.998  32.440  1.00  0.00     0.135 A 
ATOM     93  C   UNL A   1      44.819  36.084  30.314  1.00  0.00     0.135 A 
ATOM     94  F   UNL A   1      44.974  33.938  33.251  1.00  0.00    -0.206 F 
ATOM     95  C   UNL A   1      45.737  36.137  32.947  1.00  0.00     0.059 A 
ATOM     96  C   UNL A   1      45.450  37.228  30.795  1.00  0.00     0.059 A 
ATOM     97  F   UNL A   1      44.392  36.081  29.042  1.00  0.00    -0.206 F 
ATOM     98  C   UNL A   1      45.902  37.245  32.114  1.00  0.00     0.060 A 
BRANCH  98  99
ATOM     99  S   UNL A   1      46.756  38.695  32.768  1.00  0.00     0.124 S 
ATOM    100  O   UNL A   1      47.889  38.806  31.855  1.00  0.00    -0.237 OA
ATOM    101  O   UNL A   1      45.740  39.736  32.645  1.00  0.00    -0.237 OA
ATOM    102  O   UNL A   1      47.087  38.309  34.135  1.00  0.00    -0.744 OA
ENDBRANCH  98  99
ENDBRANCH  66  91
ENDBRANCH  40  41
ENDBRANCH  32  35
ENDBRANCH  30  31
ENDBRANCH  29  30
ENDBRANCH   1  29
TORSDOF 20
ENDMDL
