MODEL 1
REMARK VINA RESULT:     -11.5      0.000      0.000
REMARK SMILES CC(C)[C@H](NC(=O)[C@H](C)NC(=O)CNC(=O)OCc1ccccc1)C(=O)NCCCCNC(=O)c1ccc(-c2c3nc(c(-c4c(F)cc(S(=O)(=O)[O-])cc4F)c4ccc([nH]4)c(-c4c(F)cc(S(=O)(=O)[O-])cc4F)c4nc(c(-c5c(F)cc(S(=O)(=O)[O-])cc5F)c5ccc2[nH]5)C=C4)C=C3)cc1
REMARK SMILES IDX 25 1 26 2 27 3 4 5 2 6 1 7 3 8 5 9 6 10 7 12 8 13 9 14 10 15
REMARK SMILES IDX 11 16 12 18 13 19 14 20 15 21 16 23 17 24 18 25 19 26 20 27
REMARK SMILES IDX 24 28 21 29 23 30 22 31 28 32 29 33 30 34 31 35 32 36 33 37
REMARK SMILES IDX 34 39 35 40 36 41 100 42 37 43 99 44 38 45 39 46 40 47 93 48
REMARK SMILES IDX 41 49 98 50 92 51 94 52 42 53 97 54 91 55 90 56 43 58 77 59
REMARK SMILES IDX 56 60 76 61 57 62 60 63 75 64 95 65 58 66 59 67 74 69 96 70
REMARK SMILES IDX 61 71 44 72 45 73 54 74 46 75 47 76 53 77 55 78 48 79 49 80
REMARK SMILES IDX 50 81 51 82 52 83 78 84 79 85 88 86 80 87 81 88 87 89 89 90
REMARK SMILES IDX 82 91 83 92 84 93 85 94 86 95 62 96 63 97 72 98 64 99 65 100
REMARK SMILES IDX 71 101 73 102 66 103 67 104 68 105 69 106 70 107
REMARK H PARENT 27 4 5 11 10 17 14 22 32 38 94 57 60 68
REMARK Flexibility Score: inf
ROOT
ATOM      1  C   UNL A   1      35.226  21.647  25.568  1.00  0.00     0.242 C 
ATOM      2  O   UNL A   1      35.322  20.430  25.375  1.00  0.00    -0.273 OA
ATOM      3  N   UNL A   1      36.353  22.303  25.945  1.00  0.00    -0.354 N 
ATOM      4  H   UNL A   1      37.078  21.726  26.276  1.00  0.00     0.163 HD
ENDROOT
BRANCH   1   5
ATOM      5  C   UNL A   1      33.891  22.373  25.274  1.00  0.00     0.173 C 
BRANCH   5   6
ATOM      6  C   UNL A   1      33.009  22.583  26.551  1.00  0.00     0.015 C 
ATOM      7  C   UNL A   1      33.630  22.188  27.896  1.00  0.00     0.010 C 
ATOM      8  C   UNL A   1      32.450  24.009  26.674  1.00  0.00     0.010 C 
ENDBRANCH   5   6
BRANCH   5   9
ATOM      9  N   UNL A   1      33.175  21.787  24.136  1.00  0.00    -0.342 N 
ATOM     10  C   UNL A   1      32.365  22.291  23.176  1.00  0.00     0.242 C 
ATOM     11  H   UNL A   1      33.315  20.816  24.051  1.00  0.00     0.164 HD
ATOM     12  O   UNL A   1      31.949  21.451  22.365  1.00  0.00    -0.273 OA
BRANCH  10  13
ATOM     13  C   UNL A   1      31.849  23.747  23.071  1.00  0.00     0.168 C 
ATOM     14  C   UNL A   1      30.378  24.055  23.251  1.00  0.00     0.041 C 
BRANCH  13  15
ATOM     15  N   UNL A   1      32.334  24.302  21.805  1.00  0.00    -0.343 N 
ATOM     16  C   UNL A   1      32.687  25.588  21.509  1.00  0.00     0.240 C 
ATOM     17  H   UNL A   1      32.418  23.659  21.064  1.00  0.00     0.164 HD
ATOM     18  O   UNL A   1      33.198  25.810  20.408  1.00  0.00    -0.273 OA
BRANCH  16  19
ATOM     19  C   UNL A   1      32.506  26.712  22.542  1.00  0.00     0.219 C 
BRANCH  19  20
ATOM     20  N   UNL A   1      31.799  27.835  21.956  1.00  0.00    -0.312 N 
ATOM     21  C   UNL A   1      30.774  28.534  22.515  1.00  0.00     0.407 C 
ATOM     22  H   UNL A   1      32.092  28.121  21.060  1.00  0.00     0.167 HD
ATOM     23  O   UNL A   1      30.034  29.208  21.812  1.00  0.00    -0.225 OA
BRANCH  21  24
ATOM     24  O   UNL A   1      30.653  28.348  23.849  1.00  0.00    -0.445 OA
BRANCH  24  25
ATOM     25  C   UNL A   1      30.934  29.493  24.671  1.00  0.00     0.270 C 
BRANCH  25  26
ATOM     26  C   UNL A   1      32.097  29.318  25.624  1.00  0.00    -0.011 A 
ATOM     27  C   UNL A   1      32.653  30.435  26.267  1.00  0.00     0.007 A 
ATOM     28  C   UNL A   1      32.723  28.075  25.796  1.00  0.00     0.007 A 
ATOM     29  C   UNL A   1      33.799  30.309  27.058  1.00  0.00     0.000 A 
ATOM     30  C   UNL A   1      33.865  27.948  26.589  1.00  0.00     0.000 A 
ATOM     31  C   UNL A   1      34.405  29.066  27.217  1.00  0.00     0.000 A 
ENDBRANCH  25  26
ENDBRANCH  24  25
ENDBRANCH  21  24
ENDBRANCH  19  20
ENDBRANCH  16  19
ENDBRANCH  13  15
ENDBRANCH  10  13
ENDBRANCH   5   9
ENDBRANCH   1   5
BRANCH   3  32
ATOM     32  C   UNL A   1      36.655  23.717  25.939  1.00  0.00     0.116 C 
BRANCH  32  33
ATOM     33  C   UNL A   1      38.061  24.033  26.431  1.00  0.00     0.023 C 
BRANCH  33  34
ATOM     34  C   UNL A   1      39.072  22.895  26.310  1.00  0.00     0.023 C 
BRANCH  34  35
ATOM     35  C   UNL A   1      40.374  23.077  27.081  1.00  0.00     0.116 C 
BRANCH  35  36
ATOM     36  N   UNL A   1      41.499  23.468  26.243  1.00  0.00    -0.352 N 
ATOM     37  C   UNL A   1      42.148  24.679  26.173  1.00  0.00     0.251 C 
ATOM     38  H   UNL A   1      41.844  22.767  25.643  1.00  0.00     0.163 HD
ATOM     39  O   UNL A   1      43.041  24.857  25.352  1.00  0.00    -0.269 OA
BRANCH  37  40
ATOM     40  C   UNL A   1      41.716  25.774  27.062  1.00  0.00     0.039 A 
ATOM     41  C   UNL A   1      40.898  25.471  28.152  1.00  0.00     0.014 A 
ATOM     42  C   UNL A   1      42.199  27.071  26.872  1.00  0.00     0.014 A 
ATOM     43  C   UNL A   1      40.653  26.448  29.117  1.00  0.00     0.010 A 
ATOM     44  C   UNL A   1      42.011  28.022  27.869  1.00  0.00     0.010 A 
ATOM     45  C   UNL A   1      41.257  27.711  29.012  1.00  0.00    -0.014 A 
BRANCH  45  46
ATOM     46  C   UNL A   1      41.161  28.710  30.106  1.00  0.00     0.031 A 
ATOM     47  C   UNL A   1      42.104  28.644  31.272  1.00  0.00     0.074 A 
ATOM     48  C   UNL A   1      40.161  29.616  30.092  1.00  0.00     0.049 A 
ATOM     49  N   UNL A   1      42.098  29.339  32.379  1.00  0.00    -0.248 NA
ATOM     50  C   UNL A   1      43.180  27.643  31.192  1.00  0.00     0.031 C 
ATOM     51  C   UNL A   1      39.156  29.753  29.035  1.00  0.00     0.029 A 
ATOM     52  N   UNL A   1      39.812  30.579  31.005  1.00  0.00    -0.354 N 
ATOM     53  C   UNL A   1      43.157  28.853  33.135  1.00  0.00     0.074 A 
ATOM     54  C   UNL A   1      43.754  27.772  32.380  1.00  0.00     0.031 C 
ATOM     55  C   UNL A   1      38.319  30.753  29.350  1.00  0.00     0.029 A 
ATOM     56  C   UNL A   1      38.696  31.298  30.651  1.00  0.00     0.049 A 
ATOM     57  H   UNL A   1      40.315  30.740  31.836  1.00  0.00     0.167 HD
ATOM     58  C   UNL A   1      43.604  29.283  34.339  1.00  0.00     0.037 A 
ATOM     59  C   UNL A   1      38.038  32.274  31.306  1.00  0.00     0.037 A 
ATOM     60  C   UNL A   1      43.018  30.372  35.074  1.00  0.00     0.049 A 
ATOM     61  C   UNL A   1      38.534  32.715  32.654  1.00  0.00     0.074 A 
ATOM     62  C   UNL A   1      43.432  30.920  36.276  1.00  0.00     0.029 A 
ATOM     63  N   UNL A   1      41.889  31.076  34.681  1.00  0.00    -0.354 N 
ATOM     64  N   UNL A   1      39.568  32.280  33.333  1.00  0.00    -0.248 NA
ATOM     65  C   UNL A   1      37.770  33.775  33.331  1.00  0.00     0.031 C 
ATOM     66  C   UNL A   1      42.531  31.933  36.627  1.00  0.00     0.029 A 
ATOM     67  C   UNL A   1      41.578  32.040  35.626  1.00  0.00     0.049 A 
ATOM     68  H   UNL A   1      41.385  30.915  33.851  1.00  0.00     0.167 HD
ATOM     69  C   UNL A   1      39.591  33.022  34.508  1.00  0.00     0.074 A 
ATOM     70  C   UNL A   1      38.474  33.942  34.444  1.00  0.00     0.031 C 
ATOM     71  C   UNL A   1      40.462  32.948  35.545  1.00  0.00     0.037 A 
BRANCH  58  72
ATOM     72  C   UNL A   1      44.789  28.570  34.926  1.00  0.00     0.058 A 
ATOM     73  C   UNL A   1      46.103  28.976  34.645  1.00  0.00     0.135 A 
ATOM     74  C   UNL A   1      44.611  27.470  35.780  1.00  0.00     0.135 A 
ATOM     75  F   UNL A   1      46.328  30.012  33.821  1.00  0.00    -0.206 F 
ATOM     76  C   UNL A   1      47.201  28.292  35.157  1.00  0.00     0.059 A 
ATOM     77  C   UNL A   1      45.695  26.787  36.324  1.00  0.00     0.059 A 
ATOM     78  F   UNL A   1      43.376  27.040  36.083  1.00  0.00    -0.206 F 
ATOM     79  C   UNL A   1      46.986  27.193  35.990  1.00  0.00     0.060 A 
BRANCH  79  80
ATOM     80  S   UNL A   1      48.420  26.300  36.625  1.00  0.00     0.124 S 
ATOM     81  O   UNL A   1      49.109  27.350  37.369  1.00  0.00    -0.237 OA
ATOM     82  O   UNL A   1      47.804  25.252  37.433  1.00  0.00    -0.237 OA
ATOM     83  O   UNL A   1      49.095  25.840  35.416  1.00  0.00    -0.744 OA
ENDBRANCH  79  80
ENDBRANCH  58  72
BRANCH  59  84
ATOM     84  C   UNL A   1      36.845  32.908  30.684  1.00  0.00     0.058 A 
ATOM     85  C   UNL A   1      35.557  32.643  31.171  1.00  0.00     0.135 A 
ATOM     86  C   UNL A   1      36.970  33.811  29.617  1.00  0.00     0.135 A 
ATOM     87  F   UNL A   1      35.388  31.779  32.183  1.00  0.00    -0.206 F 
ATOM     88  C   UNL A   1      34.433  33.251  30.624  1.00  0.00     0.059 A 
ATOM     89  C   UNL A   1      35.862  34.448  29.067  1.00  0.00     0.059 A 
ATOM     90  F   UNL A   1      38.182  34.108  29.125  1.00  0.00    -0.206 F 
ATOM     91  C   UNL A   1      34.596  34.158  29.574  1.00  0.00     0.060 A 
BRANCH  91  92
ATOM     92  S   UNL A   1      33.140  35.005  28.921  1.00  0.00     0.124 S 
ATOM     93  O   UNL A   1      33.722  36.244  28.421  1.00  0.00    -0.237 OA
ATOM     94  O   UNL A   1      32.665  34.068  27.909  1.00  0.00    -0.237 OA
ATOM     95  O   UNL A   1      32.278  35.137  30.093  1.00  0.00    -0.744 OA
ENDBRANCH  91  92
ENDBRANCH  59  84
BRANCH  71  96
ATOM     96  C   UNL A   1      40.254  33.897  36.691  1.00  0.00     0.058 A 
ATOM     97  C   UNL A   1      40.715  35.221  36.637  1.00  0.00     0.135 A 
ATOM     98  C   UNL A   1      39.523  33.500  37.821  1.00  0.00     0.135 A 
ATOM     99  F   UNL A   1      41.428  35.647  35.582  1.00  0.00    -0.206 F 
ATOM    100  C   UNL A   1      40.464  36.119  37.670  1.00  0.00     0.059 A 
ATOM    101  C   UNL A   1      39.241  34.386  38.855  1.00  0.00     0.059 A 
ATOM    102  F   UNL A   1      39.055  32.244  37.916  1.00  0.00    -0.206 F 
ATOM    103  C   UNL A   1      39.720  35.692  38.773  1.00  0.00     0.060 A 
BRANCH 103 104
ATOM    104  S   UNL A   1      39.349  36.884  40.079  1.00  0.00     0.124 S 
ATOM    105  O   UNL A   1      40.624  36.954  40.784  1.00  0.00    -0.237 OA
ATOM    106  O   UNL A   1      38.977  38.074  39.320  1.00  0.00    -0.237 OA
ATOM    107  O   UNL A   1      38.257  36.251  40.813  1.00  0.00    -0.744 OA
ENDBRANCH 103 104
ENDBRANCH  71  96
ENDBRANCH  45  46
ENDBRANCH  37  40
ENDBRANCH  35  36
ENDBRANCH  34  35
ENDBRANCH  33  34
ENDBRANCH  32  33
ENDBRANCH   3  32
TORSDOF 23
ENDMDL
MODEL 2
REMARK VINA RESULT:     -10.0      4.049      5.239
REMARK SMILES CC(C)[C@H](NC(=O)[C@H](C)NC(=O)CNC(=O)OCc1ccccc1)C(=O)NCCCCNC(=O)c1ccc(-c2c3nc(c(-c4c(F)cc(S(=O)(=O)[O-])cc4F)c4ccc([nH]4)c(-c4c(F)cc(S(=O)(=O)[O-])cc4F)c4nc(c(-c5c(F)cc(S(=O)(=O)[O-])cc5F)c5ccc2[nH]5)C=C4)C=C3)cc1
REMARK SMILES IDX 25 1 26 2 27 3 4 5 2 6 1 7 3 8 5 9 6 10 7 12 8 13 9 14 10 15
REMARK SMILES IDX 11 16 12 18 13 19 14 20 15 21 16 23 17 24 18 25 19 26 20 27
REMARK SMILES IDX 24 28 21 29 23 30 22 31 28 32 29 33 30 34 31 35 32 36 33 37
REMARK SMILES IDX 34 39 35 40 36 41 100 42 37 43 99 44 38 45 39 46 40 47 93 48
REMARK SMILES IDX 41 49 98 50 92 51 94 52 42 53 97 54 91 55 90 56 43 58 77 59
REMARK SMILES IDX 56 60 76 61 57 62 60 63 75 64 95 65 58 66 59 67 74 69 96 70
REMARK SMILES IDX 61 71 44 72 45 73 54 74 46 75 47 76 53 77 55 78 48 79 49 80
REMARK SMILES IDX 50 81 51 82 52 83 78 84 79 85 88 86 80 87 81 88 87 89 89 90
REMARK SMILES IDX 82 91 83 92 84 93 85 94 86 95 62 96 63 97 72 98 64 99 65 100
REMARK SMILES IDX 71 101 73 102 66 103 67 104 68 105 69 106 70 107
REMARK H PARENT 27 4 5 11 10 17 14 22 32 38 94 57 60 68
REMARK Flexibility Score: inf
ROOT
ATOM      1  C   UNL A   1      35.577  21.239  25.247  1.00  0.00     0.242 C 
ATOM      2  O   UNL A   1      35.580  20.034  24.975  1.00  0.00    -0.273 OA
ATOM      3  N   UNL A   1      36.749  21.779  25.671  1.00  0.00    -0.354 N 
ATOM      4  H   UNL A   1      37.423  21.126  25.967  1.00  0.00     0.163 HD
ENDROOT
BRANCH   1   5
ATOM      5  C   UNL A   1      34.307  22.086  24.994  1.00  0.00     0.173 C 
BRANCH   5   6
ATOM      6  C   UNL A   1      33.516  22.419  26.305  1.00  0.00     0.015 C 
ATOM      7  C   UNL A   1      34.051  21.816  27.610  1.00  0.00     0.010 C 
ATOM      8  C   UNL A   1      33.301  23.924  26.518  1.00  0.00     0.010 C 
ENDBRANCH   5   6
BRANCH   5   9
ATOM      9  N   UNL A   1      33.480  21.544  23.912  1.00  0.00    -0.342 N 
ATOM     10  C   UNL A   1      32.604  22.090  23.035  1.00  0.00     0.242 C 
ATOM     11  H   UNL A   1      33.584  20.572  23.797  1.00  0.00     0.164 HD
ATOM     12  O   UNL A   1      32.096  21.278  22.248  1.00  0.00    -0.273 OA
BRANCH  10  13
ATOM     13  C   UNL A   1      32.122  23.560  23.004  1.00  0.00     0.168 C 
ATOM     14  C   UNL A   1      30.688  23.906  23.348  1.00  0.00     0.041 C 
BRANCH  13  15
ATOM     15  N   UNL A   1      32.481  24.119  21.698  1.00  0.00    -0.343 N 
ATOM     16  C   UNL A   1      32.670  25.425  21.345  1.00  0.00     0.240 C 
ATOM     17  H   UNL A   1      32.603  23.462  20.974  1.00  0.00     0.164 HD
ATOM     18  O   UNL A   1      33.100  25.662  20.212  1.00  0.00    -0.273 OA
BRANCH  16  19
ATOM     19  C   UNL A   1      32.410  26.559  22.349  1.00  0.00     0.219 C 
BRANCH  19  20
ATOM     20  N   UNL A   1      31.307  27.390  21.906  1.00  0.00    -0.312 N 
ATOM     21  C   UNL A   1      30.411  28.044  22.696  1.00  0.00     0.407 C 
ATOM     22  H   UNL A   1      31.195  27.493  20.933  1.00  0.00     0.167 HD
ATOM     23  O   UNL A   1      29.339  28.411  22.236  1.00  0.00    -0.225 OA
BRANCH  21  24
ATOM     24  O   UNL A   1      30.809  28.167  23.982  1.00  0.00    -0.445 OA
BRANCH  24  25
ATOM     25  C   UNL A   1      31.245  29.478  24.381  1.00  0.00     0.270 C 
BRANCH  25  26
ATOM     26  C   UNL A   1      32.273  29.493  25.491  1.00  0.00    -0.011 A 
ATOM     27  C   UNL A   1      32.224  30.487  26.481  1.00  0.00     0.007 A 
ATOM     28  C   UNL A   1      33.359  28.605  25.496  1.00  0.00     0.007 A 
ATOM     29  C   UNL A   1      33.231  30.587  27.446  1.00  0.00     0.000 A 
ATOM     30  C   UNL A   1      34.363  28.703  26.463  1.00  0.00     0.000 A 
ATOM     31  C   UNL A   1      34.300  29.696  27.434  1.00  0.00     0.000 A 
ENDBRANCH  25  26
ENDBRANCH  24  25
ENDBRANCH  21  24
ENDBRANCH  19  20
ENDBRANCH  16  19
ENDBRANCH  13  15
ENDBRANCH  10  13
ENDBRANCH   5   9
ENDBRANCH   1   5
BRANCH   3  32
ATOM     32  C   UNL A   1      37.162  23.161  25.758  1.00  0.00     0.116 C 
BRANCH  32  33
ATOM     33  C   UNL A   1      38.566  23.335  26.322  1.00  0.00     0.023 C 
BRANCH  33  34
ATOM     34  C   UNL A   1      39.385  22.053  26.453  1.00  0.00     0.023 C 
BRANCH  34  35
ATOM     35  C   UNL A   1      40.867  22.238  26.760  1.00  0.00     0.116 C 
BRANCH  35  36
ATOM     36  N   UNL A   1      41.714  22.223  25.576  1.00  0.00    -0.352 N 
ATOM     37  C   UNL A   1      42.726  23.086  25.223  1.00  0.00     0.251 C 
ATOM     38  H   UNL A   1      41.539  21.492  24.939  1.00  0.00     0.163 HD
ATOM     39  O   UNL A   1      43.296  22.965  24.144  1.00  0.00    -0.269 OA
BRANCH  37  40
ATOM     40  C   UNL A   1      43.074  24.191  26.136  1.00  0.00     0.039 A 
ATOM     41  C   UNL A   1      42.083  24.712  26.969  1.00  0.00     0.014 A 
ATOM     42  C   UNL A   1      44.395  24.636  26.235  1.00  0.00     0.014 A 
ATOM     43  C   UNL A   1      42.437  25.605  27.981  1.00  0.00     0.010 A 
ATOM     44  C   UNL A   1      44.757  25.471  27.287  1.00  0.00     0.010 A 
ATOM     45  C   UNL A   1      43.785  25.943  28.184  1.00  0.00    -0.014 A 
BRANCH  45  46
ATOM     46  C   UNL A   1      44.215  26.746  29.356  1.00  0.00     0.031 A 
ATOM     47  C   UNL A   1      44.627  26.063  30.627  1.00  0.00     0.074 A 
ATOM     48  C   UNL A   1      44.140  28.092  29.302  1.00  0.00     0.049 A 
ATOM     49  N   UNL A   1      44.909  26.586  31.792  1.00  0.00    -0.248 NA
ATOM     50  C   UNL A   1      44.706  24.594  30.589  1.00  0.00     0.031 C 
ATOM     51  C   UNL A   1      43.714  28.871  28.136  1.00  0.00     0.029 A 
ATOM     52  N   UNL A   1      44.400  29.042  30.256  1.00  0.00    -0.354 N 
ATOM     53  C   UNL A   1      45.184  25.514  32.630  1.00  0.00     0.074 A 
ATOM     54  C   UNL A   1      44.990  24.309  31.852  1.00  0.00     0.031 C 
ATOM     55  C   UNL A   1      43.761  30.178  28.438  1.00  0.00     0.029 A 
ATOM     56  C   UNL A   1      44.174  30.330  29.830  1.00  0.00     0.049 A 
ATOM     57  H   UNL A   1      44.718  28.823  31.162  1.00  0.00     0.167 HD
ATOM     58  C   UNL A   1      45.584  25.533  33.924  1.00  0.00     0.037 A 
ATOM     59  C   UNL A   1      44.270  31.501  30.490  1.00  0.00     0.037 A 
ATOM     60  C   UNL A   1      45.794  26.736  34.685  1.00  0.00     0.049 A 
ATOM     61  C   UNL A   1      44.686  31.496  31.934  1.00  0.00     0.074 A 
ATOM     62  C   UNL A   1      46.253  26.863  35.984  1.00  0.00     0.029 A 
ATOM     63  N   UNL A   1      45.557  28.020  34.217  1.00  0.00    -0.354 N 
ATOM     64  N   UNL A   1      44.993  30.476  32.699  1.00  0.00    -0.248 NA
ATOM     65  C   UNL A   1      44.763  32.801  32.609  1.00  0.00     0.031 C 
ATOM     66  C   UNL A   1      46.257  28.223  36.314  1.00  0.00     0.029 A 
ATOM     67  C   UNL A   1      45.838  28.945  35.208  1.00  0.00     0.049 A 
ATOM     68  H   UNL A   1      45.237  28.241  33.313  1.00  0.00     0.167 HD
ATOM     69  C   UNL A   1      45.316  31.014  33.939  1.00  0.00     0.074 A 
ATOM     70  C   UNL A   1      45.177  32.451  33.820  1.00  0.00     0.031 C 
ATOM     71  C   UNL A   1      45.695  30.373  35.072  1.00  0.00     0.037 A 
BRANCH  58  72
ATOM     72  C   UNL A   1      45.821  24.207  34.589  1.00  0.00     0.058 A 
ATOM     73  C   UNL A   1      47.070  23.570  34.530  1.00  0.00     0.135 A 
ATOM     74  C   UNL A   1      44.790  23.565  35.294  1.00  0.00     0.135 A 
ATOM     75  F   UNL A   1      48.085  24.133  33.855  1.00  0.00    -0.206 F 
ATOM     76  C   UNL A   1      47.280  22.324  35.112  1.00  0.00     0.059 A 
ATOM     77  C   UNL A   1      44.984  22.331  35.906  1.00  0.00     0.059 A 
ATOM     78  F   UNL A   1      43.576  24.131  35.382  1.00  0.00    -0.206 F 
ATOM     79  C   UNL A   1      46.227  21.708  35.792  1.00  0.00     0.060 A 
BRANCH  79  80
ATOM     80  S   UNL A   1      46.506  20.081  36.520  1.00  0.00     0.124 S 
ATOM     81  O   UNL A   1      45.741  20.183  37.759  1.00  0.00    -0.237 OA
ATOM     82  O   UNL A   1      45.954  19.185  35.508  1.00  0.00    -0.237 OA
ATOM     83  O   UNL A   1      47.955  20.024  36.679  1.00  0.00    -0.744 OA
ENDBRANCH  79  80
ENDBRANCH  58  72
BRANCH  59  84
ATOM     84  C   UNL A   1      43.979  32.774  29.781  1.00  0.00     0.058 A 
ATOM     85  C   UNL A   1      44.981  33.438  29.059  1.00  0.00     0.135 A 
ATOM     86  C   UNL A   1      42.691  33.333  29.781  1.00  0.00     0.135 A 
ATOM     87  F   UNL A   1      46.229  32.947  29.038  1.00  0.00    -0.206 F 
ATOM     88  C   UNL A   1      44.720  34.613  28.363  1.00  0.00     0.059 A 
ATOM     89  C   UNL A   1      42.400  34.496  29.074  1.00  0.00     0.059 A 
ATOM     90  F   UNL A   1      41.695  32.727  30.445  1.00  0.00    -0.206 F 
ATOM     91  C   UNL A   1      43.423  35.132  28.371  1.00  0.00     0.060 A 
BRANCH  91  92
ATOM     92  S   UNL A   1      43.071  36.613  27.399  1.00  0.00     0.124 S 
ATOM     93  O   UNL A   1      44.395  37.215  27.293  1.00  0.00    -0.237 OA
ATOM     94  O   UNL A   1      42.524  36.053  26.168  1.00  0.00    -0.237 OA
ATOM     95  O   UNL A   1      42.110  37.337  28.228  1.00  0.00    -0.744 OA
ENDBRANCH  91  92
ENDBRANCH  59  84
BRANCH  71  96
ATOM     96  C   UNL A   1      46.003  31.220  36.274  1.00  0.00     0.058 A 
ATOM     97  C   UNL A   1      47.282  31.758  36.482  1.00  0.00     0.135 A 
ATOM     98  C   UNL A   1      44.991  31.556  37.187  1.00  0.00     0.135 A 
ATOM     99  F   UNL A   1      48.286  31.458  35.643  1.00  0.00    -0.206 F 
ATOM    100  C   UNL A   1      47.549  32.597  37.559  1.00  0.00     0.059 A 
ATOM    101  C   UNL A   1      45.230  32.410  38.259  1.00  0.00     0.059 A 
ATOM    102  F   UNL A   1      43.748  31.070  37.028  1.00  0.00    -0.206 F 
ATOM    103  C   UNL A   1      46.513  32.922  38.439  1.00  0.00     0.060 A 
BRANCH 103 104
ATOM    104  S   UNL A   1      46.859  34.060  39.799  1.00  0.00     0.124 S 
ATOM    105  O   UNL A   1      45.690  34.933  39.755  1.00  0.00    -0.237 OA
ATOM    106  O   UNL A   1      46.938  33.163  40.947  1.00  0.00    -0.237 OA
ATOM    107  O   UNL A   1      48.122  34.680  39.408  1.00  0.00    -0.744 OA
ENDBRANCH 103 104
ENDBRANCH  71  96
ENDBRANCH  45  46
ENDBRANCH  37  40
ENDBRANCH  35  36
ENDBRANCH  34  35
ENDBRANCH  33  34
ENDBRANCH  32  33
ENDBRANCH   3  32
TORSDOF 23
ENDMDL
MODEL 3
REMARK VINA RESULT:      -9.8      9.918     15.349
REMARK SMILES CC(C)[C@H](NC(=O)[C@H](C)NC(=O)CNC(=O)OCc1ccccc1)C(=O)NCCCCNC(=O)c1ccc(-c2c3nc(c(-c4c(F)cc(S(=O)(=O)[O-])cc4F)c4ccc([nH]4)c(-c4c(F)cc(S(=O)(=O)[O-])cc4F)c4nc(c(-c5c(F)cc(S(=O)(=O)[O-])cc5F)c5ccc2[nH]5)C=C4)C=C3)cc1
REMARK SMILES IDX 25 1 26 2 27 3 4 5 2 6 1 7 3 8 5 9 6 10 7 12 8 13 9 14 10 15
REMARK SMILES IDX 11 16 12 18 13 19 14 20 15 21 16 23 17 24 18 25 19 26 20 27
REMARK SMILES IDX 24 28 21 29 23 30 22 31 28 32 29 33 30 34 31 35 32 36 33 37
REMARK SMILES IDX 34 39 35 40 36 41 100 42 37 43 99 44 38 45 39 46 40 47 93 48
REMARK SMILES IDX 41 49 98 50 92 51 94 52 42 53 97 54 91 55 90 56 43 58 77 59
REMARK SMILES IDX 56 60 76 61 57 62 60 63 75 64 95 65 58 66 59 67 74 69 96 70
REMARK SMILES IDX 61 71 44 72 45 73 54 74 46 75 47 76 53 77 55 78 48 79 49 80
REMARK SMILES IDX 50 81 51 82 52 83 78 84 79 85 88 86 80 87 81 88 87 89 89 90
REMARK SMILES IDX 82 91 83 92 84 93 85 94 86 95 62 96 63 97 72 98 64 99 65 100
REMARK SMILES IDX 71 101 73 102 66 103 67 104 68 105 69 106 70 107
REMARK H PARENT 27 4 5 11 10 17 14 22 32 38 94 57 60 68
REMARK Flexibility Score: inf
ROOT
ATOM      1  C   UNL A   1      43.510  40.815  26.248  1.00  0.00     0.242 C 
ATOM      2  O   UNL A   1      42.648  41.592  25.825  1.00  0.00    -0.273 OA
ATOM      3  N   UNL A   1      43.081  39.620  26.731  1.00  0.00    -0.354 N 
ATOM      4  H   UNL A   1      42.119  39.577  26.936  1.00  0.00     0.163 HD
ENDROOT
BRANCH   1   5
ATOM      5  C   UNL A   1      45.009  41.175  26.114  1.00  0.00     0.173 C 
BRANCH   5   6
ATOM      6  C   UNL A   1      45.434  42.388  27.010  1.00  0.00     0.015 C 
ATOM      7  C   UNL A   1      44.789  42.485  28.398  1.00  0.00     0.010 C 
ATOM      8  C   UNL A   1      46.956  42.518  27.171  1.00  0.00     0.010 C 
ENDBRANCH   5   6
BRANCH   5   9
ATOM      9  N   UNL A   1      45.436  41.279  24.715  1.00  0.00    -0.342 N 
ATOM     10  C   UNL A   1      45.297  42.227  23.760  1.00  0.00     0.242 C 
ATOM     11  H   UNL A   1      45.932  40.488  24.403  1.00  0.00     0.164 HD
ATOM     12  O   UNL A   1      45.818  41.938  22.672  1.00  0.00    -0.273 OA
BRANCH  10  13
ATOM     13  C   UNL A   1      44.486  43.542  23.870  1.00  0.00     0.168 C 
ATOM     14  C   UNL A   1      44.715  44.491  25.027  1.00  0.00     0.041 C 
BRANCH  13  15
ATOM     15  N   UNL A   1      43.066  43.199  23.767  1.00  0.00    -0.343 N 
ATOM     16  C   UNL A   1      42.261  43.192  22.663  1.00  0.00     0.240 C 
ATOM     17  H   UNL A   1      42.630  42.936  24.611  1.00  0.00     0.164 HD
ATOM     18  O   UNL A   1      41.119  42.739  22.783  1.00  0.00    -0.273 OA
BRANCH  16  19
ATOM     19  C   UNL A   1      42.784  43.681  21.304  1.00  0.00     0.219 C 
BRANCH  19  20
ATOM     20  N   UNL A   1      41.857  43.333  20.244  1.00  0.00    -0.312 N 
ATOM     21  C   UNL A   1      41.824  43.854  18.987  1.00  0.00     0.407 C 
ATOM     22  H   UNL A   1      41.181  42.648  20.457  1.00  0.00     0.167 HD
ATOM     23  O   UNL A   1      40.811  43.759  18.309  1.00  0.00    -0.225 OA
BRANCH  21  24
ATOM     24  O   UNL A   1      42.958  44.501  18.637  1.00  0.00    -0.445 OA
BRANCH  24  25
ATOM     25  C   UNL A   1      43.031  44.944  17.270  1.00  0.00     0.270 C 
BRANCH  25  26
ATOM     26  C   UNL A   1      43.233  46.433  17.099  1.00  0.00    -0.011 A 
ATOM     27  C   UNL A   1      42.123  47.294  17.070  1.00  0.00     0.007 A 
ATOM     28  C   UNL A   1      44.500  46.978  16.843  1.00  0.00     0.007 A 
ATOM     29  C   UNL A   1      42.281  48.656  16.796  1.00  0.00     0.000 A 
ATOM     30  C   UNL A   1      44.657  48.339  16.573  1.00  0.00     0.000 A 
ATOM     31  C   UNL A   1      43.547  49.177  16.546  1.00  0.00     0.000 A 
ENDBRANCH  25  26
ENDBRANCH  24  25
ENDBRANCH  21  24
ENDBRANCH  19  20
ENDBRANCH  16  19
ENDBRANCH  13  15
ENDBRANCH  10  13
ENDBRANCH   5   9
ENDBRANCH   1   5
BRANCH   3  32
ATOM     32  C   UNL A   1      43.814  38.402  26.991  1.00  0.00     0.116 C 
BRANCH  32  33
ATOM     33  C   UNL A   1      44.703  38.488  28.225  1.00  0.00     0.023 C 
BRANCH  33  34
ATOM     34  C   UNL A   1      46.206  38.453  27.956  1.00  0.00     0.023 C 
BRANCH  34  35
ATOM     35  C   UNL A   1      47.092  38.178  29.166  1.00  0.00     0.116 C 
BRANCH  35  36
ATOM     36  N   UNL A   1      48.476  37.881  28.819  1.00  0.00    -0.352 N 
ATOM     37  C   UNL A   1      49.058  36.667  28.540  1.00  0.00     0.251 C 
ATOM     38  H   UNL A   1      49.078  38.659  28.779  1.00  0.00     0.163 HD
ATOM     39  O   UNL A   1      50.264  36.590  28.334  1.00  0.00    -0.269 OA
BRANCH  37  40
ATOM     40  C   UNL A   1      48.219  35.453  28.546  1.00  0.00     0.039 A 
ATOM     41  C   UNL A   1      47.644  35.028  27.347  1.00  0.00     0.014 A 
ATOM     42  C   UNL A   1      48.088  34.691  29.710  1.00  0.00     0.014 A 
ATOM     43  C   UNL A   1      47.026  33.778  27.289  1.00  0.00     0.010 A 
ATOM     44  C   UNL A   1      47.535  33.417  29.632  1.00  0.00     0.010 A 
ATOM     45  C   UNL A   1      47.022  32.940  28.416  1.00  0.00    -0.014 A 
BRANCH  45  46
ATOM     46  C   UNL A   1      46.533  31.541  28.339  1.00  0.00     0.031 A 
ATOM     47  C   UNL A   1      47.440  30.452  27.843  1.00  0.00     0.074 A 
ATOM     48  C   UNL A   1      45.243  31.271  28.625  1.00  0.00     0.049 A 
ATOM     49  N   UNL A   1      47.163  29.201  27.583  1.00  0.00    -0.248 NA
ATOM     50  C   UNL A   1      48.838  30.829  27.579  1.00  0.00     0.031 C 
ATOM     51  C   UNL A   1      44.252  32.251  29.077  1.00  0.00     0.029 A 
ATOM     52  N   UNL A   1      44.537  30.096  28.559  1.00  0.00    -0.354 N 
ATOM     53  C   UNL A   1      48.345  28.644  27.111  1.00  0.00     0.074 A 
ATOM     54  C   UNL A   1      49.329  29.705  27.077  1.00  0.00     0.031 C 
ATOM     55  C   UNL A   1      43.075  31.634  29.266  1.00  0.00     0.029 A 
ATOM     56  C   UNL A   1      43.213  30.226  28.904  1.00  0.00     0.049 A 
ATOM     57  H   UNL A   1      44.941  29.240  28.289  1.00  0.00     0.167 HD
ATOM     58  C   UNL A   1      48.593  27.360  26.760  1.00  0.00     0.037 A 
ATOM     59  C   UNL A   1      42.216  29.320  28.912  1.00  0.00     0.037 A 
ATOM     60  C   UNL A   1      47.614  26.306  26.815  1.00  0.00     0.049 A 
ATOM     61  C   UNL A   1      42.507  27.907  28.489  1.00  0.00     0.074 A 
ATOM     62  C   UNL A   1      47.782  24.961  26.533  1.00  0.00     0.029 A 
ATOM     63  N   UNL A   1      46.285  26.478  27.172  1.00  0.00    -0.354 N 
ATOM     64  N   UNL A   1      43.643  27.384  28.095  1.00  0.00    -0.248 NA
ATOM     65  C   UNL A   1      41.380  26.962  28.505  1.00  0.00     0.031 C 
ATOM     66  C   UNL A   1      46.543  24.326  26.685  1.00  0.00     0.029 A 
ATOM     67  C   UNL A   1      45.614  25.269  27.097  1.00  0.00     0.049 A 
ATOM     68  H   UNL A   1      45.879  27.333  27.440  1.00  0.00     0.167 HD
ATOM     69  C   UNL A   1      43.374  26.046  27.831  1.00  0.00     0.074 A 
ATOM     70  C   UNL A   1      41.970  25.837  28.121  1.00  0.00     0.031 C 
ATOM     71  C   UNL A   1      44.215  25.079  27.391  1.00  0.00     0.037 A 
BRANCH  58  72
ATOM     72  C   UNL A   1      49.981  27.033  26.288  1.00  0.00     0.058 A 
ATOM     73  C   UNL A   1      50.318  27.058  24.925  1.00  0.00     0.135 A 
ATOM     74  C   UNL A   1      50.987  26.691  27.206  1.00  0.00     0.135 A 
ATOM     75  F   UNL A   1      49.388  27.362  24.005  1.00  0.00    -0.206 F 
ATOM     76  C   UNL A   1      51.592  26.717  24.485  1.00  0.00     0.059 A 
ATOM     77  C   UNL A   1      52.276  26.372  26.789  1.00  0.00     0.059 A 
ATOM     78  F   UNL A   1      50.719  26.653  28.521  1.00  0.00    -0.206 F 
ATOM     79  C   UNL A   1      52.563  26.367  25.424  1.00  0.00     0.060 A 
BRANCH  79  80
ATOM     80  S   UNL A   1      54.204  25.902  24.836  1.00  0.00     0.124 S 
ATOM     81  O   UNL A   1      55.060  26.528  25.839  1.00  0.00    -0.237 OA
ATOM     82  O   UNL A   1      54.150  24.444  24.873  1.00  0.00    -0.237 OA
ATOM     83  O   UNL A   1      54.266  26.490  23.502  1.00  0.00    -0.744 OA
ENDBRANCH  79  80
ENDBRANCH  58  72
BRANCH  59  84
ATOM     84  C   UNL A   1      40.854  29.723  29.350  1.00  0.00     0.058 A 
ATOM     85  C   UNL A   1      39.814  29.861  28.420  1.00  0.00     0.135 A 
ATOM     86  C   UNL A   1      40.557  29.945  30.704  1.00  0.00     0.135 A 
ATOM     87  F   UNL A   1      40.053  29.669  27.114  1.00  0.00    -0.206 F 
ATOM     88  C   UNL A   1      38.526  30.206  28.814  1.00  0.00     0.059 A 
ATOM     89  C   UNL A   1      39.271  30.269  31.125  1.00  0.00     0.059 A 
ATOM     90  F   UNL A   1      41.515  29.811  31.634  1.00  0.00    -0.206 F 
ATOM     91  C   UNL A   1      38.262  30.403  30.172  1.00  0.00     0.060 A 
BRANCH  91  92
ATOM     92  S   UNL A   1      36.570  30.771  30.686  1.00  0.00     0.124 S 
ATOM     93  O   UNL A   1      36.390  29.837  31.791  1.00  0.00    -0.237 OA
ATOM     94  O   UNL A   1      36.657  32.181  31.049  1.00  0.00    -0.237 OA
ATOM     95  O   UNL A   1      35.788  30.490  29.484  1.00  0.00    -0.744 OA
ENDBRANCH  91  92
ENDBRANCH  59  84
BRANCH  71  96
ATOM     96  C   UNL A   1      43.648  23.699  27.209  1.00  0.00     0.058 A 
ATOM     97  C   UNL A   1      43.384  22.866  28.306  1.00  0.00     0.135 A 
ATOM     98  C   UNL A   1      43.299  23.236  25.931  1.00  0.00     0.135 A 
ATOM     99  F   UNL A   1      43.710  23.259  29.548  1.00  0.00    -0.206 F 
ATOM    100  C   UNL A   1      42.796  21.616  28.142  1.00  0.00     0.059 A 
ATOM    101  C   UNL A   1      42.691  21.999  25.745  1.00  0.00     0.059 A 
ATOM    102  F   UNL A   1      43.527  24.000  24.849  1.00  0.00    -0.206 F 
ATOM    103  C   UNL A   1      42.448  21.194  26.856  1.00  0.00     0.060 A 
BRANCH 103 104
ATOM    104  S   UNL A   1      41.631  19.595  26.663  1.00  0.00     0.124 S 
ATOM    105  O   UNL A   1      40.263  19.914  27.056  1.00  0.00    -0.237 OA
ATOM    106  O   UNL A   1      41.833  19.308  25.246  1.00  0.00    -0.237 OA
ATOM    107  O   UNL A   1      42.364  18.727  27.582  1.00  0.00    -0.744 OA
ENDBRANCH 103 104
ENDBRANCH  71  96
ENDBRANCH  45  46
ENDBRANCH  37  40
ENDBRANCH  35  36
ENDBRANCH  34  35
ENDBRANCH  33  34
ENDBRANCH  32  33
ENDBRANCH   3  32
TORSDOF 23
ENDMDL
