MODEL 1
REMARK VINA RESULT:     -12.6      0.000      0.000
REMARK SMILES CC1=NN(c2ccc(Cl)c(C(=O)NCCCCNC(=O)c3ccc(-c4c5nc(c(-c6c(F)cc(S(=O)(=O)[O-])cc6F)c6ccc([nH]6)c(-c6c(F)cc(S(=O)(=O)[O-])cc6F)c6nc(c(-c7c(F)cc(S(=O)(=O)[O-])cc7F)c7ccc4[nH]7)C=C6)C=C5)cc3)c2)C(=O)/C1=C\c1ccccc1Cl
REMARK SMILES IDX 16 1 15 2 14 3 13 4 11 5 12 6 10 8 5 9 6 10 87 11 7 12 8 13
REMARK SMILES IDX 9 14 4 15 1 16 2 17 3 18 90 19 88 20 91 21 89 22 92 23 93 24
REMARK SMILES IDX 97 25 94 26 96 27 98 28 95 29 17 30 18 31 19 32 20 34 21 35
REMARK SMILES IDX 22 36 86 37 23 38 85 39 24 40 25 41 26 42 79 43 27 44 84 45
REMARK SMILES IDX 78 46 80 47 28 48 83 49 77 50 76 51 29 53 63 54 42 55 62 56
REMARK SMILES IDX 43 57 46 58 61 59 81 60 44 61 45 62 60 64 82 65 47 66 30 67
REMARK SMILES IDX 31 68 40 69 32 70 33 71 39 72 41 73 34 74 35 75 36 76 37 77
REMARK SMILES IDX 38 78 64 79 65 80 74 81 66 82 67 83 73 84 75 85 68 86 69 87
REMARK SMILES IDX 70 88 71 89 72 90 48 91 49 92 58 93 50 94 51 95 57 96 59 97
REMARK SMILES IDX 52 98 53 99 54 100 55 101 56 102
REMARK H PARENT 13 7 18 33 80 52 46 63
REMARK Flexibility Score: inf
ROOT
ATOM      1  C   UNL A   1      36.024  29.664  28.696  1.00  0.00     0.023 C 
ENDROOT
BRANCH   1   2
ATOM      2  C   UNL A   1      35.473  29.341  27.309  1.00  0.00     0.023 C 
BRANCH   2   3
ATOM      3  C   UNL A   1      34.058  29.818  27.014  1.00  0.00     0.116 C 
BRANCH   3   4
ATOM      4  N   UNL A   1      33.011  29.147  27.765  1.00  0.00    -0.352 N 
ATOM      5  C   UNL A   1      31.864  28.521  27.324  1.00  0.00     0.252 C 
ATOM      6  O   UNL A   1      31.129  27.980  28.150  1.00  0.00    -0.269 OA
ATOM      7  H   UNL A   1      33.139  29.139  28.741  1.00  0.00     0.163 HD
BRANCH   5   8
ATOM      8  C   UNL A   1      31.441  28.539  25.898  1.00  0.00     0.060 A 
ATOM      9  C   UNL A   1      31.403  27.351  23.768  1.00  0.00     0.070 A 
ATOM     10  C   UNL A   1      30.688  28.418  23.214  1.00  0.00     0.030 A 
ATOM     11  C   UNL A   1      31.684  27.365  25.140  1.00  0.00     0.044 A 
ATOM     12  C   UNL A   1      30.467  29.578  23.940  1.00  0.00     0.023 A 
ATOM     13  C   UNL A   1      30.950  29.677  25.243  1.00  0.00     0.053 A 
ATOM     14  Cl  UNL A   1      31.083  31.289  25.856  1.00  0.00    -0.083 Cl
BRANCH   9  15
ATOM     15  N   UNL A   1      31.994  26.422  22.887  1.00  0.00    -0.196 N 
ATOM     16  C   UNL A   1      32.729  25.193  19.582  1.00  0.00     0.069 C 
ATOM     17  C   UNL A   1      32.480  25.456  21.029  1.00  0.00     0.071 C 
ATOM     18  N   UNL A   1      31.891  26.528  21.507  1.00  0.00    -0.169 NA
ATOM     19  C   UNL A   1      32.892  24.519  22.092  1.00  0.00     0.065 C 
ATOM     20  C   UNL A   1      32.636  25.258  23.342  1.00  0.00     0.280 C 
ATOM     21  C   UNL A   1      33.268  23.236  21.980  1.00  0.00     0.025 C 
ATOM     22  O   UNL A   1      32.907  24.891  24.472  1.00  0.00    -0.267 OA
BRANCH  21  23
ATOM     23  C   UNL A   1      33.367  22.354  23.159  1.00  0.00    -0.006 A 
ATOM     24  C   UNL A   1      32.246  21.613  23.555  1.00  0.00     0.009 A 
ATOM     25  C   UNL A   1      34.586  22.154  23.840  1.00  0.00     0.048 A 
ATOM     26  C   UNL A   1      32.347  20.674  24.588  1.00  0.00     0.001 A 
ATOM     27  C   UNL A   1      34.684  21.209  24.865  1.00  0.00     0.021 A 
ATOM     28  Cl  UNL A   1      36.014  23.047  23.434  1.00  0.00    -0.084 Cl
ATOM     29  C   UNL A   1      33.566  20.464  25.234  1.00  0.00     0.002 A 
ENDBRANCH  21  23
ENDBRANCH   9  15
ENDBRANCH   5   8
ENDBRANCH   3   4
ENDBRANCH   2   3
ENDBRANCH   1   2
BRANCH   1  30
ATOM     30  C   UNL A   1      35.782  31.077  29.224  1.00  0.00     0.116 C 
BRANCH  30  31
ATOM     31  N   UNL A   1      35.737  31.174  30.676  1.00  0.00    -0.352 N 
ATOM     32  C   UNL A   1      36.742  31.013  31.603  1.00  0.00     0.251 C 
ATOM     33  H   UNL A   1      34.853  31.388  31.053  1.00  0.00     0.163 HD
ATOM     34  O   UNL A   1      36.479  31.075  32.801  1.00  0.00    -0.269 OA
BRANCH  32  35
ATOM     35  C   UNL A   1      38.127  30.724  31.165  1.00  0.00     0.039 A 
ATOM     36  C   UNL A   1      38.875  29.778  31.874  1.00  0.00     0.014 A 
ATOM     37  C   UNL A   1      38.684  31.358  30.053  1.00  0.00     0.014 A 
ATOM     38  C   UNL A   1      40.142  29.407  31.415  1.00  0.00     0.010 A 
ATOM     39  C   UNL A   1      39.907  30.925  29.548  1.00  0.00     0.010 A 
ATOM     40  C   UNL A   1      40.651  29.943  30.221  1.00  0.00    -0.014 A 
BRANCH  40  41
ATOM     41  C   UNL A   1      41.955  29.493  29.662  1.00  0.00     0.031 A 
ATOM     42  C   UNL A   1      43.119  30.445  29.596  1.00  0.00     0.074 A 
ATOM     43  C   UNL A   1      42.071  28.249  29.154  1.00  0.00     0.049 A 
ATOM     44  N   UNL A   1      44.312  30.259  29.090  1.00  0.00    -0.248 NA
ATOM     45  C   UNL A   1      42.905  31.794  30.145  1.00  0.00     0.031 C 
ATOM     46  C   UNL A   1      41.002  27.249  29.103  1.00  0.00     0.029 A 
ATOM     47  N   UNL A   1      43.143  27.613  28.574  1.00  0.00    -0.354 N 
ATOM     48  C   UNL A   1      44.981  31.468  29.244  1.00  0.00     0.074 A 
ATOM     49  C   UNL A   1      44.043  32.398  29.833  1.00  0.00     0.031 C 
ATOM     50  C   UNL A   1      41.478  26.121  28.554  1.00  0.00     0.029 A 
ATOM     51  C   UNL A   1      42.874  26.323  28.179  1.00  0.00     0.049 A 
ATOM     52  H   UNL A   1      44.021  28.041  28.452  1.00  0.00     0.167 HD
ATOM     53  C   UNL A   1      46.268  31.770  28.948  1.00  0.00     0.037 A 
ATOM     54  C   UNL A   1      43.662  25.407  27.582  1.00  0.00     0.037 A 
ATOM     55  C   UNL A   1      47.207  30.832  28.389  1.00  0.00     0.049 A 
ATOM     56  C   UNL A   1      45.092  25.761  27.273  1.00  0.00     0.074 A 
ATOM     57  C   UNL A   1      48.549  31.021  28.107  1.00  0.00     0.029 A 
ATOM     58  N   UNL A   1      46.903  29.527  28.029  1.00  0.00    -0.354 N 
ATOM     59  N   UNL A   1      45.727  26.889  27.485  1.00  0.00    -0.248 NA
ATOM     60  C   UNL A   1      45.917  24.715  26.652  1.00  0.00     0.031 C 
ATOM     61  C   UNL A   1      49.046  29.844  27.540  1.00  0.00     0.029 A 
ATOM     62  C   UNL A   1      48.028  28.904  27.514  1.00  0.00     0.049 A 
ATOM     63  H   UNL A   1      46.019  29.106  28.126  1.00  0.00     0.167 HD
ATOM     64  C   UNL A   1      47.031  26.679  27.052  1.00  0.00     0.074 A 
ATOM     65  C   UNL A   1      47.098  25.313  26.574  1.00  0.00     0.031 C 
ATOM     66  C   UNL A   1      48.080  27.539  27.053  1.00  0.00     0.037 A 
BRANCH  53  67
ATOM     67  C   UNL A   1      46.736  33.171  29.236  1.00  0.00     0.058 A 
ATOM     68  C   UNL A   1      47.286  33.523  30.480  1.00  0.00     0.135 A 
ATOM     69  C   UNL A   1      46.655  34.170  28.253  1.00  0.00     0.135 A 
ATOM     70  F   UNL A   1      47.376  32.611  31.461  1.00  0.00    -0.206 F 
ATOM     71  C   UNL A   1      47.702  34.821  30.752  1.00  0.00     0.059 A 
ATOM     72  C   UNL A   1      47.093  35.470  28.492  1.00  0.00     0.059 A 
ATOM     73  F   UNL A   1      46.141  33.891  27.044  1.00  0.00    -0.206 F 
ATOM     74  C   UNL A   1      47.598  35.790  29.752  1.00  0.00     0.060 A 
BRANCH  74  75
ATOM     75  S   UNL A   1      48.138  37.472  30.124  1.00  0.00     0.124 S 
ATOM     76  O   UNL A   1      46.880  38.208  30.029  1.00  0.00    -0.237 OA
ATOM     77  O   UNL A   1      48.692  37.334  31.467  1.00  0.00    -0.237 OA
ATOM     78  O   UNL A   1      49.111  37.757  29.073  1.00  0.00    -0.744 OA
ENDBRANCH  74  75
ENDBRANCH  53  67
BRANCH  54  79
ATOM     79  C   UNL A   1      43.127  24.053  27.274  1.00  0.00     0.058 A 
ATOM     80  C   UNL A   1      43.112  23.048  28.252  1.00  0.00     0.135 A 
ATOM     81  C   UNL A   1      42.606  23.742  26.009  1.00  0.00     0.135 A 
ATOM     82  F   UNL A   1      43.604  23.294  29.475  1.00  0.00    -0.206 F 
ATOM     83  C   UNL A   1      42.613  21.776  27.983  1.00  0.00     0.059 A 
ATOM     84  C   UNL A   1      42.080  22.485  25.723  1.00  0.00     0.059 A 
ATOM     85  F   UNL A   1      42.583  24.674  25.043  1.00  0.00    -0.206 F 
ATOM     86  C   UNL A   1      42.096  21.506  26.716  1.00  0.00     0.060 A 
BRANCH  86  87
ATOM     87  S   UNL A   1      41.403  19.868  26.394  1.00  0.00     0.124 S 
ATOM     88  O   UNL A   1      41.565  19.221  27.691  1.00  0.00    -0.237 OA
ATOM     89  O   UNL A   1      40.032  20.187  26.007  1.00  0.00    -0.237 OA
ATOM     90  O   UNL A   1      42.247  19.353  25.320  1.00  0.00    -0.744 OA
ENDBRANCH  86  87
ENDBRANCH  54  79
BRANCH  66  91
ATOM     91  C   UNL A   1      49.403  27.020  26.560  1.00  0.00     0.058 A 
ATOM     92  C   UNL A   1      50.321  26.397  27.419  1.00  0.00     0.135 A 
ATOM     93  C   UNL A   1      49.729  27.096  25.195  1.00  0.00     0.135 A 
ATOM     94  F   UNL A   1      50.060  26.304  28.732  1.00  0.00    -0.206 F 
ATOM     95  C   UNL A   1      51.526  25.887  26.948  1.00  0.00     0.059 A 
ATOM     96  C   UNL A   1      50.916  26.569  24.698  1.00  0.00     0.059 A 
ATOM     97  F   UNL A   1      48.881  27.672  24.329  1.00  0.00    -0.206 F 
ATOM     98  C   UNL A   1      51.814  25.975  25.584  1.00  0.00     0.060 A 
BRANCH  98  99
ATOM     99  S   UNL A   1      53.364  25.276  24.978  1.00  0.00     0.124 S 
ATOM    100  O   UNL A   1      53.182  23.858  25.273  1.00  0.00    -0.237 OA
ATOM    101  O   UNL A   1      53.338  25.637  23.564  1.00  0.00    -0.237 OA
ATOM    102  O   UNL A   1      54.379  25.958  25.775  1.00  0.00    -0.744 OA
ENDBRANCH  98  99
ENDBRANCH  66  91
ENDBRANCH  40  41
ENDBRANCH  32  35
ENDBRANCH  30  31
ENDBRANCH   1  30
TORSDOF 16
ENDMDL
MODEL 2
REMARK VINA RESULT:     -12.5      6.937     13.528
REMARK SMILES CC1=NN(c2ccc(Cl)c(C(=O)NCCCCNC(=O)c3ccc(-c4c5nc(c(-c6c(F)cc(S(=O)(=O)[O-])cc6F)c6ccc([nH]6)c(-c6c(F)cc(S(=O)(=O)[O-])cc6F)c6nc(c(-c7c(F)cc(S(=O)(=O)[O-])cc7F)c7ccc4[nH]7)C=C6)C=C5)cc3)c2)C(=O)/C1=C\c1ccccc1Cl
REMARK SMILES IDX 16 1 15 2 14 3 13 4 11 5 12 6 10 8 5 9 6 10 87 11 7 12 8 13
REMARK SMILES IDX 9 14 4 15 1 16 2 17 3 18 90 19 88 20 91 21 89 22 92 23 93 24
REMARK SMILES IDX 97 25 94 26 96 27 98 28 95 29 17 30 18 31 19 32 20 34 21 35
REMARK SMILES IDX 22 36 86 37 23 38 85 39 24 40 25 41 26 42 79 43 27 44 84 45
REMARK SMILES IDX 78 46 80 47 28 48 83 49 77 50 76 51 29 53 63 54 42 55 62 56
REMARK SMILES IDX 43 57 46 58 61 59 81 60 44 61 45 62 60 64 82 65 47 66 30 67
REMARK SMILES IDX 31 68 40 69 32 70 33 71 39 72 41 73 34 74 35 75 36 76 37 77
REMARK SMILES IDX 38 78 64 79 65 80 74 81 66 82 67 83 73 84 75 85 68 86 69 87
REMARK SMILES IDX 70 88 71 89 72 90 48 91 49 92 58 93 50 94 51 95 57 96 59 97
REMARK SMILES IDX 52 98 53 99 54 100 55 101 56 102
REMARK H PARENT 13 7 18 33 80 52 46 63
REMARK Flexibility Score: inf
ROOT
ATOM      1  C   UNL A   1      42.775  22.938  28.094  1.00  0.00     0.023 C 
ENDROOT
BRANCH   1   2
ATOM      2  C   UNL A   1      43.017  23.637  29.429  1.00  0.00     0.023 C 
BRANCH   2   3
ATOM      3  C   UNL A   1      44.190  23.130  30.257  1.00  0.00     0.116 C 
BRANCH   3   4
ATOM      4  N   UNL A   1      44.019  23.227  31.696  1.00  0.00    -0.352 N 
ATOM      5  C   UNL A   1      44.484  24.175  32.583  1.00  0.00     0.252 C 
ATOM      6  O   UNL A   1      44.180  24.075  33.772  1.00  0.00    -0.269 OA
ATOM      7  H   UNL A   1      43.488  22.505  32.102  1.00  0.00     0.163 HD
BRANCH   5   8
ATOM      8  C   UNL A   1      45.403  25.271  32.173  1.00  0.00     0.060 A 
ATOM      9  C   UNL A   1      45.917  26.989  30.521  1.00  0.00     0.070 A 
ATOM     10  C   UNL A   1      47.021  27.366  31.292  1.00  0.00     0.030 A 
ATOM     11  C   UNL A   1      45.045  26.012  31.019  1.00  0.00     0.044 A 
ATOM     12  C   UNL A   1      47.392  26.633  32.408  1.00  0.00     0.023 A 
ATOM     13  C   UNL A   1      46.646  25.514  32.776  1.00  0.00     0.053 A 
ATOM     14  Cl  UNL A   1      47.458  24.403  33.822  1.00  0.00    -0.083 Cl
BRANCH   9  15
ATOM     15  N   UNL A   1      45.850  27.450  29.189  1.00  0.00    -0.196 N 
ATOM     16  C   UNL A   1      45.155  29.990  26.732  1.00  0.00     0.069 C 
ATOM     17  C   UNL A   1      45.418  28.769  27.548  1.00  0.00     0.071 C 
ATOM     18  N   UNL A   1      45.435  28.733  28.860  1.00  0.00    -0.169 NA
ATOM     19  C   UNL A   1      45.705  27.453  26.945  1.00  0.00     0.065 C 
ATOM     20  C   UNL A   1      46.092  26.609  28.090  1.00  0.00     0.280 C 
ATOM     21  C   UNL A   1      45.516  27.052  25.679  1.00  0.00     0.025 C 
ATOM     22  O   UNL A   1      46.490  25.458  28.043  1.00  0.00    -0.267 OA
BRANCH  21  23
ATOM     23  C   UNL A   1      45.577  25.626  25.303  1.00  0.00    -0.006 A 
ATOM     24  C   UNL A   1      44.391  24.881  25.248  1.00  0.00     0.009 A 
ATOM     25  C   UNL A   1      46.781  25.013  24.897  1.00  0.00     0.048 A 
ATOM     26  C   UNL A   1      44.403  23.566  24.771  1.00  0.00     0.001 A 
ATOM     27  C   UNL A   1      46.786  23.702  24.413  1.00  0.00     0.021 A 
ATOM     28  Cl  UNL A   1      48.296  25.851  24.958  1.00  0.00    -0.084 Cl
ATOM     29  C   UNL A   1      45.595  22.981  24.344  1.00  0.00     0.002 A 
ENDBRANCH  21  23
ENDBRANCH   9  15
ENDBRANCH   5   8
ENDBRANCH   3   4
ENDBRANCH   2   3
ENDBRANCH   1   2
BRANCH   1  30
ATOM     30  C   UNL A   1      41.349  22.963  27.548  1.00  0.00     0.116 C 
BRANCH  30  31
ATOM     31  N   UNL A   1      41.170  23.811  26.379  1.00  0.00    -0.352 N 
ATOM     32  C   UNL A   1      40.953  25.168  26.298  1.00  0.00     0.251 C 
ATOM     33  H   UNL A   1      41.211  23.343  25.514  1.00  0.00     0.163 HD
ATOM     34  O   UNL A   1      40.761  25.688  25.201  1.00  0.00    -0.269 OA
BRANCH  32  35
ATOM     35  C   UNL A   1      40.904  25.995  27.525  1.00  0.00     0.039 A 
ATOM     36  C   UNL A   1      41.963  26.868  27.793  1.00  0.00     0.014 A 
ATOM     37  C   UNL A   1      39.818  25.932  28.400  1.00  0.00     0.014 A 
ATOM     38  C   UNL A   1      41.890  27.737  28.885  1.00  0.00     0.010 A 
ATOM     39  C   UNL A   1      39.706  26.857  29.434  1.00  0.00     0.010 A 
ATOM     40  C   UNL A   1      40.739  27.773  29.690  1.00  0.00    -0.014 A 
BRANCH  40  41
ATOM     41  C   UNL A   1      40.598  28.755  30.799  1.00  0.00     0.031 A 
ATOM     42  C   UNL A   1      41.463  28.639  32.026  1.00  0.00     0.074 A 
ATOM     43  C   UNL A   1      39.647  29.708  30.732  1.00  0.00     0.049 A 
ATOM     44  N   UNL A   1      41.446  29.359  33.119  1.00  0.00    -0.248 NA
ATOM     45  C   UNL A   1      42.457  27.555  32.038  1.00  0.00     0.031 C 
ATOM     46  C   UNL A   1      38.705  29.892  29.625  1.00  0.00     0.029 A 
ATOM     47  N   UNL A   1      39.308  30.703  31.618  1.00  0.00    -0.354 N 
ATOM     48  C   UNL A   1      42.412  28.804  33.952  1.00  0.00     0.074 A 
ATOM     49  C   UNL A   1      42.952  27.652  33.263  1.00  0.00     0.031 C 
ATOM     50  C   UNL A   1      37.919  30.948  29.883  1.00  0.00     0.029 A 
ATOM     51  C   UNL A   1      38.272  31.499  31.188  1.00  0.00     0.049 A 
ATOM     52  H   UNL A   1      39.764  30.833  32.480  1.00  0.00     0.167 HD
ATOM     53  C   UNL A   1      42.832  29.230  35.168  1.00  0.00     0.037 A 
ATOM     54  C   UNL A   1      37.674  32.554  31.778  1.00  0.00     0.037 A 
ATOM     55  C   UNL A   1      42.313  30.394  35.836  1.00  0.00     0.049 A 
ATOM     56  C   UNL A   1      38.165  33.016  33.123  1.00  0.00     0.074 A 
ATOM     57  C   UNL A   1      42.710  30.944  37.042  1.00  0.00     0.029 A 
ATOM     58  N   UNL A   1      41.283  31.190  35.355  1.00  0.00    -0.354 N 
ATOM     59  N   UNL A   1      39.124  32.519  33.866  1.00  0.00    -0.248 NA
ATOM     60  C   UNL A   1      37.499  34.190  33.706  1.00  0.00     0.031 C 
ATOM     61  C   UNL A   1      41.896  32.049  37.309  1.00  0.00     0.029 A 
ATOM     62  C   UNL A   1      41.022  32.218  36.246  1.00  0.00     0.049 A 
ATOM     63  H   UNL A   1      40.808  31.046  34.505  1.00  0.00     0.167 HD
ATOM     64  C   UNL A   1      39.197  33.335  34.990  1.00  0.00     0.074 A 
ATOM     65  C   UNL A   1      38.191  34.364  34.824  1.00  0.00     0.031 C 
ATOM     66  C   UNL A   1      40.025  33.242  36.060  1.00  0.00     0.037 A 
BRANCH  53  67
ATOM     67  C   UNL A   1      43.916  28.436  35.845  1.00  0.00     0.058 A 
ATOM     68  C   UNL A   1      45.276  28.690  35.602  1.00  0.00     0.135 A 
ATOM     69  C   UNL A   1      43.595  27.422  36.762  1.00  0.00     0.135 A 
ATOM     70  F   UNL A   1      45.640  29.637  34.724  1.00  0.00    -0.206 F 
ATOM     71  C   UNL A   1      46.277  27.943  36.214  1.00  0.00     0.059 A 
ATOM     72  C   UNL A   1      44.582  26.683  37.411  1.00  0.00     0.059 A 
ATOM     73  F   UNL A   1      42.312  27.137  37.036  1.00  0.00    -0.206 F 
ATOM     74  C   UNL A   1      45.920  26.939  37.115  1.00  0.00     0.060 A 
BRANCH  74  75
ATOM     75  S   UNL A   1      47.232  25.977  37.897  1.00  0.00     0.124 S 
ATOM     76  O   UNL A   1      46.710  24.619  37.773  1.00  0.00    -0.237 OA
ATOM     77  O   UNL A   1      48.389  26.290  37.063  1.00  0.00    -0.237 OA
ATOM     78  O   UNL A   1      47.280  26.509  39.256  1.00  0.00    -0.744 OA
ENDBRANCH  74  75
ENDBRANCH  53  67
BRANCH  54  79
ATOM     79  C   UNL A   1      36.571  33.268  31.080  1.00  0.00     0.058 A 
ATOM     80  C   UNL A   1      36.834  34.093  29.977  1.00  0.00     0.135 A 
ATOM     81  C   UNL A   1      35.235  33.129  31.488  1.00  0.00     0.135 A 
ATOM     82  F   UNL A   1      38.095  34.264  29.552  1.00  0.00    -0.206 F 
ATOM     83  C   UNL A   1      35.815  34.768  29.311  1.00  0.00     0.059 A 
ATOM     84  C   UNL A   1      34.196  33.774  30.823  1.00  0.00     0.059 A 
ATOM     85  F   UNL A   1      34.928  32.338  32.528  1.00  0.00    -0.206 F 
ATOM     86  C   UNL A   1      34.498  34.599  29.740  1.00  0.00     0.060 A 
BRANCH  86  87
ATOM     87  S   UNL A   1      33.178  35.437  28.835  1.00  0.00     0.124 S 
ATOM     88  O   UNL A   1      32.569  34.328  28.110  1.00  0.00    -0.237 OA
ATOM     89  O   UNL A   1      32.380  36.008  29.916  1.00  0.00    -0.237 OA
ATOM     90  O   UNL A   1      33.897  36.410  28.017  1.00  0.00    -0.744 OA
ENDBRANCH  86  87
ENDBRANCH  54  79
BRANCH  66  91
ATOM     91  C   UNL A   1      39.909  34.303  37.120  1.00  0.00     0.058 A 
ATOM     92  C   UNL A   1      40.540  35.550  36.991  1.00  0.00     0.135 A 
ATOM     93  C   UNL A   1      39.107  34.087  38.254  1.00  0.00     0.135 A 
ATOM     94  F   UNL A   1      41.321  35.805  35.930  1.00  0.00    -0.206 F 
ATOM     95  C   UNL A   1      40.397  36.539  37.959  1.00  0.00     0.059 A 
ATOM     96  C   UNL A   1      38.930  35.071  39.221  1.00  0.00     0.059 A 
ATOM     97  F   UNL A   1      38.474  32.915  38.420  1.00  0.00    -0.206 F 
ATOM     98  C   UNL A   1      39.588  36.291  39.069  1.00  0.00     0.060 A 
BRANCH  98  99
ATOM     99  S   UNL A   1      39.380  37.595  40.300  1.00  0.00     0.124 S 
ATOM    100  O   UNL A   1      38.441  38.488  39.627  1.00  0.00    -0.237 OA
ATOM    101  O   UNL A   1      38.849  36.863  41.445  1.00  0.00    -0.237 OA
ATOM    102  O   UNL A   1      40.732  38.120  40.470  1.00  0.00    -0.744 OA
ENDBRANCH  98  99
ENDBRANCH  66  91
ENDBRANCH  40  41
ENDBRANCH  32  35
ENDBRANCH  30  31
ENDBRANCH   1  30
TORSDOF 16
ENDMDL
MODEL 3
REMARK VINA RESULT:     -12.4      4.641      8.155
REMARK SMILES CC1=NN(c2ccc(Cl)c(C(=O)NCCCCNC(=O)c3ccc(-c4c5nc(c(-c6c(F)cc(S(=O)(=O)[O-])cc6F)c6ccc([nH]6)c(-c6c(F)cc(S(=O)(=O)[O-])cc6F)c6nc(c(-c7c(F)cc(S(=O)(=O)[O-])cc7F)c7ccc4[nH]7)C=C6)C=C5)cc3)c2)C(=O)/C1=C\c1ccccc1Cl
REMARK SMILES IDX 16 1 15 2 14 3 13 4 11 5 12 6 10 8 5 9 6 10 87 11 7 12 8 13
REMARK SMILES IDX 9 14 4 15 1 16 2 17 3 18 90 19 88 20 91 21 89 22 92 23 93 24
REMARK SMILES IDX 97 25 94 26 96 27 98 28 95 29 17 30 18 31 19 32 20 34 21 35
REMARK SMILES IDX 22 36 86 37 23 38 85 39 24 40 25 41 26 42 79 43 27 44 84 45
REMARK SMILES IDX 78 46 80 47 28 48 83 49 77 50 76 51 29 53 63 54 42 55 62 56
REMARK SMILES IDX 43 57 46 58 61 59 81 60 44 61 45 62 60 64 82 65 47 66 30 67
REMARK SMILES IDX 31 68 40 69 32 70 33 71 39 72 41 73 34 74 35 75 36 76 37 77
REMARK SMILES IDX 38 78 64 79 65 80 74 81 66 82 67 83 73 84 75 85 68 86 69 87
REMARK SMILES IDX 70 88 71 89 72 90 48 91 49 92 58 93 50 94 51 95 57 96 59 97
REMARK SMILES IDX 52 98 53 99 54 100 55 101 56 102
REMARK H PARENT 13 7 18 33 80 52 46 63
REMARK Flexibility Score: inf
ROOT
ATOM      1  C   UNL A   1      35.095  32.531  31.197  1.00  0.00     0.023 C 
ENDROOT
BRANCH   1   2
ATOM      2  C   UNL A   1      36.387  32.611  32.006  1.00  0.00     0.023 C 
BRANCH   2   3
ATOM      3  C   UNL A   1      36.874  31.312  32.633  1.00  0.00     0.116 C 
BRANCH   3   4
ATOM      4  N   UNL A   1      36.909  31.302  34.086  1.00  0.00    -0.352 N 
ATOM      5  C   UNL A   1      37.985  31.333  34.948  1.00  0.00     0.252 C 
ATOM      6  O   UNL A   1      37.772  31.355  36.160  1.00  0.00    -0.269 OA
ATOM      7  H   UNL A   1      36.028  31.267  34.522  1.00  0.00     0.163 HD
BRANCH   5   8
ATOM      8  C   UNL A   1      39.393  31.264  34.473  1.00  0.00     0.060 A 
ATOM      9  C   UNL A   1      41.499  30.035  34.511  1.00  0.00     0.070 A 
ATOM     10  C   UNL A   1      42.042  30.987  33.643  1.00  0.00     0.030 A 
ATOM     11  C   UNL A   1      40.139  30.116  34.839  1.00  0.00     0.044 A 
ATOM     12  C   UNL A   1      41.327  32.124  33.299  1.00  0.00     0.023 A 
ATOM     13  C   UNL A   1      40.047  32.315  33.813  1.00  0.00     0.053 A 
ATOM     14  Cl  UNL A   1      39.468  33.943  33.757  1.00  0.00    -0.083 Cl
BRANCH   9  15
ATOM     15  N   UNL A   1      42.386  29.170  35.185  1.00  0.00    -0.196 N 
ATOM     16  C   UNL A   1      44.852  28.488  37.721  1.00  0.00     0.069 C 
ATOM     17  C   UNL A   1      43.925  28.554  36.554  1.00  0.00     0.071 C 
ATOM     18  N   UNL A   1      43.180  29.589  36.244  1.00  0.00    -0.169 NA
ATOM     19  C   UNL A   1      43.742  27.429  35.616  1.00  0.00     0.065 C 
ATOM     20  C   UNL A   1      42.616  27.851  34.763  1.00  0.00     0.280 C 
ATOM     21  C   UNL A   1      44.506  26.337  35.456  1.00  0.00     0.025 C 
ATOM     22  O   UNL A   1      42.072  27.188  33.897  1.00  0.00    -0.267 OA
BRANCH  21  23
ATOM     23  C   UNL A   1      44.355  25.454  34.284  1.00  0.00    -0.006 A 
ATOM     24  C   UNL A   1      45.072  25.740  33.115  1.00  0.00     0.009 A 
ATOM     25  C   UNL A   1      43.591  24.269  34.337  1.00  0.00     0.048 A 
ATOM     26  C   UNL A   1      45.049  24.851  32.035  1.00  0.00     0.001 A 
ATOM     27  C   UNL A   1      43.578  23.380  33.259  1.00  0.00     0.021 A 
ATOM     28  Cl  UNL A   1      42.653  23.851  35.732  1.00  0.00    -0.084 Cl
ATOM     29  C   UNL A   1      44.313  23.668  32.110  1.00  0.00     0.002 A 
ENDBRANCH  21  23
ENDBRANCH   9  15
ENDBRANCH   5   8
ENDBRANCH   3   4
ENDBRANCH   2   3
ENDBRANCH   1   2
BRANCH   1  30
ATOM     30  C   UNL A   1      35.225  32.616  29.677  1.00  0.00     0.116 C 
BRANCH  30  31
ATOM     31  N   UNL A   1      34.404  31.657  28.952  1.00  0.00    -0.352 N 
ATOM     32  C   UNL A   1      34.750  30.455  28.377  1.00  0.00     0.251 C 
ATOM     33  H   UNL A   1      33.456  31.907  28.859  1.00  0.00     0.163 HD
ATOM     34  O   UNL A   1      33.909  29.819  27.747  1.00  0.00    -0.269 OA
BRANCH  32  35
ATOM     35  C   UNL A   1      36.137  29.948  28.477  1.00  0.00     0.039 A 
ATOM     36  C   UNL A   1      36.981  30.067  27.368  1.00  0.00     0.014 A 
ATOM     37  C   UNL A   1      36.618  29.377  29.658  1.00  0.00     0.014 A 
ATOM     38  C   UNL A   1      38.324  29.696  27.473  1.00  0.00     0.010 A 
ATOM     39  C   UNL A   1      37.974  29.093  29.788  1.00  0.00     0.010 A 
ATOM     40  C   UNL A   1      38.846  29.250  28.698  1.00  0.00    -0.014 A 
BRANCH  40  41
ATOM     41  C   UNL A   1      40.293  28.941  28.859  1.00  0.00     0.031 A 
ATOM     42  C   UNL A   1      41.243  30.004  29.345  1.00  0.00     0.074 A 
ATOM     43  C   UNL A   1      40.762  27.728  28.505  1.00  0.00     0.049 A 
ATOM     44  N   UNL A   1      42.543  29.946  29.491  1.00  0.00    -0.248 NA
ATOM     45  C   UNL A   1      40.660  31.312  29.684  1.00  0.00     0.031 C 
ATOM     46  C   UNL A   1      39.956  26.631  27.965  1.00  0.00     0.029 A 
ATOM     47  N   UNL A   1      42.036  27.213  28.538  1.00  0.00    -0.354 N 
ATOM     48  C   UNL A   1      42.932  31.210  29.920  1.00  0.00     0.074 A 
ATOM     49  C   UNL A   1      41.741  32.030  29.952  1.00  0.00     0.031 C 
ATOM     50  C   UNL A   1      40.745  25.567  27.747  1.00  0.00     0.029 A 
ATOM     51  C   UNL A   1      42.120  25.913  28.096  1.00  0.00     0.049 A 
ATOM     52  H   UNL A   1      42.816  27.727  28.849  1.00  0.00     0.167 HD
ATOM     53  C   UNL A   1      44.164  31.643  30.282  1.00  0.00     0.037 A 
ATOM     54  C   UNL A   1      43.183  25.093  27.984  1.00  0.00     0.037 A 
ATOM     55  C   UNL A   1      45.341  30.814  30.277  1.00  0.00     0.049 A 
ATOM     56  C   UNL A   1      44.540  25.590  28.403  1.00  0.00     0.074 A 
ATOM     57  C   UNL A   1      46.624  31.139  30.681  1.00  0.00     0.029 A 
ATOM     58  N   UNL A   1      45.379  29.495  29.848  1.00  0.00    -0.354 N 
ATOM     59  N   UNL A   1      44.879  26.769  28.869  1.00  0.00    -0.248 NA
ATOM     60  C   UNL A   1      45.660  24.645  28.291  1.00  0.00     0.031 C 
ATOM     61  C   UNL A   1      47.446  30.030  30.460  1.00  0.00     0.029 A 
ATOM     62  C   UNL A   1      46.666  28.996  29.964  1.00  0.00     0.049 A 
ATOM     63  H   UNL A   1      44.606  28.988  29.513  1.00  0.00     0.167 HD
ATOM     64  C   UNL A   1      46.242  26.697  29.132  1.00  0.00     0.074 A 
ATOM     65  C   UNL A   1      46.665  25.356  28.783  1.00  0.00     0.031 C 
ATOM     66  C   UNL A   1      47.068  27.654  29.623  1.00  0.00     0.037 A 
BRANCH  53  67
ATOM     67  C   UNL A   1      44.294  33.075  30.725  1.00  0.00     0.058 A 
ATOM     68  C   UNL A   1      44.522  33.412  32.070  1.00  0.00     0.135 A 
ATOM     69  C   UNL A   1      44.212  34.123  29.795  1.00  0.00     0.135 A 
ATOM     70  F   UNL A   1      44.595  32.450  33.004  1.00  0.00    -0.206 F 
ATOM     71  C   UNL A   1      44.624  34.736  32.482  1.00  0.00     0.059 A 
ATOM     72  C   UNL A   1      44.342  35.455  30.180  1.00  0.00     0.059 A 
ATOM     73  F   UNL A   1      43.998  33.861  28.496  1.00  0.00    -0.206 F 
ATOM     74  C   UNL A   1      44.529  35.751  31.529  1.00  0.00     0.060 A 
BRANCH  74  75
ATOM     75  S   UNL A   1      44.659  37.465  32.082  1.00  0.00     0.124 S 
ATOM     76  O   UNL A   1      46.107  37.651  32.112  1.00  0.00    -0.237 OA
ATOM     77  O   UNL A   1      43.949  38.188  31.033  1.00  0.00    -0.237 OA
ATOM     78  O   UNL A   1      44.003  37.452  33.387  1.00  0.00    -0.744 OA
ENDBRANCH  74  75
ENDBRANCH  53  67
BRANCH  54  79
ATOM     79  C   UNL A   1      43.000  23.701  27.489  1.00  0.00     0.058 A 
ATOM     80  C   UNL A   1      43.255  23.375  26.149  1.00  0.00     0.135 A 
ATOM     81  C   UNL A   1      42.583  22.669  28.345  1.00  0.00     0.135 A 
ATOM     82  F   UNL A   1      43.649  24.328  25.291  1.00  0.00    -0.206 F 
ATOM     83  C   UNL A   1      43.090  22.080  25.669  1.00  0.00     0.059 A 
ATOM     84  C   UNL A   1      42.435  21.361  27.894  1.00  0.00     0.059 A 
ATOM     85  F   UNL A   1      42.342  22.925  29.639  1.00  0.00    -0.206 F 
ATOM     86  C   UNL A   1      42.683  21.078  26.551  1.00  0.00     0.060 A 
BRANCH  86  87
ATOM     87  S   UNL A   1      42.524  19.389  25.929  1.00  0.00     0.124 S 
ATOM     88  O   UNL A   1      43.035  18.613  27.052  1.00  0.00    -0.237 OA
ATOM     89  O   UNL A   1      41.089  19.287  25.682  1.00  0.00    -0.237 OA
ATOM     90  O   UNL A   1      43.359  19.393  24.731  1.00  0.00    -0.744 OA
ENDBRANCH  86  87
ENDBRANCH  54  79
BRANCH  66  91
ATOM     91  C   UNL A   1      48.506  27.278  29.852  1.00  0.00     0.058 A 
ATOM     92  C   UNL A   1      49.494  27.505  28.882  1.00  0.00     0.135 A 
ATOM     93  C   UNL A   1      48.909  26.736  31.085  1.00  0.00     0.135 A 
ATOM     94  F   UNL A   1      49.162  28.015  27.686  1.00  0.00    -0.206 F 
ATOM     95  C   UNL A   1      50.828  27.188  29.116  1.00  0.00     0.059 A 
ATOM     96  C   UNL A   1      50.241  26.436  31.350  1.00  0.00     0.059 A 
ATOM     97  F   UNL A   1      48.005  26.509  32.051  1.00  0.00    -0.206 F 
ATOM     98  C   UNL A   1      51.192  26.656  30.355  1.00  0.00     0.060 A 
BRANCH  98  99
ATOM     99  S   UNL A   1      52.932  26.284  30.661  1.00  0.00     0.124 S 
ATOM    100  O   UNL A   1      53.418  26.019  29.311  1.00  0.00    -0.237 OA
ATOM    101  O   UNL A   1      53.412  27.517  31.277  1.00  0.00    -0.237 OA
ATOM    102  O   UNL A   1      52.881  25.125  31.548  1.00  0.00    -0.744 OA
ENDBRANCH  98  99
ENDBRANCH  66  91
ENDBRANCH  40  41
ENDBRANCH  32  35
ENDBRANCH  30  31
ENDBRANCH   1  30
TORSDOF 16
ENDMDL
