MODEL 1
REMARK VINA RESULT:     -10.4      0.000      0.000
REMARK SMILES CCCCCCNC(=O)Oc1cccc(-c2ccc([C@@H](C)C(=O)NCCCCNC(=O)c3ccc(-c4c5nc(c(-c6c(F)cc(S(=O)(=O)[O-])cc6F)c6ccc([nH]6)c(-c6c(F)cc(S(=O)(=O)[O-])cc6F)c6nc(c(-c7c(F)cc(S(=O)(=O)[O-])cc7F)c7ccc4[nH]7)C=C6)C=C5)cc3)cc2[N+](=O)[O-])c1
REMARK SMILES IDX 20 1 21 2 19 3 16 4 17 5 99 6 18 7 98 8 15 9 11 10 12 11
REMARK SMILES IDX 103 12 13 13 14 14 10 15 8 16 7 17 9 19 6 20 5 21 4 22 3 23
REMARK SMILES IDX 2 24 1 25 100 26 101 27 102 28 22 29 23 30 24 31 25 33 26 34
REMARK SMILES IDX 27 35 28 36 29 37 30 38 31 40 32 41 33 42 97 43 34 44 96 45
REMARK SMILES IDX 35 46 36 47 37 48 90 49 38 50 95 51 89 52 91 53 39 54 94 55
REMARK SMILES IDX 88 56 87 57 40 59 74 60 53 61 73 62 54 63 57 64 72 65 92 66
REMARK SMILES IDX 55 67 56 68 71 70 93 71 58 72 41 73 42 74 51 75 43 76 44 77
REMARK SMILES IDX 50 78 52 79 45 80 46 81 47 82 48 83 49 84 75 85 76 86 85 87
REMARK SMILES IDX 77 88 78 89 84 90 86 91 79 92 80 93 81 94 82 95 83 96 59 97
REMARK SMILES IDX 60 98 69 99 61 100 62 101 68 102 70 103 63 104 64 105 65 106
REMARK SMILES IDX 66 107 67 108
REMARK H PARENT 7 18 24 32 29 39 91 58 57 69
REMARK Flexibility Score: inf
ROOT
ATOM      1  C   UNL A   1      35.458  32.912  29.211  1.00  0.00     0.105 C 
ATOM      2  C   UNL A   1      36.747  33.586  28.743  1.00  0.00     0.023 C 
ENDROOT
BRANCH   1   3
ATOM      3  C   UNL A   1      35.033  31.694  28.402  1.00  0.00    -0.029 A 
ATOM      4  C   UNL A   1      34.234  29.503  26.713  1.00  0.00     0.060 A 
ATOM      5  C   UNL A   1      35.540  29.629  27.216  1.00  0.00     0.016 A 
ATOM      6  C   UNL A   1      33.315  30.479  27.150  1.00  0.00     0.277 A 
ATOM      7  C   UNL A   1      35.912  30.660  28.086  1.00  0.00     0.005 A 
ATOM      8  C   UNL A   1      33.714  31.581  27.939  1.00  0.00     0.090 A 
BRANCH   4   9
ATOM      9  C   UNL A   1      33.946  28.388  25.780  1.00  0.00    -0.008 A 
ATOM     10  C   UNL A   1      33.092  27.515  23.681  1.00  0.00     0.133 A 
ATOM     11  C   UNL A   1      33.434  26.215  24.038  1.00  0.00     0.047 A 
ATOM     12  C   UNL A   1      33.357  28.598  24.522  1.00  0.00     0.056 A 
ATOM     13  C   UNL A   1      34.051  25.991  25.262  1.00  0.00     0.004 A 
ATOM     14  C   UNL A   1      34.288  27.062  26.126  1.00  0.00     0.009 A 
BRANCH  10  15
ATOM     15  O   UNL A   1      32.311  27.654  22.520  1.00  0.00    -0.410 OA
BRANCH  15  16
ATOM     16  C   UNL A   1      31.143  28.399  22.555  1.00  0.00     0.412 C 
ATOM     17  N   UNL A   1      30.067  27.669  22.979  1.00  0.00    -0.321 N 
ATOM     18  H   UNL A   1      29.193  28.119  22.966  1.00  0.00     0.167 HD
ATOM     19  O   UNL A   1      31.035  29.578  22.245  1.00  0.00    -0.224 OA
BRANCH  17  20
ATOM     20  C   UNL A   1      30.089  26.296  23.446  1.00  0.00     0.119 C 
BRANCH  20  21
ATOM     21  C   UNL A   1      29.214  26.100  24.685  1.00  0.00     0.021 C 
BRANCH  21  22
ATOM     22  C   UNL A   1      29.960  25.598  25.926  1.00  0.00     0.002 C 
BRANCH  22  23
ATOM     23  C   UNL A   1      30.520  24.175  25.825  1.00  0.00    -0.000 C 
BRANCH  23  24
ATOM     24  C   UNL A   1      31.675  23.857  26.778  1.00  0.00    -0.003 C 
ATOM     25  C   UNL A   1      32.546  22.705  26.302  1.00  0.00     0.004 C 
ENDBRANCH  23  24
ENDBRANCH  22  23
ENDBRANCH  21  22
ENDBRANCH  20  21
ENDBRANCH  17  20
ENDBRANCH  15  16
ENDBRANCH  10  15
ENDBRANCH   4   9
BRANCH   6  26
ATOM     26  N   UNL A   1      31.880  30.347  26.897  1.00  0.00     0.063 N 
ATOM     27  O   UNL A   1      31.319  29.326  27.320  1.00  0.00    -0.258 OA
ATOM     28  O   UNL A   1      31.328  31.223  26.217  1.00  0.00    -0.258 OA
ENDBRANCH   6  26
ENDBRANCH   1   3
BRANCH   1  29
ATOM     29  C   UNL A   1      34.313  33.889  29.531  1.00  0.00     0.227 C 
ATOM     30  O   UNL A   1      33.380  34.013  28.729  1.00  0.00    -0.274 OA
ATOM     31  N   UNL A   1      34.237  34.634  30.666  1.00  0.00    -0.356 N 
ATOM     32  H   UNL A   1      33.401  35.147  30.753  1.00  0.00     0.163 HD
BRANCH  31  33
ATOM     33  C   UNL A   1      35.155  34.815  31.771  1.00  0.00     0.116 C 
BRANCH  33  34
ATOM     34  C   UNL A   1      35.232  33.568  32.657  1.00  0.00     0.023 C 
BRANCH  34  35
ATOM     35  C   UNL A   1      36.553  33.384  33.397  1.00  0.00     0.023 C 
BRANCH  35  36
ATOM     36  C   UNL A   1      37.323  32.119  33.040  1.00  0.00     0.116 C 
BRANCH  36  37
ATOM     37  N   UNL A   1      36.493  31.052  32.497  1.00  0.00    -0.352 N 
ATOM     38  C   UNL A   1      36.846  30.094  31.572  1.00  0.00     0.251 C 
ATOM     39  H   UNL A   1      35.568  31.010  32.831  1.00  0.00     0.163 HD
ATOM     40  O   UNL A   1      36.014  29.301  31.147  1.00  0.00    -0.269 OA
BRANCH  38  41
ATOM     41  C   UNL A   1      38.235  30.075  31.070  1.00  0.00     0.039 A 
ATOM     42  C   UNL A   1      39.223  29.455  31.835  1.00  0.00     0.014 A 
ATOM     43  C   UNL A   1      38.528  30.577  29.799  1.00  0.00     0.014 A 
ATOM     44  C   UNL A   1      40.492  29.258  31.285  1.00  0.00     0.010 A 
ATOM     45  C   UNL A   1      39.763  30.304  29.224  1.00  0.00     0.010 A 
ATOM     46  C   UNL A   1      40.755  29.634  29.958  1.00  0.00    -0.014 A 
BRANCH  46  47
ATOM     47  C   UNL A   1      42.053  29.322  29.308  1.00  0.00     0.031 A 
ATOM     48  C   UNL A   1      42.307  27.944  28.762  1.00  0.00     0.074 A 
ATOM     49  C   UNL A   1      43.027  30.254  29.283  1.00  0.00     0.049 A 
ATOM     50  N   UNL A   1      43.399  27.455  28.232  1.00  0.00    -0.248 NA
ATOM     51  C   UNL A   1      41.200  26.979  28.851  1.00  0.00     0.031 C 
ATOM     52  C   UNL A   1      42.921  31.607  29.835  1.00  0.00     0.029 A 
ATOM     53  N   UNL A   1      44.304  30.202  28.783  1.00  0.00    -0.354 N 
ATOM     54  C   UNL A   1      43.114  26.126  27.940  1.00  0.00     0.074 A 
ATOM     55  C   UNL A   1      41.769  25.870  28.404  1.00  0.00     0.031 C 
ATOM     56  C   UNL A   1      44.073  32.263  29.620  1.00  0.00     0.029 A 
ATOM     57  C   UNL A   1      45.013  31.370  28.952  1.00  0.00     0.049 A 
ATOM     58  H   UNL A   1      44.679  29.404  28.344  1.00  0.00     0.167 HD
ATOM     59  C   UNL A   1      43.894  25.212  27.316  1.00  0.00     0.037 A 
ATOM     60  C   UNL A   1      46.279  31.682  28.613  1.00  0.00     0.037 A 
ATOM     61  C   UNL A   1      45.221  25.485  26.831  1.00  0.00     0.049 A 
ATOM     62  C   UNL A   1      47.125  30.649  27.918  1.00  0.00     0.074 A 
ATOM     63  C   UNL A   1      46.068  24.647  26.127  1.00  0.00     0.029 A 
ATOM     64  N   UNL A   1      45.896  26.685  27.001  1.00  0.00    -0.354 N 
ATOM     65  N   UNL A   1      46.815  29.419  27.584  1.00  0.00    -0.248 NA
ATOM     66  C   UNL A   1      48.490  31.046  27.550  1.00  0.00     0.031 C 
ATOM     67  C   UNL A   1      47.271  25.325  25.910  1.00  0.00     0.029 A 
ATOM     68  C   UNL A   1      47.157  26.603  26.434  1.00  0.00     0.049 A 
ATOM     69  H   UNL A   1      45.532  27.477  27.456  1.00  0.00     0.167 HD
ATOM     70  C   UNL A   1      47.937  28.903  26.946  1.00  0.00     0.074 A 
ATOM     71  C   UNL A   1      48.928  29.960  26.927  1.00  0.00     0.031 C 
ATOM     72  C   UNL A   1      48.130  27.667  26.422  1.00  0.00     0.037 A 
BRANCH  59  73
ATOM     73  C   UNL A   1      43.325  23.834  27.114  1.00  0.00     0.058 A 
ATOM     74  C   UNL A   1      42.905  23.389  25.849  1.00  0.00     0.135 A 
ATOM     75  C   UNL A   1      43.223  22.937  28.189  1.00  0.00     0.135 A 
ATOM     76  F   UNL A   1      42.963  24.211  24.789  1.00  0.00    -0.206 F 
ATOM     77  C   UNL A   1      42.376  22.117  25.664  1.00  0.00     0.059 A 
ATOM     78  C   UNL A   1      42.726  21.648  28.021  1.00  0.00     0.059 A 
ATOM     79  F   UNL A   1      43.609  23.310  29.420  1.00  0.00    -0.206 F 
ATOM     80  C   UNL A   1      42.290  21.252  26.757  1.00  0.00     0.060 A 
BRANCH  80  81
ATOM     81  S   UNL A   1      41.605  19.603  26.498  1.00  0.00     0.124 S 
ATOM     82  O   UNL A   1      40.179  19.895  26.388  1.00  0.00    -0.237 OA
ATOM     83  O   UNL A   1      42.262  19.183  25.263  1.00  0.00    -0.237 OA
ATOM     84  O   UNL A   1      42.006  18.875  27.698  1.00  0.00    -0.744 OA
ENDBRANCH  80  81
ENDBRANCH  59  73
BRANCH  60  85
ATOM     85  C   UNL A   1      46.815  33.039  28.903  1.00  0.00     0.058 A 
ATOM     86  C   UNL A   1      46.664  34.086  27.980  1.00  0.00     0.135 A 
ATOM     87  C   UNL A   1      47.477  33.322  30.108  1.00  0.00     0.135 A 
ATOM     88  F   UNL A   1      46.044  33.864  26.811  1.00  0.00    -0.206 F 
ATOM     89  C   UNL A   1      47.164  35.359  28.234  1.00  0.00     0.059 A 
ATOM     90  C   UNL A   1      47.963  34.594  30.396  1.00  0.00     0.059 A 
ATOM     91  F   UNL A   1      47.633  32.360  31.031  1.00  0.00    -0.206 F 
ATOM     92  C   UNL A   1      47.810  35.604  29.446  1.00  0.00     0.060 A 
BRANCH  92  93
ATOM     93  S   UNL A   1      48.414  37.272  29.784  1.00  0.00     0.124 S 
ATOM     94  O   UNL A   1      49.155  37.070  31.023  1.00  0.00    -0.237 OA
ATOM     95  O   UNL A   1      49.218  37.553  28.598  1.00  0.00    -0.237 OA
ATOM     96  O   UNL A   1      47.188  38.056  29.899  1.00  0.00    -0.744 OA
ENDBRANCH  92  93
ENDBRANCH  60  85
BRANCH  72  97
ATOM     97  C   UNL A   1      49.452  27.394  25.761  1.00  0.00     0.058 A 
ATOM     98  C   UNL A   1      50.586  27.028  26.503  1.00  0.00     0.135 A 
ATOM     99  C   UNL A   1      49.571  27.443  24.362  1.00  0.00     0.135 A 
ATOM    100  F   UNL A   1      50.527  26.974  27.843  1.00  0.00    -0.206 F 
ATOM    101  C   UNL A   1      51.797  26.740  25.883  1.00  0.00     0.059 A 
ATOM    102  C   UNL A   1      50.764  27.132  23.719  1.00  0.00     0.059 A 
ATOM    103  F   UNL A   1      48.513  27.777  23.605  1.00  0.00    -0.206 F 
ATOM    104  C   UNL A   1      51.875  26.791  24.490  1.00  0.00     0.060 A 
BRANCH 104 105
ATOM    105  S   UNL A   1      53.442  26.375  23.697  1.00  0.00     0.124 S 
ATOM    106  O   UNL A   1      53.664  25.015  24.178  1.00  0.00    -0.237 OA
ATOM    107  O   UNL A   1      53.119  26.501  22.279  1.00  0.00    -0.237 OA
ATOM    108  O   UNL A   1      54.364  27.382  24.215  1.00  0.00    -0.744 OA
ENDBRANCH 104 105
ENDBRANCH  72  97
ENDBRANCH  46  47
ENDBRANCH  38  41
ENDBRANCH  36  37
ENDBRANCH  35  36
ENDBRANCH  34  35
ENDBRANCH  33  34
ENDBRANCH  31  33
ENDBRANCH   1  29
TORSDOF 24
ENDMDL
MODEL 2
REMARK VINA RESULT:     -10.1      1.521      8.131
REMARK SMILES CCCCCCNC(=O)Oc1cccc(-c2ccc([C@@H](C)C(=O)NCCCCNC(=O)c3ccc(-c4c5nc(c(-c6c(F)cc(S(=O)(=O)[O-])cc6F)c6ccc([nH]6)c(-c6c(F)cc(S(=O)(=O)[O-])cc6F)c6nc(c(-c7c(F)cc(S(=O)(=O)[O-])cc7F)c7ccc4[nH]7)C=C6)C=C5)cc3)cc2[N+](=O)[O-])c1
REMARK SMILES IDX 20 1 21 2 19 3 16 4 17 5 99 6 18 7 98 8 15 9 11 10 12 11
REMARK SMILES IDX 103 12 13 13 14 14 10 15 8 16 7 17 9 19 6 20 5 21 4 22 3 23
REMARK SMILES IDX 2 24 1 25 100 26 101 27 102 28 22 29 23 30 24 31 25 33 26 34
REMARK SMILES IDX 27 35 28 36 29 37 30 38 31 40 32 41 33 42 97 43 34 44 96 45
REMARK SMILES IDX 35 46 36 47 37 48 90 49 38 50 95 51 89 52 91 53 39 54 94 55
REMARK SMILES IDX 88 56 87 57 40 59 74 60 53 61 73 62 54 63 57 64 72 65 92 66
REMARK SMILES IDX 55 67 56 68 71 70 93 71 58 72 41 73 42 74 51 75 43 76 44 77
REMARK SMILES IDX 50 78 52 79 45 80 46 81 47 82 48 83 49 84 75 85 76 86 85 87
REMARK SMILES IDX 77 88 78 89 84 90 86 91 79 92 80 93 81 94 82 95 83 96 59 97
REMARK SMILES IDX 60 98 69 99 61 100 62 101 68 102 70 103 63 104 64 105 65 106
REMARK SMILES IDX 66 107 67 108
REMARK H PARENT 7 18 24 32 29 39 91 58 57 69
REMARK Flexibility Score: inf
ROOT
ATOM      1  C   UNL A   1      34.244  32.115  28.232  1.00  0.00     0.105 C 
ATOM      2  C   UNL A   1      35.754  32.118  28.000  1.00  0.00     0.023 C 
ENDROOT
BRANCH   1   3
ATOM      3  C   UNL A   1      33.446  31.216  27.297  1.00  0.00    -0.029 A 
ATOM      4  C   UNL A   1      31.907  29.397  25.681  1.00  0.00     0.060 A 
ATOM      5  C   UNL A   1      31.388  30.620  26.140  1.00  0.00     0.016 A 
ATOM      6  C   UNL A   1      33.258  29.149  25.998  1.00  0.00     0.277 A 
ATOM      7  C   UNL A   1      32.156  31.530  26.874  1.00  0.00     0.005 A 
ATOM      8  C   UNL A   1      34.001  30.016  26.830  1.00  0.00     0.090 A 
BRANCH   4   9
ATOM      9  C   UNL A   1      31.005  28.490  24.931  1.00  0.00    -0.008 A 
ATOM     10  C   UNL A   1      30.005  26.315  24.525  1.00  0.00     0.133 A 
ATOM     11  C   UNL A   1      29.256  26.815  23.465  1.00  0.00     0.047 A 
ATOM     12  C   UNL A   1      30.856  27.135  25.270  1.00  0.00     0.056 A 
ATOM     13  C   UNL A   1      29.361  28.160  23.138  1.00  0.00     0.004 A 
ATOM     14  C   UNL A   1      30.237  28.981  23.852  1.00  0.00     0.009 A 
BRANCH  10  15
ATOM     15  O   UNL A   1      29.993  24.919  24.689  1.00  0.00    -0.410 OA
BRANCH  15  16
ATOM     16  C   UNL A   1      30.850  24.321  25.600  1.00  0.00     0.412 C 
ATOM     17  N   UNL A   1      31.865  23.635  24.991  1.00  0.00    -0.321 N 
ATOM     18  H   UNL A   1      32.474  23.132  25.578  1.00  0.00     0.167 HD
ATOM     19  O   UNL A   1      30.748  24.368  26.818  1.00  0.00    -0.224 OA
BRANCH  17  20
ATOM     20  C   UNL A   1      32.133  23.576  23.568  1.00  0.00     0.119 C 
BRANCH  20  21
ATOM     21  C   UNL A   1      32.797  22.259  23.164  1.00  0.00     0.021 C 
BRANCH  21  22
ATOM     22  C   UNL A   1      33.311  21.413  24.335  1.00  0.00     0.002 C 
BRANCH  22  23
ATOM     23  C   UNL A   1      32.524  20.128  24.613  1.00  0.00    -0.000 C 
BRANCH  23  24
ATOM     24  C   UNL A   1      33.375  18.884  24.877  1.00  0.00    -0.003 C 
ATOM     25  C   UNL A   1      32.553  17.613  25.025  1.00  0.00     0.004 C 
ENDBRANCH  23  24
ENDBRANCH  22  23
ENDBRANCH  21  22
ENDBRANCH  20  21
ENDBRANCH  17  20
ENDBRANCH  15  16
ENDBRANCH  10  15
ENDBRANCH   4   9
BRANCH   6  26
ATOM     26  N   UNL A   1      33.993  28.036  25.397  1.00  0.00     0.063 N 
ATOM     27  O   UNL A   1      34.336  28.153  24.212  1.00  0.00    -0.258 OA
ATOM     28  O   UNL A   1      34.166  27.019  26.083  1.00  0.00    -0.258 OA
ENDBRANCH   6  26
ENDBRANCH   1   3
BRANCH   1  29
ATOM     29  C   UNL A   1      33.633  33.512  28.439  1.00  0.00     0.227 C 
ATOM     30  O   UNL A   1      32.590  33.812  27.845  1.00  0.00    -0.274 OA
ATOM     31  N   UNL A   1      34.156  34.463  29.259  1.00  0.00    -0.356 N 
ATOM     32  H   UNL A   1      33.599  35.271  29.341  1.00  0.00     0.163 HD
BRANCH  31  33
ATOM     33  C   UNL A   1      35.376  34.508  30.036  1.00  0.00     0.116 C 
BRANCH  33  34
ATOM     34  C   UNL A   1      35.195  33.879  31.420  1.00  0.00     0.023 C 
BRANCH  34  35
ATOM     35  C   UNL A   1      36.438  33.895  32.304  1.00  0.00     0.023 C 
BRANCH  35  36
ATOM     36  C   UNL A   1      37.085  32.535  32.534  1.00  0.00     0.116 C 
BRANCH  36  37
ATOM     37  N   UNL A   1      36.278  31.410  32.080  1.00  0.00    -0.352 N 
ATOM     38  C   UNL A   1      36.673  30.351  31.291  1.00  0.00     0.251 C 
ATOM     39  H   UNL A   1      35.338  31.404  32.372  1.00  0.00     0.163 HD
ATOM     40  O   UNL A   1      35.859  29.512  30.921  1.00  0.00    -0.269 OA
BRANCH  38  41
ATOM     41  C   UNL A   1      38.085  30.278  30.862  1.00  0.00     0.039 A 
ATOM     42  C   UNL A   1      39.037  29.780  31.751  1.00  0.00     0.014 A 
ATOM     43  C   UNL A   1      38.436  30.602  29.549  1.00  0.00     0.014 A 
ATOM     44  C   UNL A   1      40.332  29.523  31.293  1.00  0.00     0.010 A 
ATOM     45  C   UNL A   1      39.698  30.266  29.075  1.00  0.00     0.010 A 
ATOM     46  C   UNL A   1      40.656  29.715  29.940  1.00  0.00    -0.014 A 
BRANCH  46  47
ATOM     47  C   UNL A   1      41.985  29.329  29.400  1.00  0.00     0.031 A 
ATOM     48  C   UNL A   1      43.084  30.351  29.307  1.00  0.00     0.074 A 
ATOM     49  C   UNL A   1      42.173  28.082  28.923  1.00  0.00     0.049 A 
ATOM     50  N   UNL A   1      44.281  30.230  28.795  1.00  0.00    -0.248 NA
ATOM     51  C   UNL A   1      42.787  31.695  29.829  1.00  0.00     0.031 C 
ATOM     52  C   UNL A   1      41.164  27.020  28.902  1.00  0.00     0.029 A 
ATOM     53  N   UNL A   1      43.276  27.499  28.350  1.00  0.00    -0.354 N 
ATOM     54  C   UNL A   1      44.873  31.482  28.920  1.00  0.00     0.074 A 
ATOM     55  C   UNL A   1      43.884  32.362  29.501  1.00  0.00     0.031 C 
ATOM     56  C   UNL A   1      41.702  25.910  28.371  1.00  0.00     0.029 A 
ATOM     57  C   UNL A   1      43.079  26.189  27.977  1.00  0.00     0.049 A 
ATOM     58  H   UNL A   1      44.129  27.973  28.219  1.00  0.00     0.167 HD
ATOM     59  C   UNL A   1      46.136  31.855  28.605  1.00  0.00     0.037 A 
ATOM     60  C   UNL A   1      43.911  25.315  27.378  1.00  0.00     0.037 A 
ATOM     61  C   UNL A   1      47.123  30.965  28.054  1.00  0.00     0.049 A 
ATOM     62  C   UNL A   1      45.310  25.753  27.039  1.00  0.00     0.074 A 
ATOM     63  C   UNL A   1      48.450  31.229  27.761  1.00  0.00     0.029 A 
ATOM     64  N   UNL A   1      46.893  29.641  27.710  1.00  0.00    -0.354 N 
ATOM     65  N   UNL A   1      45.878  26.921  27.231  1.00  0.00    -0.248 NA
ATOM     66  C   UNL A   1      46.185  24.757  26.408  1.00  0.00     0.031 C 
ATOM     67  C   UNL A   1      49.010  30.077  27.199  1.00  0.00     0.029 A 
ATOM     68  C   UNL A   1      48.047  29.080  27.188  1.00  0.00     0.049 A 
ATOM     69  H   UNL A   1      46.036  29.170  27.822  1.00  0.00     0.167 HD
ATOM     70  C   UNL A   1      47.181  26.793  26.766  1.00  0.00     0.074 A 
ATOM     71  C   UNL A   1      47.323  25.429  26.297  1.00  0.00     0.031 C 
ATOM     72  C   UNL A   1      48.170  27.719  26.730  1.00  0.00     0.037 A 
BRANCH  59  73
ATOM     73  C   UNL A   1      46.521  33.287  28.859  1.00  0.00     0.058 A 
ATOM     74  C   UNL A   1      47.069  33.695  30.087  1.00  0.00     0.135 A 
ATOM     75  C   UNL A   1      46.370  34.258  27.856  1.00  0.00     0.135 A 
ATOM     76  F   UNL A   1      47.220  32.812  31.087  1.00  0.00    -0.206 F 
ATOM     77  C   UNL A   1      47.422  35.019  30.322  1.00  0.00     0.059 A 
ATOM     78  C   UNL A   1      46.745  35.583  28.059  1.00  0.00     0.059 A 
ATOM     79  F   UNL A   1      45.851  33.924  26.664  1.00  0.00    -0.206 F 
ATOM     80  C   UNL A   1      47.257  35.957  29.301  1.00  0.00     0.060 A 
BRANCH  80  81
ATOM     81  S   UNL A   1      47.724  37.670  29.622  1.00  0.00     0.124 S 
ATOM     82  O   UNL A   1      48.102  37.609  31.031  1.00  0.00    -0.237 OA
ATOM     83  O   UNL A   1      48.821  37.875  28.681  1.00  0.00    -0.237 OA
ATOM     84  O   UNL A   1      46.504  38.416  29.332  1.00  0.00    -0.744 OA
ENDBRANCH  80  81
ENDBRANCH  59  73
BRANCH  60  85
ATOM     85  C   UNL A   1      43.452  23.931  27.083  1.00  0.00     0.058 A 
ATOM     86  C   UNL A   1      43.388  22.962  28.096  1.00  0.00     0.135 A 
ATOM     87  C   UNL A   1      43.058  23.551  25.791  1.00  0.00     0.135 A 
ATOM     88  F   UNL A   1      43.761  23.275  29.347  1.00  0.00    -0.206 F 
ATOM     89  C   UNL A   1      42.966  21.662  27.837  1.00  0.00     0.059 A 
ATOM     90  C   UNL A   1      42.607  22.264  25.511  1.00  0.00     0.059 A 
ATOM     91  F   UNL A   1      43.084  24.445  24.789  1.00  0.00    -0.206 F 
ATOM     92  C   UNL A   1      42.575  21.323  26.541  1.00  0.00     0.060 A 
BRANCH  92  93
ATOM     93  S   UNL A   1      41.985  19.646  26.225  1.00  0.00     0.124 S 
ATOM     94  O   UNL A   1      42.414  18.952  27.434  1.00  0.00    -0.237 OA
ATOM     95  O   UNL A   1      40.546  19.849  26.082  1.00  0.00    -0.237 OA
ATOM     96  O   UNL A   1      42.681  19.270  24.998  1.00  0.00    -0.744 OA
ENDBRANCH  92  93
ENDBRANCH  60  85
BRANCH  72  97
ATOM     97  C   UNL A   1      49.505  27.286  26.189  1.00  0.00     0.058 A 
ATOM     98  C   UNL A   1      50.525  26.818  27.032  1.00  0.00     0.135 A 
ATOM     99  C   UNL A   1      49.745  27.284  24.805  1.00  0.00     0.135 A 
ATOM    100  F   UNL A   1      50.349  26.807  28.363  1.00  0.00    -0.206 F 
ATOM    101  C   UNL A   1      51.745  26.383  26.524  1.00  0.00     0.059 A 
ATOM    102  C   UNL A   1      50.946  26.828  24.273  1.00  0.00     0.059 A 
ATOM    103  F   UNL A   1      48.798  27.711  23.954  1.00  0.00    -0.206 F 
ATOM    104  C   UNL A   1      51.944  26.388  25.142  1.00  0.00     0.060 A 
BRANCH 104 105
ATOM    105  S   UNL A   1      53.516  25.783  24.493  1.00  0.00     0.124 S 
ATOM    106  O   UNL A   1      54.302  27.010  24.435  1.00  0.00    -0.237 OA
ATOM    107  O   UNL A   1      53.922  24.816  25.508  1.00  0.00    -0.237 OA
ATOM    108  O   UNL A   1      53.152  25.209  23.200  1.00  0.00    -0.744 OA
ENDBRANCH 104 105
ENDBRANCH  72  97
ENDBRANCH  46  47
ENDBRANCH  38  41
ENDBRANCH  36  37
ENDBRANCH  35  36
ENDBRANCH  34  35
ENDBRANCH  33  34
ENDBRANCH  31  33
ENDBRANCH   1  29
TORSDOF 24
ENDMDL
MODEL 3
REMARK VINA RESULT:      -9.4      3.563      8.936
REMARK SMILES CCCCCCNC(=O)Oc1cccc(-c2ccc([C@@H](C)C(=O)NCCCCNC(=O)c3ccc(-c4c5nc(c(-c6c(F)cc(S(=O)(=O)[O-])cc6F)c6ccc([nH]6)c(-c6c(F)cc(S(=O)(=O)[O-])cc6F)c6nc(c(-c7c(F)cc(S(=O)(=O)[O-])cc7F)c7ccc4[nH]7)C=C6)C=C5)cc3)cc2[N+](=O)[O-])c1
REMARK SMILES IDX 20 1 21 2 19 3 16 4 17 5 99 6 18 7 98 8 15 9 11 10 12 11
REMARK SMILES IDX 103 12 13 13 14 14 10 15 8 16 7 17 9 19 6 20 5 21 4 22 3 23
REMARK SMILES IDX 2 24 1 25 100 26 101 27 102 28 22 29 23 30 24 31 25 33 26 34
REMARK SMILES IDX 27 35 28 36 29 37 30 38 31 40 32 41 33 42 97 43 34 44 96 45
REMARK SMILES IDX 35 46 36 47 37 48 90 49 38 50 95 51 89 52 91 53 39 54 94 55
REMARK SMILES IDX 88 56 87 57 40 59 74 60 53 61 73 62 54 63 57 64 72 65 92 66
REMARK SMILES IDX 55 67 56 68 71 70 93 71 58 72 41 73 42 74 51 75 43 76 44 77
REMARK SMILES IDX 50 78 52 79 45 80 46 81 47 82 48 83 49 84 75 85 76 86 85 87
REMARK SMILES IDX 77 88 78 89 84 90 86 91 79 92 80 93 81 94 82 95 83 96 59 97
REMARK SMILES IDX 60 98 69 99 61 100 62 101 68 102 70 103 63 104 64 105 65 106
REMARK SMILES IDX 66 107 67 108
REMARK H PARENT 7 18 24 32 29 39 91 58 57 69
REMARK Flexibility Score: inf
ROOT
ATOM      1  C   UNL A   1      34.203  32.166  28.207  1.00  0.00     0.105 C 
ATOM      2  C   UNL A   1      35.689  32.310  27.880  1.00  0.00     0.023 C 
ENDROOT
BRANCH   1   3
ATOM      3  C   UNL A   1      33.423  31.242  27.283  1.00  0.00    -0.029 A 
ATOM      4  C   UNL A   1      31.921  29.374  25.686  1.00  0.00     0.060 A 
ATOM      5  C   UNL A   1      31.371  30.582  26.150  1.00  0.00     0.016 A 
ATOM      6  C   UNL A   1      33.282  29.168  25.988  1.00  0.00     0.277 A 
ATOM      7  C   UNL A   1      32.119  31.516  26.874  1.00  0.00     0.005 A 
ATOM      8  C   UNL A   1      34.008  30.058  26.811  1.00  0.00     0.090 A 
BRANCH   4   9
ATOM      9  C   UNL A   1      31.038  28.440  24.947  1.00  0.00    -0.008 A 
ATOM     10  C   UNL A   1      30.060  26.247  24.588  1.00  0.00     0.133 A 
ATOM     11  C   UNL A   1      29.326  26.710  23.501  1.00  0.00     0.047 A 
ATOM     12  C   UNL A   1      30.893  27.094  25.323  1.00  0.00     0.056 A 
ATOM     13  C   UNL A   1      29.428  28.046  23.137  1.00  0.00     0.004 A 
ATOM     14  C   UNL A   1      30.286  28.894  23.842  1.00  0.00     0.009 A 
BRANCH  10  15
ATOM     15  O   UNL A   1      30.055  24.856  24.792  1.00  0.00    -0.410 OA
BRANCH  15  16
ATOM     16  C   UNL A   1      30.762  24.308  25.851  1.00  0.00     0.412 C 
ATOM     17  N   UNL A   1      31.905  23.676  25.448  1.00  0.00    -0.321 N 
ATOM     18  H   UNL A   1      32.423  23.209  26.142  1.00  0.00     0.167 HD
ATOM     19  O   UNL A   1      30.437  24.354  27.030  1.00  0.00    -0.224 OA
BRANCH  17  20
ATOM     20  C   UNL A   1      32.431  23.626  24.097  1.00  0.00     0.119 C 
BRANCH  20  21
ATOM     21  C   UNL A   1      33.459  22.507  23.924  1.00  0.00     0.021 C 
BRANCH  21  22
ATOM     22  C   UNL A   1      33.060  21.166  24.548  1.00  0.00     0.002 C 
BRANCH  22  23
ATOM     23  C   UNL A   1      32.528  20.116  23.565  1.00  0.00    -0.000 C 
BRANCH  23  24
ATOM     24  C   UNL A   1      33.022  18.687  23.804  1.00  0.00    -0.003 C 
ATOM     25  C   UNL A   1      32.544  17.702  22.748  1.00  0.00     0.004 C 
ENDBRANCH  23  24
ENDBRANCH  22  23
ENDBRANCH  21  22
ENDBRANCH  20  21
ENDBRANCH  17  20
ENDBRANCH  15  16
ENDBRANCH  10  15
ENDBRANCH   4   9
BRANCH   6  26
ATOM     26  N   UNL A   1      34.044  28.076  25.381  1.00  0.00     0.063 N 
ATOM     27  O   UNL A   1      34.403  28.219  24.203  1.00  0.00    -0.258 OA
ATOM     28  O   UNL A   1      34.222  27.050  26.052  1.00  0.00    -0.258 OA
ENDBRANCH   6  26
ENDBRANCH   1   3
BRANCH   1  29
ATOM     29  C   UNL A   1      33.493  33.493  28.521  1.00  0.00     0.227 C 
ATOM     30  O   UNL A   1      32.582  33.884  27.779  1.00  0.00    -0.274 OA
ATOM     31  N   UNL A   1      33.784  34.285  29.588  1.00  0.00    -0.356 N 
ATOM     32  H   UNL A   1      33.182  35.058  29.689  1.00  0.00     0.163 HD
BRANCH  31  33
ATOM     33  C   UNL A   1      34.811  34.203  30.605  1.00  0.00     0.116 C 
BRANCH  33  34
ATOM     34  C   UNL A   1      34.404  33.277  31.753  1.00  0.00     0.023 C 
BRANCH  34  35
ATOM     35  C   UNL A   1      35.075  33.574  33.090  1.00  0.00     0.023 C 
BRANCH  35  36
ATOM     36  C   UNL A   1      36.097  32.540  33.545  1.00  0.00     0.116 C 
BRANCH  36  37
ATOM     37  N   UNL A   1      35.873  31.206  33.003  1.00  0.00    -0.352 N 
ATOM     38  C   UNL A   1      36.680  30.499  32.138  1.00  0.00     0.251 C 
ATOM     39  H   UNL A   1      35.045  30.756  33.288  1.00  0.00     0.163 HD
ATOM     40  O   UNL A   1      36.323  29.411  31.702  1.00  0.00    -0.269 OA
BRANCH  38  41
ATOM     41  C   UNL A   1      37.960  31.103  31.713  1.00  0.00     0.039 A 
ATOM     42  C   UNL A   1      39.092  30.916  32.506  1.00  0.00     0.014 A 
ATOM     43  C   UNL A   1      38.052  31.756  30.482  1.00  0.00     0.014 A 
ATOM     44  C   UNL A   1      40.341  31.310  32.019  1.00  0.00     0.010 A 
ATOM     45  C   UNL A   1      39.303  32.069  29.964  1.00  0.00     0.010 A 
ATOM     46  C   UNL A   1      40.461  31.841  30.724  1.00  0.00    -0.014 A 
BRANCH  46  47
ATOM     47  C   UNL A   1      41.789  32.149  30.134  1.00  0.00     0.031 A 
ATOM     48  C   UNL A   1      42.320  33.555  30.172  1.00  0.00     0.074 A 
ATOM     49  C   UNL A   1      42.475  31.179  29.496  1.00  0.00     0.049 A 
ATOM     50  N   UNL A   1      43.416  34.037  29.645  1.00  0.00    -0.248 NA
ATOM     51  C   UNL A   1      41.497  34.558  30.867  1.00  0.00     0.031 C 
ATOM     52  C   UNL A   1      42.035  29.791  29.339  1.00  0.00     0.029 A 
ATOM     53  N   UNL A   1      43.684  31.216  28.848  1.00  0.00    -0.354 N 
ATOM     54  C   UNL A   1      43.405  35.398  29.931  1.00  0.00     0.074 A 
ATOM     55  C   UNL A   1      42.168  35.675  30.626  1.00  0.00     0.031 C 
ATOM     56  C   UNL A   1      42.971  29.105  28.665  1.00  0.00     0.029 A 
ATOM     57  C   UNL A   1      44.059  30.008  28.306  1.00  0.00     0.049 A 
ATOM     58  H   UNL A   1      44.234  32.030  28.777  1.00  0.00     0.167 HD
ATOM     59  C   UNL A   1      44.355  36.326  29.664  1.00  0.00     0.037 A 
ATOM     60  C   UNL A   1      45.151  29.668  27.595  1.00  0.00     0.037 A 
ATOM     61  C   UNL A   1      45.597  36.035  28.997  1.00  0.00     0.049 A 
ATOM     62  C   UNL A   1      46.193  30.717  27.312  1.00  0.00     0.074 A 
ATOM     63  C   UNL A   1      46.652  36.891  28.737  1.00  0.00     0.029 A 
ATOM     64  N   UNL A   1      45.949  34.796  28.483  1.00  0.00    -0.354 N 
ATOM     65  N   UNL A   1      46.202  31.984  27.654  1.00  0.00    -0.248 NA
ATOM     66  C   UNL A   1      47.376  30.292  26.552  1.00  0.00     0.031 C 
ATOM     67  C   UNL A   1      47.625  36.180  28.027  1.00  0.00     0.029 A 
ATOM     68  C   UNL A   1      47.198  34.869  27.888  1.00  0.00     0.049 A 
ATOM     69  H   UNL A   1      45.394  33.985  28.535  1.00  0.00     0.167 HD
ATOM     70  C   UNL A   1      47.398  32.501  27.171  1.00  0.00     0.074 A 
ATOM     71  C   UNL A   1      48.095  31.406  26.527  1.00  0.00     0.031 C 
ATOM     72  C   UNL A   1      47.877  33.767  27.254  1.00  0.00     0.037 A 
BRANCH  59  73
ATOM     73  C   UNL A   1      44.088  37.740  30.103  1.00  0.00     0.058 A 
ATOM     74  C   UNL A   1      44.467  38.199  31.376  1.00  0.00     0.135 A 
ATOM     75  C   UNL A   1      43.474  38.656  29.234  1.00  0.00     0.135 A 
ATOM     76  F   UNL A   1      45.043  37.362  32.253  1.00  0.00    -0.206 F 
ATOM     77  C   UNL A   1      44.218  39.505  31.781  1.00  0.00     0.059 A 
ATOM     78  C   UNL A   1      43.242  39.976  29.608  1.00  0.00     0.059 A 
ATOM     79  F   UNL A   1      43.091  38.270  28.006  1.00  0.00    -0.206 F 
ATOM     80  C   UNL A   1      43.605  40.387  30.890  1.00  0.00     0.060 A 
BRANCH  80  81
ATOM     81  S   UNL A   1      43.293  42.080  31.432  1.00  0.00     0.124 S 
ATOM     82  O   UNL A   1      44.309  42.816  30.687  1.00  0.00    -0.237 OA
ATOM     83  O   UNL A   1      41.913  42.295  31.004  1.00  0.00    -0.237 OA
ATOM     84  O   UNL A   1      43.496  42.018  32.877  1.00  0.00    -0.744 OA
ENDBRANCH  80  81
ENDBRANCH  59  73
BRANCH  60  85
ATOM     85  C   UNL A   1      45.328  28.270  27.122  1.00  0.00     0.058 A 
ATOM     86  C   UNL A   1      46.158  27.374  27.815  1.00  0.00     0.135 A 
ATOM     87  C   UNL A   1      44.667  27.794  25.978  1.00  0.00     0.135 A 
ATOM     88  F   UNL A   1      46.817  27.783  28.910  1.00  0.00    -0.206 F 
ATOM     89  C   UNL A   1      46.338  26.064  27.384  1.00  0.00     0.059 A 
ATOM     90  C   UNL A   1      44.811  26.481  25.542  1.00  0.00     0.059 A 
ATOM     91  F   UNL A   1      43.849  28.605  25.289  1.00  0.00    -0.206 F 
ATOM     92  C   UNL A   1      45.658  25.626  26.247  1.00  0.00     0.060 A 
BRANCH  92  93
ATOM     93  S   UNL A   1      45.864  23.909  25.722  1.00  0.00     0.124 S 
ATOM     94  O   UNL A   1      47.153  23.575  26.315  1.00  0.00    -0.237 OA
ATOM     95  O   UNL A   1      44.699  23.264  26.322  1.00  0.00    -0.237 OA
ATOM     96  O   UNL A   1      45.840  23.998  24.266  1.00  0.00    -0.744 OA
ENDBRANCH  92  93
ENDBRANCH  60  85
BRANCH  72  97
ATOM     97  C   UNL A   1      49.231  34.035  26.656  1.00  0.00     0.058 A 
ATOM     98  C   UNL A   1      50.414  33.679  27.322  1.00  0.00     0.135 A 
ATOM     99  C   UNL A   1      49.343  34.603  25.377  1.00  0.00     0.135 A 
ATOM    100  F   UNL A   1      50.362  33.140  28.550  1.00  0.00    -0.206 F 
ATOM    101  C   UNL A   1      51.663  33.895  26.749  1.00  0.00     0.059 A 
ATOM    102  C   UNL A   1      50.580  34.803  24.772  1.00  0.00     0.059 A 
ATOM    103  F   UNL A   1      48.242  34.952  24.693  1.00  0.00    -0.206 F 
ATOM    104  C   UNL A   1      51.735  34.454  25.472  1.00  0.00     0.060 A 
BRANCH 104 105
ATOM    105  S   UNL A   1      53.360  34.692  24.723  1.00  0.00     0.124 S 
ATOM    106  O   UNL A   1      53.368  36.132  24.487  1.00  0.00    -0.237 OA
ATOM    107  O   UNL A   1      54.260  34.215  25.768  1.00  0.00    -0.237 OA
ATOM    108  O   UNL A   1      53.307  33.860  23.523  1.00  0.00    -0.744 OA
ENDBRANCH 104 105
ENDBRANCH  72  97
ENDBRANCH  46  47
ENDBRANCH  38  41
ENDBRANCH  36  37
ENDBRANCH  35  36
ENDBRANCH  34  35
ENDBRANCH  33  34
ENDBRANCH  31  33
ENDBRANCH   1  29
TORSDOF 24
ENDMDL
