MODEL 1
REMARK VINA RESULT:     -11.5      0.000      0.000
REMARK SMILES COc1ccc(-c2ccc3n(c2=O)C[C@H]2C[C@@H]3CN(C(=O)CCCC(=O)NCCCCNC(=O)c3ccc(-c4c5nc(c(-c6c(F)cc(S(=O)(=O)[O-])cc6F)c6ccc([nH]6)c(-c6c(F)cc(S(=O)(=O)[O-])cc6F)c6nc(c(-c7c(F)cc(S(=O)(=O)[O-])cc7F)c7ccc4[nH]7)C=C6)C=C5)cc3)C2)cc1
REMARK SMILES IDX 28 1 27 2 25 3 26 4 24 6 23 7 22 8 20 9 21 10 19 11 7 12
REMARK SMILES IDX 8 13 12 14 9 15 11 16 13 17 10 18 14 19 17 20 15 21 16 22
REMARK SMILES IDX 18 23 101 24 6 25 3 26 4 27 103 28 5 29 102 30 2 31 1 32
REMARK SMILES IDX 29 33 30 34 31 35 32 36 33 37 34 39 35 40 36 41 100 42 37 43
REMARK SMILES IDX 99 44 38 45 39 46 40 47 93 48 41 49 98 50 92 51 94 52 42 53
REMARK SMILES IDX 97 54 91 55 90 56 43 58 77 59 56 60 76 61 57 62 60 63 75 64
REMARK SMILES IDX 95 65 58 66 59 67 74 69 96 70 61 71 44 72 45 73 54 74 46 75
REMARK SMILES IDX 47 76 53 77 55 78 48 79 49 80 50 81 51 82 52 83 78 84 79 85
REMARK SMILES IDX 88 86 80 87 81 88 87 89 89 90 82 91 83 92 84 93 85 94 86 95
REMARK SMILES IDX 62 96 63 97 72 98 64 99 65 100 71 101 73 102 66 103 67 104
REMARK SMILES IDX 68 105 69 106 70 107
REMARK H PARENT 27 5 32 38 94 57 60 68
REMARK Flexibility Score: inf
ROOT
ATOM      1  C   UNL A   1      38.123  24.404  26.627  1.00  0.00     0.116 C 
ENDROOT
BRANCH   1   2
ATOM      2  N   UNL A   1      38.036  23.258  25.755  1.00  0.00    -0.356 N 
ATOM      3  C   UNL A   1      37.021  22.688  25.063  1.00  0.00     0.220 C 
ATOM      4  O   UNL A   1      37.356  21.828  24.237  1.00  0.00    -0.275 OA
ATOM      5  H   UNL A   1      38.895  22.791  25.639  1.00  0.00     0.163 HD
BRANCH   3   6
ATOM      6  C   UNL A   1      35.547  23.075  25.167  1.00  0.00     0.100 C 
BRANCH   6   7
ATOM      7  C   UNL A   1      35.103  24.510  24.914  1.00  0.00     0.020 C 
BRANCH   7   8
ATOM      8  C   UNL A   1      33.936  25.130  25.681  1.00  0.00     0.101 C 
BRANCH   8   9
ATOM      9  C   UNL A   1      33.669  26.635  25.641  1.00  0.00     0.222 C 
ATOM     10  O   UNL A   1      34.200  27.329  26.518  1.00  0.00    -0.275 OA
BRANCH   9  11
ATOM     11  N   UNL A   1      33.002  27.229  24.574  1.00  0.00    -0.342 N 
ATOM     12  C   UNL A   1      32.006  22.522  23.382  1.00  0.00     0.047 A 
ATOM     13  C   UNL A   1      30.947  22.962  24.082  1.00  0.00     0.016 A 
ATOM     14  C   UNL A   1      32.773  23.505  22.540  1.00  0.00     0.258 A 
ATOM     15  C   UNL A   1      30.545  24.340  24.046  1.00  0.00     0.023 A 
ATOM     16  N   UNL A   1      32.341  24.839  22.583  1.00  0.00    -0.311 N 
ATOM     17  O   UNL A   1      33.725  23.132  21.853  1.00  0.00    -0.269 OA
ATOM     18  C   UNL A   1      31.231  25.242  23.328  1.00  0.00     0.026 A 
ATOM     19  C   UNL A   1      33.075  25.785  21.743  1.00  0.00     0.131 C 
ATOM     20  C   UNL A   1      30.869  26.715  23.405  1.00  0.00     0.056 C 
ATOM     21  C   UNL A   1      32.836  27.268  22.049  1.00  0.00     0.029 C 
ATOM     22  C   UNL A   1      31.336  27.484  22.168  1.00  0.00     0.019 C 
ATOM     23  C   UNL A   1      31.541  27.328  24.648  1.00  0.00     0.129 C 
ATOM     24  C   UNL A   1      33.558  27.749  23.326  1.00  0.00     0.125 C 
BRANCH  12  25
ATOM     25  C   UNL A   1      32.398  21.105  23.459  1.00  0.00    -0.013 A 
ATOM     26  C   UNL A   1      33.127  18.393  23.630  1.00  0.00     0.118 A 
ATOM     27  C   UNL A   1      32.393  18.860  22.539  1.00  0.00     0.047 A 
ATOM     28  C   UNL A   1      33.519  19.287  24.627  1.00  0.00     0.047 A 
ATOM     29  C   UNL A   1      32.022  20.205  22.456  1.00  0.00     0.013 A 
ATOM     30  C   UNL A   1      33.154  20.634  24.542  1.00  0.00     0.013 A 
BRANCH  26  31
ATOM     31  O   UNL A   1      33.424  17.057  23.608  1.00  0.00    -0.497 OA
ATOM     32  C   UNL A   1      34.220  16.588  24.691  1.00  0.00     0.278 C 
ENDBRANCH  26  31
ENDBRANCH  12  25
ENDBRANCH   9  11
ENDBRANCH   8   9
ENDBRANCH   7   8
ENDBRANCH   6   7
ENDBRANCH   3   6
ENDBRANCH   1   2
BRANCH   1  33
ATOM     33  C   UNL A   1      39.374  24.414  27.503  1.00  0.00     0.023 C 
BRANCH  33  34
ATOM     34  C   UNL A   1      40.668  24.384  26.694  1.00  0.00     0.023 C 
BRANCH  34  35
ATOM     35  C   UNL A   1      41.025  25.699  26.002  1.00  0.00     0.116 C 
BRANCH  35  36
ATOM     36  N   UNL A   1      42.366  25.727  25.430  1.00  0.00    -0.352 N 
ATOM     37  C   UNL A   1      43.493  26.319  25.956  1.00  0.00     0.251 C 
ATOM     38  H   UNL A   1      42.478  25.269  24.566  1.00  0.00     0.163 HD
ATOM     39  O   UNL A   1      44.551  26.316  25.337  1.00  0.00    -0.269 OA
BRANCH  37  40
ATOM     40  C   UNL A   1      43.388  27.001  27.263  1.00  0.00     0.039 A 
ATOM     41  C   UNL A   1      43.585  28.383  27.323  1.00  0.00     0.014 A 
ATOM     42  C   UNL A   1      42.974  26.291  28.393  1.00  0.00     0.014 A 
ATOM     43  C   UNL A   1      43.273  29.067  28.500  1.00  0.00     0.010 A 
ATOM     44  C   UNL A   1      42.590  26.986  29.535  1.00  0.00     0.010 A 
ATOM     45  C   UNL A   1      42.724  28.383  29.597  1.00  0.00    -0.014 A 
BRANCH  45  46
ATOM     46  C   UNL A   1      42.266  29.109  30.810  1.00  0.00     0.031 A 
ATOM     47  C   UNL A   1      40.997  29.916  30.772  1.00  0.00     0.074 A 
ATOM     48  C   UNL A   1      43.029  29.104  31.924  1.00  0.00     0.049 A 
ATOM     49  N   UNL A   1      40.472  30.674  31.698  1.00  0.00    -0.248 NA
ATOM     50  C   UNL A   1      40.237  29.893  29.511  1.00  0.00     0.031 C 
ATOM     51  C   UNL A   1      44.313  28.414  32.070  1.00  0.00     0.029 A 
ATOM     52  N   UNL A   1      42.840  29.707  33.143  1.00  0.00    -0.354 N 
ATOM     53  C   UNL A   1      39.333  31.231  31.129  1.00  0.00     0.074 A 
ATOM     54  C   UNL A   1      39.276  30.769  29.759  1.00  0.00     0.031 C 
ATOM     55  C   UNL A   1      44.781  28.610  33.314  1.00  0.00     0.029 A 
ATOM     56  C   UNL A   1      43.849  29.463  34.045  1.00  0.00     0.049 A 
ATOM     57  H   UNL A   1      42.054  30.262  33.352  1.00  0.00     0.167 HD
ATOM     58  C   UNL A   1      38.403  32.032  31.703  1.00  0.00     0.037 A 
ATOM     59  C   UNL A   1      44.006  29.880  35.317  1.00  0.00     0.037 A 
ATOM     60  C   UNL A   1      38.442  32.459  33.076  1.00  0.00     0.049 A 
ATOM     61  C   UNL A   1      42.946  30.746  35.942  1.00  0.00     0.074 A 
ATOM     62  C   UNL A   1      37.516  33.218  33.769  1.00  0.00     0.029 A 
ATOM     63  N   UNL A   1      39.461  32.158  33.968  1.00  0.00    -0.354 N 
ATOM     64  N   UNL A   1      41.842  31.211  35.407  1.00  0.00    -0.248 NA
ATOM     65  C   UNL A   1      43.147  31.136  37.344  1.00  0.00     0.031 C 
ATOM     66  C   UNL A   1      37.990  33.403  35.073  1.00  0.00     0.029 A 
ATOM     67  C   UNL A   1      39.192  32.726  35.203  1.00  0.00     0.049 A 
ATOM     68  H   UNL A   1      40.258  31.621  33.756  1.00  0.00     0.167 HD
ATOM     69  C   UNL A   1      41.204  31.926  36.414  1.00  0.00     0.074 A 
ATOM     70  C   UNL A   1      42.041  31.823  37.593  1.00  0.00     0.031 C 
ATOM     71  C   UNL A   1      40.032  32.606  36.368  1.00  0.00     0.037 A 
BRANCH  58  72
ATOM     72  C   UNL A   1      37.256  32.484  30.842  1.00  0.00     0.058 A 
ATOM     73  C   UNL A   1      37.375  33.587  29.981  1.00  0.00     0.135 A 
ATOM     74  C   UNL A   1      36.030  31.802  30.866  1.00  0.00     0.135 A 
ATOM     75  F   UNL A   1      38.520  34.286  29.931  1.00  0.00    -0.206 F 
ATOM     76  C   UNL A   1      36.307  34.021  29.202  1.00  0.00     0.059 A 
ATOM     77  C   UNL A   1      34.956  32.201  30.074  1.00  0.00     0.059 A 
ATOM     78  F   UNL A   1      35.861  30.741  31.671  1.00  0.00    -0.206 F 
ATOM     79  C   UNL A   1      35.100  33.324  29.259  1.00  0.00     0.060 A 
BRANCH  79  80
ATOM     80  S   UNL A   1      33.720  33.906  28.252  1.00  0.00     0.124 S 
ATOM     81  O   UNL A   1      32.879  34.547  29.258  1.00  0.00    -0.237 OA
ATOM     82  O   UNL A   1      34.377  34.804  27.309  1.00  0.00    -0.237 OA
ATOM     83  O   UNL A   1      33.182  32.679  27.673  1.00  0.00    -0.744 OA
ENDBRANCH  79  80
ENDBRANCH  58  72
BRANCH  59  84
ATOM     84  C   UNL A   1      45.197  29.453  36.099  1.00  0.00     0.058 A 
ATOM     85  C   UNL A   1      46.381  30.205  36.074  1.00  0.00     0.135 A 
ATOM     86  C   UNL A   1      45.174  28.297  36.894  1.00  0.00     0.135 A 
ATOM     87  F   UNL A   1      46.453  31.315  35.324  1.00  0.00    -0.206 F 
ATOM     88  C   UNL A   1      47.506  29.819  36.796  1.00  0.00     0.059 A 
ATOM     89  C   UNL A   1      46.279  27.903  37.642  1.00  0.00     0.059 A 
ATOM     90  F   UNL A   1      44.060  27.552  36.966  1.00  0.00    -0.206 F 
ATOM     91  C   UNL A   1      47.444  28.666  37.580  1.00  0.00     0.060 A 
BRANCH  91  92
ATOM     92  S   UNL A   1      48.893  28.203  38.555  1.00  0.00     0.124 S 
ATOM     93  O   UNL A   1      49.722  29.397  38.434  1.00  0.00    -0.237 OA
ATOM     94  O   UNL A   1      48.311  27.959  39.871  1.00  0.00    -0.237 OA
ATOM     95  O   UNL A   1      49.391  27.015  37.868  1.00  0.00    -0.744 OA
ENDBRANCH  91  92
ENDBRANCH  59  84
BRANCH  71  96
ATOM     96  C   UNL A   1      39.565  33.265  37.636  1.00  0.00     0.058 A 
ATOM     97  C   UNL A   1      38.588  32.679  38.454  1.00  0.00     0.135 A 
ATOM     98  C   UNL A   1      40.141  34.474  38.061  1.00  0.00     0.135 A 
ATOM     99  F   UNL A   1      38.004  31.526  38.090  1.00  0.00    -0.206 F 
ATOM    100  C   UNL A   1      38.180  33.279  39.641  1.00  0.00     0.059 A 
ATOM    101  C   UNL A   1      39.765  35.079  39.255  1.00  0.00     0.059 A 
ATOM    102  F   UNL A   1      41.087  35.070  37.319  1.00  0.00    -0.206 F 
ATOM    103  C   UNL A   1      38.775  34.480  40.033  1.00  0.00     0.060 A 
BRANCH 103 104
ATOM    104  S   UNL A   1      38.260  35.235  41.590  1.00  0.00     0.124 S 
ATOM    105  O   UNL A   1      39.193  34.626  42.533  1.00  0.00    -0.237 OA
ATOM    106  O   UNL A   1      38.460  36.657  41.331  1.00  0.00    -0.237 OA
ATOM    107  O   UNL A   1      36.867  34.819  41.725  1.00  0.00    -0.744 OA
ENDBRANCH 103 104
ENDBRANCH  71  96
ENDBRANCH  45  46
ENDBRANCH  37  40
ENDBRANCH  35  36
ENDBRANCH  34  35
ENDBRANCH  33  34
ENDBRANCH   1  33
TORSDOF 20
ENDMDL
MODEL 2
REMARK VINA RESULT:     -11.4      2.513      8.953
REMARK SMILES COc1ccc(-c2ccc3n(c2=O)C[C@H]2C[C@@H]3CN(C(=O)CCCC(=O)NCCCCNC(=O)c3ccc(-c4c5nc(c(-c6c(F)cc(S(=O)(=O)[O-])cc6F)c6ccc([nH]6)c(-c6c(F)cc(S(=O)(=O)[O-])cc6F)c6nc(c(-c7c(F)cc(S(=O)(=O)[O-])cc7F)c7ccc4[nH]7)C=C6)C=C5)cc3)C2)cc1
REMARK SMILES IDX 28 1 27 2 25 3 26 4 24 6 23 7 22 8 20 9 21 10 19 11 7 12
REMARK SMILES IDX 8 13 12 14 9 15 11 16 13 17 10 18 14 19 17 20 15 21 16 22
REMARK SMILES IDX 18 23 101 24 6 25 3 26 4 27 103 28 5 29 102 30 2 31 1 32
REMARK SMILES IDX 29 33 30 34 31 35 32 36 33 37 34 39 35 40 36 41 100 42 37 43
REMARK SMILES IDX 99 44 38 45 39 46 40 47 93 48 41 49 98 50 92 51 94 52 42 53
REMARK SMILES IDX 97 54 91 55 90 56 43 58 77 59 56 60 76 61 57 62 60 63 75 64
REMARK SMILES IDX 95 65 58 66 59 67 74 69 96 70 61 71 44 72 45 73 54 74 46 75
REMARK SMILES IDX 47 76 53 77 55 78 48 79 49 80 50 81 51 82 52 83 78 84 79 85
REMARK SMILES IDX 88 86 80 87 81 88 87 89 89 90 82 91 83 92 84 93 85 94 86 95
REMARK SMILES IDX 62 96 63 97 72 98 64 99 65 100 71 101 73 102 66 103 67 104
REMARK SMILES IDX 68 105 69 106 70 107
REMARK H PARENT 27 5 32 38 94 57 60 68
REMARK Flexibility Score: inf
ROOT
ATOM      1  C   UNL A   1      34.334  32.980  29.259  1.00  0.00     0.116 C 
ENDROOT
BRANCH   1   2
ATOM      2  N   UNL A   1      35.451  32.173  28.831  1.00  0.00    -0.356 N 
ATOM      3  C   UNL A   1      35.575  31.134  27.970  1.00  0.00     0.220 C 
ATOM      4  O   UNL A   1      36.736  30.818  27.681  1.00  0.00    -0.275 OA
ATOM      5  H   UNL A   1      36.302  32.430  29.254  1.00  0.00     0.163 HD
BRANCH   3   6
ATOM      6  C   UNL A   1      34.419  30.401  27.291  1.00  0.00     0.100 C 
BRANCH   6   7
ATOM      7  C   UNL A   1      34.365  28.879  27.282  1.00  0.00     0.020 C 
BRANCH   7   8
ATOM      8  C   UNL A   1      33.034  28.129  27.277  1.00  0.00     0.101 C 
BRANCH   8   9
ATOM      9  C   UNL A   1      32.604  27.282  26.079  1.00  0.00     0.222 C 
ATOM     10  O   UNL A   1      32.324  26.096  26.294  1.00  0.00    -0.275 OA
BRANCH   9  11
ATOM     11  N   UNL A   1      32.369  27.852  24.831  1.00  0.00    -0.342 N 
ATOM     12  C   UNL A   1      31.948  23.113  23.438  1.00  0.00     0.047 A 
ATOM     13  C   UNL A   1      30.700  23.541  23.691  1.00  0.00     0.016 A 
ATOM     14  C   UNL A   1      32.958  24.102  22.921  1.00  0.00     0.258 A 
ATOM     15  C   UNL A   1      30.320  24.910  23.485  1.00  0.00     0.023 A 
ATOM     16  N   UNL A   1      32.523  25.428  22.779  1.00  0.00    -0.311 N 
ATOM     17  O   UNL A   1      34.101  23.740  22.640  1.00  0.00    -0.269 OA
ATOM     18  C   UNL A   1      31.211  25.817  23.055  1.00  0.00     0.026 A 
ATOM     19  C   UNL A   1      33.501  26.378  22.252  1.00  0.00     0.131 C 
ATOM     20  C   UNL A   1      30.825  27.283  22.968  1.00  0.00     0.056 C 
ATOM     21  C   UNL A   1      33.145  27.860  22.422  1.00  0.00     0.029 C 
ATOM     22  C   UNL A   1      31.704  28.048  21.977  1.00  0.00     0.019 C 
ATOM     23  C   UNL A   1      30.982  27.923  24.360  1.00  0.00     0.129 C 
ATOM     24  C   UNL A   1      33.339  28.368  23.867  1.00  0.00     0.125 C 
BRANCH  12  25
ATOM     25  C   UNL A   1      32.304  21.705  23.679  1.00  0.00    -0.013 A 
ATOM     26  C   UNL A   1      33.006  19.017  24.120  1.00  0.00     0.118 A 
ATOM     27  C   UNL A   1      33.252  19.980  25.099  1.00  0.00     0.047 A 
ATOM     28  C   UNL A   1      32.386  19.391  22.928  1.00  0.00     0.047 A 
ATOM     29  C   UNL A   1      32.912  21.318  24.879  1.00  0.00     0.013 A 
ATOM     30  C   UNL A   1      32.039  20.728  22.710  1.00  0.00     0.013 A 
BRANCH  26  31
ATOM     31  O   UNL A   1      33.389  17.743  24.443  1.00  0.00    -0.497 OA
ATOM     32  C   UNL A   1      34.296  17.127  23.535  1.00  0.00     0.278 C 
ENDBRANCH  26  31
ENDBRANCH  12  25
ENDBRANCH   9  11
ENDBRANCH   8   9
ENDBRANCH   7   8
ENDBRANCH   6   7
ENDBRANCH   3   6
ENDBRANCH   1   2
BRANCH   1  33
ATOM     33  C   UNL A   1      33.814  33.927  28.181  1.00  0.00     0.023 C 
BRANCH  33  34
ATOM     34  C   UNL A   1      32.752  34.893  28.699  1.00  0.00     0.023 C 
BRANCH  34  35
ATOM     35  C   UNL A   1      33.287  36.039  29.556  1.00  0.00     0.116 C 
BRANCH  35  36
ATOM     36  N   UNL A   1      32.566  36.235  30.808  1.00  0.00    -0.352 N 
ATOM     37  C   UNL A   1      32.858  35.694  32.041  1.00  0.00     0.251 C 
ATOM     38  H   UNL A   1      31.778  36.824  30.767  1.00  0.00     0.163 HD
ATOM     39  O   UNL A   1      32.129  35.898  33.005  1.00  0.00    -0.269 OA
BRANCH  37  40
ATOM     40  C   UNL A   1      34.044  34.820  32.165  1.00  0.00     0.039 A 
ATOM     41  C   UNL A   1      35.296  35.325  31.810  1.00  0.00     0.014 A 
ATOM     42  C   UNL A   1      33.924  33.556  32.748  1.00  0.00     0.014 A 
ATOM     43  C   UNL A   1      36.443  34.594  32.129  1.00  0.00     0.010 A 
ATOM     44  C   UNL A   1      35.071  32.870  33.135  1.00  0.00     0.010 A 
ATOM     45  C   UNL A   1      36.343  33.386  32.839  1.00  0.00    -0.014 A 
BRANCH  45  46
ATOM     46  C   UNL A   1      37.554  32.658  33.300  1.00  0.00     0.031 A 
ATOM     47  C   UNL A   1      38.224  33.051  34.589  1.00  0.00     0.074 A 
ATOM     48  C   UNL A   1      38.094  31.695  32.525  1.00  0.00     0.049 A 
ATOM     49  N   UNL A   1      39.325  32.588  35.122  1.00  0.00    -0.248 NA
ATOM     50  C   UNL A   1      37.589  34.130  35.363  1.00  0.00     0.031 C 
ATOM     51  C   UNL A   1      37.578  31.265  31.223  1.00  0.00     0.029 A 
ATOM     52  N   UNL A   1      39.204  30.908  32.715  1.00  0.00    -0.354 N 
ATOM     53  C   UNL A   1      39.524  33.329  36.280  1.00  0.00     0.074 A 
ATOM     54  C   UNL A   1      38.462  34.310  36.342  1.00  0.00     0.031 C 
ATOM     55  C   UNL A   1      38.353  30.276  30.746  1.00  0.00     0.029 A 
ATOM     56  C   UNL A   1      39.437  30.022  31.689  1.00  0.00     0.049 A 
ATOM     57  H   UNL A   1      39.779  30.973  33.511  1.00  0.00     0.167 HD
ATOM     58  C   UNL A   1      40.486  33.188  37.222  1.00  0.00     0.037 A 
ATOM     59  C   UNL A   1      40.414  29.108  31.527  1.00  0.00     0.037 A 
ATOM     60  C   UNL A   1      41.519  32.187  37.178  1.00  0.00     0.049 A 
ATOM     61  C   UNL A   1      41.457  28.949  32.601  1.00  0.00     0.074 A 
ATOM     62  C   UNL A   1      42.503  31.921  38.114  1.00  0.00     0.029 A 
ATOM     63  N   UNL A   1      41.698  31.282  36.141  1.00  0.00    -0.354 N 
ATOM     64  N   UNL A   1      41.592  29.618  33.722  1.00  0.00    -0.248 NA
ATOM     65  C   UNL A   1      42.474  27.910  32.393  1.00  0.00     0.031 C 
ATOM     66  C   UNL A   1      43.296  30.876  37.629  1.00  0.00     0.029 A 
ATOM     67  C   UNL A   1      42.783  30.464  36.410  1.00  0.00     0.049 A 
ATOM     68  H   UNL A   1      41.137  31.229  35.335  1.00  0.00     0.167 HD
ATOM     69  C   UNL A   1      42.692  29.062  34.365  1.00  0.00     0.074 A 
ATOM     70  C   UNL A   1      43.178  27.995  33.513  1.00  0.00     0.031 C 
ATOM     71  C   UNL A   1      43.248  29.402  35.554  1.00  0.00     0.037 A 
BRANCH  58  72
ATOM     72  C   UNL A   1      40.454  34.136  38.390  1.00  0.00     0.058 A 
ATOM     73  C   UNL A   1      41.186  35.334  38.383  1.00  0.00     0.135 A 
ATOM     74  C   UNL A   1      39.674  33.851  39.521  1.00  0.00     0.135 A 
ATOM     75  F   UNL A   1      41.962  35.646  37.333  1.00  0.00    -0.206 F 
ATOM     76  C   UNL A   1      41.176  36.199  39.472  1.00  0.00     0.059 A 
ATOM     77  C   UNL A   1      39.625  34.716  40.611  1.00  0.00     0.059 A 
ATOM     78  F   UNL A   1      38.954  32.720  39.581  1.00  0.00    -0.206 F 
ATOM     79  C   UNL A   1      40.395  35.879  40.584  1.00  0.00     0.060 A 
BRANCH  79  80
ATOM     80  S   UNL A   1      40.401  37.006  41.994  1.00  0.00     0.124 S 
ATOM     81  O   UNL A   1      40.335  38.302  41.328  1.00  0.00    -0.237 OA
ATOM     82  O   UNL A   1      39.201  36.605  42.721  1.00  0.00    -0.237 OA
ATOM     83  O   UNL A   1      41.664  36.707  42.661  1.00  0.00    -0.744 OA
ENDBRANCH  79  80
ENDBRANCH  58  72
BRANCH  59  84
ATOM     84  C   UNL A   1      40.432  28.243  30.318  1.00  0.00     0.058 A 
ATOM     85  C   UNL A   1      41.373  28.451  29.299  1.00  0.00     0.135 A 
ATOM     86  C   UNL A   1      39.521  27.187  30.159  1.00  0.00     0.135 A 
ATOM     87  F   UNL A   1      42.261  29.452  29.402  1.00  0.00    -0.206 F 
ATOM     88  C   UNL A   1      41.403  27.655  28.159  1.00  0.00     0.059 A 
ATOM     89  C   UNL A   1      39.545  26.363  29.038  1.00  0.00     0.059 A 
ATOM     90  F   UNL A   1      38.611  26.935  31.114  1.00  0.00    -0.206 F 
ATOM     91  C   UNL A   1      40.485  26.611  28.039  1.00  0.00     0.060 A 
BRANCH  91  92
ATOM     92  S   UNL A   1      40.566  25.549  26.579  1.00  0.00     0.124 S 
ATOM     93  O   UNL A   1      39.197  25.053  26.501  1.00  0.00    -0.237 OA
ATOM     94  O   UNL A   1      40.965  26.490  25.537  1.00  0.00    -0.237 OA
ATOM     95  O   UNL A   1      41.577  24.561  26.941  1.00  0.00    -0.744 OA
ENDBRANCH  91  92
ENDBRANCH  59  84
BRANCH  71  96
ATOM     96  C   UNL A   1      44.426  28.593  36.022  1.00  0.00     0.058 A 
ATOM     97  C   UNL A   1      45.742  28.954  35.699  1.00  0.00     0.135 A 
ATOM     98  C   UNL A   1      44.233  27.471  36.845  1.00  0.00     0.135 A 
ATOM     99  F   UNL A   1      45.979  30.015  34.911  1.00  0.00    -0.206 F 
ATOM    100  C   UNL A   1      46.830  28.217  36.158  1.00  0.00     0.059 A 
ATOM    101  C   UNL A   1      45.307  26.734  37.334  1.00  0.00     0.059 A 
ATOM    102  F   UNL A   1      42.994  27.091  37.191  1.00  0.00    -0.206 F 
ATOM    103  C   UNL A   1      46.601  27.109  36.975  1.00  0.00     0.060 A 
BRANCH 103 104
ATOM    104  S   UNL A   1      48.021  26.177  37.591  1.00  0.00     0.124 S 
ATOM    105  O   UNL A   1      48.823  26.032  36.380  1.00  0.00    -0.237 OA
ATOM    106  O   UNL A   1      48.565  27.071  38.608  1.00  0.00    -0.237 OA
ATOM    107  O   UNL A   1      47.423  24.947  38.101  1.00  0.00    -0.744 OA
ENDBRANCH 103 104
ENDBRANCH  71  96
ENDBRANCH  45  46
ENDBRANCH  37  40
ENDBRANCH  35  36
ENDBRANCH  34  35
ENDBRANCH  33  34
ENDBRANCH   1  33
TORSDOF 20
ENDMDL
MODEL 3
REMARK VINA RESULT:     -10.9      6.787     14.932
REMARK SMILES COc1ccc(-c2ccc3n(c2=O)C[C@H]2C[C@@H]3CN(C(=O)CCCC(=O)NCCCCNC(=O)c3ccc(-c4c5nc(c(-c6c(F)cc(S(=O)(=O)[O-])cc6F)c6ccc([nH]6)c(-c6c(F)cc(S(=O)(=O)[O-])cc6F)c6nc(c(-c7c(F)cc(S(=O)(=O)[O-])cc7F)c7ccc4[nH]7)C=C6)C=C5)cc3)C2)cc1
REMARK SMILES IDX 28 1 27 2 25 3 26 4 24 6 23 7 22 8 20 9 21 10 19 11 7 12
REMARK SMILES IDX 8 13 12 14 9 15 11 16 13 17 10 18 14 19 17 20 15 21 16 22
REMARK SMILES IDX 18 23 101 24 6 25 3 26 4 27 103 28 5 29 102 30 2 31 1 32
REMARK SMILES IDX 29 33 30 34 31 35 32 36 33 37 34 39 35 40 36 41 100 42 37 43
REMARK SMILES IDX 99 44 38 45 39 46 40 47 93 48 41 49 98 50 92 51 94 52 42 53
REMARK SMILES IDX 97 54 91 55 90 56 43 58 77 59 56 60 76 61 57 62 60 63 75 64
REMARK SMILES IDX 95 65 58 66 59 67 74 69 96 70 61 71 44 72 45 73 54 74 46 75
REMARK SMILES IDX 47 76 53 77 55 78 48 79 49 80 50 81 51 82 52 83 78 84 79 85
REMARK SMILES IDX 88 86 80 87 81 88 87 89 89 90 82 91 83 92 84 93 85 94 86 95
REMARK SMILES IDX 62 96 63 97 72 98 64 99 65 100 71 101 73 102 66 103 67 104
REMARK SMILES IDX 68 105 69 106 70 107
REMARK H PARENT 27 5 32 38 94 57 60 68
REMARK Flexibility Score: inf
ROOT
ATOM      1  C   UNL A   1      34.000  34.403  29.643  1.00  0.00     0.116 C 
ENDROOT
BRANCH   1   2
ATOM      2  N   UNL A   1      33.509  35.721  29.967  1.00  0.00    -0.356 N 
ATOM      3  C   UNL A   1      33.237  36.354  31.134  1.00  0.00     0.220 C 
ATOM      4  O   UNL A   1      33.030  37.571  31.043  1.00  0.00    -0.275 OA
ATOM      5  H   UNL A   1      33.334  36.277  29.174  1.00  0.00     0.163 HD
BRANCH   3   6
ATOM      6  C   UNL A   1      33.246  35.708  32.518  1.00  0.00     0.100 C 
BRANCH   6   7
ATOM      7  C   UNL A   1      34.561  35.395  33.218  1.00  0.00     0.020 C 
BRANCH   7   8
ATOM      8  C   UNL A   1      34.777  34.074  33.955  1.00  0.00     0.101 C 
BRANCH   8   9
ATOM      9  C   UNL A   1      36.118  33.738  34.608  1.00  0.00     0.222 C 
ATOM     10  O   UNL A   1      36.186  33.825  35.842  1.00  0.00    -0.275 OA
BRANCH   9  11
ATOM     11  N   UNL A   1      37.170  33.195  33.877  1.00  0.00    -0.342 N 
ATOM     12  C   UNL A   1      39.915  35.381  37.379  1.00  0.00     0.047 A 
ATOM     13  C   UNL A   1      39.745  34.109  37.776  1.00  0.00     0.016 A 
ATOM     14  C   UNL A   1      39.964  35.674  35.904  1.00  0.00     0.258 A 
ATOM     15  C   UNL A   1      39.604  33.039  36.830  1.00  0.00     0.023 A 
ATOM     16  N   UNL A   1      39.784  34.583  35.040  1.00  0.00    -0.311 N 
ATOM     17  O   UNL A   1      40.159  36.821  35.499  1.00  0.00    -0.269 OA
ATOM     18  C   UNL A   1      39.613  33.280  35.509  1.00  0.00     0.026 A 
ATOM     19  C   UNL A   1      39.858  34.870  33.609  1.00  0.00     0.131 C 
ATOM     20  C   UNL A   1      39.333  32.155  34.527  1.00  0.00     0.056 C 
ATOM     21  C   UNL A   1      39.326  33.771  32.682  1.00  0.00     0.029 C 
ATOM     22  C   UNL A   1      39.914  32.447  33.143  1.00  0.00     0.019 C 
ATOM     23  C   UNL A   1      37.809  31.980  34.393  1.00  0.00     0.129 C 
ATOM     24  C   UNL A   1      37.784  33.699  32.650  1.00  0.00     0.125 C 
BRANCH  12  25
ATOM     25  C   UNL A   1      40.038  36.453  38.381  1.00  0.00    -0.013 A 
ATOM     26  C   UNL A   1      40.266  38.480  40.318  1.00  0.00     0.118 A 
ATOM     27  C   UNL A   1      41.398  38.010  39.651  1.00  0.00     0.047 A 
ATOM     28  C   UNL A   1      39.014  37.954  39.999  1.00  0.00     0.047 A 
ATOM     29  C   UNL A   1      41.289  36.997  38.694  1.00  0.00     0.013 A 
ATOM     30  C   UNL A   1      38.902  36.945  39.038  1.00  0.00     0.013 A 
BRANCH  26  31
ATOM     31  O   UNL A   1      40.496  39.466  41.239  1.00  0.00    -0.497 OA
ATOM     32  C   UNL A   1      41.741  39.386  41.924  1.00  0.00     0.278 C 
ENDBRANCH  26  31
ENDBRANCH  12  25
ENDBRANCH   9  11
ENDBRANCH   8   9
ENDBRANCH   7   8
ENDBRANCH   6   7
ENDBRANCH   3   6
ENDBRANCH   1   2
BRANCH   1  33
ATOM     33  C   UNL A   1      35.522  34.287  29.690  1.00  0.00     0.023 C 
BRANCH  33  34
ATOM     34  C   UNL A   1      36.084  33.381  28.599  1.00  0.00     0.023 C 
BRANCH  34  35
ATOM     35  C   UNL A   1      35.901  31.885  28.846  1.00  0.00     0.116 C 
BRANCH  35  36
ATOM     36  N   UNL A   1      35.593  31.542  30.230  1.00  0.00    -0.352 N 
ATOM     37  C   UNL A   1      36.280  30.681  31.057  1.00  0.00     0.251 C 
ATOM     38  H   UNL A   1      34.800  31.978  30.618  1.00  0.00     0.163 HD
ATOM     39  O   UNL A   1      35.875  30.438  32.188  1.00  0.00    -0.269 OA
BRANCH  37  40
ATOM     40  C   UNL A   1      37.492  30.015  30.533  1.00  0.00     0.039 A 
ATOM     41  C   UNL A   1      37.732  30.033  29.157  1.00  0.00     0.014 A 
ATOM     42  C   UNL A   1      38.440  29.491  31.416  1.00  0.00     0.014 A 
ATOM     43  C   UNL A   1      38.972  29.608  28.675  1.00  0.00     0.010 A 
ATOM     44  C   UNL A   1      39.700  29.144  30.938  1.00  0.00     0.010 A 
ATOM     45  C   UNL A   1      39.984  29.209  29.565  1.00  0.00    -0.014 A 
BRANCH  45  46
ATOM     46  C   UNL A   1      41.349  28.875  29.083  1.00  0.00     0.031 A 
ATOM     47  C   UNL A   1      42.406  29.944  29.014  1.00  0.00     0.074 A 
ATOM     48  C   UNL A   1      41.619  27.630  28.638  1.00  0.00     0.049 A 
ATOM     49  N   UNL A   1      43.629  29.868  28.556  1.00  0.00    -0.248 NA
ATOM     50  C   UNL A   1      42.025  31.283  29.491  1.00  0.00     0.031 C 
ATOM     51  C   UNL A   1      40.664  26.520  28.591  1.00  0.00     0.029 A 
ATOM     52  N   UNL A   1      42.775  27.090  28.129  1.00  0.00    -0.354 N 
ATOM     53  C   UNL A   1      44.155  31.149  28.674  1.00  0.00     0.074 A 
ATOM     54  C   UNL A   1      43.101  31.994  29.191  1.00  0.00     0.031 C 
ATOM     55  C   UNL A   1      41.280  25.427  28.109  1.00  0.00     0.029 A 
ATOM     56  C   UNL A   1      42.662  25.765  27.782  1.00  0.00     0.049 A 
ATOM     57  H   UNL A   1      43.607  27.605  28.023  1.00  0.00     0.167 HD
ATOM     58  C   UNL A   1      45.411  31.578  28.402  1.00  0.00     0.037 A 
ATOM     59  C   UNL A   1      43.569  24.915  27.260  1.00  0.00     0.037 A 
ATOM     60  C   UNL A   1      46.469  30.727  27.924  1.00  0.00     0.049 A 
ATOM     61  C   UNL A   1      44.967  25.407  26.994  1.00  0.00     0.074 A 
ATOM     62  C   UNL A   1      47.791  31.052  27.679  1.00  0.00     0.029 A 
ATOM     63  N   UNL A   1      46.324  29.381  27.622  1.00  0.00    -0.354 N 
ATOM     64  N   UNL A   1      45.464  26.607  27.171  1.00  0.00    -0.248 NA
ATOM     65  C   UNL A   1      45.926  24.428  26.465  1.00  0.00     0.031 C 
ATOM     66  C   UNL A   1      48.440  29.909  27.199  1.00  0.00     0.029 A 
ATOM     67  C   UNL A   1      47.532  28.863  27.183  1.00  0.00     0.049 A 
ATOM     68  H   UNL A   1      45.488  28.869  27.707  1.00  0.00     0.167 HD
ATOM     69  C   UNL A   1      46.802  26.522  26.802  1.00  0.00     0.074 A 
ATOM     70  C   UNL A   1      47.037  25.149  26.401  1.00  0.00     0.031 C 
ATOM     71  C   UNL A   1      47.749  27.492  26.795  1.00  0.00     0.037 A 
BRANCH  58  72
ATOM     72  C   UNL A   1      45.709  33.034  28.633  1.00  0.00     0.058 A 
ATOM     73  C   UNL A   1      46.086  33.514  29.897  1.00  0.00     0.135 A 
ATOM     74  C   UNL A   1      45.630  33.956  27.579  1.00  0.00     0.135 A 
ATOM     75  F   UNL A   1      46.160  32.677  30.945  1.00  0.00    -0.206 F 
ATOM     76  C   UNL A   1      46.338  34.864  30.118  1.00  0.00     0.059 A 
ATOM     77  C   UNL A   1      45.905  35.308  27.769  1.00  0.00     0.059 A 
ATOM     78  F   UNL A   1      45.274  33.552  26.350  1.00  0.00    -0.206 F 
ATOM     79  C   UNL A   1      46.241  35.754  29.048  1.00  0.00     0.060 A 
BRANCH  79  80
ATOM     80  S   UNL A   1      46.560  37.505  29.351  1.00  0.00     0.124 S 
ATOM     81  O   UNL A   1      47.015  37.947  28.036  1.00  0.00    -0.237 OA
ATOM     82  O   UNL A   1      45.250  37.995  29.766  1.00  0.00    -0.237 OA
ATOM     83  O   UNL A   1      47.580  37.488  30.394  1.00  0.00    -0.744 OA
ENDBRANCH  79  80
ENDBRANCH  58  72
BRANCH  59  84
ATOM     84  C   UNL A   1      43.197  23.501  26.991  1.00  0.00     0.058 A 
ATOM     85  C   UNL A   1      43.021  23.041  25.677  1.00  0.00     0.135 A 
ATOM     86  C   UNL A   1      43.021  22.578  28.034  1.00  0.00     0.135 A 
ATOM     87  F   UNL A   1      43.173  23.887  24.647  1.00  0.00    -0.206 F 
ATOM     88  C   UNL A   1      42.670  21.723  25.405  1.00  0.00     0.059 A 
ATOM     89  C   UNL A   1      42.691  21.250  27.786  1.00  0.00     0.059 A 
ATOM     90  F   UNL A   1      43.194  22.964  29.308  1.00  0.00    -0.206 F 
ATOM     91  C   UNL A   1      42.509  20.833  26.469  1.00  0.00     0.060 A 
BRANCH  91  92
ATOM     92  S   UNL A   1      42.104  19.111  26.103  1.00  0.00     0.124 S 
ATOM     93  O   UNL A   1      40.692  19.209  25.752  1.00  0.00    -0.237 OA
ATOM     94  O   UNL A   1      43.017  18.808  25.004  1.00  0.00    -0.237 OA
ATOM     95  O   UNL A   1      42.398  18.426  27.358  1.00  0.00    -0.744 OA
ENDBRANCH  91  92
ENDBRANCH  59  84
BRANCH  71  96
ATOM     96  C   UNL A   1      49.137  27.098  26.373  1.00  0.00     0.058 A 
ATOM     97  C   UNL A   1      50.103  26.688  27.304  1.00  0.00     0.135 A 
ATOM     98  C   UNL A   1      49.487  27.083  25.012  1.00  0.00     0.135 A 
ATOM     99  F   UNL A   1      49.820  26.690  28.617  1.00  0.00    -0.206 F 
ATOM    100  C   UNL A   1      51.377  26.298  26.905  1.00  0.00     0.059 A 
ATOM    101  C   UNL A   1      50.747  26.674  24.589  1.00  0.00     0.059 A 
ATOM    102  F   UNL A   1      48.596  27.455  24.081  1.00  0.00    -0.206 F 
ATOM    103  C   UNL A   1      51.690  26.295  25.544  1.00  0.00     0.060 A 
BRANCH 103 104
ATOM    104  S   UNL A   1      53.336  25.757  25.034  1.00  0.00     0.124 S 
ATOM    105  O   UNL A   1      53.173  24.307  25.001  1.00  0.00    -0.237 OA
ATOM    106  O   UNL A   1      53.490  26.407  23.736  1.00  0.00    -0.237 OA
ATOM    107  O   UNL A   1      54.203  26.269  26.091  1.00  0.00    -0.744 OA
ENDBRANCH 103 104
ENDBRANCH  71  96
ENDBRANCH  45  46
ENDBRANCH  37  40
ENDBRANCH  35  36
ENDBRANCH  34  35
ENDBRANCH  33  34
ENDBRANCH   1  33
TORSDOF 20
ENDMDL
