MODEL 1
REMARK VINA RESULT:     -11.1      0.000      0.000
REMARK SMILES COc1cc(/C=C/C(=O)NCCCCNC(=O)c2ccc(-c3c4nc(c(-c5c(F)cc(S(=O)(=O)[O-])cc5F)c5ccc([nH]5)c(-c5c(F)cc(S(=O)(=O)[O-])cc5F)c5nc(c(-c6c(F)cc(S(=O)(=O)[O-])cc6F)c6ccc3[nH]6)C=C5)C=C4)cc2)cc(OC)c1O
REMARK SMILES IDX 13 1 12 2 11 3 10 4 8 5 9 6 7 8 6 9 5 10 3 11 4 12 88 13
REMARK SMILES IDX 85 14 84 15 2 16 1 17 89 18 86 20 87 21 14 22 15 23 16 24
REMARK SMILES IDX 17 26 18 27 19 28 83 29 20 30 82 31 21 32 22 33 23 34 76 35
REMARK SMILES IDX 24 36 81 37 75 38 77 39 25 40 80 41 74 42 73 43 26 45 60 46
REMARK SMILES IDX 39 47 59 48 40 49 43 50 58 51 78 52 41 53 42 54 57 56 79 57
REMARK SMILES IDX 44 58 27 59 28 60 37 61 29 62 30 63 36 64 38 65 31 66 32 67
REMARK SMILES IDX 33 68 34 69 35 70 61 71 62 72 71 73 63 74 64 75 70 76 72 77
REMARK SMILES IDX 65 78 66 79 67 80 68 81 69 82 45 83 46 84 55 85 47 86 48 87
REMARK SMILES IDX 54 88 56 89 49 90 50 91 51 92 52 93 53 94
REMARK H PARENT 10 7 89 19 15 25 77 44 43 55
REMARK Flexibility Score: inf
ROOT
ATOM      1  C   UNL A   1      32.693  27.923  25.971  1.00  0.00     0.023 C 
ENDROOT
BRANCH   1   2
ATOM      2  C   UNL A   1      31.650  27.011  26.625  1.00  0.00     0.023 C 
BRANCH   2   3
ATOM      3  C   UNL A   1      31.273  25.782  25.796  1.00  0.00     0.116 C 
BRANCH   3   4
ATOM      4  N   UNL A   1      30.291  24.963  26.483  1.00  0.00    -0.353 N 
ATOM      5  C   UNL A   1      30.331  23.655  26.851  1.00  0.00     0.243 C 
ATOM      6  O   UNL A   1      29.419  23.181  27.526  1.00  0.00    -0.270 OA
ATOM      7  H   UNL A   1      29.460  25.433  26.722  1.00  0.00     0.163 HD
BRANCH   5   8
ATOM      8  C   UNL A   1      31.495  22.801  26.521  1.00  0.00     0.072 C 
ATOM      9  C   UNL A   1      31.612  22.089  25.391  1.00  0.00     0.014 C 
BRANCH   9  10
ATOM     10  C   UNL A   1      32.737  21.196  25.094  1.00  0.00    -0.018 A 
ATOM     11  C   UNL A   1      35.110  20.685  25.078  1.00  0.00     0.165 A 
ATOM     12  C   UNL A   1      34.066  21.599  25.247  1.00  0.00     0.058 A 
ATOM     13  C   UNL A   1      34.823  19.341  24.784  1.00  0.00     0.200 A 
ATOM     14  C   UNL A   1      33.501  18.929  24.581  1.00  0.00     0.165 A 
ATOM     15  C   UNL A   1      32.470  19.866  24.748  1.00  0.00     0.058 A 
BRANCH  11  16
ATOM     16  O   UNL A   1      36.361  21.187  25.336  1.00  0.00    -0.493 OA
ATOM     17  C   UNL A   1      36.418  22.544  25.771  1.00  0.00     0.278 C 
ENDBRANCH  11  16
BRANCH  13  18
ATOM     18  O   UNL A   1      35.838  18.423  24.805  1.00  0.00    -0.502 OA
ATOM     19  H   UNL A   1      36.552  18.499  24.204  1.00  0.00     0.293 HD
ENDBRANCH  13  18
BRANCH  14  20
ATOM     20  O   UNL A   1      33.031  17.676  24.291  1.00  0.00    -0.493 OA
ATOM     21  C   UNL A   1      32.546  16.870  25.355  1.00  0.00     0.278 C 
ENDBRANCH  14  20
ENDBRANCH   9  10
ENDBRANCH   5   8
ENDBRANCH   3   4
ENDBRANCH   2   3
ENDBRANCH   1   2
BRANCH   1  22
ATOM     22  C   UNL A   1      33.823  28.379  26.890  1.00  0.00     0.116 C 
BRANCH  22  23
ATOM     23  N   UNL A   1      33.624  29.714  27.431  1.00  0.00    -0.352 N 
ATOM     24  C   UNL A   1      34.519  30.486  28.137  1.00  0.00     0.251 C 
ATOM     25  H   UNL A   1      32.739  30.115  27.272  1.00  0.00     0.163 HD
ATOM     26  O   UNL A   1      34.172  31.554  28.620  1.00  0.00    -0.269 OA
BRANCH  24  27
ATOM     27  C   UNL A   1      35.894  29.980  28.337  1.00  0.00     0.039 A 
ATOM     28  C   UNL A   1      36.816  30.098  27.294  1.00  0.00     0.014 A 
ATOM     29  C   UNL A   1      36.274  29.431  29.563  1.00  0.00     0.014 A 
ATOM     30  C   UNL A   1      38.145  29.725  27.505  1.00  0.00     0.010 A 
ATOM     31  C   UNL A   1      37.610  29.117  29.790  1.00  0.00     0.010 A 
ATOM     32  C   UNL A   1      38.557  29.263  28.764  1.00  0.00    -0.014 A 
BRANCH  32  33
ATOM     33  C   UNL A   1      39.971  28.906  29.041  1.00  0.00     0.031 A 
ATOM     34  C   UNL A   1      40.905  29.950  29.587  1.00  0.00     0.074 A 
ATOM     35  C   UNL A   1      40.433  27.684  28.713  1.00  0.00     0.049 A 
ATOM     36  N   UNL A   1      42.200  29.898  29.749  1.00  0.00    -0.248 NA
ATOM     37  C   UNL A   1      40.301  31.237  29.971  1.00  0.00     0.031 C 
ATOM     38  C   UNL A   1      39.632  26.598  28.143  1.00  0.00     0.029 A 
ATOM     39  N   UNL A   1      41.697  27.155  28.792  1.00  0.00    -0.354 N 
ATOM     40  C   UNL A   1      42.571  31.151  30.223  1.00  0.00     0.074 A 
ATOM     41  C   UNL A   1      41.370  31.953  30.288  1.00  0.00     0.031 C 
ATOM     42  C   UNL A   1      40.422  25.533  27.931  1.00  0.00     0.029 A 
ATOM     43  C   UNL A   1      41.791  25.870  28.311  1.00  0.00     0.049 A 
ATOM     44  H   UNL A   1      42.467  27.651  29.157  1.00  0.00     0.167 HD
ATOM     45  C   UNL A   1      43.801  31.586  30.586  1.00  0.00     0.037 A 
ATOM     46  C   UNL A   1      42.860  25.061  28.182  1.00  0.00     0.037 A 
ATOM     47  C   UNL A   1      44.984  30.768  30.558  1.00  0.00     0.049 A 
ATOM     48  C   UNL A   1      44.213  25.557  28.617  1.00  0.00     0.074 A 
ATOM     49  C   UNL A   1      46.269  31.099  30.949  1.00  0.00     0.029 A 
ATOM     50  N   UNL A   1      45.024  29.452  30.121  1.00  0.00    -0.354 N 
ATOM     51  N   UNL A   1      44.541  26.733  29.097  1.00  0.00    -0.248 NA
ATOM     52  C   UNL A   1      45.339  24.620  28.499  1.00  0.00     0.031 C 
ATOM     53  C   UNL A   1      47.091  29.990  30.728  1.00  0.00     0.029 A 
ATOM     54  C   UNL A   1      46.311  28.957  30.234  1.00  0.00     0.049 A 
ATOM     55  H   UNL A   1      44.251  28.945  29.782  1.00  0.00     0.167 HD
ATOM     56  C   UNL A   1      45.902  26.664  29.373  1.00  0.00     0.074 A 
ATOM     57  C   UNL A   1      46.337  25.333  29.003  1.00  0.00     0.031 C 
ATOM     58  C   UNL A   1      46.716  27.616  29.891  1.00  0.00     0.037 A 
BRANCH  45  59
ATOM     59  C   UNL A   1      43.924  33.010  31.049  1.00  0.00     0.058 A 
ATOM     60  C   UNL A   1      43.856  33.349  32.410  1.00  0.00     0.135 A 
ATOM     61  C   UNL A   1      44.130  34.047  30.125  1.00  0.00     0.135 A 
ATOM     62  F   UNL A   1      43.644  32.399  33.334  1.00  0.00    -0.206 F 
ATOM     63  C   UNL A   1      43.954  34.670  32.836  1.00  0.00     0.059 A 
ATOM     64  C   UNL A   1      44.257  35.372  30.530  1.00  0.00     0.059 A 
ATOM     65  F   UNL A   1      44.202  33.777  28.811  1.00  0.00    -0.206 F 
ATOM     66  C   UNL A   1      44.150  35.675  31.887  1.00  0.00     0.060 A 
BRANCH  66  67
ATOM     67  S   UNL A   1      44.269  37.385  32.453  1.00  0.00     0.124 S 
ATOM     68  O   UNL A   1      44.052  38.116  31.207  1.00  0.00    -0.237 OA
ATOM     69  O   UNL A   1      43.190  37.469  33.432  1.00  0.00    -0.237 OA
ATOM     70  O   UNL A   1      45.617  37.467  33.003  1.00  0.00    -0.744 OA
ENDBRANCH  66  67
ENDBRANCH  45  59
BRANCH  46  71
ATOM     71  C   UNL A   1      42.691  23.688  27.638  1.00  0.00     0.058 A 
ATOM     72  C   UNL A   1      42.443  22.604  28.493  1.00  0.00     0.135 A 
ATOM     73  C   UNL A   1      42.756  23.432  26.260  1.00  0.00     0.135 A 
ATOM     74  F   UNL A   1      42.378  22.798  29.819  1.00  0.00    -0.206 F 
ATOM     75  C   UNL A   1      42.280  21.312  28.005  1.00  0.00     0.059 A 
ATOM     76  C   UNL A   1      42.575  22.152  25.745  1.00  0.00     0.059 A 
ATOM     77  F   UNL A   1      42.973  24.439  25.399  1.00  0.00    -0.206 F 
ATOM     78  C   UNL A   1      42.347  21.097  26.627  1.00  0.00     0.060 A 
BRANCH  78  79
ATOM     79  S   UNL A   1      42.085  19.424  25.998  1.00  0.00     0.124 S 
ATOM     80  O   UNL A   1      42.963  19.407  24.834  1.00  0.00    -0.237 OA
ATOM     81  O   UNL A   1      42.506  18.600  27.127  1.00  0.00    -0.237 OA
ATOM     82  O   UNL A   1      40.653  19.395  25.711  1.00  0.00    -0.744 OA
ENDBRANCH  78  79
ENDBRANCH  46  71
BRANCH  58  83
ATOM     83  C   UNL A   1      48.148  27.247  30.149  1.00  0.00     0.058 A 
ATOM     84  C   UNL A   1      49.171  27.582  29.250  1.00  0.00     0.135 A 
ATOM     85  C   UNL A   1      48.507  26.631  31.360  1.00  0.00     0.135 A 
ATOM     86  F   UNL A   1      48.877  28.164  28.078  1.00  0.00    -0.206 F 
ATOM     87  C   UNL A   1      50.505  27.318  29.543  1.00  0.00     0.059 A 
ATOM     88  C   UNL A   1      49.836  26.377  31.681  1.00  0.00     0.059 A 
ATOM     89  F   UNL A   1      47.564  26.299  32.255  1.00  0.00    -0.206 F 
ATOM     90  C   UNL A   1      50.828  26.722  30.764  1.00  0.00     0.060 A 
BRANCH  90  91
ATOM     91  S   UNL A   1      52.568  26.450  31.164  1.00  0.00     0.124 S 
ATOM     92  O   UNL A   1      53.142  26.229  29.842  1.00  0.00    -0.237 OA
ATOM     93  O   UNL A   1      52.940  27.703  31.815  1.00  0.00    -0.237 OA
ATOM     94  O   UNL A   1      52.537  25.283  32.040  1.00  0.00    -0.744 OA
ENDBRANCH  90  91
ENDBRANCH  58  83
ENDBRANCH  32  33
ENDBRANCH  24  27
ENDBRANCH  22  23
ENDBRANCH   1  22
TORSDOF 18
ENDMDL
MODEL 2
REMARK VINA RESULT:     -10.9      1.378      2.469
REMARK SMILES COc1cc(/C=C/C(=O)NCCCCNC(=O)c2ccc(-c3c4nc(c(-c5c(F)cc(S(=O)(=O)[O-])cc5F)c5ccc([nH]5)c(-c5c(F)cc(S(=O)(=O)[O-])cc5F)c5nc(c(-c6c(F)cc(S(=O)(=O)[O-])cc6F)c6ccc3[nH]6)C=C5)C=C4)cc2)cc(OC)c1O
REMARK SMILES IDX 13 1 12 2 11 3 10 4 8 5 9 6 7 8 6 9 5 10 3 11 4 12 88 13
REMARK SMILES IDX 85 14 84 15 2 16 1 17 89 18 86 20 87 21 14 22 15 23 16 24
REMARK SMILES IDX 17 26 18 27 19 28 83 29 20 30 82 31 21 32 22 33 23 34 76 35
REMARK SMILES IDX 24 36 81 37 75 38 77 39 25 40 80 41 74 42 73 43 26 45 60 46
REMARK SMILES IDX 39 47 59 48 40 49 43 50 58 51 78 52 41 53 42 54 57 56 79 57
REMARK SMILES IDX 44 58 27 59 28 60 37 61 29 62 30 63 36 64 38 65 31 66 32 67
REMARK SMILES IDX 33 68 34 69 35 70 61 71 62 72 71 73 63 74 64 75 70 76 72 77
REMARK SMILES IDX 65 78 66 79 67 80 68 81 69 82 45 83 46 84 55 85 47 86 48 87
REMARK SMILES IDX 54 88 56 89 49 90 50 91 51 92 52 93 53 94
REMARK H PARENT 10 7 89 19 15 25 77 44 43 55
REMARK Flexibility Score: inf
ROOT
ATOM      1  C   UNL A   1      32.645  27.908  25.997  1.00  0.00     0.023 C 
ENDROOT
BRANCH   1   2
ATOM      2  C   UNL A   1      32.613  28.528  24.596  1.00  0.00     0.023 C 
BRANCH   2   3
ATOM      3  C   UNL A   1      33.951  28.490  23.855  1.00  0.00     0.116 C 
BRANCH   3   4
ATOM      4  N   UNL A   1      33.804  27.910  22.532  1.00  0.00    -0.353 N 
ATOM      5  C   UNL A   1      33.493  26.643  22.152  1.00  0.00     0.243 C 
ATOM      6  O   UNL A   1      33.316  26.387  20.963  1.00  0.00    -0.270 OA
ATOM      7  H   UNL A   1      33.956  28.538  21.789  1.00  0.00     0.163 HD
BRANCH   5   8
ATOM      8  C   UNL A   1      33.281  25.571  23.152  1.00  0.00     0.072 C 
ATOM      9  C   UNL A   1      34.145  24.570  23.379  1.00  0.00     0.014 C 
BRANCH   9  10
ATOM     10  C   UNL A   1      33.905  23.476  24.326  1.00  0.00    -0.018 A 
ATOM     11  C   UNL A   1      34.514  21.353  25.335  1.00  0.00     0.165 A 
ATOM     12  C   UNL A   1      34.688  22.318  24.338  1.00  0.00     0.058 A 
ATOM     13  C   UNL A   1      33.570  21.562  26.354  1.00  0.00     0.200 A 
ATOM     14  C   UNL A   1      32.746  22.693  26.333  1.00  0.00     0.165 A 
ATOM     15  C   UNL A   1      32.932  23.644  25.319  1.00  0.00     0.058 A 
BRANCH  11  16
ATOM     16  O   UNL A   1      35.398  20.305  25.280  1.00  0.00    -0.493 OA
ATOM     17  C   UNL A   1      36.758  20.641  25.009  1.00  0.00     0.278 C 
ENDBRANCH  11  16
BRANCH  13  18
ATOM     18  O   UNL A   1      33.541  20.705  27.422  1.00  0.00    -0.502 OA
ATOM     19  H   UNL A   1      32.722  20.449  27.795  1.00  0.00     0.293 HD
ENDBRANCH  13  18
BRANCH  14  20
ATOM     20  O   UNL A   1      31.781  23.064  27.230  1.00  0.00    -0.493 OA
ATOM     21  C   UNL A   1      30.419  22.973  26.839  1.00  0.00     0.278 C 
ENDBRANCH  14  20
ENDBRANCH   9  10
ENDBRANCH   5   8
ENDBRANCH   3   4
ENDBRANCH   2   3
ENDBRANCH   1   2
BRANCH   1  22
ATOM     22  C   UNL A   1      33.795  28.373  26.886  1.00  0.00     0.116 C 
BRANCH  22  23
ATOM     23  N   UNL A   1      33.603  29.710  27.424  1.00  0.00    -0.352 N 
ATOM     24  C   UNL A   1      34.503  30.480  28.127  1.00  0.00     0.251 C 
ATOM     25  H   UNL A   1      32.720  30.115  27.267  1.00  0.00     0.163 HD
ATOM     26  O   UNL A   1      34.161  31.550  28.609  1.00  0.00    -0.269 OA
BRANCH  24  27
ATOM     27  C   UNL A   1      35.876  29.967  28.326  1.00  0.00     0.039 A 
ATOM     28  C   UNL A   1      36.794  30.069  27.278  1.00  0.00     0.014 A 
ATOM     29  C   UNL A   1      36.259  29.429  29.555  1.00  0.00     0.014 A 
ATOM     30  C   UNL A   1      38.121  29.691  27.485  1.00  0.00     0.010 A 
ATOM     31  C   UNL A   1      37.594  29.109  29.779  1.00  0.00     0.010 A 
ATOM     32  C   UNL A   1      38.537  29.239  28.748  1.00  0.00    -0.014 A 
BRANCH  32  33
ATOM     33  C   UNL A   1      39.951  28.876  29.022  1.00  0.00     0.031 A 
ATOM     34  C   UNL A   1      40.892  29.919  29.556  1.00  0.00     0.074 A 
ATOM     35  C   UNL A   1      40.405  27.649  28.700  1.00  0.00     0.049 A 
ATOM     36  N   UNL A   1      42.188  29.862  29.713  1.00  0.00    -0.248 NA
ATOM     37  C   UNL A   1      40.296  31.212  29.934  1.00  0.00     0.031 C 
ATOM     38  C   UNL A   1      39.596  26.564  28.141  1.00  0.00     0.029 A 
ATOM     39  N   UNL A   1      41.666  27.115  28.778  1.00  0.00    -0.354 N 
ATOM     40  C   UNL A   1      42.567  31.116  30.176  1.00  0.00     0.074 A 
ATOM     41  C   UNL A   1      41.370  31.925  30.241  1.00  0.00     0.031 C 
ATOM     42  C   UNL A   1      40.379  25.493  27.933  1.00  0.00     0.029 A 
ATOM     43  C   UNL A   1      41.751  25.826  28.305  1.00  0.00     0.049 A 
ATOM     44  H   UNL A   1      42.440  27.609  29.136  1.00  0.00     0.167 HD
ATOM     45  C   UNL A   1      43.801  31.547  30.532  1.00  0.00     0.037 A 
ATOM     46  C   UNL A   1      42.816  25.011  28.177  1.00  0.00     0.037 A 
ATOM     47  C   UNL A   1      44.979  30.723  30.505  1.00  0.00     0.049 A 
ATOM     48  C   UNL A   1      44.173  25.503  28.603  1.00  0.00     0.074 A 
ATOM     49  C   UNL A   1      46.267  31.050  30.888  1.00  0.00     0.029 A 
ATOM     50  N   UNL A   1      45.010  29.403  30.077  1.00  0.00    -0.354 N 
ATOM     51  N   UNL A   1      44.509  26.680  29.074  1.00  0.00    -0.248 NA
ATOM     52  C   UNL A   1      45.293  24.559  28.487  1.00  0.00     0.031 C 
ATOM     53  C   UNL A   1      47.083  29.935  30.671  1.00  0.00     0.029 A 
ATOM     54  C   UNL A   1      46.295  28.902  30.188  1.00  0.00     0.049 A 
ATOM     55  H   UNL A   1      44.233  28.899  29.745  1.00  0.00     0.167 HD
ATOM     56  C   UNL A   1      45.871  26.605  29.345  1.00  0.00     0.074 A 
ATOM     57  C   UNL A   1      46.297  25.270  28.982  1.00  0.00     0.031 C 
ATOM     58  C   UNL A   1      46.691  27.557  29.852  1.00  0.00     0.037 A 
BRANCH  45  59
ATOM     59  C   UNL A   1      43.932  32.973  30.985  1.00  0.00     0.058 A 
ATOM     60  C   UNL A   1      44.203  34.011  30.078  1.00  0.00     0.135 A 
ATOM     61  C   UNL A   1      43.767  33.311  32.338  1.00  0.00     0.135 A 
ATOM     62  F   UNL A   1      44.386  33.740  28.777  1.00  0.00    -0.206 F 
ATOM     63  C   UNL A   1      44.340  35.329  30.502  1.00  0.00     0.059 A 
ATOM     64  C   UNL A   1      43.873  34.627  32.780  1.00  0.00     0.059 A 
ATOM     65  F   UNL A   1      43.507  32.358  33.247  1.00  0.00    -0.206 F 
ATOM     66  C   UNL A   1      44.178  35.626  31.856  1.00  0.00     0.060 A 
BRANCH  66  67
ATOM     67  S   UNL A   1      44.364  37.340  32.393  1.00  0.00     0.124 S 
ATOM     68  O   UNL A   1      45.767  37.364  32.797  1.00  0.00    -0.237 OA
ATOM     69  O   UNL A   1      44.040  38.086  31.181  1.00  0.00    -0.237 OA
ATOM     70  O   UNL A   1      43.396  37.462  33.477  1.00  0.00    -0.744 OA
ENDBRANCH  66  67
ENDBRANCH  45  59
BRANCH  46  71
ATOM     71  C   UNL A   1      42.637  23.634  27.644  1.00  0.00     0.058 A 
ATOM     72  C   UNL A   1      42.728  23.381  26.267  1.00  0.00     0.135 A 
ATOM     73  C   UNL A   1      42.392  22.546  28.494  1.00  0.00     0.135 A 
ATOM     74  F   UNL A   1      42.956  24.392  25.414  1.00  0.00    -0.206 F 
ATOM     75  C   UNL A   1      42.566  22.101  25.749  1.00  0.00     0.059 A 
ATOM     76  C   UNL A   1      42.248  21.252  28.002  1.00  0.00     0.059 A 
ATOM     77  F   UNL A   1      42.315  22.733  29.821  1.00  0.00    -0.206 F 
ATOM     78  C   UNL A   1      42.327  21.042  26.626  1.00  0.00     0.060 A 
BRANCH  78  79
ATOM     79  S   UNL A   1      42.167  19.375  25.949  1.00  0.00     0.124 S 
ATOM     80  O   UNL A   1      43.028  19.451  24.774  1.00  0.00    -0.237 OA
ATOM     81  O   UNL A   1      42.657  18.547  27.047  1.00  0.00    -0.237 OA
ATOM     82  O   UNL A   1      40.737  19.259  25.678  1.00  0.00    -0.744 OA
ENDBRANCH  78  79
ENDBRANCH  46  71
BRANCH  58  83
ATOM     83  C   UNL A   1      48.123  27.182  30.108  1.00  0.00     0.058 A 
ATOM     84  C   UNL A   1      49.136  27.462  29.180  1.00  0.00     0.135 A 
ATOM     85  C   UNL A   1      48.493  26.619  31.341  1.00  0.00     0.135 A 
ATOM     86  F   UNL A   1      48.832  27.993  27.986  1.00  0.00    -0.206 F 
ATOM     87  C   UNL A   1      50.472  27.196  29.465  1.00  0.00     0.059 A 
ATOM     88  C   UNL A   1      49.823  26.363  31.655  1.00  0.00     0.059 A 
ATOM     89  F   UNL A   1      47.558  26.341  32.263  1.00  0.00    -0.206 F 
ATOM     90  C   UNL A   1      50.805  26.652  30.709  1.00  0.00     0.060 A 
BRANCH  90  91
ATOM     91  S   UNL A   1      52.548  26.378  31.096  1.00  0.00     0.124 S 
ATOM     92  O   UNL A   1      52.870  27.576  31.863  1.00  0.00    -0.237 OA
ATOM     93  O   UNL A   1      52.508  25.132  31.855  1.00  0.00    -0.237 OA
ATOM     94  O   UNL A   1      53.177  26.284  29.782  1.00  0.00    -0.744 OA
ENDBRANCH  90  91
ENDBRANCH  58  83
ENDBRANCH  32  33
ENDBRANCH  24  27
ENDBRANCH  22  23
ENDBRANCH   1  22
TORSDOF 18
ENDMDL
MODEL 3
REMARK VINA RESULT:     -10.6      3.092      3.813
REMARK SMILES COc1cc(/C=C/C(=O)NCCCCNC(=O)c2ccc(-c3c4nc(c(-c5c(F)cc(S(=O)(=O)[O-])cc5F)c5ccc([nH]5)c(-c5c(F)cc(S(=O)(=O)[O-])cc5F)c5nc(c(-c6c(F)cc(S(=O)(=O)[O-])cc6F)c6ccc3[nH]6)C=C5)C=C4)cc2)cc(OC)c1O
REMARK SMILES IDX 13 1 12 2 11 3 10 4 8 5 9 6 7 8 6 9 5 10 3 11 4 12 88 13
REMARK SMILES IDX 85 14 84 15 2 16 1 17 89 18 86 20 87 21 14 22 15 23 16 24
REMARK SMILES IDX 17 26 18 27 19 28 83 29 20 30 82 31 21 32 22 33 23 34 76 35
REMARK SMILES IDX 24 36 81 37 75 38 77 39 25 40 80 41 74 42 73 43 26 45 60 46
REMARK SMILES IDX 39 47 59 48 40 49 43 50 58 51 78 52 41 53 42 54 57 56 79 57
REMARK SMILES IDX 44 58 27 59 28 60 37 61 29 62 30 63 36 64 38 65 31 66 32 67
REMARK SMILES IDX 33 68 34 69 35 70 61 71 62 72 71 73 63 74 64 75 70 76 72 77
REMARK SMILES IDX 65 78 66 79 67 80 68 81 69 82 45 83 46 84 55 85 47 86 48 87
REMARK SMILES IDX 54 88 56 89 49 90 50 91 51 92 52 93 53 94
REMARK H PARENT 10 7 89 19 15 25 77 44 43 55
REMARK Flexibility Score: inf
ROOT
ATOM      1  C   UNL A   1      32.786  27.815  26.075  1.00  0.00     0.023 C 
ENDROOT
BRANCH   1   2
ATOM      2  C   UNL A   1      32.561  27.027  24.781  1.00  0.00     0.023 C 
BRANCH   2   3
ATOM      3  C   UNL A   1      33.815  26.840  23.925  1.00  0.00     0.116 C 
BRANCH   3   4
ATOM      4  N   UNL A   1      33.475  26.441  22.572  1.00  0.00    -0.353 N 
ATOM      5  C   UNL A   1      33.331  25.205  22.023  1.00  0.00     0.243 C 
ATOM      6  O   UNL A   1      32.931  25.091  20.867  1.00  0.00    -0.270 OA
ATOM      7  H   UNL A   1      33.324  27.188  21.948  1.00  0.00     0.163 HD
BRANCH   5   8
ATOM      8  C   UNL A   1      33.569  23.980  22.821  1.00  0.00     0.072 C 
ATOM      9  C   UNL A   1      32.618  23.088  23.136  1.00  0.00     0.014 C 
BRANCH   9  10
ATOM     10  C   UNL A   1      32.843  21.908  23.976  1.00  0.00    -0.018 A 
ATOM     11  C   UNL A   1      33.371  20.874  26.109  1.00  0.00     0.165 A 
ATOM     12  C   UNL A   1      33.289  22.009  25.297  1.00  0.00     0.058 A 
ATOM     13  C   UNL A   1      32.971  19.624  25.606  1.00  0.00     0.200 A 
ATOM     14  C   UNL A   1      32.566  19.495  24.273  1.00  0.00     0.165 A 
ATOM     15  C   UNL A   1      32.499  20.646  23.475  1.00  0.00     0.058 A 
BRANCH  11  16
ATOM     16  O   UNL A   1      33.745  21.121  27.406  1.00  0.00    -0.493 OA
ATOM     17  C   UNL A   1      33.228  22.313  27.994  1.00  0.00     0.278 C 
ENDBRANCH  11  16
BRANCH  13  18
ATOM     18  O   UNL A   1      32.880  18.560  26.463  1.00  0.00    -0.502 OA
ATOM     19  H   UNL A   1      33.007  18.686  27.382  1.00  0.00     0.293 HD
ENDBRANCH  13  18
BRANCH  14  20
ATOM     20  O   UNL A   1      32.144  18.372  23.612  1.00  0.00    -0.493 OA
ATOM     21  C   UNL A   1      33.121  17.476  23.104  1.00  0.00     0.278 C 
ENDBRANCH  14  20
ENDBRANCH   9  10
ENDBRANCH   5   8
ENDBRANCH   3   4
ENDBRANCH   2   3
ENDBRANCH   1   2
BRANCH   1  22
ATOM     22  C   UNL A   1      34.032  28.695  26.089  1.00  0.00     0.116 C 
BRANCH  22  23
ATOM     23  N   UNL A   1      33.763  30.069  26.486  1.00  0.00    -0.352 N 
ATOM     24  C   UNL A   1      34.457  30.843  27.389  1.00  0.00     0.251 C 
ATOM     25  H   UNL A   1      32.989  30.498  26.055  1.00  0.00     0.163 HD
ATOM     26  O   UNL A   1      34.048  31.952  27.699  1.00  0.00    -0.269 OA
BRANCH  24  27
ATOM     27  C   UNL A   1      35.680  30.290  28.010  1.00  0.00     0.039 A 
ATOM     28  C   UNL A   1      36.906  30.468  27.364  1.00  0.00     0.014 A 
ATOM     29  C   UNL A   1      35.616  29.636  29.242  1.00  0.00     0.014 A 
ATOM     30  C   UNL A   1      38.082  30.049  27.988  1.00  0.00     0.010 A 
ATOM     31  C   UNL A   1      36.792  29.274  29.890  1.00  0.00     0.010 A 
ATOM     32  C   UNL A   1      38.035  29.479  29.270  1.00  0.00    -0.014 A 
BRANCH  32  33
ATOM     33  C   UNL A   1      39.268  29.067  29.989  1.00  0.00     0.031 A 
ATOM     34  C   UNL A   1      39.700  29.828  31.211  1.00  0.00     0.074 A 
ATOM     35  C   UNL A   1      40.041  28.083  29.489  1.00  0.00     0.049 A 
ATOM     36  N   UNL A   1      40.814  29.740  31.888  1.00  0.00    -0.248 NA
ATOM     37  C   UNL A   1      38.765  30.847  31.718  1.00  0.00     0.031 C 
ATOM     38  C   UNL A   1      39.745  27.297  28.290  1.00  0.00     0.029 A 
ATOM     39  N   UNL A   1      41.247  27.590  29.918  1.00  0.00    -0.354 N 
ATOM     40  C   UNL A   1      40.729  30.710  32.880  1.00  0.00     0.074 A 
ATOM     41  C   UNL A   1      39.471  31.399  32.693  1.00  0.00     0.031 C 
ATOM     42  C   UNL A   1      40.738  26.417  28.083  1.00  0.00     0.029 A 
ATOM     43  C   UNL A   1      41.760  26.602  29.110  1.00  0.00     0.049 A 
ATOM     44  H   UNL A   1      41.705  27.915  30.728  1.00  0.00     0.167 HD
ATOM     45  C   UNL A   1      41.614  30.989  33.867  1.00  0.00     0.037 A 
ATOM     46  C   UNL A   1      42.926  25.931  29.184  1.00  0.00     0.037 A 
ATOM     47  C   UNL A   1      42.843  30.271  34.070  1.00  0.00     0.049 A 
ATOM     48  C   UNL A   1      43.881  26.239  30.305  1.00  0.00     0.074 A 
ATOM     49  C   UNL A   1      43.786  30.444  35.068  1.00  0.00     0.029 A 
ATOM     50  N   UNL A   1      43.296  29.236  33.265  1.00  0.00    -0.354 N 
ATOM     51  N   UNL A   1      43.769  27.135  31.256  1.00  0.00    -0.248 NA
ATOM     52  C   UNL A   1      45.117  25.446  30.367  1.00  0.00     0.031 C 
ATOM     53  C   UNL A   1      44.821  29.528  34.853  1.00  0.00     0.029 A 
ATOM     54  C   UNL A   1      44.504  28.761  33.743  1.00  0.00     0.049 A 
ATOM     55  H   UNL A   1      42.826  28.890  32.472  1.00  0.00     0.167 HD
ATOM     56  C   UNL A   1      44.901  26.988  32.051  1.00  0.00     0.074 A 
ATOM     57  C   UNL A   1      45.686  25.920  31.468  1.00  0.00     0.031 C 
ATOM     58  C   UNL A   1      45.253  27.673  33.166  1.00  0.00     0.037 A 
BRANCH  45  59
ATOM     59  C   UNL A   1      41.277  32.116  34.802  1.00  0.00     0.058 A 
ATOM     60  C   UNL A   1      41.756  33.417  34.587  1.00  0.00     0.135 A 
ATOM     61  C   UNL A   1      40.449  31.897  35.915  1.00  0.00     0.135 A 
ATOM     62  F   UNL A   1      42.564  33.678  33.548  1.00  0.00    -0.206 F 
ATOM     63  C   UNL A   1      41.456  34.456  35.463  1.00  0.00     0.059 A 
ATOM     64  C   UNL A   1      40.113  32.926  36.789  1.00  0.00     0.059 A 
ATOM     65  F   UNL A   1      39.963  30.670  36.166  1.00  0.00    -0.206 F 
ATOM     66  C   UNL A   1      40.637  34.199  36.564  1.00  0.00     0.060 A 
BRANCH  66  67
ATOM     67  S   UNL A   1      40.260  35.555  37.695  1.00  0.00     0.124 S 
ATOM     68  O   UNL A   1      39.930  36.627  36.760  1.00  0.00    -0.237 OA
ATOM     69  O   UNL A   1      39.143  35.020  38.467  1.00  0.00    -0.237 OA
ATOM     70  O   UNL A   1      41.503  35.731  38.439  1.00  0.00    -0.744 OA
ENDBRANCH  66  67
ENDBRANCH  45  59
BRANCH  46  71
ATOM     71  C   UNL A   1      43.242  24.881  28.179  1.00  0.00     0.058 A 
ATOM     72  C   UNL A   1      42.937  23.535  28.428  1.00  0.00     0.135 A 
ATOM     73  C   UNL A   1      43.837  25.200  26.949  1.00  0.00     0.135 A 
ATOM     74  F   UNL A   1      42.373  23.181  29.594  1.00  0.00    -0.206 F 
ATOM     75  C   UNL A   1      43.224  22.538  27.502  1.00  0.00     0.059 A 
ATOM     76  C   UNL A   1      44.114  24.225  25.996  1.00  0.00     0.059 A 
ATOM     77  F   UNL A   1      44.131  26.476  26.655  1.00  0.00    -0.206 F 
ATOM     78  C   UNL A   1      43.812  22.894  26.287  1.00  0.00     0.060 A 
BRANCH  78  79
ATOM     79  S   UNL A   1      44.135  21.600  25.069  1.00  0.00     0.124 S 
ATOM     80  O   UNL A   1      44.045  22.345  23.818  1.00  0.00    -0.237 OA
ATOM     81  O   UNL A   1      45.470  21.147  25.447  1.00  0.00    -0.237 OA
ATOM     82  O   UNL A   1      43.064  20.638  25.311  1.00  0.00    -0.744 OA
ENDBRANCH  78  79
ENDBRANCH  46  71
BRANCH  58  83
ATOM     83  C   UNL A   1      46.512  27.258  33.872  1.00  0.00     0.058 A 
ATOM     84  C   UNL A   1      46.510  26.267  34.865  1.00  0.00     0.135 A 
ATOM     85  C   UNL A   1      47.749  27.797  33.479  1.00  0.00     0.135 A 
ATOM     86  F   UNL A   1      45.353  25.729  35.279  1.00  0.00    -0.206 F 
ATOM     87  C   UNL A   1      47.693  25.824  35.446  1.00  0.00     0.059 A 
ATOM     88  C   UNL A   1      48.945  27.353  34.032  1.00  0.00     0.059 A 
ATOM     89  F   UNL A   1      47.802  28.741  32.527  1.00  0.00    -0.206 F 
ATOM     90  C   UNL A   1      48.906  26.368  35.018  1.00  0.00     0.060 A 
BRANCH  90  91
ATOM     91  S   UNL A   1      50.441  25.733  35.728  1.00  0.00     0.124 S 
ATOM     92  O   UNL A   1      50.963  24.931  34.628  1.00  0.00    -0.237 OA
ATOM     93  O   UNL A   1      51.179  26.957  36.025  1.00  0.00    -0.237 OA
ATOM     94  O   UNL A   1      49.989  24.982  36.895  1.00  0.00    -0.744 OA
ENDBRANCH  90  91
ENDBRANCH  58  83
ENDBRANCH  32  33
ENDBRANCH  24  27
ENDBRANCH  22  23
ENDBRANCH   1  22
TORSDOF 18
ENDMDL
