MODEL 1
REMARK VINA RESULT:     -12.5      0.000      0.000
REMARK SMILES Cc1cnn(C2(C(=O)NCCCCNC(=O)c3ccc(-c4c5nc(c(-c6c(F)cc(S(=O)(=O)[O-])cc6F)c6ccc([nH]6)c(-c6c(F)cc(S(=O)(=O)[O-])cc6F)c6nc(c(-c7c(F)cc(S(=O)(=O)[O-])cc7F)c7ccc4[nH]7)C=C6)C=C5)cc3)CCN(C(=O)c3cscn3)CC2)c1
REMARK SMILES IDX 12 1 11 2 10 3 9 4 7 5 8 6 6 8 83 9 94 10 84 11 93 12 85 13
REMARK SMILES IDX 86 14 87 15 5 16 1 17 2 18 3 19 95 20 4 21 88 22 89 23 92 24
REMARK SMILES IDX 90 25 91 26 13 27 14 28 15 29 16 31 17 32 18 33 82 34 19 35
REMARK SMILES IDX 81 36 20 37 21 38 22 39 75 40 23 41 80 42 74 43 76 44 24 45
REMARK SMILES IDX 79 46 73 47 72 48 25 50 59 51 38 52 58 53 39 54 42 55 57 56
REMARK SMILES IDX 77 57 40 58 41 59 56 61 78 62 43 63 26 64 27 65 36 66 28 67
REMARK SMILES IDX 29 68 35 69 37 70 30 71 31 72 32 73 33 74 34 75 60 76 61 77
REMARK SMILES IDX 70 78 62 79 63 80 69 81 71 82 64 83 65 84 66 85 67 86 68 87
REMARK SMILES IDX 44 88 45 89 54 90 46 91 47 92 53 93 55 94 48 95 49 96 50 97
REMARK SMILES IDX 51 98 52 99
REMARK H PARENT 9 7 14 30 76 49 42 60
REMARK Flexibility Score: inf
ROOT
ATOM      1  C   UNL A   1      33.833  30.833  27.444  1.00  0.00     0.023 C 
ENDROOT
BRANCH   1   2
ATOM      2  C   UNL A   1      34.558  29.562  26.983  1.00  0.00     0.023 C 
BRANCH   2   3
ATOM      3  C   UNL A   1      33.782  28.635  26.036  1.00  0.00     0.116 C 
BRANCH   3   4
ATOM      4  N   UNL A   1      32.792  27.824  26.736  1.00  0.00    -0.354 N 
ATOM      5  C   UNL A   1      31.650  27.158  26.341  1.00  0.00     0.248 C 
ATOM      6  O   UNL A   1      30.999  26.723  27.292  1.00  0.00    -0.272 OA
ATOM      7  H   UNL A   1      32.980  27.729  27.698  1.00  0.00     0.163 HD
BRANCH   5   8
ATOM      8  C   UNL A   1      31.242  27.034  24.828  1.00  0.00     0.144 C 
ATOM      9  C   UNL A   1      29.831  26.400  24.810  1.00  0.00     0.062 C 
ATOM     10  C   UNL A   1      31.345  28.454  24.215  1.00  0.00     0.062 C 
ATOM     11  C   UNL A   1      28.925  26.815  23.665  1.00  0.00     0.123 C 
ATOM     12  C   UNL A   1      30.387  28.735  23.068  1.00  0.00     0.123 C 
ATOM     13  N   UNL A   1      29.043  28.218  23.307  1.00  0.00    -0.337 N 
ATOM     14  C   UNL A   1      27.861  28.918  23.011  1.00  0.00     0.273 C 
ATOM     15  O   UNL A   1      26.749  28.442  23.236  1.00  0.00    -0.267 OA
BRANCH   8  16
ATOM     16  N   UNL A   1      32.130  26.148  24.000  1.00  0.00    -0.257 N 
ATOM     17  C   UNL A   1      32.974  24.038  21.122  1.00  0.00     0.048 C 
ATOM     18  C   UNL A   1      32.880  24.855  22.350  1.00  0.00    -0.013 A 
ATOM     19  C   UNL A   1      33.902  25.266  23.222  1.00  0.00     0.138 A 
ATOM     20  C   UNL A   1      31.748  25.418  22.893  1.00  0.00     0.113 A 
ATOM     21  N   UNL A   1      33.447  26.019  24.222  1.00  0.00    -0.180 NA
ENDBRANCH   8  16
BRANCH  14  22
ATOM     22  C   UNL A   1      27.989  30.236  22.385  1.00  0.00     0.139 A 
ATOM     23  C   UNL A   1      28.076  31.427  23.089  1.00  0.00     0.100 A 
ATOM     24  N   UNL A   1      28.072  30.376  21.003  1.00  0.00    -0.240 NA
ATOM     25  S   UNL A   1      28.224  32.747  22.007  1.00  0.00    -0.130 S 
ATOM     26  C   UNL A   1      28.191  31.648  20.693  1.00  0.00     0.176 A 
ENDBRANCH  14  22
ENDBRANCH   5   8
ENDBRANCH   3   4
ENDBRANCH   2   3
ENDBRANCH   1   2
BRANCH   1  27
ATOM     27  C   UNL A   1      34.753  32.000  27.761  1.00  0.00     0.116 C 
BRANCH  27  28
ATOM     28  N   UNL A   1      34.319  32.769  28.930  1.00  0.00    -0.352 N 
ATOM     29  C   UNL A   1      34.721  32.621  30.249  1.00  0.00     0.251 C 
ATOM     30  H   UNL A   1      33.659  33.480  28.757  1.00  0.00     0.163 HD
ATOM     31  O   UNL A   1      34.052  33.055  31.169  1.00  0.00    -0.269 OA
BRANCH  29  32
ATOM     32  C   UNL A   1      35.997  31.930  30.503  1.00  0.00     0.039 A 
ATOM     33  C   UNL A   1      36.074  30.541  30.660  1.00  0.00     0.014 A 
ATOM     34  C   UNL A   1      37.140  32.720  30.530  1.00  0.00     0.014 A 
ATOM     35  C   UNL A   1      37.330  29.943  30.761  1.00  0.00     0.010 A 
ATOM     36  C   UNL A   1      38.363  32.123  30.442  1.00  0.00     0.010 A 
ATOM     37  C   UNL A   1      38.468  30.745  30.638  1.00  0.00    -0.014 A 
BRANCH  37  38
ATOM     38  C   UNL A   1      39.819  30.201  30.647  1.00  0.00     0.031 A 
ATOM     39  C   UNL A   1      40.405  29.958  31.995  1.00  0.00     0.074 A 
ATOM     40  C   UNL A   1      40.295  29.624  29.519  1.00  0.00     0.049 A 
ATOM     41  N   UNL A   1      41.484  30.459  32.500  1.00  0.00    -0.248 NA
ATOM     42  C   UNL A   1      39.622  29.165  32.962  1.00  0.00     0.031 C 
ATOM     43  C   UNL A   1      39.616  29.505  28.219  1.00  0.00     0.029 A 
ATOM     44  N   UNL A   1      41.388  28.840  29.349  1.00  0.00    -0.354 N 
ATOM     45  C   UNL A   1      41.644  29.849  33.746  1.00  0.00     0.074 A 
ATOM     46  C   UNL A   1      40.367  29.269  34.064  1.00  0.00     0.031 C 
ATOM     47  C   UNL A   1      40.164  28.492  27.517  1.00  0.00     0.029 A 
ATOM     48  C   UNL A   1      41.320  28.002  28.238  1.00  0.00     0.049 A 
ATOM     49  H   UNL A   1      42.162  28.861  29.958  1.00  0.00     0.167 HD
ATOM     50  C   UNL A   1      42.881  29.634  34.283  1.00  0.00     0.037 A 
ATOM     51  C   UNL A   1      42.109  26.922  28.005  1.00  0.00     0.037 A 
ATOM     52  C   UNL A   1      43.885  30.392  33.574  1.00  0.00     0.049 A 
ATOM     53  C   UNL A   1      43.331  27.107  28.842  1.00  0.00     0.074 A 
ATOM     54  C   UNL A   1      44.057  31.730  33.273  1.00  0.00     0.029 A 
ATOM     55  N   UNL A   1      44.711  29.710  32.710  1.00  0.00    -0.354 N 
ATOM     56  N   UNL A   1      44.177  28.094  28.675  1.00  0.00    -0.248 NA
ATOM     57  C   UNL A   1      43.342  26.503  30.167  1.00  0.00     0.031 C 
ATOM     58  C   UNL A   1      44.551  31.741  31.935  1.00  0.00     0.029 A 
ATOM     59  C   UNL A   1      44.735  30.417  31.534  1.00  0.00     0.049 A 
ATOM     60  H   UNL A   1      45.193  28.873  32.899  1.00  0.00     0.167 HD
ATOM     61  C   UNL A   1      44.507  28.509  29.960  1.00  0.00     0.074 A 
ATOM     62  C   UNL A   1      44.021  27.441  30.836  1.00  0.00     0.031 C 
ATOM     63  C   UNL A   1      44.857  29.804  30.228  1.00  0.00     0.037 A 
BRANCH  50  64
ATOM     64  C   UNL A   1      43.259  28.464  35.175  1.00  0.00     0.058 A 
ATOM     65  C   UNL A   1      43.961  28.726  36.374  1.00  0.00     0.135 A 
ATOM     66  C   UNL A   1      43.232  27.108  34.782  1.00  0.00     0.135 A 
ATOM     67  F   UNL A   1      44.037  29.973  36.866  1.00  0.00    -0.206 F 
ATOM     68  C   UNL A   1      44.679  27.741  37.054  1.00  0.00     0.059 A 
ATOM     69  C   UNL A   1      43.893  26.102  35.477  1.00  0.00     0.059 A 
ATOM     70  F   UNL A   1      42.649  26.694  33.653  1.00  0.00    -0.206 F 
ATOM     71  C   UNL A   1      44.661  26.436  36.580  1.00  0.00     0.060 A 
BRANCH  71  72
ATOM     72  S   UNL A   1      45.701  25.193  37.363  1.00  0.00     0.124 S 
ATOM     73  O   UNL A   1      44.802  24.674  38.389  1.00  0.00    -0.237 OA
ATOM     74  O   UNL A   1      45.989  24.294  36.250  1.00  0.00    -0.237 OA
ATOM     75  O   UNL A   1      46.838  25.966  37.850  1.00  0.00    -0.744 OA
ENDBRANCH  71  72
ENDBRANCH  50  64
BRANCH  51  76
ATOM     76  C   UNL A   1      41.669  25.610  27.445  1.00  0.00     0.058 A 
ATOM     77  C   UNL A   1      42.468  24.893  26.537  1.00  0.00     0.135 A 
ATOM     78  C   UNL A   1      40.562  24.905  27.973  1.00  0.00     0.135 A 
ATOM     79  F   UNL A   1      43.554  25.468  25.999  1.00  0.00    -0.206 F 
ATOM     80  C   UNL A   1      42.212  23.555  26.205  1.00  0.00     0.059 A 
ATOM     81  C   UNL A   1      40.276  23.581  27.643  1.00  0.00     0.059 A 
ATOM     82  F   UNL A   1      39.761  25.450  28.900  1.00  0.00    -0.206 F 
ATOM     83  C   UNL A   1      41.120  22.901  26.778  1.00  0.00     0.060 A 
BRANCH  83  84
ATOM     84  S   UNL A   1      40.868  21.133  26.487  1.00  0.00     0.124 S 
ATOM     85  O   UNL A   1      39.580  21.120  25.803  1.00  0.00    -0.237 OA
ATOM     86  O   UNL A   1      42.028  20.788  25.673  1.00  0.00    -0.237 OA
ATOM     87  O   UNL A   1      40.861  20.566  27.833  1.00  0.00    -0.744 OA
ENDBRANCH  83  84
ENDBRANCH  51  76
BRANCH  63  88
ATOM     88  C   UNL A   1      45.147  30.743  29.083  1.00  0.00     0.058 A 
ATOM     89  C   UNL A   1      44.178  31.530  28.435  1.00  0.00     0.135 A 
ATOM     90  C   UNL A   1      46.489  31.009  28.770  1.00  0.00     0.135 A 
ATOM     91  F   UNL A   1      42.882  31.428  28.751  1.00  0.00    -0.206 F 
ATOM     92  C   UNL A   1      44.521  32.507  27.497  1.00  0.00     0.059 A 
ATOM     93  C   UNL A   1      46.857  31.999  27.863  1.00  0.00     0.059 A 
ATOM     94  F   UNL A   1      47.470  30.343  29.401  1.00  0.00    -0.206 F 
ATOM     95  C   UNL A   1      45.866  32.737  27.221  1.00  0.00     0.060 A 
BRANCH  95  96
ATOM     96  S   UNL A   1      46.310  34.057  26.071  1.00  0.00     0.124 S 
ATOM     97  O   UNL A   1      47.706  33.748  25.776  1.00  0.00    -0.237 OA
ATOM     98  O   UNL A   1      45.369  33.853  24.973  1.00  0.00    -0.237 OA
ATOM     99  O   UNL A   1      46.092  35.275  26.849  1.00  0.00    -0.744 OA
ENDBRANCH  95  96
ENDBRANCH  63  88
ENDBRANCH  37  38
ENDBRANCH  29  32
ENDBRANCH  27  28
ENDBRANCH   1  27
TORSDOF 16
ENDMDL
MODEL 2
REMARK VINA RESULT:     -12.4      3.536      9.518
REMARK SMILES Cc1cnn(C2(C(=O)NCCCCNC(=O)c3ccc(-c4c5nc(c(-c6c(F)cc(S(=O)(=O)[O-])cc6F)c6ccc([nH]6)c(-c6c(F)cc(S(=O)(=O)[O-])cc6F)c6nc(c(-c7c(F)cc(S(=O)(=O)[O-])cc7F)c7ccc4[nH]7)C=C6)C=C5)cc3)CCN(C(=O)c3cscn3)CC2)c1
REMARK SMILES IDX 12 1 11 2 10 3 9 4 7 5 8 6 6 8 83 9 94 10 84 11 93 12 85 13
REMARK SMILES IDX 86 14 87 15 5 16 1 17 2 18 3 19 95 20 4 21 88 22 89 23 92 24
REMARK SMILES IDX 90 25 91 26 13 27 14 28 15 29 16 31 17 32 18 33 82 34 19 35
REMARK SMILES IDX 81 36 20 37 21 38 22 39 75 40 23 41 80 42 74 43 76 44 24 45
REMARK SMILES IDX 79 46 73 47 72 48 25 50 59 51 38 52 58 53 39 54 42 55 57 56
REMARK SMILES IDX 77 57 40 58 41 59 56 61 78 62 43 63 26 64 27 65 36 66 28 67
REMARK SMILES IDX 29 68 35 69 37 70 30 71 31 72 32 73 33 74 34 75 60 76 61 77
REMARK SMILES IDX 70 78 62 79 63 80 69 81 71 82 64 83 65 84 66 85 67 86 68 87
REMARK SMILES IDX 44 88 45 89 54 90 46 91 47 92 53 93 55 94 48 95 49 96 50 97
REMARK SMILES IDX 51 98 52 99
REMARK H PARENT 9 7 14 30 76 49 42 60
REMARK Flexibility Score: inf
ROOT
ATOM      1  C   UNL A   1      38.905  21.767  25.989  1.00  0.00     0.023 C 
ENDROOT
BRANCH   1   2
ATOM      2  C   UNL A   1      38.143  22.976  25.434  1.00  0.00     0.023 C 
BRANCH   2   3
ATOM      3  C   UNL A   1      36.612  22.858  25.381  1.00  0.00     0.116 C 
BRANCH   3   4
ATOM      4  N   UNL A   1      36.039  23.548  24.231  1.00  0.00    -0.354 N 
ATOM      5  C   UNL A   1      34.810  23.501  23.604  1.00  0.00     0.248 C 
ATOM      6  O   UNL A   1      34.791  24.135  22.548  1.00  0.00    -0.272 OA
ATOM      7  H   UNL A   1      36.661  24.187  23.813  1.00  0.00     0.163 HD
BRANCH   5   8
ATOM      8  C   UNL A   1      33.608  22.676  24.192  1.00  0.00     0.144 C 
ATOM      9  C   UNL A   1      32.750  22.239  22.981  1.00  0.00     0.062 C 
ATOM     10  C   UNL A   1      34.219  21.524  25.029  1.00  0.00     0.062 C 
ATOM     11  C   UNL A   1      32.020  20.916  23.120  1.00  0.00     0.123 C 
ATOM     12  C   UNL A   1      33.381  20.257  25.094  1.00  0.00     0.123 C 
ATOM     13  N   UNL A   1      32.792  19.894  23.808  1.00  0.00    -0.337 N 
ATOM     14  C   UNL A   1      32.742  18.585  23.300  1.00  0.00     0.273 C 
ATOM     15  O   UNL A   1      32.239  18.330  22.207  1.00  0.00    -0.267 OA
BRANCH   8  16
ATOM     16  N   UNL A   1      32.703  23.441  25.116  1.00  0.00    -0.257 N 
ATOM     17  C   UNL A   1      29.825  25.547  25.966  1.00  0.00     0.048 C 
ATOM     18  C   UNL A   1      31.020  24.682  25.879  1.00  0.00    -0.013 A 
ATOM     19  C   UNL A   1      31.726  24.038  26.908  1.00  0.00     0.138 A 
ATOM     20  C   UNL A   1      31.690  24.298  24.739  1.00  0.00     0.113 A 
ATOM     21  N   UNL A   1      32.747  23.315  26.452  1.00  0.00    -0.180 NA
ENDBRANCH   8  16
BRANCH  14  22
ATOM     22  C   UNL A   1      33.280  17.510  24.137  1.00  0.00     0.139 A 
ATOM     23  C   UNL A   1      34.609  17.117  24.139  1.00  0.00     0.100 A 
ATOM     24  N   UNL A   1      32.473  16.820  25.037  1.00  0.00    -0.240 NA
ATOM     25  S   UNL A   1      34.849  15.838  25.254  1.00  0.00    -0.130 S 
ATOM     26  C   UNL A   1      33.188  15.917  25.671  1.00  0.00     0.176 A 
ENDBRANCH  14  22
ENDBRANCH   5   8
ENDBRANCH   3   4
ENDBRANCH   2   3
ENDBRANCH   1   2
BRANCH   1  27
ATOM     27  C   UNL A   1      40.195  22.117  26.712  1.00  0.00     0.116 C 
BRANCH  27  28
ATOM     28  N   UNL A   1      41.387  21.928  25.881  1.00  0.00    -0.352 N 
ATOM     29  C   UNL A   1      42.268  22.893  25.419  1.00  0.00     0.251 C 
ATOM     30  H   UNL A   1      41.585  21.000  25.617  1.00  0.00     0.163 HD
ATOM     31  O   UNL A   1      42.997  22.684  24.466  1.00  0.00    -0.269 OA
BRANCH  29  32
ATOM     32  C   UNL A   1      42.307  24.184  26.130  1.00  0.00     0.039 A 
ATOM     33  C   UNL A   1      41.521  25.274  25.737  1.00  0.00     0.014 A 
ATOM     34  C   UNL A   1      43.127  24.255  27.249  1.00  0.00     0.014 A 
ATOM     35  C   UNL A   1      41.508  26.416  26.536  1.00  0.00     0.010 A 
ATOM     36  C   UNL A   1      42.971  25.291  28.122  1.00  0.00     0.010 A 
ATOM     37  C   UNL A   1      42.228  26.407  27.734  1.00  0.00    -0.014 A 
BRANCH  37  38
ATOM     38  C   UNL A   1      42.207  27.520  28.673  1.00  0.00     0.031 A 
ATOM     39  C   UNL A   1      43.282  28.536  28.490  1.00  0.00     0.074 A 
ATOM     40  C   UNL A   1      41.072  27.761  29.370  1.00  0.00     0.049 A 
ATOM     41  N   UNL A   1      44.184  28.906  29.338  1.00  0.00    -0.248 NA
ATOM     42  C   UNL A   1      43.468  29.118  27.148  1.00  0.00     0.031 C 
ATOM     43  C   UNL A   1      39.818  26.993  29.332  1.00  0.00     0.029 A 
ATOM     44  N   UNL A   1      40.722  28.855  30.092  1.00  0.00    -0.354 N 
ATOM     45  C   UNL A   1      44.887  29.943  28.721  1.00  0.00     0.074 A 
ATOM     46  C   UNL A   1      44.567  29.854  27.322  1.00  0.00     0.031 C 
ATOM     47  C   UNL A   1      38.801  27.771  29.756  1.00  0.00     0.029 A 
ATOM     48  C   UNL A   1      39.347  29.023  30.240  1.00  0.00     0.049 A 
ATOM     49  H   UNL A   1      41.382  29.475  30.478  1.00  0.00     0.167 HD
ATOM     50  C   UNL A   1      45.452  30.953  29.445  1.00  0.00     0.037 A 
ATOM     51  C   UNL A   1      38.721  30.160  30.635  1.00  0.00     0.037 A 
ATOM     52  C   UNL A   1      45.499  30.613  30.847  1.00  0.00     0.049 A 
ATOM     53  C   UNL A   1      39.747  30.976  31.351  1.00  0.00     0.074 A 
ATOM     54  C   UNL A   1      46.030  29.563  31.573  1.00  0.00     0.029 A 
ATOM     55  N   UNL A   1      44.590  31.218  31.685  1.00  0.00    -0.354 N 
ATOM     56  N   UNL A   1      40.327  30.592  32.461  1.00  0.00    -0.248 NA
ATOM     57  C   UNL A   1      40.487  31.962  30.577  1.00  0.00     0.031 C 
ATOM     58  C   UNL A   1      45.054  29.282  32.574  1.00  0.00     0.029 A 
ATOM     59  C   UNL A   1      44.035  30.230  32.457  1.00  0.00     0.049 A 
ATOM     60  H   UNL A   1      44.378  32.179  31.722  1.00  0.00     0.167 HD
ATOM     61  C   UNL A   1      41.662  30.950  32.313  1.00  0.00     0.074 A 
ATOM     62  C   UNL A   1      41.683  31.859  31.166  1.00  0.00     0.031 C 
ATOM     63  C   UNL A   1      42.665  30.247  32.924  1.00  0.00     0.037 A 
BRANCH  50  64
ATOM     64  C   UNL A   1      45.605  32.390  28.976  1.00  0.00     0.058 A 
ATOM     65  C   UNL A   1      46.856  33.028  29.140  1.00  0.00     0.135 A 
ATOM     66  C   UNL A   1      44.532  33.251  28.654  1.00  0.00     0.135 A 
ATOM     67  F   UNL A   1      47.957  32.313  29.424  1.00  0.00    -0.206 F 
ATOM     68  C   UNL A   1      47.001  34.416  29.111  1.00  0.00     0.059 A 
ATOM     69  C   UNL A   1      44.668  34.632  28.562  1.00  0.00     0.059 A 
ATOM     70  F   UNL A   1      43.276  32.819  28.507  1.00  0.00    -0.206 F 
ATOM     71  C   UNL A   1      45.893  35.210  28.848  1.00  0.00     0.060 A 
BRANCH  71  72
ATOM     72  S   UNL A   1      46.041  37.001  28.953  1.00  0.00     0.124 S 
ATOM     73  O   UNL A   1      47.047  37.144  29.999  1.00  0.00    -0.237 OA
ATOM     74  O   UNL A   1      46.466  37.350  27.602  1.00  0.00    -0.237 OA
ATOM     75  O   UNL A   1      44.691  37.428  29.310  1.00  0.00    -0.744 OA
ENDBRANCH  71  72
ENDBRANCH  50  64
BRANCH  51  76
ATOM     76  C   UNL A   1      37.454  30.715  30.072  1.00  0.00     0.058 A 
ATOM     77  C   UNL A   1      36.481  31.307  30.895  1.00  0.00     0.135 A 
ATOM     78  C   UNL A   1      37.273  30.901  28.682  1.00  0.00     0.135 A 
ATOM     79  F   UNL A   1      36.578  31.206  32.230  1.00  0.00    -0.206 F 
ATOM     80  C   UNL A   1      35.420  32.066  30.379  1.00  0.00     0.059 A 
ATOM     81  C   UNL A   1      36.216  31.634  28.144  1.00  0.00     0.059 A 
ATOM     82  F   UNL A   1      38.166  30.447  27.791  1.00  0.00    -0.206 F 
ATOM     83  C   UNL A   1      35.307  32.238  28.999  1.00  0.00     0.060 A 
BRANCH  83  84
ATOM     84  S   UNL A   1      34.043  33.344  28.325  1.00  0.00     0.124 S 
ATOM     85  O   UNL A   1      33.504  33.958  29.533  1.00  0.00    -0.237 OA
ATOM     86  O   UNL A   1      34.827  34.216  27.459  1.00  0.00    -0.237 OA
ATOM     87  O   UNL A   1      33.132  32.435  27.633  1.00  0.00    -0.744 OA
ENDBRANCH  83  84
ENDBRANCH  51  76
BRANCH  63  88
ATOM     88  C   UNL A   1      42.315  29.230  33.983  1.00  0.00     0.058 A 
ATOM     89  C   UNL A   1      41.909  27.911  33.715  1.00  0.00     0.135 A 
ATOM     90  C   UNL A   1      42.604  29.542  35.321  1.00  0.00     0.135 A 
ATOM     91  F   UNL A   1      41.720  27.489  32.460  1.00  0.00    -0.206 F 
ATOM     92  C   UNL A   1      41.761  26.959  34.727  1.00  0.00     0.059 A 
ATOM     93  C   UNL A   1      42.496  28.603  36.342  1.00  0.00     0.059 A 
ATOM     94  F   UNL A   1      43.064  30.764  35.640  1.00  0.00    -0.206 F 
ATOM     95  C   UNL A   1      42.063  27.315  36.040  1.00  0.00     0.060 A 
BRANCH  95  96
ATOM     96  S   UNL A   1      41.952  26.061  37.334  1.00  0.00     0.124 S 
ATOM     97  O   UNL A   1      42.912  26.551  38.317  1.00  0.00    -0.237 OA
ATOM     98  O   UNL A   1      40.548  26.133  37.728  1.00  0.00    -0.237 OA
ATOM     99  O   UNL A   1      42.334  24.828  36.648  1.00  0.00    -0.744 OA
ENDBRANCH  95  96
ENDBRANCH  63  88
ENDBRANCH  37  38
ENDBRANCH  29  32
ENDBRANCH  27  28
ENDBRANCH   1  27
TORSDOF 16
ENDMDL
MODEL 3
REMARK VINA RESULT:     -12.4      3.085      8.715
REMARK SMILES Cc1cnn(C2(C(=O)NCCCCNC(=O)c3ccc(-c4c5nc(c(-c6c(F)cc(S(=O)(=O)[O-])cc6F)c6ccc([nH]6)c(-c6c(F)cc(S(=O)(=O)[O-])cc6F)c6nc(c(-c7c(F)cc(S(=O)(=O)[O-])cc7F)c7ccc4[nH]7)C=C6)C=C5)cc3)CCN(C(=O)c3cscn3)CC2)c1
REMARK SMILES IDX 12 1 11 2 10 3 9 4 7 5 8 6 6 8 83 9 94 10 84 11 93 12 85 13
REMARK SMILES IDX 86 14 87 15 5 16 1 17 2 18 3 19 95 20 4 21 88 22 89 23 92 24
REMARK SMILES IDX 90 25 91 26 13 27 14 28 15 29 16 31 17 32 18 33 82 34 19 35
REMARK SMILES IDX 81 36 20 37 21 38 22 39 75 40 23 41 80 42 74 43 76 44 24 45
REMARK SMILES IDX 79 46 73 47 72 48 25 50 59 51 38 52 58 53 39 54 42 55 57 56
REMARK SMILES IDX 77 57 40 58 41 59 56 61 78 62 43 63 26 64 27 65 36 66 28 67
REMARK SMILES IDX 29 68 35 69 37 70 30 71 31 72 32 73 33 74 34 75 60 76 61 77
REMARK SMILES IDX 70 78 62 79 63 80 69 81 71 82 64 83 65 84 66 85 67 86 68 87
REMARK SMILES IDX 44 88 45 89 54 90 46 91 47 92 53 93 55 94 48 95 49 96 50 97
REMARK SMILES IDX 51 98 52 99
REMARK H PARENT 9 7 14 30 76 49 42 60
REMARK Flexibility Score: inf
ROOT
ATOM      1  C   UNL A   1      38.484  22.408  25.603  1.00  0.00     0.023 C 
ENDROOT
BRANCH   1   2
ATOM      2  C   UNL A   1      37.764  21.115  25.205  1.00  0.00     0.023 C 
BRANCH   2   3
ATOM      3  C   UNL A   1      36.229  21.144  25.243  1.00  0.00     0.116 C 
BRANCH   3   4
ATOM      4  N   UNL A   1      35.712  21.591  26.532  1.00  0.00    -0.354 N 
ATOM      5  C   UNL A   1      34.501  22.105  26.949  1.00  0.00     0.248 C 
ATOM      6  O   UNL A   1      34.533  22.516  28.110  1.00  0.00    -0.272 OA
ATOM      7  H   UNL A   1      36.367  21.508  27.262  1.00  0.00     0.163 HD
BRANCH   5   8
ATOM      8  C   UNL A   1      33.255  22.177  25.992  1.00  0.00     0.144 C 
ATOM      9  C   UNL A   1      32.037  22.494  26.892  1.00  0.00     0.062 C 
ATOM     10  C   UNL A   1      33.579  23.235  24.907  1.00  0.00     0.062 C 
ATOM     11  C   UNL A   1      30.928  23.310  26.253  1.00  0.00     0.123 C 
ATOM     12  C   UNL A   1      32.376  23.974  24.344  1.00  0.00     0.123 C 
ATOM     13  N   UNL A   1      31.409  24.358  25.369  1.00  0.00    -0.337 N 
ATOM     14  C   UNL A   1      30.765  25.605  25.422  1.00  0.00     0.273 C 
ATOM     15  O   UNL A   1      29.961  25.885  26.310  1.00  0.00    -0.267 OA
BRANCH   8  16
ATOM     16  N   UNL A   1      32.939  20.902  25.262  1.00  0.00    -0.257 N 
ATOM     17  C   UNL A   1      32.287  18.834  22.306  1.00  0.00     0.048 C 
ATOM     18  C   UNL A   1      32.541  19.444  23.627  1.00  0.00    -0.013 A 
ATOM     19  C   UNL A   1      32.777  18.819  24.863  1.00  0.00     0.138 A 
ATOM     20  C   UNL A   1      32.627  20.786  23.923  1.00  0.00     0.113 A 
ATOM     21  N   UNL A   1      32.990  19.693  25.845  1.00  0.00    -0.180 NA
ENDBRANCH   8  16
BRANCH  14  22
ATOM     22  C   UNL A   1      31.052  26.566  24.354  1.00  0.00     0.139 A 
ATOM     23  C   UNL A   1      32.069  27.506  24.407  1.00  0.00     0.100 A 
ATOM     24  N   UNL A   1      30.324  26.569  23.168  1.00  0.00    -0.240 NA
ATOM     25  S   UNL A   1      32.092  28.437  22.968  1.00  0.00    -0.130 S 
ATOM     26  C   UNL A   1      30.778  27.512  22.372  1.00  0.00     0.176 A 
ENDBRANCH  14  22
ENDBRANCH   5   8
ENDBRANCH   3   4
ENDBRANCH   2   3
ENDBRANCH   1   2
BRANCH   1  27
ATOM     27  C   UNL A   1      39.631  22.213  26.581  1.00  0.00     0.116 C 
BRANCH  27  28
ATOM     28  N   UNL A   1      40.888  21.848  25.923  1.00  0.00    -0.352 N 
ATOM     29  C   UNL A   1      41.936  22.681  25.560  1.00  0.00     0.251 C 
ATOM     30  H   UNL A   1      41.003  20.893  25.713  1.00  0.00     0.163 HD
ATOM     31  O   UNL A   1      42.751  22.345  24.720  1.00  0.00    -0.269 OA
BRANCH  29  32
ATOM     32  C   UNL A   1      42.041  23.986  26.235  1.00  0.00     0.039 A 
ATOM     33  C   UNL A   1      41.347  25.115  25.785  1.00  0.00     0.014 A 
ATOM     34  C   UNL A   1      42.827  24.034  27.380  1.00  0.00     0.014 A 
ATOM     35  C   UNL A   1      41.387  26.279  26.552  1.00  0.00     0.010 A 
ATOM     36  C   UNL A   1      42.715  25.104  28.218  1.00  0.00     0.010 A 
ATOM     37  C   UNL A   1      42.065  26.256  27.774  1.00  0.00    -0.014 A 
BRANCH  37  38
ATOM     38  C   UNL A   1      42.091  27.396  28.681  1.00  0.00     0.031 A 
ATOM     39  C   UNL A   1      43.183  28.381  28.444  1.00  0.00     0.074 A 
ATOM     40  C   UNL A   1      40.978  27.682  29.396  1.00  0.00     0.049 A 
ATOM     41  N   UNL A   1      44.114  28.754  29.260  1.00  0.00    -0.248 NA
ATOM     42  C   UNL A   1      43.351  28.921  27.082  1.00  0.00     0.031 C 
ATOM     43  C   UNL A   1      39.707  26.943  29.409  1.00  0.00     0.029 A 
ATOM     44  N   UNL A   1      40.670  28.804  30.094  1.00  0.00    -0.354 N 
ATOM     45  C   UNL A   1      44.825  29.757  28.597  1.00  0.00     0.074 A 
ATOM     46  C   UNL A   1      44.470  29.635  27.209  1.00  0.00     0.031 C 
ATOM     47  C   UNL A   1      38.717  27.756  29.834  1.00  0.00     0.029 A 
ATOM     48  C   UNL A   1      39.302  29.007  30.268  1.00  0.00     0.049 A 
ATOM     49  H   UNL A   1      41.352  29.420  30.447  1.00  0.00     0.167 HD
ATOM     50  C   UNL A   1      45.429  30.774  29.278  1.00  0.00     0.037 A 
ATOM     51  C   UNL A   1      38.712  30.170  30.645  1.00  0.00     0.037 A 
ATOM     52  C   UNL A   1      45.502  30.473  30.689  1.00  0.00     0.049 A 
ATOM     53  C   UNL A   1      39.772  30.982  31.313  1.00  0.00     0.074 A 
ATOM     54  C   UNL A   1      46.026  29.432  31.432  1.00  0.00     0.029 A 
ATOM     55  N   UNL A   1      44.626  31.122  31.529  1.00  0.00    -0.354 N 
ATOM     56  N   UNL A   1      40.369  30.617  32.420  1.00  0.00    -0.248 NA
ATOM     57  C   UNL A   1      40.516  31.929  30.494  1.00  0.00     0.031 C 
ATOM     58  C   UNL A   1      45.067  29.202  32.463  1.00  0.00     0.029 A 
ATOM     59  C   UNL A   1      44.067  30.170  32.342  1.00  0.00     0.049 A 
ATOM     60  H   UNL A   1      44.437  32.088  31.544  1.00  0.00     0.167 HD
ATOM     61  C   UNL A   1      41.708  30.939  32.232  1.00  0.00     0.074 A 
ATOM     62  C   UNL A   1      41.722  31.814  31.059  1.00  0.00     0.031 C 
ATOM     63  C   UNL A   1      42.709  30.231  32.839  1.00  0.00     0.037 A 
BRANCH  50  64
ATOM     64  C   UNL A   1      45.602  32.193  28.765  1.00  0.00     0.058 A 
ATOM     65  C   UNL A   1      46.872  32.805  28.878  1.00  0.00     0.135 A 
ATOM     66  C   UNL A   1      44.542  33.071  28.447  1.00  0.00     0.135 A 
ATOM     67  F   UNL A   1      47.964  32.072  29.152  1.00  0.00    -0.206 F 
ATOM     68  C   UNL A   1      47.050  34.187  28.804  1.00  0.00     0.059 A 
ATOM     69  C   UNL A   1      44.708  34.445  28.313  1.00  0.00     0.059 A 
ATOM     70  F   UNL A   1      43.273  32.665  28.346  1.00  0.00    -0.206 F 
ATOM     71  C   UNL A   1      45.953  35.001  28.549  1.00  0.00     0.060 A 
BRANCH  71  72
ATOM     72  S   UNL A   1      46.146  36.790  28.599  1.00  0.00     0.124 S 
ATOM     73  O   UNL A   1      44.871  37.199  29.177  1.00  0.00    -0.237 OA
ATOM     74  O   UNL A   1      47.317  36.945  29.455  1.00  0.00    -0.237 OA
ATOM     75  O   UNL A   1      46.349  37.144  27.197  1.00  0.00    -0.744 OA
ENDBRANCH  71  72
ENDBRANCH  50  64
BRANCH  51  76
ATOM     76  C   UNL A   1      37.445  30.737  30.094  1.00  0.00     0.058 A 
ATOM     77  C   UNL A   1      36.494  31.355  30.926  1.00  0.00     0.135 A 
ATOM     78  C   UNL A   1      37.244  30.908  28.706  1.00  0.00     0.135 A 
ATOM     79  F   UNL A   1      36.612  31.270  32.260  1.00  0.00    -0.206 F 
ATOM     80  C   UNL A   1      35.437  32.124  30.417  1.00  0.00     0.059 A 
ATOM     81  C   UNL A   1      36.190  31.651  28.176  1.00  0.00     0.059 A 
ATOM     82  F   UNL A   1      38.115  30.429  27.807  1.00  0.00    -0.206 F 
ATOM     83  C   UNL A   1      35.304  32.280  29.036  1.00  0.00     0.060 A 
BRANCH  83  84
ATOM     84  S   UNL A   1      34.046  33.397  28.369  1.00  0.00     0.124 S 
ATOM     85  O   UNL A   1      33.164  32.473  27.667  1.00  0.00    -0.237 OA
ATOM     86  O   UNL A   1      33.504  34.006  29.578  1.00  0.00    -0.237 OA
ATOM     87  O   UNL A   1      34.813  34.295  27.510  1.00  0.00    -0.744 OA
ENDBRANCH  83  84
ENDBRANCH  51  76
BRANCH  63  88
ATOM     88  C   UNL A   1      42.362  29.253  33.935  1.00  0.00     0.058 A 
ATOM     89  C   UNL A   1      41.841  27.966  33.716  1.00  0.00     0.135 A 
ATOM     90  C   UNL A   1      42.768  29.555  35.244  1.00  0.00     0.135 A 
ATOM     91  F   UNL A   1      41.533  27.547  32.484  1.00  0.00    -0.206 F 
ATOM     92  C   UNL A   1      41.696  27.037  34.749  1.00  0.00     0.059 A 
ATOM     93  C   UNL A   1      42.664  28.637  36.285  1.00  0.00     0.059 A 
ATOM     94  F   UNL A   1      43.338  30.742  35.513  1.00  0.00    -0.206 F 
ATOM     95  C   UNL A   1      42.116  27.381  36.032  1.00  0.00     0.060 A 
BRANCH  95  96
ATOM     96  S   UNL A   1      42.006  26.151  37.349  1.00  0.00     0.124 S 
ATOM     97  O   UNL A   1      43.022  26.616  38.288  1.00  0.00    -0.237 OA
ATOM     98  O   UNL A   1      40.622  26.285  37.795  1.00  0.00    -0.237 OA
ATOM     99  O   UNL A   1      42.313  24.894  36.669  1.00  0.00    -0.744 OA
ENDBRANCH  95  96
ENDBRANCH  63  88
ENDBRANCH  37  38
ENDBRANCH  29  32
ENDBRANCH  27  28
ENDBRANCH   1  27
TORSDOF 16
ENDMDL
