MODEL 1
REMARK VINA RESULT:     -13.5      0.000      0.000
REMARK SMILES O=C(NCCCCNC(=O)[C@H]1CC=CC[C@@H]1C(=O)Nc1nn(Cc2ccccc2F)cc1Br)c1ccc(-c2c3nc(c(-c4c(F)cc(S(=O)(=O)[O-])cc4F)c4ccc([nH]4)c(-c4c(F)cc(S(=O)(=O)[O-])cc4F)c4nc(c(-c5c(F)cc(S(=O)(=O)[O-])cc5F)c5ccc2[nH]5)C=C4)C=C3)cc1
REMARK SMILES IDX 6 1 5 2 4 3 3 4 1 5 2 6 34 8 35 9 99 10 36 11 98 12 37 13
REMARK SMILES IDX 38 14 39 15 92 16 40 17 97 18 91 19 93 20 41 21 96 22 90 23
REMARK SMILES IDX 89 24 42 26 76 27 55 28 75 29 56 30 59 31 74 32 94 33 57 34
REMARK SMILES IDX 58 35 73 37 95 38 60 39 43 40 44 41 53 42 45 43 46 44 52 45
REMARK SMILES IDX 54 46 47 47 48 48 49 49 50 50 51 51 77 52 78 53 87 54 79 55
REMARK SMILES IDX 80 56 86 57 88 58 81 59 82 60 83 61 84 62 85 63 61 64 62 65
REMARK SMILES IDX 71 66 63 67 64 68 70 69 72 70 65 71 66 72 67 73 68 74 69 75
REMARK SMILES IDX 7 76 8 77 9 78 10 80 11 81 12 82 16 83 13 84 15 85 14 86
REMARK SMILES IDX 17 87 18 88 19 89 20 91 21 92 32 93 22 94 31 95 33 96 23 97
REMARK SMILES IDX 24 98 25 99 29 100 26 101 28 102 30 103 27 104
REMARK H PARENT 3 7 93 25 59 36 8 79 19 90
REMARK Flexibility Score: inf
ROOT
ATOM      1  C   UNL A   1      38.131  23.271  25.867  1.00  0.00     0.023 C 
ENDROOT
BRANCH   1   2
ATOM      2  C   UNL A   1      38.709  21.869  25.739  1.00  0.00     0.023 C 
BRANCH   2   3
ATOM      3  C   UNL A   1      39.952  21.653  26.591  1.00  0.00     0.116 C 
BRANCH   3   4
ATOM      4  N   UNL A   1      41.170  21.834  25.825  1.00  0.00    -0.352 N 
ATOM      5  O   UNL A   1      42.946  22.665  24.814  1.00  0.00    -0.269 OA
ATOM      6  C   UNL A   1      42.008  22.889  25.584  1.00  0.00     0.251 C 
ATOM      7  H   UNL A   1      41.461  21.009  25.375  1.00  0.00     0.163 HD
BRANCH   6   8
ATOM      8  C   UNL A   1      41.876  24.242  26.189  1.00  0.00     0.039 A 
ATOM      9  C   UNL A   1      41.165  25.308  25.638  1.00  0.00     0.014 A 
ATOM     10  C   UNL A   1      42.531  24.440  27.420  1.00  0.00     0.014 A 
ATOM     11  C   UNL A   1      41.086  26.526  26.300  1.00  0.00     0.010 A 
ATOM     12  C   UNL A   1      42.450  25.656  28.093  1.00  0.00     0.010 A 
ATOM     13  C   UNL A   1      41.722  26.699  27.529  1.00  0.00    -0.014 A 
BRANCH  13  14
ATOM     14  C   UNL A   1      41.483  27.962  28.218  1.00  0.00     0.031 A 
ATOM     15  C   UNL A   1      42.548  29.003  28.054  1.00  0.00     0.074 A 
ATOM     16  C   UNL A   1      40.347  28.250  28.876  1.00  0.00     0.049 A 
ATOM     17  N   UNL A   1      43.270  29.583  28.960  1.00  0.00    -0.248 NA
ATOM     18  C   UNL A   1      42.902  29.385  26.676  1.00  0.00     0.031 C 
ATOM     19  C   UNL A   1      39.084  27.511  28.893  1.00  0.00     0.029 A 
ATOM     20  N   UNL A   1      40.070  29.360  29.613  1.00  0.00    -0.354 N 
ATOM     21  C   UNL A   1      44.070  30.510  28.290  1.00  0.00     0.074 A 
ATOM     22  C   UNL A   1      43.869  30.279  26.881  1.00  0.00     0.031 C 
ATOM     23  C   UNL A   1      38.120  28.298  29.422  1.00  0.00     0.029 A 
ATOM     24  C   UNL A   1      38.727  29.527  29.905  1.00  0.00     0.049 A 
ATOM     25  H   UNL A   1      40.765  29.989  29.914  1.00  0.00     0.167 HD
ATOM     26  C   UNL A   1      44.759  31.503  28.921  1.00  0.00     0.037 A 
ATOM     27  C   UNL A   1      38.159  30.640  30.427  1.00  0.00     0.037 A 
ATOM     28  C   UNL A   1      44.895  31.260  30.329  1.00  0.00     0.049 A 
ATOM     29  C   UNL A   1      39.234  31.416  31.103  1.00  0.00     0.074 A 
ATOM     30  C   UNL A   1      45.540  30.305  31.089  1.00  0.00     0.029 A 
ATOM     31  N   UNL A   1      44.032  31.893  31.189  1.00  0.00    -0.354 N 
ATOM     32  N   UNL A   1      39.875  31.018  32.166  1.00  0.00    -0.248 NA
ATOM     33  C   UNL A   1      39.880  32.479  30.348  1.00  0.00     0.031 C 
ATOM     34  C   UNL A   1      44.689  30.087  32.211  1.00  0.00     0.029 A 
ATOM     35  C   UNL A   1      43.595  30.944  32.080  1.00  0.00     0.049 A 
ATOM     36  H   UNL A   1      43.778  32.845  31.171  1.00  0.00     0.167 HD
ATOM     37  C   UNL A   1      41.172  31.485  32.002  1.00  0.00     0.074 A 
ATOM     38  C   UNL A   1      41.088  32.457  30.916  1.00  0.00     0.031 C 
ATOM     39  C   UNL A   1      42.240  30.859  32.581  1.00  0.00     0.037 A 
BRANCH  26  40
ATOM     40  C   UNL A   1      45.128  32.819  28.285  1.00  0.00     0.058 A 
ATOM     41  C   UNL A   1      44.178  33.835  28.041  1.00  0.00     0.135 A 
ATOM     42  C   UNL A   1      46.477  33.192  28.125  1.00  0.00     0.135 A 
ATOM     43  F   UNL A   1      42.871  33.643  28.268  1.00  0.00    -0.206 F 
ATOM     44  C   UNL A   1      44.534  35.117  27.641  1.00  0.00     0.059 A 
ATOM     45  C   UNL A   1      46.860  34.489  27.771  1.00  0.00     0.059 A 
ATOM     46  F   UNL A   1      47.462  32.311  28.364  1.00  0.00    -0.206 F 
ATOM     47  C   UNL A   1      45.877  35.445  27.531  1.00  0.00     0.060 A 
BRANCH  47  48
ATOM     48  S   UNL A   1      46.304  37.162  27.179  1.00  0.00     0.124 S 
ATOM     49  O   UNL A   1      44.982  37.756  26.982  1.00  0.00    -0.237 OA
ATOM     50  O   UNL A   1      46.997  37.557  28.405  1.00  0.00    -0.237 OA
ATOM     51  O   UNL A   1      47.136  37.069  25.993  1.00  0.00    -0.744 OA
ENDBRANCH  47  48
ENDBRANCH  26  40
BRANCH  27  52
ATOM     52  C   UNL A   1      36.865  31.249  30.026  1.00  0.00     0.058 A 
ATOM     53  C   UNL A   1      36.532  31.432  28.668  1.00  0.00     0.135 A 
ATOM     54  C   UNL A   1      36.064  31.925  30.962  1.00  0.00     0.135 A 
ATOM     55  F   UNL A   1      37.267  30.881  27.690  1.00  0.00    -0.206 F 
ATOM     56  C   UNL A   1      35.495  32.264  28.259  1.00  0.00     0.059 A 
ATOM     57  C   UNL A   1      35.022  32.775  30.574  1.00  0.00     0.059 A 
ATOM     58  F   UNL A   1      36.330  31.824  32.273  1.00  0.00    -0.206 F 
ATOM     59  C   UNL A   1      34.765  32.958  29.218  1.00  0.00     0.060 A 
BRANCH  59  60
ATOM     60  S   UNL A   1      33.552  34.166  28.641  1.00  0.00     0.124 S 
ATOM     61  O   UNL A   1      32.959  34.615  29.896  1.00  0.00    -0.237 OA
ATOM     62  O   UNL A   1      34.397  35.141  27.958  1.00  0.00    -0.237 OA
ATOM     63  O   UNL A   1      32.675  33.382  27.775  1.00  0.00    -0.744 OA
ENDBRANCH  59  60
ENDBRANCH  27  52
BRANCH  39  64
ATOM     64  C   UNL A   1      41.974  29.800  33.623  1.00  0.00     0.058 A 
ATOM     65  C   UNL A   1      42.218  30.109  34.970  1.00  0.00     0.135 A 
ATOM     66  C   UNL A   1      41.673  28.460  33.318  1.00  0.00     0.135 A 
ATOM     67  F   UNL A   1      42.567  31.358  35.323  1.00  0.00    -0.206 F 
ATOM     68  C   UNL A   1      42.178  29.138  35.968  1.00  0.00     0.059 A 
ATOM     69  C   UNL A   1      41.593  27.476  34.307  1.00  0.00     0.059 A 
ATOM     70  F   UNL A   1      41.525  28.061  32.048  1.00  0.00    -0.206 F 
ATOM     71  C   UNL A   1      41.869  27.821  35.628  1.00  0.00     0.060 A 
BRANCH  71  72
ATOM     72  S   UNL A   1      41.884  26.572  36.931  1.00  0.00     0.124 S 
ATOM     73  O   UNL A   1      42.123  25.348  36.178  1.00  0.00    -0.237 OA
ATOM     74  O   UNL A   1      42.987  27.017  37.779  1.00  0.00    -0.237 OA
ATOM     75  O   UNL A   1      40.556  26.682  37.537  1.00  0.00    -0.744 OA
ENDBRANCH  71  72
ENDBRANCH  39  64
ENDBRANCH  13  14
ENDBRANCH   6   8
ENDBRANCH   3   4
ENDBRANCH   2   3
ENDBRANCH   1   2
BRANCH   1  76
ATOM     76  C   UNL A   1      36.836  23.589  25.088  1.00  0.00     0.116 C 
BRANCH  76  77
ATOM     77  N   UNL A   1      35.552  23.073  25.572  1.00  0.00    -0.356 N 
ATOM     78  C   UNL A   1      34.459  22.622  24.857  1.00  0.00     0.224 C 
ATOM     79  H   UNL A   1      35.454  23.043  26.552  1.00  0.00     0.163 HD
ATOM     80  O   UNL A   1      33.852  21.646  25.312  1.00  0.00    -0.275 OA
BRANCH  78  81
ATOM     81  C   UNL A   1      33.889  23.368  23.627  1.00  0.00     0.095 C 
ATOM     82  C   UNL A   1      32.882  22.494  22.950  1.00  0.00     0.041 C 
ATOM     83  C   UNL A   1      33.369  24.793  23.790  1.00  0.00     0.095 C 
ATOM     84  C   UNL A   1      31.441  22.902  23.123  1.00  0.00    -0.030 C 
ATOM     85  C   UNL A   1      32.053  24.807  24.580  1.00  0.00     0.041 C 
ATOM     86  C   UNL A   1      31.052  23.917  23.910  1.00  0.00    -0.030 C 
BRANCH  83  87
ATOM     87  C   UNL A   1      33.162  25.716  22.540  1.00  0.00     0.229 C 
ATOM     88  O   UNL A   1      33.510  25.223  21.445  1.00  0.00    -0.274 OA
ATOM     89  N   UNL A   1      32.838  27.044  22.445  1.00  0.00    -0.308 N 
ATOM     90  H   UNL A   1      33.426  27.567  21.855  1.00  0.00     0.171 HD
BRANCH  89  91
ATOM     91  C   UNL A   1      31.816  27.776  23.041  1.00  0.00     0.168 A 
ATOM     92  N   UNL A   1      30.506  27.523  22.914  1.00  0.00    -0.153 NA
ATOM     93  C   UNL A   1      31.955  28.665  24.136  1.00  0.00     0.080 A 
ATOM     94  N   UNL A   1      29.897  28.611  23.456  1.00  0.00    -0.265 N 
ATOM     95  C   UNL A   1      30.715  29.211  24.372  1.00  0.00     0.127 A 
ATOM     96  Br  UNL A   1      33.549  29.048  25.036  1.00  0.00    -0.045 Br
BRANCH  94  97
ATOM     97  C   UNL A   1      28.510  28.964  23.103  1.00  0.00     0.182 C 
BRANCH  97  98
ATOM     98  C   UNL A   1      28.375  30.310  22.406  1.00  0.00     0.009 A 
ATOM     99  C   UNL A   1      28.170  30.426  21.023  1.00  0.00     0.008 A 
ATOM    100  C   UNL A   1      28.496  31.502  23.133  1.00  0.00     0.128 A 
ATOM    101  C   UNL A   1      28.030  31.686  20.417  1.00  0.00     0.001 A 
ATOM    102  C   UNL A   1      28.314  32.758  22.548  1.00  0.00     0.039 A 
ATOM    103  F   UNL A   1      28.782  31.454  24.440  1.00  0.00    -0.207 F 
ATOM    104  C   UNL A   1      28.076  32.851  21.182  1.00  0.00     0.003 A 
ENDBRANCH  97  98
ENDBRANCH  94  97
ENDBRANCH  89  91
ENDBRANCH  83  87
ENDBRANCH  78  81
ENDBRANCH  76  77
ENDBRANCH   1  76
TORSDOF 18
ENDMDL
MODEL 2
REMARK VINA RESULT:     -13.4      2.267      3.137
REMARK SMILES O=C(NCCCCNC(=O)[C@H]1CC=CC[C@@H]1C(=O)Nc1nn(Cc2ccccc2F)cc1Br)c1ccc(-c2c3nc(c(-c4c(F)cc(S(=O)(=O)[O-])cc4F)c4ccc([nH]4)c(-c4c(F)cc(S(=O)(=O)[O-])cc4F)c4nc(c(-c5c(F)cc(S(=O)(=O)[O-])cc5F)c5ccc2[nH]5)C=C4)C=C3)cc1
REMARK SMILES IDX 6 1 5 2 4 3 3 4 1 5 2 6 34 8 35 9 99 10 36 11 98 12 37 13
REMARK SMILES IDX 38 14 39 15 92 16 40 17 97 18 91 19 93 20 41 21 96 22 90 23
REMARK SMILES IDX 89 24 42 26 76 27 55 28 75 29 56 30 59 31 74 32 94 33 57 34
REMARK SMILES IDX 58 35 73 37 95 38 60 39 43 40 44 41 53 42 45 43 46 44 52 45
REMARK SMILES IDX 54 46 47 47 48 48 49 49 50 50 51 51 77 52 78 53 87 54 79 55
REMARK SMILES IDX 80 56 86 57 88 58 81 59 82 60 83 61 84 62 85 63 61 64 62 65
REMARK SMILES IDX 71 66 63 67 64 68 70 69 72 70 65 71 66 72 67 73 68 74 69 75
REMARK SMILES IDX 7 76 8 77 9 78 10 80 11 81 12 82 16 83 13 84 15 85 14 86
REMARK SMILES IDX 17 87 18 88 19 89 20 91 21 92 32 93 22 94 31 95 33 96 23 97
REMARK SMILES IDX 24 98 25 99 29 100 26 101 28 102 30 103 27 104
REMARK H PARENT 3 7 93 25 59 36 8 79 19 90
REMARK Flexibility Score: inf
ROOT
ATOM      1  C   UNL A   1      36.898  20.402  25.071  1.00  0.00     0.023 C 
ENDROOT
BRANCH   1   2
ATOM      2  C   UNL A   1      36.807  21.869  24.679  1.00  0.00     0.023 C 
BRANCH   2   3
ATOM      3  C   UNL A   1      37.677  22.774  25.541  1.00  0.00     0.116 C 
BRANCH   3   4
ATOM      4  N   UNL A   1      38.965  22.173  25.827  1.00  0.00    -0.352 N 
ATOM      5  O   UNL A   1      41.055  21.802  26.428  1.00  0.00    -0.269 OA
ATOM      6  C   UNL A   1      40.124  22.612  26.407  1.00  0.00     0.251 C 
ATOM      7  H   UNL A   1      39.019  21.234  25.537  1.00  0.00     0.163 HD
BRANCH   6   8
ATOM      8  C   UNL A   1      40.321  23.955  27.016  1.00  0.00     0.039 A 
ATOM      9  C   UNL A   1      39.467  25.046  26.860  1.00  0.00     0.014 A 
ATOM     10  C   UNL A   1      41.472  24.116  27.811  1.00  0.00     0.014 A 
ATOM     11  C   UNL A   1      39.732  26.253  27.494  1.00  0.00     0.010 A 
ATOM     12  C   UNL A   1      41.742  25.320  28.455  1.00  0.00     0.010 A 
ATOM     13  C   UNL A   1      40.865  26.389  28.296  1.00  0.00    -0.014 A 
BRANCH  13  14
ATOM     14  C   UNL A   1      41.003  27.643  29.028  1.00  0.00     0.031 A 
ATOM     15  C   UNL A   1      42.118  28.538  28.578  1.00  0.00     0.074 A 
ATOM     16  C   UNL A   1      40.142  28.053  29.975  1.00  0.00     0.049 A 
ATOM     17  N   UNL A   1      43.133  28.978  29.251  1.00  0.00    -0.248 NA
ATOM     18  C   UNL A   1      42.132  28.925  27.157  1.00  0.00     0.031 C 
ATOM     19  C   UNL A   1      38.841  27.489  30.338  1.00  0.00     0.029 A 
ATOM     20  N   UNL A   1      40.235  29.158  30.762  1.00  0.00    -0.354 N 
ATOM     21  C   UNL A   1      43.841  29.817  28.388  1.00  0.00     0.074 A 
ATOM     22  C   UNL A   1      43.233  29.672  27.089  1.00  0.00     0.031 C 
ATOM     23  C   UNL A   1      38.179  28.376  31.115  1.00  0.00     0.029 A 
ATOM     24  C   UNL A   1      39.060  29.492  31.415  1.00  0.00     0.049 A 
ATOM     25  H   UNL A   1      41.067  29.676  30.861  1.00  0.00     0.167 HD
ATOM     26  C   UNL A   1      44.809  30.682  28.807  1.00  0.00     0.037 A 
ATOM     27  C   UNL A   1      38.819  30.648  32.076  1.00  0.00     0.037 A 
ATOM     28  C   UNL A   1      45.289  30.365  30.122  1.00  0.00     0.049 A 
ATOM     29  C   UNL A   1      40.135  31.245  32.430  1.00  0.00     0.074 A 
ATOM     30  C   UNL A   1      45.977  29.301  30.671  1.00  0.00     0.029 A 
ATOM     31  N   UNL A   1      44.792  31.071  31.189  1.00  0.00    -0.354 N 
ATOM     32  N   UNL A   1      40.980  30.721  33.274  1.00  0.00    -0.248 NA
ATOM     33  C   UNL A   1      40.693  32.242  31.529  1.00  0.00     0.031 C 
ATOM     34  C   UNL A   1      45.443  29.153  31.985  1.00  0.00     0.029 A 
ATOM     35  C   UNL A   1      44.486  30.153  32.163  1.00  0.00     0.049 A 
ATOM     36  H   UNL A   1      44.678  32.048  31.244  1.00  0.00     0.167 HD
ATOM     37  C   UNL A   1      42.234  31.017  32.760  1.00  0.00     0.074 A 
ATOM     38  C   UNL A   1      41.994  32.035  31.741  1.00  0.00     0.031 C 
ATOM     39  C   UNL A   1      43.321  30.230  33.019  1.00  0.00     0.037 A 
BRANCH  26  40
ATOM     40  C   UNL A   1      45.170  31.961  28.097  1.00  0.00     0.058 A 
ATOM     41  C   UNL A   1      44.375  33.125  28.182  1.00  0.00     0.135 A 
ATOM     42  C   UNL A   1      46.441  32.130  27.514  1.00  0.00     0.135 A 
ATOM     43  F   UNL A   1      43.195  33.124  28.816  1.00  0.00    -0.206 F 
ATOM     44  C   UNL A   1      44.793  34.359  27.699  1.00  0.00     0.059 A 
ATOM     45  C   UNL A   1      46.902  33.372  27.067  1.00  0.00     0.059 A 
ATOM     46  F   UNL A   1      47.291  31.095  27.414  1.00  0.00    -0.206 F 
ATOM     47  C   UNL A   1      46.067  34.481  27.164  1.00  0.00     0.060 A 
BRANCH  47  48
ATOM     48  S   UNL A   1      46.640  36.130  26.708  1.00  0.00     0.124 S 
ATOM     49  O   UNL A   1      47.421  35.844  25.505  1.00  0.00    -0.237 OA
ATOM     50  O   UNL A   1      45.377  36.836  26.487  1.00  0.00    -0.237 OA
ATOM     51  O   UNL A   1      47.401  36.559  27.866  1.00  0.00    -0.744 OA
ENDBRANCH  47  48
ENDBRANCH  26  40
BRANCH  27  52
ATOM     52  C   UNL A   1      37.563  31.441  32.050  1.00  0.00     0.058 A 
ATOM     53  C   UNL A   1      37.173  32.158  30.899  1.00  0.00     0.135 A 
ATOM     54  C   UNL A   1      36.876  31.746  33.237  1.00  0.00     0.135 A 
ATOM     55  F   UNL A   1      37.802  31.987  29.727  1.00  0.00    -0.206 F 
ATOM     56  C   UNL A   1      36.192  33.143  30.930  1.00  0.00     0.059 A 
ATOM     57  C   UNL A   1      35.893  32.740  33.295  1.00  0.00     0.059 A 
ATOM     58  F   UNL A   1      37.203  31.128  34.382  1.00  0.00    -0.206 F 
ATOM     59  C   UNL A   1      35.579  33.451  32.139  1.00  0.00     0.060 A 
BRANCH  59  60
ATOM     60  S   UNL A   1      34.446  34.859  32.174  1.00  0.00     0.124 S 
ATOM     61  O   UNL A   1      33.264  34.273  32.796  1.00  0.00    -0.237 OA
ATOM     62  O   UNL A   1      35.181  35.818  32.993  1.00  0.00    -0.237 OA
ATOM     63  O   UNL A   1      34.304  35.216  30.766  1.00  0.00    -0.744 OA
ENDBRANCH  59  60
ENDBRANCH  27  52
BRANCH  39  64
ATOM     64  C   UNL A   1      43.205  29.174  34.091  1.00  0.00     0.058 A 
ATOM     65  C   UNL A   1      42.668  27.924  33.746  1.00  0.00     0.135 A 
ATOM     66  C   UNL A   1      43.429  29.418  35.458  1.00  0.00     0.135 A 
ATOM     67  F   UNL A   1      42.376  27.646  32.464  1.00  0.00    -0.206 F 
ATOM     68  C   UNL A   1      42.355  26.965  34.706  1.00  0.00     0.059 A 
ATOM     69  C   UNL A   1      43.155  28.459  36.436  1.00  0.00     0.059 A 
ATOM     70  F   UNL A   1      43.845  30.619  35.882  1.00  0.00    -0.206 F 
ATOM     71  C   UNL A   1      42.598  27.242  36.052  1.00  0.00     0.060 A 
BRANCH  71  72
ATOM     72  S   UNL A   1      42.126  26.006  37.281  1.00  0.00     0.124 S 
ATOM     73  O   UNL A   1      40.718  26.312  37.496  1.00  0.00    -0.237 OA
ATOM     74  O   UNL A   1      42.401  24.751  36.585  1.00  0.00    -0.237 OA
ATOM     75  O   UNL A   1      43.006  26.288  38.416  1.00  0.00    -0.744 OA
ENDBRANCH  71  72
ENDBRANCH  39  64
ENDBRANCH  13  14
ENDBRANCH   6   8
ENDBRANCH   3   4
ENDBRANCH   2   3
ENDBRANCH   1   2
BRANCH   1  76
ATOM     76  C   UNL A   1      35.699  19.490  24.729  1.00  0.00     0.116 C 
BRANCH  76  77
ATOM     77  N   UNL A   1      34.385  19.768  25.317  1.00  0.00    -0.356 N 
ATOM     78  C   UNL A   1      33.245  20.274  24.723  1.00  0.00     0.224 C 
ATOM     79  H   UNL A   1      34.303  19.564  26.277  1.00  0.00     0.163 HD
ATOM     80  O   UNL A   1      32.163  19.799  25.086  1.00  0.00    -0.275 OA
BRANCH  78  81
ATOM     81  C   UNL A   1      33.260  21.487  23.762  1.00  0.00     0.095 C 
ATOM     82  C   UNL A   1      32.002  21.485  22.954  1.00  0.00     0.041 C 
ATOM     83  C   UNL A   1      33.567  22.876  24.312  1.00  0.00     0.095 C 
ATOM     84  C   UNL A   1      30.990  22.541  23.320  1.00  0.00    -0.030 C 
ATOM     85  C   UNL A   1      32.401  23.393  25.166  1.00  0.00     0.041 C 
ATOM     86  C   UNL A   1      31.138  23.375  24.362  1.00  0.00    -0.030 C 
BRANCH  83  87
ATOM     87  C   UNL A   1      33.984  24.042  23.353  1.00  0.00     0.229 C 
ATOM     88  O   UNL A   1      34.331  23.694  22.203  1.00  0.00    -0.274 OA
ATOM     89  N   UNL A   1      34.217  25.370  23.597  1.00  0.00    -0.308 N 
ATOM     90  H   UNL A   1      35.067  25.710  23.234  1.00  0.00     0.171 HD
BRANCH  89  91
ATOM     91  C   UNL A   1      33.454  26.319  24.270  1.00  0.00     0.168 A 
ATOM     92  N   UNL A   1      33.881  27.072  25.294  1.00  0.00    -0.153 NA
ATOM     93  C   UNL A   1      32.254  26.910  23.802  1.00  0.00     0.080 A 
ATOM     94  N   UNL A   1      32.754  27.659  25.775  1.00  0.00    -0.265 N 
ATOM     95  C   UNL A   1      31.805  27.750  24.794  1.00  0.00     0.127 A 
ATOM     96  Br  UNL A   1      31.427  26.553  22.163  1.00  0.00    -0.045 Br
BRANCH  94  97
ATOM     97  C   UNL A   1      32.689  28.173  27.156  1.00  0.00     0.182 C 
BRANCH  97  98
ATOM     98  C   UNL A   1      33.548  29.406  27.395  1.00  0.00     0.009 A 
ATOM     99  C   UNL A   1      34.905  29.325  27.743  1.00  0.00     0.008 A 
ATOM    100  C   UNL A   1      32.988  30.688  27.315  1.00  0.00     0.128 A 
ATOM    101  C   UNL A   1      35.670  30.487  27.937  1.00  0.00     0.001 A 
ATOM    102  C   UNL A   1      33.751  31.850  27.461  1.00  0.00     0.039 A 
ATOM    103  F   UNL A   1      31.677  30.824  27.075  1.00  0.00    -0.207 F 
ATOM    104  C   UNL A   1      35.102  31.749  27.770  1.00  0.00     0.003 A 
ENDBRANCH  97  98
ENDBRANCH  94  97
ENDBRANCH  89  91
ENDBRANCH  83  87
ENDBRANCH  78  81
ENDBRANCH  76  77
ENDBRANCH   1  76
TORSDOF 18
ENDMDL
MODEL 3
REMARK VINA RESULT:     -13.3      1.834      2.610
REMARK SMILES O=C(NCCCCNC(=O)[C@H]1CC=CC[C@@H]1C(=O)Nc1nn(Cc2ccccc2F)cc1Br)c1ccc(-c2c3nc(c(-c4c(F)cc(S(=O)(=O)[O-])cc4F)c4ccc([nH]4)c(-c4c(F)cc(S(=O)(=O)[O-])cc4F)c4nc(c(-c5c(F)cc(S(=O)(=O)[O-])cc5F)c5ccc2[nH]5)C=C4)C=C3)cc1
REMARK SMILES IDX 6 1 5 2 4 3 3 4 1 5 2 6 34 8 35 9 99 10 36 11 98 12 37 13
REMARK SMILES IDX 38 14 39 15 92 16 40 17 97 18 91 19 93 20 41 21 96 22 90 23
REMARK SMILES IDX 89 24 42 26 76 27 55 28 75 29 56 30 59 31 74 32 94 33 57 34
REMARK SMILES IDX 58 35 73 37 95 38 60 39 43 40 44 41 53 42 45 43 46 44 52 45
REMARK SMILES IDX 54 46 47 47 48 48 49 49 50 50 51 51 77 52 78 53 87 54 79 55
REMARK SMILES IDX 80 56 86 57 88 58 81 59 82 60 83 61 84 62 85 63 61 64 62 65
REMARK SMILES IDX 71 66 63 67 64 68 70 69 72 70 65 71 66 72 67 73 68 74 69 75
REMARK SMILES IDX 7 76 8 77 9 78 10 80 11 81 12 82 16 83 13 84 15 85 14 86
REMARK SMILES IDX 17 87 18 88 19 89 20 91 21 92 32 93 22 94 31 95 33 96 23 97
REMARK SMILES IDX 24 98 25 99 29 100 26 101 28 102 30 103 27 104
REMARK H PARENT 3 7 93 25 59 36 8 79 19 90
REMARK Flexibility Score: inf
ROOT
ATOM      1  C   UNL A   1      38.812  19.830  25.471  1.00  0.00     0.023 C 
ENDROOT
BRANCH   1   2
ATOM      2  C   UNL A   1      40.211  20.078  26.016  1.00  0.00     0.023 C 
BRANCH   2   3
ATOM      3  C   UNL A   1      40.499  21.550  26.278  1.00  0.00     0.116 C 
BRANCH   3   4
ATOM      4  N   UNL A   1      41.644  22.019  25.521  1.00  0.00    -0.352 N 
ATOM      5  O   UNL A   1      43.246  23.239  24.621  1.00  0.00    -0.269 OA
ATOM      6  C   UNL A   1      42.328  23.202  25.444  1.00  0.00     0.251 C 
ATOM      7  H   UNL A   1      42.015  21.328  24.926  1.00  0.00     0.163 HD
BRANCH   6   8
ATOM      8  C   UNL A   1      42.056  24.403  26.280  1.00  0.00     0.039 A 
ATOM      9  C   UNL A   1      42.622  24.664  27.527  1.00  0.00     0.014 A 
ATOM     10  C   UNL A   1      41.150  25.340  25.747  1.00  0.00     0.014 A 
ATOM     11  C   UNL A   1      42.316  25.832  28.215  1.00  0.00     0.010 A 
ATOM     12  C   UNL A   1      40.844  26.516  26.427  1.00  0.00     0.010 A 
ATOM     13  C   UNL A   1      41.433  26.760  27.664  1.00  0.00    -0.014 A 
BRANCH  13  14
ATOM     14  C   UNL A   1      41.267  28.016  28.387  1.00  0.00     0.031 A 
ATOM     15  C   UNL A   1      42.374  29.012  28.219  1.00  0.00     0.074 A 
ATOM     16  C   UNL A   1      40.162  28.338  29.080  1.00  0.00     0.049 A 
ATOM     17  N   UNL A   1      43.143  29.538  29.118  1.00  0.00    -0.248 NA
ATOM     18  C   UNL A   1      42.711  29.410  26.841  1.00  0.00     0.031 C 
ATOM     19  C   UNL A   1      38.868  27.655  29.113  1.00  0.00     0.029 A 
ATOM     20  N   UNL A   1      39.953  29.441  29.849  1.00  0.00    -0.354 N 
ATOM     21  C   UNL A   1      43.967  30.445  28.449  1.00  0.00     0.074 A 
ATOM     22  C   UNL A   1      43.722  30.255  27.041  1.00  0.00     0.031 C 
ATOM     23  C   UNL A   1      37.954  28.471  29.684  1.00  0.00     0.029 A 
ATOM     24  C   UNL A   1      38.627  29.661  30.179  1.00  0.00     0.049 A 
ATOM     25  H   UNL A   1      40.683  30.032  30.145  1.00  0.00     0.167 HD
ATOM     26  C   UNL A   1      44.715  31.391  29.084  1.00  0.00     0.037 A 
ATOM     27  C   UNL A   1      38.123  30.785  30.740  1.00  0.00     0.037 A 
ATOM     28  C   UNL A   1      44.875  31.109  30.483  1.00  0.00     0.049 A 
ATOM     29  C   UNL A   1      39.247  31.497  31.405  1.00  0.00     0.074 A 
ATOM     30  C   UNL A   1      45.495  30.109  31.204  1.00  0.00     0.029 A 
ATOM     31  N   UNL A   1      44.063  31.759  31.379  1.00  0.00    -0.354 N 
ATOM     32  N   UNL A   1      39.896  31.046  32.442  1.00  0.00    -0.248 NA
ATOM     33  C   UNL A   1      39.922  32.548  30.658  1.00  0.00     0.031 C 
ATOM     34  C   UNL A   1      44.663  29.902  32.343  1.00  0.00     0.029 A 
ATOM     35  C   UNL A   1      43.606  30.810  32.259  1.00  0.00     0.049 A 
ATOM     36  H   UNL A   1      43.851  32.721  31.389  1.00  0.00     0.167 HD
ATOM     37  C   UNL A   1      41.208  31.459  32.256  1.00  0.00     0.074 A 
ATOM     38  C   UNL A   1      41.141  32.459  31.194  1.00  0.00     0.031 C 
ATOM     39  C   UNL A   1      42.261  30.773  32.792  1.00  0.00     0.037 A 
BRANCH  26  40
ATOM     40  C   UNL A   1      45.126  32.704  28.469  1.00  0.00     0.058 A 
ATOM     41  C   UNL A   1      44.244  33.802  28.366  1.00  0.00     0.135 A 
ATOM     42  C   UNL A   1      46.479  32.978  28.187  1.00  0.00     0.135 A 
ATOM     43  F   UNL A   1      42.955  33.702  28.717  1.00  0.00    -0.206 F 
ATOM     44  C   UNL A   1      44.663  35.071  27.984  1.00  0.00     0.059 A 
ATOM     45  C   UNL A   1      46.931  34.258  27.850  1.00  0.00     0.059 A 
ATOM     46  F   UNL A   1      47.407  32.013  28.287  1.00  0.00    -0.206 F 
ATOM     47  C   UNL A   1      46.011  35.298  27.751  1.00  0.00     0.060 A 
BRANCH  47  48
ATOM     48  S   UNL A   1      46.542  36.991  27.428  1.00  0.00     0.124 S 
ATOM     49  O   UNL A   1      47.325  36.822  26.204  1.00  0.00    -0.237 OA
ATOM     50  O   UNL A   1      45.262  37.682  27.267  1.00  0.00    -0.237 OA
ATOM     51  O   UNL A   1      47.298  37.344  28.616  1.00  0.00    -0.744 OA
ENDBRANCH  47  48
ENDBRANCH  26  40
BRANCH  27  52
ATOM     52  C   UNL A   1      36.848  31.460  30.386  1.00  0.00     0.058 A 
ATOM     53  C   UNL A   1      36.637  31.997  29.099  1.00  0.00     0.135 A 
ATOM     54  C   UNL A   1      35.933  31.845  31.381  1.00  0.00     0.135 A 
ATOM     55  F   UNL A   1      37.483  31.742  28.090  1.00  0.00    -0.206 F 
ATOM     56  C   UNL A   1      35.608  32.893  28.824  1.00  0.00     0.059 A 
ATOM     57  C   UNL A   1      34.898  32.752  31.130  1.00  0.00     0.059 A 
ATOM     58  F   UNL A   1      36.078  31.398  32.638  1.00  0.00    -0.206 F 
ATOM     59  C   UNL A   1      34.762  33.291  29.853  1.00  0.00     0.060 A 
BRANCH  59  60
ATOM     60  S   UNL A   1      33.559  34.591  29.499  1.00  0.00     0.124 S 
ATOM     61  O   UNL A   1      34.398  35.611  28.880  1.00  0.00    -0.237 OA
ATOM     62  O   UNL A   1      32.630  33.908  28.603  1.00  0.00    -0.237 OA
ATOM     63  O   UNL A   1      33.026  34.930  30.815  1.00  0.00    -0.744 OA
ENDBRANCH  59  60
ENDBRANCH  27  52
BRANCH  39  64
ATOM     64  C   UNL A   1      41.974  29.703  33.817  1.00  0.00     0.058 A 
ATOM     65  C   UNL A   1      42.268  29.967  35.164  1.00  0.00     0.135 A 
ATOM     66  C   UNL A   1      41.601  28.386  33.490  1.00  0.00     0.135 A 
ATOM     67  F   UNL A   1      42.686  31.189  35.535  1.00  0.00    -0.206 F 
ATOM     68  C   UNL A   1      42.210  28.975  36.140  1.00  0.00     0.059 A 
ATOM     69  C   UNL A   1      41.502  27.383  34.458  1.00  0.00     0.059 A 
ATOM     70  F   UNL A   1      41.400  28.025  32.216  1.00  0.00    -0.206 F 
ATOM     71  C   UNL A   1      41.830  27.682  35.778  1.00  0.00     0.060 A 
BRANCH  71  72
ATOM     72  S   UNL A   1      41.822  26.402  37.051  1.00  0.00     0.124 S 
ATOM     73  O   UNL A   1      41.951  25.186  36.261  1.00  0.00    -0.237 OA
ATOM     74  O   UNL A   1      42.985  26.757  37.860  1.00  0.00    -0.237 OA
ATOM     75  O   UNL A   1      40.530  26.579  37.717  1.00  0.00    -0.744 OA
ENDBRANCH  71  72
ENDBRANCH  39  64
ENDBRANCH  13  14
ENDBRANCH   6   8
ENDBRANCH   3   4
ENDBRANCH   2   3
ENDBRANCH   1   2
BRANCH   1  76
ATOM     76  C   UNL A   1      37.865  21.044  25.343  1.00  0.00     0.116 C 
BRANCH  76  77
ATOM     77  N   UNL A   1      37.621  21.638  24.025  1.00  0.00    -0.356 N 
ATOM     78  C   UNL A   1      36.601  22.474  23.612  1.00  0.00     0.224 C 
ATOM     79  H   UNL A   1      38.281  21.407  23.332  1.00  0.00     0.163 HD
ATOM     80  O   UNL A   1      36.899  23.378  22.824  1.00  0.00    -0.275 OA
BRANCH  78  81
ATOM     81  C   UNL A   1      35.115  22.232  23.967  1.00  0.00     0.095 C 
ATOM     82  C   UNL A   1      35.022  21.762  25.384  1.00  0.00     0.041 C 
ATOM     83  C   UNL A   1      34.087  23.320  23.673  1.00  0.00     0.095 C 
ATOM     84  C   UNL A   1      34.480  22.766  26.370  1.00  0.00    -0.030 C 
ATOM     85  C   UNL A   1      34.264  24.509  24.627  1.00  0.00     0.041 C 
ATOM     86  C   UNL A   1      34.189  24.035  26.045  1.00  0.00    -0.030 C 
BRANCH  83  87
ATOM     87  C   UNL A   1      32.556  22.986  23.638  1.00  0.00     0.229 C 
ATOM     88  O   UNL A   1      32.274  21.780  23.467  1.00  0.00    -0.274 OA
ATOM     89  N   UNL A   1      31.458  23.802  23.575  1.00  0.00    -0.308 N 
ATOM     90  H   UNL A   1      30.809  23.561  22.875  1.00  0.00     0.171 HD
BRANCH  89  91
ATOM     91  C   UNL A   1      31.105  24.913  24.334  1.00  0.00     0.168 A 
ATOM     92  N   UNL A   1      30.871  26.141  23.850  1.00  0.00    -0.153 NA
ATOM     93  C   UNL A   1      30.592  24.892  25.656  1.00  0.00     0.080 A 
ATOM     94  N   UNL A   1      30.803  26.932  24.952  1.00  0.00    -0.265 N 
ATOM     95  C   UNL A   1      30.427  26.200  26.044  1.00  0.00     0.127 A 
ATOM     96  Br  UNL A   1      30.263  23.359  26.675  1.00  0.00    -0.045 Br
BRANCH  94  97
ATOM     97  C   UNL A   1      31.034  28.386  24.865  1.00  0.00     0.182 C 
BRANCH  97  98
ATOM     98  C   UNL A   1      32.205  28.875  25.705  1.00  0.00     0.009 A 
ATOM     99  C   UNL A   1      33.309  28.063  26.006  1.00  0.00     0.008 A 
ATOM    100  C   UNL A   1      32.197  30.166  26.251  1.00  0.00     0.128 A 
ATOM    101  C   UNL A   1      34.381  28.556  26.768  1.00  0.00     0.001 A 
ATOM    102  C   UNL A   1      33.278  30.681  26.972  1.00  0.00     0.039 A 
ATOM    103  F   UNL A   1      31.129  30.954  26.072  1.00  0.00    -0.207 F 
ATOM    104  C   UNL A   1      34.379  29.873  27.229  1.00  0.00     0.003 A 
ENDBRANCH  97  98
ENDBRANCH  94  97
ENDBRANCH  89  91
ENDBRANCH  83  87
ENDBRANCH  78  81
ENDBRANCH  76  77
ENDBRANCH   1  76
TORSDOF 18
ENDMDL
