MODEL 1
REMARK VINA RESULT:     -11.6      0.000      0.000
REMARK SMILES O=C(NCCCCNC(=O)c1ccc(-c2c3nc(c(-c4c(F)cc(S(=O)(=O)[O-])cc4F)c4ccc([nH]4)c(-c4c(F)cc(S(=O)(=O)[O-])cc4F)c4nc(c(-c5c(F)cc(S(=O)(=O)[O-])cc5F)c5ccc2[nH]5)C=C4)C=C3)cc1)c1ccc(/N=C\c2ccccc2O)cc1
REMARK SMILES IDX 5 1 4 2 3 3 1 4 2 5 77 7 78 8 91 9 79 10 90 11 80 12 81 13
REMARK SMILES IDX 82 14 83 15 84 16 88 17 85 18 87 19 86 20 89 21 6 23 7 24
REMARK SMILES IDX 8 25 9 26 10 28 11 29 12 30 76 31 13 32 75 33 14 34 15 35
REMARK SMILES IDX 16 36 69 37 17 38 74 39 68 40 70 41 18 42 73 43 67 44 66 45
REMARK SMILES IDX 19 47 53 48 32 49 52 50 33 51 36 52 51 53 71 54 34 55 35 56
REMARK SMILES IDX 50 58 72 59 37 60 20 61 21 62 30 63 22 64 23 65 29 66 31 67
REMARK SMILES IDX 24 68 25 69 26 70 27 71 28 72 54 73 55 74 64 75 56 76 57 77
REMARK SMILES IDX 63 78 65 79 58 80 59 81 60 82 61 83 62 84 38 85 39 86 48 87
REMARK SMILES IDX 40 88 41 89 47 90 49 91 42 92 43 93 44 94 45 95 46 96
REMARK H PARENT 3 6 89 22 8 27 70 46 36 57
REMARK Flexibility Score: inf
ROOT
ATOM      1  C   UNL A   1      32.844  29.297  24.656  1.00  0.00     0.023 C 
ENDROOT
BRANCH   1   2
ATOM      2  C   UNL A   1      31.921  28.958  23.490  1.00  0.00     0.116 C 
BRANCH   2   3
ATOM      3  N   UNL A   1      32.591  28.301  22.381  1.00  0.00    -0.352 N 
ATOM      4  O   UNL A   1      33.668  26.685  21.241  1.00  0.00    -0.269 OA
ATOM      5  C   UNL A   1      33.068  27.018  22.260  1.00  0.00     0.251 C 
ATOM      6  H   UNL A   1      32.723  28.866  21.585  1.00  0.00     0.163 HD
BRANCH   5   7
ATOM      7  C   UNL A   1      32.927  26.046  23.368  1.00  0.00     0.039 A 
ATOM      8  C   UNL A   1      31.729  25.386  23.642  1.00  0.00     0.016 A 
ATOM      9  C   UNL A   1      34.046  25.784  24.158  1.00  0.00     0.016 A 
ATOM     10  C   UNL A   1      31.605  24.638  24.814  1.00  0.00     0.029 A 
ATOM     11  C   UNL A   1      33.930  24.967  25.287  1.00  0.00     0.029 A 
ATOM     12  C   UNL A   1      32.685  24.473  25.689  1.00  0.00     0.063 A 
BRANCH  12  13
ATOM     13  N   UNL A   1      32.419  23.798  26.891  1.00  0.00    -0.256 NA
ATOM     14  C   UNL A   1      32.590  22.528  27.104  1.00  0.00     0.123 C 
BRANCH  14  15
ATOM     15  C   UNL A   1      33.086  21.491  26.190  1.00  0.00     0.035 A 
ATOM     16  C   UNL A   1      32.122  20.857  25.398  1.00  0.00     0.013 A 
ATOM     17  C   UNL A   1      34.439  21.175  26.047  1.00  0.00     0.124 A 
ATOM     18  C   UNL A   1      32.521  19.953  24.416  1.00  0.00     0.001 A 
ATOM     19  C   UNL A   1      34.833  20.261  25.071  1.00  0.00     0.047 A 
ATOM     20  C   UNL A   1      33.876  19.664  24.246  1.00  0.00     0.004 A 
BRANCH  17  21
ATOM     21  O   UNL A   1      35.430  21.733  26.804  1.00  0.00    -0.507 OA
ATOM     22  H   UNL A   1      36.026  21.183  27.273  1.00  0.00     0.293 HD
ENDBRANCH  17  21
ENDBRANCH  14  15
ENDBRANCH  12  13
ENDBRANCH   5   7
ENDBRANCH   2   3
ENDBRANCH   1   2
BRANCH   1  23
ATOM     23  C   UNL A   1      32.644  28.480  25.929  1.00  0.00     0.023 C 
BRANCH  23  24
ATOM     24  C   UNL A   1      33.647  28.736  27.047  1.00  0.00     0.116 C 
BRANCH  24  25
ATOM     25  N   UNL A   1      33.553  30.071  27.616  1.00  0.00    -0.352 N 
ATOM     26  C   UNL A   1      34.503  30.783  28.314  1.00  0.00     0.251 C 
ATOM     27  H   UNL A   1      32.691  30.530  27.484  1.00  0.00     0.163 HD
ATOM     28  O   UNL A   1      34.220  31.866  28.809  1.00  0.00    -0.269 OA
BRANCH  26  29
ATOM     29  C   UNL A   1      35.855  30.208  28.496  1.00  0.00     0.039 A 
ATOM     30  C   UNL A   1      36.754  30.243  27.426  1.00  0.00     0.014 A 
ATOM     31  C   UNL A   1      36.246  29.672  29.725  1.00  0.00     0.014 A 
ATOM     32  C   UNL A   1      38.072  29.818  27.614  1.00  0.00     0.010 A 
ATOM     33  C   UNL A   1      37.575  29.317  29.930  1.00  0.00     0.010 A 
ATOM     34  C   UNL A   1      38.505  29.389  28.880  1.00  0.00    -0.014 A 
BRANCH  34  35
ATOM     35  C   UNL A   1      39.917  29.004  29.138  1.00  0.00     0.031 A 
ATOM     36  C   UNL A   1      40.882  30.032  29.662  1.00  0.00     0.074 A 
ATOM     37  C   UNL A   1      40.351  27.769  28.812  1.00  0.00     0.049 A 
ATOM     38  N   UNL A   1      42.180  29.953  29.800  1.00  0.00    -0.248 NA
ATOM     39  C   UNL A   1      40.316  31.335  30.051  1.00  0.00     0.031 C 
ATOM     40  C   UNL A   1      39.524  26.696  28.257  1.00  0.00     0.029 A 
ATOM     41  N   UNL A   1      41.607  27.217  28.878  1.00  0.00    -0.354 N 
ATOM     42  C   UNL A   1      42.589  31.200  30.257  1.00  0.00     0.074 A 
ATOM     43  C   UNL A   1      41.408  32.029  30.344  1.00  0.00     0.031 C 
ATOM     44  C   UNL A   1      40.291  25.615  28.038  1.00  0.00     0.029 A 
ATOM     45  C   UNL A   1      41.671  25.928  28.397  1.00  0.00     0.049 A 
ATOM     46  H   UNL A   1      42.388  27.696  29.235  1.00  0.00     0.167 HD
ATOM     47  C   UNL A   1      43.835  31.610  30.592  1.00  0.00     0.037 A 
ATOM     48  C   UNL A   1      42.723  25.101  28.247  1.00  0.00     0.037 A 
ATOM     49  C   UNL A   1      44.999  30.766  30.556  1.00  0.00     0.049 A 
ATOM     50  C   UNL A   1      44.095  25.574  28.655  1.00  0.00     0.074 A 
ATOM     51  C   UNL A   1      46.294  31.071  30.939  1.00  0.00     0.029 A 
ATOM     52  N   UNL A   1      45.009  29.448  30.125  1.00  0.00    -0.354 N 
ATOM     53  N   UNL A   1      44.454  26.740  29.134  1.00  0.00    -0.248 NA
ATOM     54  C   UNL A   1      45.203  24.618  28.508  1.00  0.00     0.031 C 
ATOM     55  C   UNL A   1      47.092  29.946  30.713  1.00  0.00     0.029 A 
ATOM     56  C   UNL A   1      46.287  28.929  30.228  1.00  0.00     0.049 A 
ATOM     57  H   UNL A   1      44.222  28.955  29.795  1.00  0.00     0.167 HD
ATOM     58  C   UNL A   1      45.820  26.646  29.380  1.00  0.00     0.074 A 
ATOM     59  C   UNL A   1      46.223  25.309  28.999  1.00  0.00     0.031 C 
ATOM     60  C   UNL A   1      46.663  27.582  29.879  1.00  0.00     0.037 A 
BRANCH  47  61
ATOM     61  C   UNL A   1      44.010  33.033  31.040  1.00  0.00     0.058 A 
ATOM     62  C   UNL A   1      44.290  34.062  30.127  1.00  0.00     0.135 A 
ATOM     63  C   UNL A   1      43.831  33.384  32.388  1.00  0.00     0.135 A 
ATOM     64  F   UNL A   1      44.487  33.779  28.830  1.00  0.00    -0.206 F 
ATOM     65  C   UNL A   1      44.402  35.386  30.536  1.00  0.00     0.059 A 
ATOM     66  C   UNL A   1      43.914  34.705  32.816  1.00  0.00     0.059 A 
ATOM     67  F   UNL A   1      43.563  32.438  33.302  1.00  0.00    -0.206 F 
ATOM     68  C   UNL A   1      44.208  35.698  31.883  1.00  0.00     0.060 A 
BRANCH  68  69
ATOM     69  S   UNL A   1      44.324  37.426  32.393  1.00  0.00     0.124 S 
ATOM     70  O   UNL A   1      44.175  38.117  31.116  1.00  0.00    -0.237 OA
ATOM     71  O   UNL A   1      43.202  37.556  33.317  1.00  0.00    -0.237 OA
ATOM     72  O   UNL A   1      45.647  37.513  33.003  1.00  0.00    -0.744 OA
ENDBRANCH  68  69
ENDBRANCH  47  61
BRANCH  48  73
ATOM     73  C   UNL A   1      42.534  23.733  27.692  1.00  0.00     0.058 A 
ATOM     74  C   UNL A   1      42.385  22.627  28.540  1.00  0.00     0.135 A 
ATOM     75  C   UNL A   1      42.519  23.502  26.308  1.00  0.00     0.135 A 
ATOM     76  F   UNL A   1      42.398  22.796  29.871  1.00  0.00    -0.206 F 
ATOM     77  C   UNL A   1      42.261  21.334  28.039  1.00  0.00     0.059 A 
ATOM     78  C   UNL A   1      42.373  22.223  25.782  1.00  0.00     0.059 A 
ATOM     79  F   UNL A   1      42.639  24.530  25.453  1.00  0.00    -0.206 F 
ATOM     80  C   UNL A   1      42.262  21.142  26.657  1.00  0.00     0.060 A 
BRANCH  80  81
ATOM     81  S   UNL A   1      42.086  19.464  26.014  1.00  0.00     0.124 S 
ATOM     82  O   UNL A   1      42.536  18.667  27.148  1.00  0.00    -0.237 OA
ATOM     83  O   UNL A   1      40.659  19.395  25.712  1.00  0.00    -0.237 OA
ATOM     84  O   UNL A   1      42.964  19.460  24.848  1.00  0.00    -0.744 OA
ENDBRANCH  80  81
ENDBRANCH  48  73
BRANCH  60  85
ATOM     85  C   UNL A   1      48.093  27.184  30.109  1.00  0.00     0.058 A 
ATOM     86  C   UNL A   1      49.080  27.382  29.134  1.00  0.00     0.135 A 
ATOM     87  C   UNL A   1      48.490  26.680  31.358  1.00  0.00     0.135 A 
ATOM     88  F   UNL A   1      48.749  27.856  27.923  1.00  0.00    -0.206 F 
ATOM     89  C   UNL A   1      50.416  27.084  29.386  1.00  0.00     0.059 A 
ATOM     90  C   UNL A   1      49.822  26.397  31.639  1.00  0.00     0.059 A 
ATOM     91  F   UNL A   1      47.583  26.481  32.328  1.00  0.00    -0.206 F 
ATOM     92  C   UNL A   1      50.778  26.597  30.643  1.00  0.00     0.060 A 
BRANCH  92  93
ATOM     93  S   UNL A   1      52.522  26.274  30.980  1.00  0.00     0.124 S 
ATOM     94  O   UNL A   1      53.075  26.210  29.632  1.00  0.00    -0.237 OA
ATOM     95  O   UNL A   1      52.911  27.438  31.770  1.00  0.00    -0.237 OA
ATOM     96  O   UNL A   1      52.498  25.010  31.710  1.00  0.00    -0.744 OA
ENDBRANCH  92  93
ENDBRANCH  60  85
ENDBRANCH  34  35
ENDBRANCH  26  29
ENDBRANCH  24  25
ENDBRANCH  23  24
ENDBRANCH   1  23
TORSDOF 17
ENDMDL
MODEL 2
REMARK VINA RESULT:     -11.4      2.948      9.363
REMARK SMILES O=C(NCCCCNC(=O)c1ccc(-c2c3nc(c(-c4c(F)cc(S(=O)(=O)[O-])cc4F)c4ccc([nH]4)c(-c4c(F)cc(S(=O)(=O)[O-])cc4F)c4nc(c(-c5c(F)cc(S(=O)(=O)[O-])cc5F)c5ccc2[nH]5)C=C4)C=C3)cc1)c1ccc(/N=C\c2ccccc2O)cc1
REMARK SMILES IDX 5 1 4 2 3 3 1 4 2 5 77 7 78 8 91 9 79 10 90 11 80 12 81 13
REMARK SMILES IDX 82 14 83 15 84 16 88 17 85 18 87 19 86 20 89 21 6 23 7 24
REMARK SMILES IDX 8 25 9 26 10 28 11 29 12 30 76 31 13 32 75 33 14 34 15 35
REMARK SMILES IDX 16 36 69 37 17 38 74 39 68 40 70 41 18 42 73 43 67 44 66 45
REMARK SMILES IDX 19 47 53 48 32 49 52 50 33 51 36 52 51 53 71 54 34 55 35 56
REMARK SMILES IDX 50 58 72 59 37 60 20 61 21 62 30 63 22 64 23 65 29 66 31 67
REMARK SMILES IDX 24 68 25 69 26 70 27 71 28 72 54 73 55 74 64 75 56 76 57 77
REMARK SMILES IDX 63 78 65 79 58 80 59 81 60 82 61 83 62 84 38 85 39 86 48 87
REMARK SMILES IDX 40 88 41 89 47 90 49 91 42 92 43 93 44 94 45 95 46 96
REMARK H PARENT 3 6 89 22 8 27 70 46 36 57
REMARK Flexibility Score: inf
ROOT
ATOM      1  C   UNL A   1      35.390  22.169  26.614  1.00  0.00     0.023 C 
ENDROOT
BRANCH   1   2
ATOM      2  C   UNL A   1      34.002  21.894  27.182  1.00  0.00     0.116 C 
BRANCH   2   3
ATOM      3  N   UNL A   1      33.374  20.697  26.649  1.00  0.00    -0.352 N 
ATOM      4  O   UNL A   1      32.176  19.402  25.249  1.00  0.00    -0.269 OA
ATOM      5  C   UNL A   1      32.688  20.496  25.476  1.00  0.00     0.251 C 
ATOM      6  H   UNL A   1      33.453  19.900  27.222  1.00  0.00     0.163 HD
BRANCH   5   7
ATOM      7  C   UNL A   1      32.502  21.598  24.505  1.00  0.00     0.039 A 
ATOM      8  C   UNL A   1      33.390  21.836  23.457  1.00  0.00     0.016 A 
ATOM      9  C   UNL A   1      31.385  22.421  24.652  1.00  0.00     0.016 A 
ATOM     10  C   UNL A   1      33.269  23.003  22.700  1.00  0.00     0.029 A 
ATOM     11  C   UNL A   1      31.230  23.544  23.835  1.00  0.00     0.029 A 
ATOM     12  C   UNL A   1      32.226  23.909  22.923  1.00  0.00     0.063 A 
BRANCH  12  13
ATOM     13  N   UNL A   1      32.265  25.102  22.183  1.00  0.00    -0.256 NA
ATOM     14  C   UNL A   1      32.360  26.300  22.676  1.00  0.00     0.123 C 
BRANCH  14  15
ATOM     15  C   UNL A   1      32.449  26.722  24.080  1.00  0.00     0.035 A 
ATOM     16  C   UNL A   1      33.705  26.591  24.683  1.00  0.00     0.013 A 
ATOM     17  C   UNL A   1      31.382  27.287  24.783  1.00  0.00     0.124 A 
ATOM     18  C   UNL A   1      33.908  27.085  25.971  1.00  0.00     0.001 A 
ATOM     19  C   UNL A   1      31.586  27.769  26.074  1.00  0.00     0.047 A 
ATOM     20  C   UNL A   1      32.852  27.683  26.660  1.00  0.00     0.004 A 
BRANCH  17  21
ATOM     21  O   UNL A   1      30.124  27.421  24.267  1.00  0.00    -0.507 OA
ATOM     22  H   UNL A   1      29.954  28.066  23.610  1.00  0.00     0.293 HD
ENDBRANCH  17  21
ENDBRANCH  14  15
ENDBRANCH  12  13
ENDBRANCH   5   7
ENDBRANCH   2   3
ENDBRANCH   1   2
BRANCH   1  23
ATOM     23  C   UNL A   1      35.595  23.540  25.977  1.00  0.00     0.023 C 
BRANCH  23  24
ATOM     24  C   UNL A   1      36.784  23.663  25.033  1.00  0.00     0.116 C 
BRANCH  24  25
ATOM     25  N   UNL A   1      37.827  22.680  25.284  1.00  0.00    -0.352 N 
ATOM     26  C   UNL A   1      39.004  22.827  25.984  1.00  0.00     0.251 C 
ATOM     27  H   UNL A   1      37.670  21.787  24.900  1.00  0.00     0.163 HD
ATOM     28  O   UNL A   1      39.819  21.915  26.016  1.00  0.00    -0.269 OA
BRANCH  26  29
ATOM     29  C   UNL A   1      39.292  24.111  26.662  1.00  0.00     0.039 A 
ATOM     30  C   UNL A   1      38.830  24.305  27.967  1.00  0.00     0.014 A 
ATOM     31  C   UNL A   1      40.044  25.103  26.028  1.00  0.00     0.014 A 
ATOM     32  C   UNL A   1      39.196  25.459  28.667  1.00  0.00     0.010 A 
ATOM     33  C   UNL A   1      40.465  26.215  26.750  1.00  0.00     0.010 A 
ATOM     34  C   UNL A   1      40.051  26.404  28.078  1.00  0.00    -0.014 A 
BRANCH  34  35
ATOM     35  C   UNL A   1      40.524  27.603  28.818  1.00  0.00     0.031 A 
ATOM     36  C   UNL A   1      41.877  27.583  29.476  1.00  0.00     0.074 A 
ATOM     37  C   UNL A   1      39.707  28.664  28.981  1.00  0.00     0.049 A 
ATOM     38  N   UNL A   1      42.409  28.449  30.298  1.00  0.00    -0.248 NA
ATOM     39  C   UNL A   1      42.731  26.416  29.199  1.00  0.00     0.031 C 
ATOM     40  C   UNL A   1      38.356  28.789  28.428  1.00  0.00     0.029 A 
ATOM     41  N   UNL A   1      39.885  29.831  29.681  1.00  0.00    -0.354 N 
ATOM     42  C   UNL A   1      43.641  27.918  30.662  1.00  0.00     0.074 A 
ATOM     43  C   UNL A   1      43.765  26.639  29.998  1.00  0.00     0.031 C 
ATOM     44  C   UNL A   1      37.831  29.966  28.807  1.00  0.00     0.029 A 
ATOM     45  C   UNL A   1      38.788  30.663  29.660  1.00  0.00     0.049 A 
ATOM     46  H   UNL A   1      40.718  30.053  30.155  1.00  0.00     0.167 HD
ATOM     47  C   UNL A   1      44.590  28.456  31.464  1.00  0.00     0.037 A 
ATOM     48  C   UNL A   1      38.572  31.843  30.273  1.00  0.00     0.037 A 
ATOM     49  C   UNL A   1      44.485  29.752  32.079  1.00  0.00     0.049 A 
ATOM     50  C   UNL A   1      39.658  32.434  31.136  1.00  0.00     0.074 A 
ATOM     51  C   UNL A   1      45.422  30.413  32.855  1.00  0.00     0.029 A 
ATOM     52  N   UNL A   1      43.385  30.590  31.979  1.00  0.00    -0.354 N 
ATOM     53  N   UNL A   1      40.837  31.940  31.427  1.00  0.00    -0.248 NA
ATOM     54  C   UNL A   1      39.386  33.742  31.750  1.00  0.00     0.031 C 
ATOM     55  C   UNL A   1      44.878  31.639  33.247  1.00  0.00     0.029 A 
ATOM     56  C   UNL A   1      43.618  31.758  32.683  1.00  0.00     0.049 A 
ATOM     57  H   UNL A   1      42.561  30.384  31.481  1.00  0.00     0.167 HD
ATOM     58  C   UNL A   1      41.462  32.893  32.226  1.00  0.00     0.074 A 
ATOM     59  C   UNL A   1      40.532  33.992  32.371  1.00  0.00     0.031 C 
ATOM     60  C   UNL A   1      42.695  32.860  32.785  1.00  0.00     0.037 A 
BRANCH  47  61
ATOM     61  C   UNL A   1      45.835  27.654  31.716  1.00  0.00     0.058 A 
ATOM     62  C   UNL A   1      47.002  27.853  30.963  1.00  0.00     0.135 A 
ATOM     63  C   UNL A   1      45.883  26.722  32.766  1.00  0.00     0.135 A 
ATOM     64  F   UNL A   1      47.005  28.718  29.937  1.00  0.00    -0.206 F 
ATOM     65  C   UNL A   1      48.169  27.146  31.230  1.00  0.00     0.059 A 
ATOM     66  C   UNL A   1      47.046  26.021  33.067  1.00  0.00     0.059 A 
ATOM     67  F   UNL A   1      44.793  26.494  33.516  1.00  0.00    -0.206 F 
ATOM     68  C   UNL A   1      48.182  26.235  32.288  1.00  0.00     0.060 A 
BRANCH  68  69
ATOM     69  S   UNL A   1      49.714  25.348  32.643  1.00  0.00     0.124 S 
ATOM     70  O   UNL A   1      50.010  24.748  31.346  1.00  0.00    -0.237 OA
ATOM     71  O   UNL A   1      50.608  26.423  33.061  1.00  0.00    -0.237 OA
ATOM     72  O   UNL A   1      49.330  24.412  33.695  1.00  0.00    -0.744 OA
ENDBRANCH  68  69
ENDBRANCH  47  61
BRANCH  48  73
ATOM     73  C   UNL A   1      37.281  32.560  30.094  1.00  0.00     0.058 A 
ATOM     74  C   UNL A   1      37.136  33.547  29.108  1.00  0.00     0.135 A 
ATOM     75  C   UNL A   1      36.176  32.291  30.916  1.00  0.00     0.135 A 
ATOM     76  F   UNL A   1      38.166  33.845  28.302  1.00  0.00    -0.206 F 
ATOM     77  C   UNL A   1      35.953  34.265  28.962  1.00  0.00     0.059 A 
ATOM     78  C   UNL A   1      34.974  32.978  30.774  1.00  0.00     0.059 A 
ATOM     79  F   UNL A   1      36.256  31.343  31.863  1.00  0.00    -0.206 F 
ATOM     80  C   UNL A   1      34.879  33.977  29.805  1.00  0.00     0.060 A 
BRANCH  80  81
ATOM     81  S   UNL A   1      33.342  34.903  29.600  1.00  0.00     0.124 S 
ATOM     82  O   UNL A   1      33.826  36.152  29.026  1.00  0.00    -0.237 OA
ATOM     83  O   UNL A   1      32.578  34.041  28.702  1.00  0.00    -0.237 OA
ATOM     84  O   UNL A   1      32.822  34.991  30.961  1.00  0.00    -0.744 OA
ENDBRANCH  80  81
ENDBRANCH  48  73
BRANCH  60  85
ATOM     85  C   UNL A   1      43.148  34.069  33.552  1.00  0.00     0.058 A 
ATOM     86  C   UNL A   1      43.661  35.203  32.907  1.00  0.00     0.135 A 
ATOM     87  C   UNL A   1      42.983  34.121  34.946  1.00  0.00     0.135 A 
ATOM     88  F   UNL A   1      43.842  35.200  31.577  1.00  0.00    -0.206 F 
ATOM     89  C   UNL A   1      44.003  36.348  33.619  1.00  0.00     0.059 A 
ATOM     90  C   UNL A   1      43.297  35.262  35.675  1.00  0.00     0.059 A 
ATOM     91  F   UNL A   1      42.487  33.063  35.608  1.00  0.00    -0.206 F 
ATOM     92  C   UNL A   1      43.813  36.370  35.003  1.00  0.00     0.060 A 
BRANCH  92  93
ATOM     93  S   UNL A   1      44.201  37.882  35.909  1.00  0.00     0.124 S 
ATOM     94  O   UNL A   1      45.645  37.764  36.073  1.00  0.00    -0.237 OA
ATOM     95  O   UNL A   1      43.750  38.924  34.991  1.00  0.00    -0.237 OA
ATOM     96  O   UNL A   1      43.416  37.755  37.134  1.00  0.00    -0.744 OA
ENDBRANCH  92  93
ENDBRANCH  60  85
ENDBRANCH  34  35
ENDBRANCH  26  29
ENDBRANCH  24  25
ENDBRANCH  23  24
ENDBRANCH   1  23
TORSDOF 17
ENDMDL
MODEL 3
REMARK VINA RESULT:     -11.2      3.398      6.720
REMARK SMILES O=C(NCCCCNC(=O)c1ccc(-c2c3nc(c(-c4c(F)cc(S(=O)(=O)[O-])cc4F)c4ccc([nH]4)c(-c4c(F)cc(S(=O)(=O)[O-])cc4F)c4nc(c(-c5c(F)cc(S(=O)(=O)[O-])cc5F)c5ccc2[nH]5)C=C4)C=C3)cc1)c1ccc(/N=C\c2ccccc2O)cc1
REMARK SMILES IDX 5 1 4 2 3 3 1 4 2 5 77 7 78 8 91 9 79 10 90 11 80 12 81 13
REMARK SMILES IDX 82 14 83 15 84 16 88 17 85 18 87 19 86 20 89 21 6 23 7 24
REMARK SMILES IDX 8 25 9 26 10 28 11 29 12 30 76 31 13 32 75 33 14 34 15 35
REMARK SMILES IDX 16 36 69 37 17 38 74 39 68 40 70 41 18 42 73 43 67 44 66 45
REMARK SMILES IDX 19 47 53 48 32 49 52 50 33 51 36 52 51 53 71 54 34 55 35 56
REMARK SMILES IDX 50 58 72 59 37 60 20 61 21 62 30 63 22 64 23 65 29 66 31 67
REMARK SMILES IDX 24 68 25 69 26 70 27 71 28 72 54 73 55 74 64 75 56 76 57 77
REMARK SMILES IDX 63 78 65 79 58 80 59 81 60 82 61 83 62 84 38 85 39 86 48 87
REMARK SMILES IDX 40 88 41 89 47 90 49 91 42 92 43 93 44 94 45 95 46 96
REMARK H PARENT 3 6 89 22 8 27 70 46 36 57
REMARK Flexibility Score: inf
ROOT
ATOM      1  C   UNL A   1      33.537  34.742  29.090  1.00  0.00     0.023 C 
ENDROOT
BRANCH   1   2
ATOM      2  C   UNL A   1      34.448  34.498  30.288  1.00  0.00     0.116 C 
BRANCH   2   3
ATOM      3  N   UNL A   1      33.751  34.018  31.470  1.00  0.00    -0.352 N 
ATOM      4  O   UNL A   1      33.431  32.957  33.430  1.00  0.00    -0.269 OA
ATOM      5  C   UNL A   1      34.218  33.325  32.560  1.00  0.00     0.251 C 
ATOM      6  H   UNL A   1      32.789  34.225  31.493  1.00  0.00     0.163 HD
BRANCH   5   7
ATOM      7  C   UNL A   1      35.647  32.957  32.674  1.00  0.00     0.039 A 
ATOM      8  C   UNL A   1      36.091  31.637  32.618  1.00  0.00     0.016 A 
ATOM      9  C   UNL A   1      36.578  33.983  32.837  1.00  0.00     0.016 A 
ATOM     10  C   UNL A   1      37.420  31.340  32.930  1.00  0.00     0.029 A 
ATOM     11  C   UNL A   1      37.923  33.679  33.068  1.00  0.00     0.029 A 
ATOM     12  C   UNL A   1      38.340  32.353  33.226  1.00  0.00     0.063 A 
BRANCH  12  13
ATOM     13  N   UNL A   1      39.618  31.937  33.635  1.00  0.00    -0.256 NA
ATOM     14  C   UNL A   1      40.056  31.920  34.857  1.00  0.00     0.123 C 
BRANCH  14  15
ATOM     15  C   UNL A   1      39.372  32.312  36.096  1.00  0.00     0.035 A 
ATOM     16  C   UNL A   1      39.792  33.514  36.677  1.00  0.00     0.013 A 
ATOM     17  C   UNL A   1      38.317  31.587  36.655  1.00  0.00     0.124 A 
ATOM     18  C   UNL A   1      39.110  34.023  37.781  1.00  0.00     0.001 A 
ATOM     19  C   UNL A   1      37.646  32.093  37.766  1.00  0.00     0.047 A 
ATOM     20  C   UNL A   1      38.032  33.318  38.317  1.00  0.00     0.004 A 
BRANCH  17  21
ATOM     21  O   UNL A   1      37.873  30.394  36.159  1.00  0.00    -0.507 OA
ATOM     22  H   UNL A   1      37.043  30.346  35.729  1.00  0.00     0.293 HD
ENDBRANCH  17  21
ENDBRANCH  14  15
ENDBRANCH  12  13
ENDBRANCH   5   7
ENDBRANCH   2   3
ENDBRANCH   1   2
BRANCH   1  23
ATOM     23  C   UNL A   1      33.590  33.693  27.983  1.00  0.00     0.023 C 
BRANCH  23  24
ATOM     24  C   UNL A   1      34.488  32.492  28.249  1.00  0.00     0.116 C 
BRANCH  24  25
ATOM     25  N   UNL A   1      33.853  31.217  27.954  1.00  0.00    -0.352 N 
ATOM     26  C   UNL A   1      34.415  29.961  27.907  1.00  0.00     0.251 C 
ATOM     27  H   UNL A   1      32.887  31.258  27.763  1.00  0.00     0.163 HD
ATOM     28  O   UNL A   1      33.747  29.001  27.547  1.00  0.00    -0.269 OA
BRANCH  26  29
ATOM     29  C   UNL A   1      35.843  29.789  28.256  1.00  0.00     0.039 A 
ATOM     30  C   UNL A   1      36.179  29.409  29.559  1.00  0.00     0.014 A 
ATOM     31  C   UNL A   1      36.841  29.965  27.295  1.00  0.00     0.014 A 
ATOM     32  C   UNL A   1      37.511  29.124  29.875  1.00  0.00     0.010 A 
ATOM     33  C   UNL A   1      38.154  29.611  27.593  1.00  0.00     0.010 A 
ATOM     34  C   UNL A   1      38.504  29.183  28.883  1.00  0.00    -0.014 A 
BRANCH  34  35
ATOM     35  C   UNL A   1      39.915  28.811  29.162  1.00  0.00     0.031 A 
ATOM     36  C   UNL A   1      40.858  29.842  29.721  1.00  0.00     0.074 A 
ATOM     37  C   UNL A   1      40.372  27.587  28.824  1.00  0.00     0.049 A 
ATOM     38  N   UNL A   1      42.154  29.776  29.882  1.00  0.00    -0.248 NA
ATOM     39  C   UNL A   1      40.268  31.130  30.121  1.00  0.00     0.031 C 
ATOM     40  C   UNL A   1      39.568  26.513  28.236  1.00  0.00     0.029 A 
ATOM     41  N   UNL A   1      41.632  27.049  28.905  1.00  0.00    -0.354 N 
ATOM     42  C   UNL A   1      42.538  31.020  30.368  1.00  0.00     0.074 A 
ATOM     43  C   UNL A   1      41.345  31.833  30.446  1.00  0.00     0.031 C 
ATOM     44  C   UNL A   1      40.353  25.446  28.013  1.00  0.00     0.029 A 
ATOM     45  C   UNL A   1      41.722  25.770  28.404  1.00  0.00     0.049 A 
ATOM     46  H   UNL A   1      42.401  27.532  29.284  1.00  0.00     0.167 HD
ATOM     47  C   UNL A   1      43.772  31.440  30.733  1.00  0.00     0.037 A 
ATOM     48  C   UNL A   1      42.787  24.958  28.260  1.00  0.00     0.037 A 
ATOM     49  C   UNL A   1      44.948  30.611  30.706  1.00  0.00     0.049 A 
ATOM     50  C   UNL A   1      44.145  25.441  28.702  1.00  0.00     0.074 A 
ATOM     51  C   UNL A   1      46.231  30.925  31.118  1.00  0.00     0.029 A 
ATOM     52  N   UNL A   1      44.982  29.301  30.253  1.00  0.00    -0.354 N 
ATOM     53  N   UNL A   1      44.480  26.604  29.207  1.00  0.00    -0.248 NA
ATOM     54  C   UNL A   1      45.267  24.501  28.560  1.00  0.00     0.031 C 
ATOM     55  C   UNL A   1      47.048  29.814  30.889  1.00  0.00     0.029 A 
ATOM     56  C   UNL A   1      46.264  28.795  30.371  1.00  0.00     0.049 A 
ATOM     57  H   UNL A   1      44.208  28.804  29.900  1.00  0.00     0.167 HD
ATOM     58  C   UNL A   1      45.842  26.522  29.478  1.00  0.00     0.074 A 
ATOM     59  C   UNL A   1      46.269  25.196  29.082  1.00  0.00     0.031 C 
ATOM     60  C   UNL A   1      46.664  27.459  30.008  1.00  0.00     0.037 A 
BRANCH  47  61
ATOM     61  C   UNL A   1      43.921  32.857  31.208  1.00  0.00     0.058 A 
ATOM     62  C   UNL A   1      44.015  33.928  30.306  1.00  0.00     0.135 A 
ATOM     63  C   UNL A   1      43.904  33.155  32.580  1.00  0.00     0.135 A 
ATOM     64  F   UNL A   1      44.053  33.698  28.984  1.00  0.00    -0.206 F 
ATOM     65  C   UNL A   1      44.102  35.244  30.747  1.00  0.00     0.059 A 
ATOM     66  C   UNL A   1      43.964  34.466  33.044  1.00  0.00     0.059 A 
ATOM     67  F   UNL A   1      43.817  32.167  33.485  1.00  0.00    -0.206 F 
ATOM     68  C   UNL A   1      44.071  35.503  32.118  1.00  0.00     0.060 A 
BRANCH  68  69
ATOM     69  S   UNL A   1      44.152  37.219  32.674  1.00  0.00     0.124 S 
ATOM     70  O   UNL A   1      45.417  37.229  33.402  1.00  0.00    -0.237 OA
ATOM     71  O   UNL A   1      44.142  37.957  31.414  1.00  0.00    -0.237 OA
ATOM     72  O   UNL A   1      42.954  37.369  33.493  1.00  0.00    -0.744 OA
ENDBRANCH  68  69
ENDBRANCH  47  61
BRANCH  48  73
ATOM     73  C   UNL A   1      42.626  23.598  27.679  1.00  0.00     0.058 A 
ATOM     74  C   UNL A   1      42.402  22.485  28.503  1.00  0.00     0.135 A 
ATOM     75  C   UNL A   1      42.713  23.379  26.296  1.00  0.00     0.135 A 
ATOM     76  F   UNL A   1      42.316  22.643  29.833  1.00  0.00    -0.206 F 
ATOM     77  C   UNL A   1      42.302  21.199  27.981  1.00  0.00     0.059 A 
ATOM     78  C   UNL A   1      42.592  22.106  25.747  1.00  0.00     0.059 A 
ATOM     79  F   UNL A   1      42.908  24.413  25.462  1.00  0.00    -0.206 F 
ATOM     80  C   UNL A   1      42.405  21.020  26.601  1.00  0.00     0.060 A 
BRANCH  80  81
ATOM     81  S   UNL A   1      42.260  19.349  25.930  1.00  0.00     0.124 S 
ATOM     82  O   UNL A   1      43.085  19.441  24.733  1.00  0.00    -0.237 OA
ATOM     83  O   UNL A   1      42.797  18.531  27.014  1.00  0.00    -0.237 OA
ATOM     84  O   UNL A   1      40.825  19.205  25.701  1.00  0.00    -0.744 OA
ENDBRANCH  80  81
ENDBRANCH  48  73
BRANCH  60  85
ATOM     85  C   UNL A   1      48.094  27.076  30.259  1.00  0.00     0.058 A 
ATOM     86  C   UNL A   1      49.094  27.284  29.298  1.00  0.00     0.135 A 
ATOM     87  C   UNL A   1      48.478  26.573  31.512  1.00  0.00     0.135 A 
ATOM     88  F   UNL A   1      48.776  27.757  28.083  1.00  0.00    -0.206 F 
ATOM     89  C   UNL A   1      50.428  27.000  29.569  1.00  0.00     0.059 A 
ATOM     90  C   UNL A   1      49.808  26.303  31.813  1.00  0.00     0.059 A 
ATOM     91  F   UNL A   1      47.558  26.364  32.468  1.00  0.00    -0.206 F 
ATOM     92  C   UNL A   1      50.777  26.514  30.831  1.00  0.00     0.060 A 
BRANCH  92  93
ATOM     93  S   UNL A   1      52.519  26.208  31.193  1.00  0.00     0.124 S 
ATOM     94  O   UNL A   1      52.466  24.876  31.785  1.00  0.00    -0.237 OA
ATOM     95  O   UNL A   1      53.134  26.290  29.872  1.00  0.00    -0.237 OA
ATOM     96  O   UNL A   1      52.870  27.290  32.109  1.00  0.00    -0.744 OA
ENDBRANCH  92  93
ENDBRANCH  60  85
ENDBRANCH  34  35
ENDBRANCH  26  29
ENDBRANCH  24  25
ENDBRANCH  23  24
ENDBRANCH   1  23
TORSDOF 17
ENDMDL
