MODEL 1
REMARK VINA RESULT:     -11.5      0.000      0.000
REMARK SMILES Cc1sc(-c2ccco2)nc1C(=O)N[C@@H](C(=O)NCCCCNC(=O)c1ccc(-c2c3nc(c(-c4c(F)cc(S(=O)(=O)[O-])cc4F)c4ccc([nH]4)c(-c4c(F)cc(S(=O)(=O)[O-])cc4F)c4nc(c(-c5c(F)cc(S(=O)(=O)[O-])cc5F)c5ccc2[nH]5)C=C4)C=C3)cc1)C(C)C
REMARK SMILES IDX 20 1 19 2 18 3 16 4 17 5 15 7 14 8 12 9 13 10 11 12 1 13
REMARK SMILES IDX 2 14 3 15 4 16 10 17 5 18 6 19 9 20 7 21 8 22 92 23 93 24
REMARK SMILES IDX 94 25 21 26 22 27 23 28 24 29 25 31 26 32 27 33 91 34 28 35
REMARK SMILES IDX 90 36 29 37 30 38 31 39 84 40 32 41 89 42 83 43 85 44 33 45
REMARK SMILES IDX 88 46 82 47 81 48 34 50 68 51 47 52 67 53 48 54 51 55 66 56
REMARK SMILES IDX 86 57 49 58 50 59 65 61 87 62 52 63 35 64 36 65 45 66 37 67
REMARK SMILES IDX 38 68 44 69 46 70 39 71 40 72 41 73 42 74 43 75 69 76 70 77
REMARK SMILES IDX 79 78 71 79 72 80 78 81 80 82 73 83 74 84 75 85 76 86 77 87
REMARK SMILES IDX 53 88 54 89 63 90 55 91 56 92 62 93 64 94 57 95 58 96 59 97
REMARK SMILES IDX 60 98 61 99
REMARK H PARENT 18 6 14 11 23 30 85 49 51 60
REMARK Flexibility Score: inf
ROOT
ATOM      1  C   UNL A   1      37.101  21.883  24.432  1.00  0.00     0.023 C 
ENDROOT
BRANCH   1   2
ATOM      2  C   UNL A   1      36.472  22.894  25.384  1.00  0.00     0.116 C 
BRANCH   2   3
ATOM      3  N   UNL A   1      35.916  22.246  26.556  1.00  0.00    -0.354 N 
ATOM      4  C   UNL A   1      34.618  22.061  26.941  1.00  0.00     0.242 C 
ATOM      5  O   UNL A   1      34.430  21.512  28.028  1.00  0.00    -0.273 OA
ATOM      6  H   UNL A   1      36.585  21.877  27.177  1.00  0.00     0.163 HD
BRANCH   4   7
ATOM      7  C   UNL A   1      33.452  22.381  25.966  1.00  0.00     0.174 C 
BRANCH   7   8
ATOM      8  N   UNL A   1      32.184  22.473  26.662  1.00  0.00    -0.339 N 
ATOM      9  C   UNL A   1      31.131  23.350  26.624  1.00  0.00     0.271 C 
ATOM     10  O   UNL A   1      30.225  23.036  27.406  1.00  0.00    -0.267 OA
ATOM     11  H   UNL A   1      32.049  21.742  27.307  1.00  0.00     0.164 HD
BRANCH   9  12
ATOM     12  C   UNL A   1      30.995  24.584  25.787  1.00  0.00     0.142 A 
ATOM     13  C   UNL A   1      30.359  24.099  23.206  1.00  0.00     0.059 C 
ATOM     14  C   UNL A   1      30.641  24.863  24.457  1.00  0.00     0.035 A 
ATOM     15  S   UNL A   1      30.502  26.581  24.235  1.00  0.00    -0.115 S 
ATOM     16  C   UNL A   1      31.227  26.839  25.740  1.00  0.00     0.160 A 
ATOM     17  N   UNL A   1      31.410  25.764  26.460  1.00  0.00    -0.227 NA
BRANCH  16  18
ATOM     18  C   UNL A   1      31.659  28.149  26.115  1.00  0.00     0.162 A 
ATOM     19  C   UNL A   1      31.755  28.687  27.388  1.00  0.00     0.053 A 
ATOM     20  O   UNL A   1      32.152  29.059  25.215  1.00  0.00    -0.462 OA
ATOM     21  C   UNL A   1      32.357  29.961  27.256  1.00  0.00     0.043 A 
ATOM     22  C   UNL A   1      32.559  30.148  25.912  1.00  0.00     0.196 A 
ENDBRANCH  16  18
ENDBRANCH   9  12
ENDBRANCH   7   8
BRANCH   7  23
ATOM     23  C   UNL A   1      33.395  21.433  24.742  1.00  0.00     0.015 C 
ATOM     24  C   UNL A   1      32.201  20.471  24.803  1.00  0.00     0.010 C 
ATOM     25  C   UNL A   1      33.280  22.254  23.445  1.00  0.00     0.010 C 
ENDBRANCH   7  23
ENDBRANCH   4   7
ENDBRANCH   2   3
ENDBRANCH   1   2
BRANCH   1  26
ATOM     26  C   UNL A   1      37.805  20.733  25.154  1.00  0.00     0.023 C 
BRANCH  26  27
ATOM     27  C   UNL A   1      39.142  21.102  25.789  1.00  0.00     0.116 C 
BRANCH  27  28
ATOM     28  N   UNL A   1      40.006  19.953  26.008  1.00  0.00    -0.352 N 
ATOM     29  C   UNL A   1      41.352  19.940  26.289  1.00  0.00     0.251 C 
ATOM     30  H   UNL A   1      39.572  19.071  25.947  1.00  0.00     0.163 HD
ATOM     31  O   UNL A   1      41.969  18.878  26.313  1.00  0.00    -0.269 OA
BRANCH  29  32
ATOM     32  C   UNL A   1      42.052  21.219  26.527  1.00  0.00     0.039 A 
ATOM     33  C   UNL A   1      42.412  22.007  25.432  1.00  0.00     0.014 A 
ATOM     34  C   UNL A   1      42.307  21.660  27.828  1.00  0.00     0.014 A 
ATOM     35  C   UNL A   1      42.968  23.269  25.645  1.00  0.00     0.010 A 
ATOM     36  C   UNL A   1      42.787  22.948  28.039  1.00  0.00     0.010 A 
ATOM     37  C   UNL A   1      43.123  23.768  26.951  1.00  0.00    -0.014 A 
BRANCH  37  38
ATOM     38  C   UNL A   1      43.631  25.143  27.195  1.00  0.00     0.031 A 
ATOM     39  C   UNL A   1      45.081  25.468  26.958  1.00  0.00     0.074 A 
ATOM     40  C   UNL A   1      42.800  26.083  27.689  1.00  0.00     0.049 A 
ATOM     41  N   UNL A   1      45.721  26.588  27.169  1.00  0.00    -0.248 NA
ATOM     42  C   UNL A   1      45.929  24.381  26.441  1.00  0.00     0.031 C 
ATOM     43  C   UNL A   1      41.385  25.878  28.010  1.00  0.00     0.029 A 
ATOM     44  N   UNL A   1      43.024  27.397  28.016  1.00  0.00    -0.354 N 
ATOM     45  C   UNL A   1      47.044  26.340  26.822  1.00  0.00     0.074 A 
ATOM     46  C   UNL A   1      47.127  24.946  26.444  1.00  0.00     0.031 C 
ATOM     47  C   UNL A   1      40.865  27.030  28.464  1.00  0.00     0.029 A 
ATOM     48  C   UNL A   1      41.914  28.044  28.507  1.00  0.00     0.049 A 
ATOM     49  H   UNL A   1      43.899  27.836  27.910  1.00  0.00     0.167 HD
ATOM     50  C   UNL A   1      48.089  27.202  26.794  1.00  0.00     0.037 A 
ATOM     51  C   UNL A   1      41.759  29.306  28.950  1.00  0.00     0.037 A 
ATOM     52  C   UNL A   1      47.995  28.593  27.154  1.00  0.00     0.049 A 
ATOM     53  C   UNL A   1      42.936  30.244  28.918  1.00  0.00     0.074 A 
ATOM     54  C   UNL A   1      48.983  29.561  27.108  1.00  0.00     0.029 A 
ATOM     55  N   UNL A   1      46.849  29.214  27.629  1.00  0.00    -0.354 N 
ATOM     56  N   UNL A   1      44.165  30.010  28.522  1.00  0.00    -0.248 NA
ATOM     57  C   UNL A   1      42.706  31.618  29.384  1.00  0.00     0.031 C 
ATOM     58  C   UNL A   1      48.449  30.756  27.603  1.00  0.00     0.029 A 
ATOM     59  C   UNL A   1      47.111  30.548  27.902  1.00  0.00     0.049 A 
ATOM     60  H   UNL A   1      45.977  28.774  27.753  1.00  0.00     0.167 HD
ATOM     61  C   UNL A   1      44.847  31.214  28.665  1.00  0.00     0.074 A 
ATOM     62  C   UNL A   1      43.890  32.176  29.170  1.00  0.00     0.031 C 
ATOM     63  C   UNL A   1      46.146  31.497  28.400  1.00  0.00     0.037 A 
BRANCH  50  64
ATOM     64  C   UNL A   1      49.426  26.664  26.358  1.00  0.00     0.058 A 
ATOM     65  C   UNL A   1      49.895  26.828  25.044  1.00  0.00     0.135 A 
ATOM     66  C   UNL A   1      50.266  26.008  27.273  1.00  0.00     0.135 A 
ATOM     67  F   UNL A   1      49.128  27.434  24.123  1.00  0.00    -0.206 F 
ATOM     68  C   UNL A   1      51.132  26.333  24.645  1.00  0.00     0.059 A 
ATOM     69  C   UNL A   1      51.521  25.532  26.903  1.00  0.00     0.059 A 
ATOM     70  F   UNL A   1      49.869  25.823  28.543  1.00  0.00    -0.206 F 
ATOM     71  C   UNL A   1      51.938  25.687  25.583  1.00  0.00     0.060 A 
BRANCH  71  72
ATOM     72  S   UNL A   1      53.542  25.054  25.048  1.00  0.00     0.124 S 
ATOM     73  O   UNL A   1      53.560  25.457  23.645  1.00  0.00    -0.237 OA
ATOM     74  O   UNL A   1      54.466  25.767  25.924  1.00  0.00    -0.237 OA
ATOM     75  O   UNL A   1      53.438  23.618  25.286  1.00  0.00    -0.744 OA
ENDBRANCH  71  72
ENDBRANCH  50  64
BRANCH  51  76
ATOM     76  C   UNL A   1      40.431  29.764  29.444  1.00  0.00     0.058 A 
ATOM     77  C   UNL A   1      39.360  29.966  28.560  1.00  0.00     0.135 A 
ATOM     78  C   UNL A   1      40.204  29.999  30.809  1.00  0.00     0.135 A 
ATOM     79  F   UNL A   1      39.529  29.763  27.245  1.00  0.00    -0.206 F 
ATOM     80  C   UNL A   1      38.117  30.401  29.008  1.00  0.00     0.059 A 
ATOM     81  C   UNL A   1      38.961  30.407  31.284  1.00  0.00     0.059 A 
ATOM     82  F   UNL A   1      41.189  29.804  31.698  1.00  0.00    -0.206 F 
ATOM     83  C   UNL A   1      37.927  30.616  30.374  1.00  0.00     0.060 A 
BRANCH  83  84
ATOM     84  S   UNL A   1      36.295  31.136  30.949  1.00  0.00     0.124 S 
ATOM     85  O   UNL A   1      36.593  32.432  31.546  1.00  0.00    -0.237 OA
ATOM     86  O   UNL A   1      35.529  31.164  29.707  1.00  0.00    -0.237 OA
ATOM     87  O   UNL A   1      35.918  30.081  31.885  1.00  0.00    -0.744 OA
ENDBRANCH  83  84
ENDBRANCH  51  76
BRANCH  63  88
ATOM     88  C   UNL A   1      46.606  32.914  28.614  1.00  0.00     0.058 A 
ATOM     89  C   UNL A   1      47.164  33.336  29.831  1.00  0.00     0.135 A 
ATOM     90  C   UNL A   1      46.533  33.849  27.567  1.00  0.00     0.135 A 
ATOM     91  F   UNL A   1      47.251  32.486  30.866  1.00  0.00    -0.206 F 
ATOM     92  C   UNL A   1      47.609  34.642  30.011  1.00  0.00     0.059 A 
ATOM     93  C   UNL A   1      47.002  35.150  27.715  1.00  0.00     0.059 A 
ATOM     94  F   UNL A   1      46.019  33.495  26.379  1.00  0.00    -0.206 F 
ATOM     95  C   UNL A   1      47.526  35.542  28.946  1.00  0.00     0.060 A 
BRANCH  95  96
ATOM     96  S   UNL A   1      48.139  37.222  29.184  1.00  0.00     0.124 S 
ATOM     97  O   UNL A   1      49.341  36.988  29.976  1.00  0.00    -0.237 OA
ATOM     98  O   UNL A   1      48.359  37.672  27.813  1.00  0.00    -0.237 OA
ATOM     99  O   UNL A   1      47.045  37.887  29.887  1.00  0.00    -0.744 OA
ENDBRANCH  95  96
ENDBRANCH  63  88
ENDBRANCH  37  38
ENDBRANCH  29  32
ENDBRANCH  27  28
ENDBRANCH  26  27
ENDBRANCH   1  26
TORSDOF 18
ENDMDL
MODEL 2
REMARK VINA RESULT:     -11.4      6.089      8.220
REMARK SMILES Cc1sc(-c2ccco2)nc1C(=O)N[C@@H](C(=O)NCCCCNC(=O)c1ccc(-c2c3nc(c(-c4c(F)cc(S(=O)(=O)[O-])cc4F)c4ccc([nH]4)c(-c4c(F)cc(S(=O)(=O)[O-])cc4F)c4nc(c(-c5c(F)cc(S(=O)(=O)[O-])cc5F)c5ccc2[nH]5)C=C4)C=C3)cc1)C(C)C
REMARK SMILES IDX 20 1 19 2 18 3 16 4 17 5 15 7 14 8 12 9 13 10 11 12 1 13
REMARK SMILES IDX 2 14 3 15 4 16 10 17 5 18 6 19 9 20 7 21 8 22 92 23 93 24
REMARK SMILES IDX 94 25 21 26 22 27 23 28 24 29 25 31 26 32 27 33 91 34 28 35
REMARK SMILES IDX 90 36 29 37 30 38 31 39 84 40 32 41 89 42 83 43 85 44 33 45
REMARK SMILES IDX 88 46 82 47 81 48 34 50 68 51 47 52 67 53 48 54 51 55 66 56
REMARK SMILES IDX 86 57 49 58 50 59 65 61 87 62 52 63 35 64 36 65 45 66 37 67
REMARK SMILES IDX 38 68 44 69 46 70 39 71 40 72 41 73 42 74 43 75 69 76 70 77
REMARK SMILES IDX 79 78 71 79 72 80 78 81 80 82 73 83 74 84 75 85 76 86 77 87
REMARK SMILES IDX 53 88 54 89 63 90 55 91 56 92 62 93 64 94 57 95 58 96 59 97
REMARK SMILES IDX 60 98 61 99
REMARK H PARENT 18 6 14 11 23 30 85 49 51 60
REMARK Flexibility Score: inf
ROOT
ATOM      1  C   UNL A   1      36.896  23.579  24.983  1.00  0.00     0.023 C 
ENDROOT
BRANCH   1   2
ATOM      2  C   UNL A   1      35.462  24.050  25.203  1.00  0.00     0.116 C 
BRANCH   2   3
ATOM      3  N   UNL A   1      34.641  23.003  25.779  1.00  0.00    -0.354 N 
ATOM      4  C   UNL A   1      33.283  22.850  25.810  1.00  0.00     0.242 C 
ATOM      5  O   UNL A   1      32.844  21.874  26.421  1.00  0.00    -0.273 OA
ATOM      6  H   UNL A   1      35.146  22.282  26.220  1.00  0.00     0.163 HD
BRANCH   4   7
ATOM      7  C   UNL A   1      32.365  23.777  24.966  1.00  0.00     0.174 C 
BRANCH   7   8
ATOM      8  N   UNL A   1      31.228  24.243  25.734  1.00  0.00    -0.339 N 
ATOM      9  C   UNL A   1      30.701  25.477  26.016  1.00  0.00     0.271 C 
ATOM     10  O   UNL A   1      29.689  25.409  26.727  1.00  0.00    -0.267 OA
ATOM     11  H   UNL A   1      30.718  23.507  26.146  1.00  0.00     0.164 HD
BRANCH   9  12
ATOM     12  C   UNL A   1      31.216  26.814  25.583  1.00  0.00     0.142 A 
ATOM     13  C   UNL A   1      30.606  27.456  23.030  1.00  0.00     0.059 C 
ATOM     14  C   UNL A   1      31.126  27.599  24.422  1.00  0.00     0.035 A 
ATOM     15  S   UNL A   1      31.824  29.163  24.716  1.00  0.00    -0.115 S 
ATOM     16  C   UNL A   1      32.480  28.603  26.170  1.00  0.00     0.160 A 
ATOM     17  N   UNL A   1      32.089  27.410  26.533  1.00  0.00    -0.227 NA
BRANCH  16  18
ATOM     18  C   UNL A   1      33.448  29.386  26.870  1.00  0.00     0.162 A 
ATOM     19  C   UNL A   1      34.795  29.120  27.054  1.00  0.00     0.053 A 
ATOM     20  O   UNL A   1      33.168  30.621  27.400  1.00  0.00    -0.462 OA
ATOM     21  C   UNL A   1      35.359  30.250  27.692  1.00  0.00     0.043 A 
ATOM     22  C   UNL A   1      34.323  31.125  27.900  1.00  0.00     0.196 A 
ENDBRANCH  16  18
ENDBRANCH   9  12
ENDBRANCH   7   8
BRANCH   7  23
ATOM     23  C   UNL A   1      31.957  23.165  23.603  1.00  0.00     0.015 C 
ATOM     24  C   UNL A   1      30.644  23.754  23.068  1.00  0.00     0.010 C 
ATOM     25  C   UNL A   1      33.057  23.425  22.559  1.00  0.00     0.010 C 
ENDBRANCH   7  23
ENDBRANCH   4   7
ENDBRANCH   2   3
ENDBRANCH   1   2
BRANCH   1  26
ATOM     26  C   UNL A   1      37.711  23.509  26.274  1.00  0.00     0.023 C 
BRANCH  26  27
ATOM     27  C   UNL A   1      38.640  24.698  26.507  1.00  0.00     0.116 C 
BRANCH  27  28
ATOM     28  N   UNL A   1      39.976  24.491  25.969  1.00  0.00    -0.352 N 
ATOM     29  C   UNL A   1      41.152  25.084  26.360  1.00  0.00     0.251 C 
ATOM     30  H   UNL A   1      40.046  23.844  25.231  1.00  0.00     0.163 HD
ATOM     31  O   UNL A   1      42.181  24.904  25.714  1.00  0.00    -0.269 OA
BRANCH  29  32
ATOM     32  C   UNL A   1      41.157  25.969  27.545  1.00  0.00     0.039 A 
ATOM     33  C   UNL A   1      41.939  27.125  27.523  1.00  0.00     0.014 A 
ATOM     34  C   UNL A   1      40.352  25.681  28.650  1.00  0.00     0.014 A 
ATOM     35  C   UNL A   1      41.863  28.028  28.585  1.00  0.00     0.010 A 
ATOM     36  C   UNL A   1      40.218  26.619  29.669  1.00  0.00     0.010 A 
ATOM     37  C   UNL A   1      40.972  27.803  29.648  1.00  0.00    -0.014 A 
BRANCH  37  38
ATOM     38  C   UNL A   1      40.812  28.795  30.743  1.00  0.00     0.031 A 
ATOM     39  C   UNL A   1      41.669  28.704  31.977  1.00  0.00     0.074 A 
ATOM     40  C   UNL A   1      39.855  29.740  30.653  1.00  0.00     0.049 A 
ATOM     41  N   UNL A   1      41.637  29.437  33.060  1.00  0.00    -0.248 NA
ATOM     42  C   UNL A   1      42.674  27.630  32.011  1.00  0.00     0.031 C 
ATOM     43  C   UNL A   1      38.926  29.899  29.531  1.00  0.00     0.029 A 
ATOM     44  N   UNL A   1      39.496  30.740  31.522  1.00  0.00    -0.354 N 
ATOM     45  C   UNL A   1      42.607  28.909  33.904  1.00  0.00     0.074 A 
ATOM     46  C   UNL A   1      43.168  27.757  33.233  1.00  0.00     0.031 C 
ATOM     47  C   UNL A   1      38.122  30.949  29.770  1.00  0.00     0.029 A 
ATOM     48  C   UNL A   1      38.448  31.512  31.076  1.00  0.00     0.049 A 
ATOM     49  H   UNL A   1      39.947  30.891  32.384  1.00  0.00     0.167 HD
ATOM     50  C   UNL A   1      43.012  29.360  35.116  1.00  0.00     0.037 A 
ATOM     51  C   UNL A   1      37.814  32.549  31.657  1.00  0.00     0.037 A 
ATOM     52  C   UNL A   1      42.462  30.519  35.769  1.00  0.00     0.049 A 
ATOM     53  C   UNL A   1      38.277  33.027  33.008  1.00  0.00     0.074 A 
ATOM     54  C   UNL A   1      42.841  31.088  36.972  1.00  0.00     0.029 A 
ATOM     55  N   UNL A   1      41.414  31.284  35.278  1.00  0.00    -0.354 N 
ATOM     56  N   UNL A   1      39.242  32.557  33.762  1.00  0.00    -0.248 NA
ATOM     57  C   UNL A   1      37.571  34.179  33.584  1.00  0.00     0.031 C 
ATOM     58  C   UNL A   1      41.990  32.167  37.233  1.00  0.00     0.029 A 
ATOM     59  C   UNL A   1      41.118  32.307  36.165  1.00  0.00     0.049 A 
ATOM     60  H   UNL A   1      40.950  31.125  34.424  1.00  0.00     0.167 HD
ATOM     61  C   UNL A   1      39.278  33.373  34.888  1.00  0.00     0.074 A 
ATOM     62  C   UNL A   1      38.247  34.374  34.708  1.00  0.00     0.031 C 
ATOM     63  C   UNL A   1      40.091  33.301  35.970  1.00  0.00     0.037 A 
BRANCH  50  64
ATOM     64  C   UNL A   1      44.106  28.596  35.813  1.00  0.00     0.058 A 
ATOM     65  C   UNL A   1      43.825  27.523  36.674  1.00  0.00     0.135 A 
ATOM     66  C   UNL A   1      45.456  28.917  35.591  1.00  0.00     0.135 A 
ATOM     67  F   UNL A   1      42.553  27.181  36.935  1.00  0.00    -0.206 F 
ATOM     68  C   UNL A   1      44.838  26.817  37.315  1.00  0.00     0.059 A 
ATOM     69  C   UNL A   1      46.487  28.205  36.198  1.00  0.00     0.059 A 
ATOM     70  F   UNL A   1      45.784  29.934  34.778  1.00  0.00    -0.206 F 
ATOM     71  C   UNL A   1      46.167  27.166  37.069  1.00  0.00     0.060 A 
BRANCH  71  72
ATOM     72  S   UNL A   1      47.468  26.237  37.906  1.00  0.00     0.124 S 
ATOM     73  O   UNL A   1      47.014  24.862  37.715  1.00  0.00    -0.237 OA
ATOM     74  O   UNL A   1      48.658  26.621  37.154  1.00  0.00    -0.237 OA
ATOM     75  O   UNL A   1      47.410  26.730  39.278  1.00  0.00    -0.744 OA
ENDBRANCH  71  72
ENDBRANCH  50  64
BRANCH  51  76
ATOM     76  C   UNL A   1      36.686  33.219  30.955  1.00  0.00     0.058 A 
ATOM     77  C   UNL A   1      36.913  34.054  29.852  1.00  0.00     0.135 A 
ATOM     78  C   UNL A   1      35.357  33.030  31.367  1.00  0.00     0.135 A 
ATOM     79  F   UNL A   1      38.166  34.273  29.423  1.00  0.00    -0.206 F 
ATOM     80  C   UNL A   1      35.868  34.692  29.192  1.00  0.00     0.059 A 
ATOM     81  C   UNL A   1      34.293  33.635  30.706  1.00  0.00     0.059 A 
ATOM     82  F   UNL A   1      35.083  32.227  32.407  1.00  0.00    -0.206 F 
ATOM     83  C   UNL A   1      34.560  34.474  29.625  1.00  0.00     0.060 A 
BRANCH  83  84
ATOM     84  S   UNL A   1      33.207  35.271  28.732  1.00  0.00     0.124 S 
ATOM     85  O   UNL A   1      32.451  35.875  29.822  1.00  0.00    -0.237 OA
ATOM     86  O   UNL A   1      33.922  36.196  27.858  1.00  0.00    -0.237 OA
ATOM     87  O   UNL A   1      32.553  34.157  28.050  1.00  0.00    -0.744 OA
ENDBRANCH  83  84
ENDBRANCH  51  76
BRANCH  63  88
ATOM     88  C   UNL A   1      39.929  34.355  37.032  1.00  0.00     0.058 A 
ATOM     89  C   UNL A   1      40.560  35.606  36.937  1.00  0.00     0.135 A 
ATOM     90  C   UNL A   1      39.088  34.128  38.135  1.00  0.00     0.135 A 
ATOM     91  F   UNL A   1      41.379  35.873  35.908  1.00  0.00    -0.206 F 
ATOM     92  C   UNL A   1      40.384  36.583  37.912  1.00  0.00     0.059 A 
ATOM     93  C   UNL A   1      38.873  35.103  39.104  1.00  0.00     0.059 A 
ATOM     94  F   UNL A   1      38.451  32.954  38.269  1.00  0.00    -0.206 F 
ATOM     95  C   UNL A   1      39.536  36.323  38.990  1.00  0.00     0.060 A 
BRANCH  95  96
ATOM     96  S   UNL A   1      39.292  37.613  40.228  1.00  0.00     0.124 S 
ATOM     97  O   UNL A   1      38.917  36.829  41.400  1.00  0.00    -0.237 OA
ATOM     98  O   UNL A   1      40.605  38.247  40.283  1.00  0.00    -0.237 OA
ATOM     99  O   UNL A   1      38.229  38.436  39.658  1.00  0.00    -0.744 OA
ENDBRANCH  95  96
ENDBRANCH  63  88
ENDBRANCH  37  38
ENDBRANCH  29  32
ENDBRANCH  27  28
ENDBRANCH  26  27
ENDBRANCH   1  26
TORSDOF 18
ENDMDL
MODEL 3
REMARK VINA RESULT:      -9.9      5.940     12.722
REMARK SMILES Cc1sc(-c2ccco2)nc1C(=O)N[C@@H](C(=O)NCCCCNC(=O)c1ccc(-c2c3nc(c(-c4c(F)cc(S(=O)(=O)[O-])cc4F)c4ccc([nH]4)c(-c4c(F)cc(S(=O)(=O)[O-])cc4F)c4nc(c(-c5c(F)cc(S(=O)(=O)[O-])cc5F)c5ccc2[nH]5)C=C4)C=C3)cc1)C(C)C
REMARK SMILES IDX 20 1 19 2 18 3 16 4 17 5 15 7 14 8 12 9 13 10 11 12 1 13
REMARK SMILES IDX 2 14 3 15 4 16 10 17 5 18 6 19 9 20 7 21 8 22 92 23 93 24
REMARK SMILES IDX 94 25 21 26 22 27 23 28 24 29 25 31 26 32 27 33 91 34 28 35
REMARK SMILES IDX 90 36 29 37 30 38 31 39 84 40 32 41 89 42 83 43 85 44 33 45
REMARK SMILES IDX 88 46 82 47 81 48 34 50 68 51 47 52 67 53 48 54 51 55 66 56
REMARK SMILES IDX 86 57 49 58 50 59 65 61 87 62 52 63 35 64 36 65 45 66 37 67
REMARK SMILES IDX 38 68 44 69 46 70 39 71 40 72 41 73 42 74 43 75 69 76 70 77
REMARK SMILES IDX 79 78 71 79 72 80 78 81 80 82 73 83 74 84 75 85 76 86 77 87
REMARK SMILES IDX 53 88 54 89 63 90 55 91 56 92 62 93 64 94 57 95 58 96 59 97
REMARK SMILES IDX 60 98 61 99
REMARK H PARENT 18 6 14 11 23 30 85 49 51 60
REMARK Flexibility Score: inf
ROOT
ATOM      1  C   UNL A   1      44.667  24.240  29.681  1.00  0.00     0.023 C 
ENDROOT
BRANCH   1   2
ATOM      2  C   UNL A   1      45.941  24.829  29.086  1.00  0.00     0.116 C 
BRANCH   2   3
ATOM      3  N   UNL A   1      46.392  24.069  27.937  1.00  0.00    -0.354 N 
ATOM      4  C   UNL A   1      46.796  24.480  26.698  1.00  0.00     0.242 C 
ATOM      5  O   UNL A   1      47.083  23.602  25.883  1.00  0.00    -0.273 OA
ATOM      6  H   UNL A   1      46.411  23.094  28.073  1.00  0.00     0.163 HD
BRANCH   4   7
ATOM      7  C   UNL A   1      47.037  25.987  26.406  1.00  0.00     0.174 C 
BRANCH   7   8
ATOM      8  N   UNL A   1      45.904  26.588  25.733  1.00  0.00    -0.339 N 
ATOM      9  C   UNL A   1      45.311  27.824  25.769  1.00  0.00     0.271 C 
ATOM     10  O   UNL A   1      44.342  27.908  25.004  1.00  0.00    -0.267 OA
ATOM     11  H   UNL A   1      45.459  25.970  25.109  1.00  0.00     0.164 HD
BRANCH   9  12
ATOM     12  C   UNL A   1      45.697  29.001  26.609  1.00  0.00     0.142 A 
ATOM     13  C   UNL A   1      46.331  28.374  29.159  1.00  0.00     0.059 C 
ATOM     14  C   UNL A   1      46.144  29.194  27.926  1.00  0.00     0.035 A 
ATOM     15  S   UNL A   1      46.597  30.856  28.155  1.00  0.00    -0.115 S 
ATOM     16  C   UNL A   1      45.875  31.261  26.682  1.00  0.00     0.160 A 
ATOM     17  N   UNL A   1      45.475  30.247  25.962  1.00  0.00    -0.227 NA
BRANCH  16  18
ATOM     18  C   UNL A   1      45.671  32.632  26.334  1.00  0.00     0.162 A 
ATOM     19  C   UNL A   1      44.512  33.382  26.452  1.00  0.00     0.053 A 
ATOM     20  O   UNL A   1      46.683  33.452  25.902  1.00  0.00    -0.462 OA
ATOM     21  C   UNL A   1      44.843  34.715  26.107  1.00  0.00     0.043 A 
ATOM     22  C   UNL A   1      46.170  34.698  25.760  1.00  0.00     0.196 A 
ENDBRANCH  16  18
ENDBRANCH   9  12
ENDBRANCH   7   8
BRANCH   7  23
ATOM     23  C   UNL A   1      48.379  26.268  25.685  1.00  0.00     0.015 C 
ATOM     24  C   UNL A   1      48.184  26.633  24.208  1.00  0.00     0.010 C 
ATOM     25  C   UNL A   1      49.112  27.435  26.372  1.00  0.00     0.010 C 
ENDBRANCH   7  23
ENDBRANCH   4   7
ENDBRANCH   2   3
ENDBRANCH   1   2
BRANCH   1  26
ATOM     26  C   UNL A   1      44.182  22.988  28.948  1.00  0.00     0.023 C 
BRANCH  26  27
ATOM     27  C   UNL A   1      42.747  23.066  28.435  1.00  0.00     0.116 C 
BRANCH  27  28
ATOM     28  N   UNL A   1      42.655  23.564  27.071  1.00  0.00    -0.352 N 
ATOM     29  C   UNL A   1      42.220  24.795  26.641  1.00  0.00     0.251 C 
ATOM     30  H   UNL A   1      42.941  22.939  26.366  1.00  0.00     0.163 HD
ATOM     31  O   UNL A   1      42.074  25.015  25.441  1.00  0.00    -0.269 OA
BRANCH  29  32
ATOM     32  C   UNL A   1      41.896  25.836  27.639  1.00  0.00     0.039 A 
ATOM     33  C   UNL A   1      40.677  25.768  28.316  1.00  0.00     0.014 A 
ATOM     34  C   UNL A   1      42.816  26.844  27.938  1.00  0.00     0.014 A 
ATOM     35  C   UNL A   1      40.409  26.674  29.343  1.00  0.00     0.010 A 
ATOM     36  C   UNL A   1      42.580  27.696  29.012  1.00  0.00     0.010 A 
ATOM     37  C   UNL A   1      41.375  27.621  29.727  1.00  0.00    -0.014 A 
BRANCH  37  38
ATOM     38  C   UNL A   1      41.143  28.537  30.875  1.00  0.00     0.031 A 
ATOM     39  C   UNL A   1      40.055  29.575  30.806  1.00  0.00     0.074 A 
ATOM     40  C   UNL A   1      41.950  28.474  31.952  1.00  0.00     0.049 A 
ATOM     41  N   UNL A   1      39.739  30.498  31.677  1.00  0.00    -0.248 NA
ATOM     42  C   UNL A   1      39.232  29.595  29.586  1.00  0.00     0.031 C 
ATOM     43  C   UNL A   1      43.073  27.546  32.116  1.00  0.00     0.029 A 
ATOM     44  N   UNL A   1      41.959  29.209  33.112  1.00  0.00    -0.354 N 
ATOM     45  C   UNL A   1      38.692  31.213  31.109  1.00  0.00     0.074 A 
ATOM     46  C   UNL A   1      38.466  30.656  29.793  1.00  0.00     0.031 C 
ATOM     47  C   UNL A   1      43.644  27.753  33.314  1.00  0.00     0.029 A 
ATOM     48  C   UNL A   1      42.958  28.852  33.987  1.00  0.00     0.049 A 
ATOM     49  H   UNL A   1      41.311  29.926  33.299  1.00  0.00     0.167 HD
ATOM     50  C   UNL A   1      37.966  32.224  31.645  1.00  0.00     0.037 A 
ATOM     51  C   UNL A   1      43.291  29.357  35.190  1.00  0.00     0.037 A 
ATOM     52  C   UNL A   1      38.185  32.761  32.962  1.00  0.00     0.049 A 
ATOM     53  C   UNL A   1      42.476  30.486  35.762  1.00  0.00     0.074 A 
ATOM     54  C   UNL A   1      37.470  33.748  33.618  1.00  0.00     0.029 A 
ATOM     55  N   UNL A   1      39.195  32.361  33.825  1.00  0.00    -0.354 N 
ATOM     56  N   UNL A   1      41.445  31.105  35.239  1.00  0.00    -0.248 NA
ATOM     57  C   UNL A   1      42.863  30.980  37.090  1.00  0.00     0.031 C 
ATOM     58  C   UNL A   1      38.078  33.981  34.856  1.00  0.00     0.029 A 
ATOM     59  C   UNL A   1      39.137  33.097  34.998  1.00  0.00     0.049 A 
ATOM     60  H   UNL A   1      39.856  31.656  33.634  1.00  0.00     0.167 HD
ATOM     61  C   UNL A   1      41.042  32.043  36.185  1.00  0.00     0.074 A 
ATOM     62  C   UNL A   1      41.933  31.898  37.317  1.00  0.00     0.031 C 
ATOM     63  C   UNL A   1      40.027  32.939  36.121  1.00  0.00     0.037 A 
BRANCH  50  64
ATOM     64  C   UNL A   1      36.865  32.814  30.805  1.00  0.00     0.058 A 
ATOM     65  C   UNL A   1      37.110  33.853  29.891  1.00  0.00     0.135 A 
ATOM     66  C   UNL A   1      35.556  32.312  30.885  1.00  0.00     0.135 A 
ATOM     67  F   UNL A   1      38.338  34.384  29.783  1.00  0.00    -0.206 F 
ATOM     68  C   UNL A   1      36.091  34.395  29.114  1.00  0.00     0.059 A 
ATOM     69  C   UNL A   1      34.528  32.817  30.094  1.00  0.00     0.059 A 
ATOM     70  F   UNL A   1      35.265  31.318  31.741  1.00  0.00    -0.206 F 
ATOM     71  C   UNL A   1      34.803  33.869  29.222  1.00  0.00     0.060 A 
BRANCH  71  72
ATOM     72  S   UNL A   1      33.494  34.581  28.203  1.00  0.00     0.124 S 
ATOM     73  O   UNL A   1      34.269  35.314  27.206  1.00  0.00    -0.237 OA
ATOM     74  O   UNL A   1      32.798  33.394  27.717  1.00  0.00    -0.237 OA
ATOM     75  O   UNL A   1      32.742  35.406  29.143  1.00  0.00    -0.744 OA
ENDBRANCH  71  72
ENDBRANCH  50  64
BRANCH  51  76
ATOM     76  C   UNL A   1      44.440  28.785  35.946  1.00  0.00     0.058 A 
ATOM     77  C   UNL A   1      45.735  29.300  35.792  1.00  0.00     0.135 A 
ATOM     78  C   UNL A   1      44.263  27.721  36.844  1.00  0.00     0.135 A 
ATOM     79  F   UNL A   1      45.958  30.313  34.940  1.00  0.00    -0.206 F 
ATOM     80  C   UNL A   1      46.818  28.770  36.486  1.00  0.00     0.059 A 
ATOM     81  C   UNL A   1      45.326  27.192  37.571  1.00  0.00     0.059 A 
ATOM     82  F   UNL A   1      43.041  27.203  37.041  1.00  0.00    -0.206 F 
ATOM     83  C   UNL A   1      46.602  27.717  37.376  1.00  0.00     0.060 A 
BRANCH  83  84
ATOM     84  S   UNL A   1      48.008  27.068  38.307  1.00  0.00     0.124 S 
ATOM     85  O   UNL A   1      49.069  27.117  37.308  1.00  0.00    -0.237 OA
ATOM     86  O   UNL A   1      48.116  28.026  39.403  1.00  0.00    -0.237 OA
ATOM     87  O   UNL A   1      47.565  25.732  38.694  1.00  0.00    -0.744 OA
ENDBRANCH  83  84
ENDBRANCH  51  76
BRANCH  63  88
ATOM     88  C   UNL A   1      39.796  33.812  37.325  1.00  0.00     0.058 A 
ATOM     89  C   UNL A   1      40.335  35.105  37.417  1.00  0.00     0.135 A 
ATOM     90  C   UNL A   1      38.980  33.366  38.378  1.00  0.00     0.135 A 
ATOM     91  F   UNL A   1      41.127  35.578  36.443  1.00  0.00    -0.206 F 
ATOM     92  C   UNL A   1      40.095  35.914  38.524  1.00  0.00     0.059 A 
ATOM     93  C   UNL A   1      38.700  34.170  39.479  1.00  0.00     0.059 A 
ATOM     94  F   UNL A   1      38.429  32.142  38.336  1.00  0.00    -0.206 F 
ATOM     95  C   UNL A   1      39.274  35.439  39.549  1.00  0.00     0.060 A 
BRANCH  95  96
ATOM     96  S   UNL A   1      38.945  36.513  40.961  1.00  0.00     0.124 S 
ATOM     97  O   UNL A   1      38.529  37.746  40.302  1.00  0.00    -0.237 OA
ATOM     98  O   UNL A   1      37.894  35.786  41.668  1.00  0.00    -0.237 OA
ATOM     99  O   UNL A   1      40.230  36.572  41.651  1.00  0.00    -0.744 OA
ENDBRANCH  95  96
ENDBRANCH  63  88
ENDBRANCH  37  38
ENDBRANCH  29  32
ENDBRANCH  27  28
ENDBRANCH  26  27
ENDBRANCH   1  26
TORSDOF 18
ENDMDL
