MODEL 1
REMARK VINA RESULT:     -12.8      0.000      0.000
REMARK SMILES C[C@@H](C(=O)NCCCCNC(=O)c1ccc(-c2c3nc(c(-c4c(F)cc(S(=O)(=O)[O-])cc4F)c4ccc([nH]4)c(-c4c(F)cc(S(=O)(=O)[O-])cc4F)c4nc(c(-c5c(F)cc(S(=O)(=O)[O-])cc5F)c5ccc2[nH]5)C=C4)C=C3)cc1)c1ccc2c3cc(Cl)ccc3n(C(=O)c3ccc(Cl)cc3)c2c1
REMARK SMILES IDX 7 1 6 2 5 3 3 4 4 5 2 7 1 8 79 9 80 10 101 11 81 12 100 13
REMARK SMILES IDX 82 14 90 15 83 16 89 17 84 18 88 19 85 20 87 21 86 22 91 23
REMARK SMILES IDX 92 24 93 25 94 26 99 27 95 28 98 29 96 30 97 31 8 32 9 33
REMARK SMILES IDX 10 34 11 35 12 37 13 38 14 39 78 40 15 41 77 42 16 43 17 44
REMARK SMILES IDX 18 45 71 46 19 47 76 48 70 49 72 50 20 51 75 52 69 53 68 54
REMARK SMILES IDX 21 56 55 57 34 58 54 59 35 60 38 61 53 62 73 63 36 64 37 65
REMARK SMILES IDX 52 67 74 68 39 69 22 70 23 71 32 72 24 73 25 74 31 75 33 76
REMARK SMILES IDX 26 77 27 78 28 79 29 80 30 81 56 82 57 83 66 84 58 85 59 86
REMARK SMILES IDX 65 87 67 88 60 89 61 90 62 91 63 92 64 93 40 94 41 95 50 96
REMARK SMILES IDX 42 97 43 98 49 99 51 100 44 101 45 102 46 103 47 104 48 105
REMARK H PARENT 5 6 10 36 72 55 38 66
REMARK Flexibility Score: inf
ROOT
ATOM      1  C   UNL A   1      44.238  22.368  26.048  1.00  0.00     0.023 C 
ENDROOT
BRANCH   1   2
ATOM      2  C   UNL A   1      42.757  22.191  25.705  1.00  0.00     0.116 C 
BRANCH   2   3
ATOM      3  N   UNL A   1      42.036  21.631  26.826  1.00  0.00    -0.356 N 
ATOM      4  C   UNL A   1      40.755  21.856  27.238  1.00  0.00     0.227 C 
ATOM      5  O   UNL A   1      40.423  21.344  28.309  1.00  0.00    -0.274 OA
ATOM      6  H   UNL A   1      42.545  20.991  27.373  1.00  0.00     0.163 HD
BRANCH   4   7
ATOM      7  C   UNL A   1      39.802  22.661  26.342  1.00  0.00     0.105 C 
ATOM      8  C   UNL A   1      39.188  23.893  27.013  1.00  0.00     0.023 C 
BRANCH   7   9
ATOM      9  C   UNL A   1      38.642  21.843  25.789  1.00  0.00    -0.034 A 
ATOM     10  C   UNL A   1      38.828  20.537  25.332  1.00  0.00     0.005 A 
ATOM     11  C   UNL A   1      37.350  22.383  25.844  1.00  0.00     0.032 A 
ATOM     12  C   UNL A   1      37.738  19.744  24.980  1.00  0.00     0.011 A 
ATOM     13  C   UNL A   1      36.252  21.600  25.435  1.00  0.00     0.057 A 
ATOM     14  C   UNL A   1      36.434  20.276  25.056  1.00  0.00     0.008 A 
ATOM     15  N   UNL A   1      34.883  21.906  25.357  1.00  0.00    -0.276 N 
ATOM     16  C   UNL A   1      35.156  19.732  24.788  1.00  0.00     0.009 A 
ATOM     17  C   UNL A   1      34.217  20.771  24.867  1.00  0.00     0.057 A 
ATOM     18  C   UNL A   1      34.753  18.434  24.411  1.00  0.00     0.031 A 
ATOM     19  C   UNL A   1      32.903  20.558  24.406  1.00  0.00     0.029 A 
ATOM     20  C   UNL A   1      33.438  18.216  24.023  1.00  0.00     0.041 A 
ATOM     21  C   UNL A   1      32.533  19.269  23.988  1.00  0.00     0.023 A 
ATOM     22  Cl  UNL A   1      32.953  16.638  23.539  1.00  0.00    -0.084 Cl
BRANCH  15  23
ATOM     23  C   UNL A   1      34.366  23.195  25.678  1.00  0.00     0.262 C 
ATOM     24  O   UNL A   1      33.959  23.334  26.834  1.00  0.00    -0.268 OA
BRANCH  23  25
ATOM     25  C   UNL A   1      34.183  24.401  24.818  1.00  0.00     0.040 A 
ATOM     26  C   UNL A   1      34.214  25.651  25.477  1.00  0.00     0.015 A 
ATOM     27  C   UNL A   1      33.833  24.374  23.466  1.00  0.00     0.015 A 
ATOM     28  C   UNL A   1      33.913  26.840  24.810  1.00  0.00     0.021 A 
ATOM     29  C   UNL A   1      33.561  25.575  22.785  1.00  0.00     0.021 A 
ATOM     30  C   UNL A   1      33.594  26.797  23.460  1.00  0.00     0.041 A 
ATOM     31  Cl  UNL A   1      33.206  28.255  22.633  1.00  0.00    -0.084 Cl
ENDBRANCH  23  25
ENDBRANCH  15  23
ENDBRANCH   7   9
ENDBRANCH   4   7
ENDBRANCH   2   3
ENDBRANCH   1   2
BRANCH   1  32
ATOM     32  C   UNL A   1      44.502  23.281  27.246  1.00  0.00     0.023 C 
BRANCH  32  33
ATOM     33  C   UNL A   1      44.771  24.733  26.887  1.00  0.00     0.116 C 
BRANCH  33  34
ATOM     34  N   UNL A   1      44.002  25.167  25.733  1.00  0.00    -0.352 N 
ATOM     35  C   UNL A   1      42.934  26.027  25.686  1.00  0.00     0.251 C 
ATOM     36  H   UNL A   1      44.286  24.794  24.867  1.00  0.00     0.163 HD
ATOM     37  O   UNL A   1      42.295  26.150  24.650  1.00  0.00    -0.269 OA
BRANCH  35  38
ATOM     38  C   UNL A   1      42.554  26.781  26.900  1.00  0.00     0.039 A 
ATOM     39  C   UNL A   1      43.035  28.082  27.062  1.00  0.00     0.014 A 
ATOM     40  C   UNL A   1      41.732  26.207  27.875  1.00  0.00     0.014 A 
ATOM     41  C   UNL A   1      42.674  28.812  28.194  1.00  0.00     0.010 A 
ATOM     42  C   UNL A   1      41.297  26.971  28.952  1.00  0.00     0.010 A 
ATOM     43  C   UNL A   1      41.792  28.269  29.142  1.00  0.00    -0.014 A 
BRANCH  43  44
ATOM     44  C   UNL A   1      41.429  29.022  30.369  1.00  0.00     0.031 A 
ATOM     45  C   UNL A   1      42.254  28.854  31.620  1.00  0.00     0.074 A 
ATOM     46  C   UNL A   1      40.353  29.832  30.367  1.00  0.00     0.049 A 
ATOM     47  N   UNL A   1      42.106  29.421  32.790  1.00  0.00    -0.248 NA
ATOM     48  C   UNL A   1      43.376  27.901  31.559  1.00  0.00     0.031 C 
ATOM     49  C   UNL A   1      39.451  30.038  29.232  1.00  0.00     0.029 A 
ATOM     50  N   UNL A   1      39.839  30.638  31.350  1.00  0.00    -0.354 N 
ATOM     51  C   UNL A   1      43.098  28.882  33.601  1.00  0.00     0.074 A 
ATOM     52  C   UNL A   1      43.801  27.896  32.811  1.00  0.00     0.031 C 
ATOM     53  C   UNL A   1      38.519  30.942  29.571  1.00  0.00     0.029 A 
ATOM     54  C   UNL A   1      38.734  31.355  30.954  1.00  0.00     0.049 A 
ATOM     55  H   UNL A   1      40.223  30.698  32.254  1.00  0.00     0.167 HD
ATOM     56  C   UNL A   1      43.415  29.201  34.878  1.00  0.00     0.037 A 
ATOM     57  C   UNL A   1      37.986  32.249  31.630  1.00  0.00     0.037 A 
ATOM     58  C   UNL A   1      42.728  30.206  35.646  1.00  0.00     0.049 A 
ATOM     59  C   UNL A   1      38.365  32.595  33.045  1.00  0.00     0.074 A 
ATOM     60  C   UNL A   1      43.007  30.651  36.926  1.00  0.00     0.029 A 
ATOM     61  N   UNL A   1      41.625  30.922  35.205  1.00  0.00    -0.354 N 
ATOM     62  N   UNL A   1      39.352  32.128  33.776  1.00  0.00    -0.248 NA
ATOM     63  C   UNL A   1      37.541  33.603  33.724  1.00  0.00     0.031 C 
ATOM     64  C   UNL A   1      42.039  31.596  37.279  1.00  0.00     0.029 A 
ATOM     65  C   UNL A   1      41.197  31.791  36.195  1.00  0.00     0.049 A 
ATOM     66  H   UNL A   1      41.207  30.826  34.318  1.00  0.00     0.167 HD
ATOM     67  C   UNL A   1      39.292  32.818  34.982  1.00  0.00     0.074 A 
ATOM     68  C   UNL A   1      38.176  33.737  34.880  1.00  0.00     0.031 C 
ATOM     69  C   UNL A   1      40.093  32.709  36.072  1.00  0.00     0.037 A 
BRANCH  56  70
ATOM     70  C   UNL A   1      44.550  28.450  35.526  1.00  0.00     0.058 A 
ATOM     71  C   UNL A   1      44.350  27.229  36.191  1.00  0.00     0.135 A 
ATOM     72  C   UNL A   1      45.861  28.949  35.459  1.00  0.00     0.135 A 
ATOM     73  F   UNL A   1      43.116  26.712  36.301  1.00  0.00    -0.206 F 
ATOM     74  C   UNL A   1      45.401  26.549  36.798  1.00  0.00     0.059 A 
ATOM     75  C   UNL A   1      46.932  28.268  36.029  1.00  0.00     0.059 A 
ATOM     76  F   UNL A   1      46.112  30.112  34.838  1.00  0.00    -0.206 F 
ATOM     77  C   UNL A   1      46.690  27.078  36.711  1.00  0.00     0.060 A 
BRANCH  77  78
ATOM     78  S   UNL A   1      48.043  26.182  37.503  1.00  0.00     0.124 S 
ATOM     79  O   UNL A   1      47.625  24.797  37.314  1.00  0.00    -0.237 OA
ATOM     80  O   UNL A   1      49.199  26.607  36.719  1.00  0.00    -0.237 OA
ATOM     81  O   UNL A   1      48.012  26.665  38.880  1.00  0.00    -0.744 OA
ENDBRANCH  77  78
ENDBRANCH  56  70
BRANCH  57  82
ATOM     82  C   UNL A   1      36.837  32.917  30.961  1.00  0.00     0.058 A 
ATOM     83  C   UNL A   1      35.514  32.574  31.283  1.00  0.00     0.135 A 
ATOM     84  C   UNL A   1      37.034  33.913  29.992  1.00  0.00     0.135 A 
ATOM     85  F   UNL A   1      35.274  31.625  32.201  1.00  0.00    -0.206 F 
ATOM     86  C   UNL A   1      34.430  33.175  30.654  1.00  0.00     0.059 A 
ATOM     87  C   UNL A   1      35.965  34.550  29.370  1.00  0.00     0.059 A 
ATOM     88  F   UNL A   1      38.277  34.293  29.661  1.00  0.00    -0.206 F 
ATOM     89  C   UNL A   1      34.667  34.165  29.699  1.00  0.00     0.060 A 
BRANCH  89  90
ATOM     90  S   UNL A   1      33.249  34.967  28.918  1.00  0.00     0.124 S 
ATOM     91  O   UNL A   1      32.747  33.903  28.056  1.00  0.00    -0.237 OA
ATOM     92  O   UNL A   1      32.417  35.305  30.068  1.00  0.00    -0.237 OA
ATOM     93  O   UNL A   1      33.846  36.107  28.230  1.00  0.00    -0.744 OA
ENDBRANCH  89  90
ENDBRANCH  57  82
BRANCH  69  94
ATOM     94  C   UNL A   1      39.835  33.652  37.218  1.00  0.00     0.058 A 
ATOM     95  C   UNL A   1      38.911  33.363  38.232  1.00  0.00     0.135 A 
ATOM     96  C   UNL A   1      40.555  34.855  37.311  1.00  0.00     0.135 A 
ATOM     97  F   UNL A   1      38.194  32.228  38.192  1.00  0.00    -0.206 F 
ATOM     98  C   UNL A   1      38.676  34.253  39.276  1.00  0.00     0.059 A 
ATOM     99  C   UNL A   1      40.363  35.742  38.365  1.00  0.00     0.059 A 
ATOM    100  F   UNL A   1      41.465  35.175  36.378  1.00  0.00    -0.206 F 
ATOM    101  C   UNL A   1      39.405  35.442  39.332  1.00  0.00     0.060 A 
BRANCH 101 102
ATOM    102  S   UNL A   1      39.095  36.587  40.692  1.00  0.00     0.124 S 
ATOM    103  O   UNL A   1      40.443  36.798  41.209  1.00  0.00    -0.237 OA
ATOM    104  O   UNL A   1      38.492  37.727  40.010  1.00  0.00    -0.237 OA
ATOM    105  O   UNL A   1      38.197  35.840  41.567  1.00  0.00    -0.744 OA
ENDBRANCH 101 102
ENDBRANCH  69  94
ENDBRANCH  43  44
ENDBRANCH  35  38
ENDBRANCH  33  34
ENDBRANCH  32  33
ENDBRANCH   1  32
TORSDOF 17
ENDMDL
MODEL 2
REMARK VINA RESULT:     -12.2      6.383     11.504
REMARK SMILES C[C@@H](C(=O)NCCCCNC(=O)c1ccc(-c2c3nc(c(-c4c(F)cc(S(=O)(=O)[O-])cc4F)c4ccc([nH]4)c(-c4c(F)cc(S(=O)(=O)[O-])cc4F)c4nc(c(-c5c(F)cc(S(=O)(=O)[O-])cc5F)c5ccc2[nH]5)C=C4)C=C3)cc1)c1ccc2c3cc(Cl)ccc3n(C(=O)c3ccc(Cl)cc3)c2c1
REMARK SMILES IDX 7 1 6 2 5 3 3 4 4 5 2 7 1 8 79 9 80 10 101 11 81 12 100 13
REMARK SMILES IDX 82 14 90 15 83 16 89 17 84 18 88 19 85 20 87 21 86 22 91 23
REMARK SMILES IDX 92 24 93 25 94 26 99 27 95 28 98 29 96 30 97 31 8 32 9 33
REMARK SMILES IDX 10 34 11 35 12 37 13 38 14 39 78 40 15 41 77 42 16 43 17 44
REMARK SMILES IDX 18 45 71 46 19 47 76 48 70 49 72 50 20 51 75 52 69 53 68 54
REMARK SMILES IDX 21 56 55 57 34 58 54 59 35 60 38 61 53 62 73 63 36 64 37 65
REMARK SMILES IDX 52 67 74 68 39 69 22 70 23 71 32 72 24 73 25 74 31 75 33 76
REMARK SMILES IDX 26 77 27 78 28 79 29 80 30 81 56 82 57 83 66 84 58 85 59 86
REMARK SMILES IDX 65 87 67 88 60 89 61 90 62 91 63 92 64 93 40 94 41 95 50 96
REMARK SMILES IDX 42 97 43 98 49 99 51 100 44 101 45 102 46 103 47 104 48 105
REMARK H PARENT 5 6 10 36 72 55 38 66
REMARK Flexibility Score: inf
ROOT
ATOM      1  C   UNL A   1      33.917  28.933  27.227  1.00  0.00     0.023 C 
ENDROOT
BRANCH   1   2
ATOM      2  C   UNL A   1      33.474  27.697  26.440  1.00  0.00     0.116 C 
BRANCH   2   3
ATOM      3  N   UNL A   1      32.175  27.245  26.886  1.00  0.00    -0.356 N 
ATOM      4  C   UNL A   1      31.239  26.501  26.230  1.00  0.00     0.227 C 
ATOM      5  O   UNL A   1      30.152  26.361  26.794  1.00  0.00    -0.274 OA
ATOM      6  H   UNL A   1      31.930  27.515  27.801  1.00  0.00     0.163 HD
BRANCH   4   7
ATOM      7  C   UNL A   1      31.599  25.843  24.890  1.00  0.00     0.105 C 
ATOM      8  C   UNL A   1      30.533  25.994  23.801  1.00  0.00     0.023 C 
BRANCH   7   9
ATOM      9  C   UNL A   1      31.901  24.354  24.999  1.00  0.00    -0.034 A 
ATOM     10  C   UNL A   1      30.906  23.434  25.335  1.00  0.00     0.005 A 
ATOM     11  C   UNL A   1      33.180  23.898  24.649  1.00  0.00     0.032 A 
ATOM     12  C   UNL A   1      31.153  22.064  25.275  1.00  0.00     0.011 A 
ATOM     13  C   UNL A   1      33.446  22.514  24.643  1.00  0.00     0.057 A 
ATOM     14  C   UNL A   1      32.431  21.601  24.902  1.00  0.00     0.008 A 
ATOM     15  N   UNL A   1      34.629  21.807  24.371  1.00  0.00    -0.276 N 
ATOM     16  C   UNL A   1      32.976  20.305  24.739  1.00  0.00     0.009 A 
ATOM     17  C   UNL A   1      34.355  20.438  24.522  1.00  0.00     0.057 A 
ATOM     18  C   UNL A   1      32.389  19.026  24.836  1.00  0.00     0.031 A 
ATOM     19  C   UNL A   1      35.181  19.297  24.571  1.00  0.00     0.029 A 
ATOM     20  C   UNL A   1      33.203  17.902  24.814  1.00  0.00     0.041 A 
ATOM     21  C   UNL A   1      34.582  18.035  24.717  1.00  0.00     0.023 A 
ATOM     22  Cl  UNL A   1      32.489  16.343  24.958  1.00  0.00    -0.084 Cl
BRANCH  15  23
ATOM     23  C   UNL A   1      35.860  22.459  24.071  1.00  0.00     0.262 C 
ATOM     24  O   UNL A   1      36.003  22.817  22.899  1.00  0.00    -0.268 OA
BRANCH  23  25
ATOM     25  C   UNL A   1      37.043  22.735  24.940  1.00  0.00     0.040 A 
ATOM     26  C   UNL A   1      37.933  21.657  25.147  1.00  0.00     0.015 A 
ATOM     27  C   UNL A   1      37.240  23.906  25.675  1.00  0.00     0.015 A 
ATOM     28  C   UNL A   1      38.993  21.744  26.050  1.00  0.00     0.021 A 
ATOM     29  C   UNL A   1      38.328  24.006  26.561  1.00  0.00     0.021 A 
ATOM     30  C   UNL A   1      39.192  22.925  26.750  1.00  0.00     0.041 A 
ATOM     31  Cl  UNL A   1      40.485  23.036  27.878  1.00  0.00    -0.084 Cl
ENDBRANCH  23  25
ENDBRANCH  15  23
ENDBRANCH   7   9
ENDBRANCH   4   7
ENDBRANCH   2   3
ENDBRANCH   1   2
BRANCH   1  32
ATOM     32  C   UNL A   1      35.428  29.173  27.222  1.00  0.00     0.023 C 
BRANCH  32  33
ATOM     33  C   UNL A   1      35.870  30.433  27.949  1.00  0.00     0.116 C 
BRANCH  33  34
ATOM     34  N   UNL A   1      35.721  30.318  29.390  1.00  0.00    -0.352 N 
ATOM     35  C   UNL A   1      36.632  29.869  30.314  1.00  0.00     0.251 C 
ATOM     36  H   UNL A   1      34.851  30.602  29.753  1.00  0.00     0.163 HD
ATOM     37  O   UNL A   1      36.282  29.677  31.471  1.00  0.00    -0.269 OA
BRANCH  35  38
ATOM     38  C   UNL A   1      38.023  29.599  29.893  1.00  0.00     0.039 A 
ATOM     39  C   UNL A   1      38.393  29.877  28.575  1.00  0.00     0.014 A 
ATOM     40  C   UNL A   1      38.956  29.070  30.790  1.00  0.00     0.014 A 
ATOM     41  C   UNL A   1      39.706  29.643  28.166  1.00  0.00     0.010 A 
ATOM     42  C   UNL A   1      40.285  28.928  30.406  1.00  0.00     0.010 A 
ATOM     43  C   UNL A   1      40.666  29.179  29.080  1.00  0.00    -0.014 A 
BRANCH  43  44
ATOM     44  C   UNL A   1      42.056  28.890  28.647  1.00  0.00     0.031 A 
ATOM     45  C   UNL A   1      42.420  27.505  28.178  1.00  0.00     0.074 A 
ATOM     46  C   UNL A   1      42.991  29.859  28.700  1.00  0.00     0.049 A 
ATOM     47  N   UNL A   1      43.573  27.051  27.757  1.00  0.00    -0.248 NA
ATOM     48  C   UNL A   1      41.357  26.486  28.211  1.00  0.00     0.031 C 
ATOM     49  C   UNL A   1      42.769  31.224  29.183  1.00  0.00     0.029 A 
ATOM     50  N   UNL A   1      44.313  29.846  28.337  1.00  0.00    -0.354 N 
ATOM     51  C   UNL A   1      43.377  25.700  27.496  1.00  0.00     0.074 A 
ATOM     52  C   UNL A   1      42.014  25.391  27.866  1.00  0.00     0.031 C 
ATOM     53  C   UNL A   1      43.906  31.926  29.049  1.00  0.00     0.029 A 
ATOM     54  C   UNL A   1      44.944  31.056  28.505  1.00  0.00     0.049 A 
ATOM     55  H   UNL A   1      44.769  29.045  27.991  1.00  0.00     0.167 HD
ATOM     56  C   UNL A   1      44.244  24.804  26.967  1.00  0.00     0.037 A 
ATOM     57  C   UNL A   1      46.213  31.423  28.242  1.00  0.00     0.037 A 
ATOM     58  C   UNL A   1      45.589  25.128  26.574  1.00  0.00     0.049 A 
ATOM     59  C   UNL A   1      47.155  30.412  27.644  1.00  0.00     0.074 A 
ATOM     60  C   UNL A   1      46.530  24.313  25.971  1.00  0.00     0.029 A 
ATOM     61  N   UNL A   1      46.186  26.369  26.744  1.00  0.00    -0.354 N 
ATOM     62  N   UNL A   1      46.933  29.154  27.336  1.00  0.00    -0.248 NA
ATOM     63  C   UNL A   1      48.516  30.872  27.341  1.00  0.00     0.031 C 
ATOM     64  C   UNL A   1      47.714  25.044  25.829  1.00  0.00     0.029 A 
ATOM     65  C   UNL A   1      47.490  26.336  26.278  1.00  0.00     0.049 A 
ATOM     66  H   UNL A   1      45.747  27.158  27.139  1.00  0.00     0.167 HD
ATOM     67  C   UNL A   1      48.112  28.689  26.763  1.00  0.00     0.074 A 
ATOM     68  C   UNL A   1      49.041  29.801  26.763  1.00  0.00     0.031 C 
ATOM     69  C   UNL A   1      48.398  27.456  26.272  1.00  0.00     0.037 A 
BRANCH  56  70
ATOM     70  C   UNL A   1      43.764  23.386  26.791  1.00  0.00     0.058 A 
ATOM     71  C   UNL A   1      43.718  22.478  27.861  1.00  0.00     0.135 A 
ATOM     72  C   UNL A   1      43.321  22.937  25.536  1.00  0.00     0.135 A 
ATOM     73  F   UNL A   1      44.145  22.845  29.080  1.00  0.00    -0.206 F 
ATOM     74  C   UNL A   1      43.286  21.167  27.687  1.00  0.00     0.059 A 
ATOM     75  C   UNL A   1      42.852  21.641  25.347  1.00  0.00     0.059 A 
ATOM     76  F   UNL A   1      43.343  23.761  24.476  1.00  0.00    -0.206 F 
ATOM     77  C   UNL A   1      42.855  20.758  26.424  1.00  0.00     0.060 A 
BRANCH  77  78
ATOM     78  S   UNL A   1      42.296  19.054  26.215  1.00  0.00     0.124 S 
ATOM     79  O   UNL A   1      42.412  18.540  27.576  1.00  0.00    -0.237 OA
ATOM     80  O   UNL A   1      40.934  19.231  25.719  1.00  0.00    -0.237 OA
ATOM     81  O   UNL A   1      43.243  18.500  25.252  1.00  0.00    -0.744 OA
ENDBRANCH  77  78
ENDBRANCH  56  70
BRANCH  57  82
ATOM     82  C   UNL A   1      46.654  32.822  28.493  1.00  0.00     0.058 A 
ATOM     83  C   UNL A   1      46.555  33.801  27.492  1.00  0.00     0.135 A 
ATOM     84  C   UNL A   1      47.178  33.211  29.735  1.00  0.00     0.135 A 
ATOM     85  F   UNL A   1      46.064  33.478  26.286  1.00  0.00    -0.206 F 
ATOM     86  C   UNL A   1      46.980  35.107  27.704  1.00  0.00     0.059 A 
ATOM     87  C   UNL A   1      47.582  34.519  29.981  1.00  0.00     0.059 A 
ATOM     88  F   UNL A   1      47.277  32.320  30.733  1.00  0.00    -0.206 F 
ATOM     89  C   UNL A   1      47.491  35.458  28.955  1.00  0.00     0.060 A 
BRANCH  89  90
ATOM     90  S   UNL A   1      48.002  37.168  29.230  1.00  0.00     0.124 S 
ATOM     91  O   UNL A   1      47.266  37.867  28.183  1.00  0.00    -0.237 OA
ATOM     92  O   UNL A   1      47.549  37.406  30.597  1.00  0.00    -0.237 OA
ATOM     93  O   UNL A   1      49.450  37.117  29.058  1.00  0.00    -0.744 OA
ENDBRANCH  89  90
ENDBRANCH  57  82
BRANCH  69  94
ATOM     94  C   UNL A   1      49.746  27.261  25.632  1.00  0.00     0.058 A 
ATOM     95  C   UNL A   1      50.898  26.981  26.382  1.00  0.00     0.135 A 
ATOM     96  C   UNL A   1      49.876  27.328  24.234  1.00  0.00     0.135 A 
ATOM     97  F   UNL A   1      50.832  26.907  27.721  1.00  0.00    -0.206 F 
ATOM     98  C   UNL A   1      52.139  26.817  25.774  1.00  0.00     0.059 A 
ATOM     99  C   UNL A   1      51.099  27.132  23.603  1.00  0.00     0.059 A 
ATOM    100  F   UNL A   1      48.804  27.577  23.466  1.00  0.00    -0.206 F 
ATOM    101  C   UNL A   1      52.230  26.898  24.383  1.00  0.00     0.060 A 
BRANCH 101 102
ATOM    102  S   UNL A   1      53.844  26.681  23.605  1.00  0.00     0.124 S 
ATOM    103  O   UNL A   1      54.432  28.004  23.777  1.00  0.00    -0.237 OA
ATOM    104  O   UNL A   1      54.436  25.614  24.406  1.00  0.00    -0.237 OA
ATOM    105  O   UNL A   1      53.512  26.314  22.232  1.00  0.00    -0.744 OA
ENDBRANCH 101 102
ENDBRANCH  69  94
ENDBRANCH  43  44
ENDBRANCH  35  38
ENDBRANCH  33  34
ENDBRANCH  32  33
ENDBRANCH   1  32
TORSDOF 17
ENDMDL
MODEL 3
REMARK VINA RESULT:     -12.1      6.277     11.902
REMARK SMILES C[C@@H](C(=O)NCCCCNC(=O)c1ccc(-c2c3nc(c(-c4c(F)cc(S(=O)(=O)[O-])cc4F)c4ccc([nH]4)c(-c4c(F)cc(S(=O)(=O)[O-])cc4F)c4nc(c(-c5c(F)cc(S(=O)(=O)[O-])cc5F)c5ccc2[nH]5)C=C4)C=C3)cc1)c1ccc2c3cc(Cl)ccc3n(C(=O)c3ccc(Cl)cc3)c2c1
REMARK SMILES IDX 7 1 6 2 5 3 3 4 4 5 2 7 1 8 79 9 80 10 101 11 81 12 100 13
REMARK SMILES IDX 82 14 90 15 83 16 89 17 84 18 88 19 85 20 87 21 86 22 91 23
REMARK SMILES IDX 92 24 93 25 94 26 99 27 95 28 98 29 96 30 97 31 8 32 9 33
REMARK SMILES IDX 10 34 11 35 12 37 13 38 14 39 78 40 15 41 77 42 16 43 17 44
REMARK SMILES IDX 18 45 71 46 19 47 76 48 70 49 72 50 20 51 75 52 69 53 68 54
REMARK SMILES IDX 21 56 55 57 34 58 54 59 35 60 38 61 53 62 73 63 36 64 37 65
REMARK SMILES IDX 52 67 74 68 39 69 22 70 23 71 32 72 24 73 25 74 31 75 33 76
REMARK SMILES IDX 26 77 27 78 28 79 29 80 30 81 56 82 57 83 66 84 58 85 59 86
REMARK SMILES IDX 65 87 67 88 60 89 61 90 62 91 63 92 64 93 40 94 41 95 50 96
REMARK SMILES IDX 42 97 43 98 49 99 51 100 44 101 45 102 46 103 47 104 48 105
REMARK H PARENT 5 6 10 36 72 55 38 66
REMARK Flexibility Score: inf
ROOT
ATOM      1  C   UNL A   1      33.868  30.715  27.192  1.00  0.00     0.023 C 
ENDROOT
BRANCH   1   2
ATOM      2  C   UNL A   1      34.082  29.200  27.230  1.00  0.00     0.116 C 
BRANCH   2   3
ATOM      3  N   UNL A   1      32.868  28.521  27.625  1.00  0.00    -0.356 N 
ATOM      4  C   UNL A   1      32.103  27.630  26.931  1.00  0.00     0.227 C 
ATOM      5  O   UNL A   1      31.038  27.296  27.453  1.00  0.00    -0.274 OA
ATOM      6  H   UNL A   1      32.545  28.735  28.530  1.00  0.00     0.163 HD
BRANCH   4   7
ATOM      7  C   UNL A   1      32.623  27.059  25.603  1.00  0.00     0.105 C 
ATOM      8  C   UNL A   1      31.816  27.479  24.371  1.00  0.00     0.023 C 
BRANCH   7   9
ATOM      9  C   UNL A   1      32.697  25.538  25.578  1.00  0.00    -0.034 A 
ATOM     10  C   UNL A   1      31.575  24.752  25.846  1.00  0.00     0.005 A 
ATOM     11  C   UNL A   1      33.892  24.928  25.171  1.00  0.00     0.032 A 
ATOM     12  C   UNL A   1      31.613  23.371  25.663  1.00  0.00     0.011 A 
ATOM     13  C   UNL A   1      33.946  23.526  25.040  1.00  0.00     0.057 A 
ATOM     14  C   UNL A   1      32.806  22.756  25.232  1.00  0.00     0.008 A 
ATOM     15  N   UNL A   1      35.009  22.676  24.690  1.00  0.00    -0.276 N 
ATOM     16  C   UNL A   1      33.148  21.413  24.948  1.00  0.00     0.009 A 
ATOM     17  C   UNL A   1      34.531  21.355  24.724  1.00  0.00     0.057 A 
ATOM     18  C   UNL A   1      32.375  20.233  24.941  1.00  0.00     0.031 A 
ATOM     19  C   UNL A   1      35.175  20.104  24.661  1.00  0.00     0.029 A 
ATOM     20  C   UNL A   1      33.010  19.006  24.809  1.00  0.00     0.041 A 
ATOM     21  C   UNL A   1      34.393  18.938  24.705  1.00  0.00     0.023 A 
ATOM     22  Cl  UNL A   1      32.069  17.565  24.826  1.00  0.00    -0.084 Cl
BRANCH  15  23
ATOM     23  C   UNL A   1      36.323  23.160  24.430  1.00  0.00     0.262 C 
ATOM     24  O   UNL A   1      36.490  23.690  23.328  1.00  0.00    -0.268 OA
BRANCH  23  25
ATOM     25  C   UNL A   1      37.562  23.080  25.260  1.00  0.00     0.040 A 
ATOM     26  C   UNL A   1      38.225  21.832  25.278  1.00  0.00     0.015 A 
ATOM     27  C   UNL A   1      38.010  24.081  26.126  1.00  0.00     0.015 A 
ATOM     28  C   UNL A   1      39.307  21.589  26.125  1.00  0.00     0.021 A 
ATOM     29  C   UNL A   1      39.122  23.847  26.956  1.00  0.00     0.021 A 
ATOM     30  C   UNL A   1      39.758  22.603  26.958  1.00  0.00     0.041 A 
ATOM     31  Cl  UNL A   1      41.080  22.308  28.017  1.00  0.00    -0.084 Cl
ENDBRANCH  23  25
ENDBRANCH  15  23
ENDBRANCH   7   9
ENDBRANCH   4   7
ENDBRANCH   2   3
ENDBRANCH   1   2
BRANCH   1  32
ATOM     32  C   UNL A   1      34.789  31.505  28.124  1.00  0.00     0.023 C 
BRANCH  32  33
ATOM     33  C   UNL A   1      36.024  30.746  28.583  1.00  0.00     0.116 C 
BRANCH  33  34
ATOM     34  N   UNL A   1      35.948  30.365  29.983  1.00  0.00    -0.352 N 
ATOM     35  C   UNL A   1      36.889  29.727  30.751  1.00  0.00     0.251 C 
ATOM     36  H   UNL A   1      35.109  30.596  30.443  1.00  0.00     0.163 HD
ATOM     37  O   UNL A   1      36.594  29.328  31.871  1.00  0.00    -0.269 OA
BRANCH  35  38
ATOM     38  C   UNL A   1      38.246  29.507  30.207  1.00  0.00     0.039 A 
ATOM     39  C   UNL A   1      38.437  29.585  28.826  1.00  0.00     0.014 A 
ATOM     40  C   UNL A   1      39.322  29.219  31.052  1.00  0.00     0.014 A 
ATOM     41  C   UNL A   1      39.714  29.395  28.297  1.00  0.00     0.010 A 
ATOM     42  C   UNL A   1      40.607  29.125  30.531  1.00  0.00     0.010 A 
ATOM     43  C   UNL A   1      40.812  29.177  29.145  1.00  0.00    -0.014 A 
BRANCH  43  44
ATOM     44  C   UNL A   1      42.168  28.937  28.591  1.00  0.00     0.031 A 
ATOM     45  C   UNL A   1      43.181  30.053  28.584  1.00  0.00     0.074 A 
ATOM     46  C   UNL A   1      42.480  27.732  28.076  1.00  0.00     0.049 A 
ATOM     47  N   UNL A   1      44.416  30.046  28.150  1.00  0.00    -0.248 NA
ATOM     48  C   UNL A   1      42.742  31.359  29.107  1.00  0.00     0.031 C 
ATOM     49  C   UNL A   1      41.568  26.589  27.983  1.00  0.00     0.029 A 
ATOM     50  N   UNL A   1      43.652  27.265  27.539  1.00  0.00    -0.354 N 
ATOM     51  C   UNL A   1      44.888  31.341  28.330  1.00  0.00     0.074 A 
ATOM     52  C   UNL A   1      43.791  32.123  28.852  1.00  0.00     0.031 C 
ATOM     53  C   UNL A   1      42.227  25.544  27.459  1.00  0.00     0.029 A 
ATOM     54  C   UNL A   1      43.594  25.948  27.148  1.00  0.00     0.049 A 
ATOM     55  H   UNL A   1      44.458  27.820  27.441  1.00  0.00     0.167 HD
ATOM     56  C   UNL A   1      46.133  31.828  28.109  1.00  0.00     0.037 A 
ATOM     57  C   UNL A   1      44.540  25.156  26.607  1.00  0.00     0.037 A 
ATOM     58  C   UNL A   1      47.227  31.034  27.619  1.00  0.00     0.049 A 
ATOM     59  C   UNL A   1      45.919  25.717  26.382  1.00  0.00     0.074 A 
ATOM     60  C   UNL A   1      48.543  31.411  27.418  1.00  0.00     0.029 A 
ATOM     61  N   UNL A   1      47.133  29.699  27.249  1.00  0.00    -0.354 N 
ATOM     62  N   UNL A   1      46.370  26.926  26.624  1.00  0.00    -0.248 NA
ATOM     63  C   UNL A   1      46.923  24.801  25.825  1.00  0.00     0.031 C 
ATOM     64  C   UNL A   1      49.232  30.321  26.876  1.00  0.00     0.029 A 
ATOM     65  C   UNL A   1      48.362  29.244  26.802  1.00  0.00     0.049 A 
ATOM     66  H   UNL A   1      46.313  29.156  27.298  1.00  0.00     0.167 HD
ATOM     67  C   UNL A   1      47.721  26.902  26.292  1.00  0.00     0.074 A 
ATOM     68  C   UNL A   1      48.012  25.557  25.836  1.00  0.00     0.031 C 
ATOM     69  C   UNL A   1      48.640  27.898  26.365  1.00  0.00     0.037 A 
BRANCH  56  70
ATOM     70  C   UNL A   1      46.372  33.289  28.392  1.00  0.00     0.058 A 
ATOM     71  C   UNL A   1      46.785  33.744  29.656  1.00  0.00     0.135 A 
ATOM     72  C   UNL A   1      46.209  34.245  27.377  1.00  0.00     0.135 A 
ATOM     73  F   UNL A   1      46.941  32.878  30.669  1.00  0.00    -0.206 F 
ATOM     74  C   UNL A   1      46.991  35.096  29.912  1.00  0.00     0.059 A 
ATOM     75  C   UNL A   1      46.443  35.598  27.602  1.00  0.00     0.059 A 
ATOM     76  F   UNL A   1      45.815  33.869  26.150  1.00  0.00    -0.206 F 
ATOM     77  C   UNL A   1      46.817  36.016  28.877  1.00  0.00     0.060 A 
BRANCH  77  78
ATOM     78  S   UNL A   1      47.089  37.766  29.226  1.00  0.00     0.124 S 
ATOM     79  O   UNL A   1      46.996  38.347  27.890  1.00  0.00    -0.237 OA
ATOM     80  O   UNL A   1      45.988  38.079  30.132  1.00  0.00    -0.237 OA
ATOM     81  O   UNL A   1      48.419  37.791  29.829  1.00  0.00    -0.744 OA
ENDBRANCH  77  78
ENDBRANCH  56  70
BRANCH  57  82
ATOM     82  C   UNL A   1      44.232  23.735  26.289  1.00  0.00     0.058 A 
ATOM     83  C   UNL A   1      44.607  22.702  27.161  1.00  0.00     0.135 A 
ATOM     84  C   UNL A   1      43.555  23.380  25.111  1.00  0.00     0.135 A 
ATOM     85  F   UNL A   1      45.259  22.989  28.298  1.00  0.00    -0.206 F 
ATOM     86  C   UNL A   1      44.344  21.368  26.869  1.00  0.00     0.059 A 
ATOM     87  C   UNL A   1      43.254  22.056  24.811  1.00  0.00     0.059 A 
ATOM     88  F   UNL A   1      43.157  24.330  24.251  1.00  0.00    -0.206 F 
ATOM     89  C   UNL A   1      43.664  21.055  25.691  1.00  0.00     0.060 A 
BRANCH  89  90
ATOM     90  S   UNL A   1      43.293  19.322  25.343  1.00  0.00     0.124 S 
ATOM     91  O   UNL A   1      43.784  19.184  23.977  1.00  0.00    -0.237 OA
ATOM     92  O   UNL A   1      44.063  18.632  26.372  1.00  0.00    -0.237 OA
ATOM     93  O   UNL A   1      41.844  19.251  25.503  1.00  0.00    -0.744 OA
ENDBRANCH  89  90
ENDBRANCH  57  82
BRANCH  69  94
ATOM     94  C   UNL A   1      50.062  27.557  26.009  1.00  0.00     0.058 A 
ATOM     95  C   UNL A   1      51.009  27.188  26.976  1.00  0.00     0.135 A 
ATOM     96  C   UNL A   1      50.471  27.572  24.665  1.00  0.00     0.135 A 
ATOM     97  F   UNL A   1      50.672  27.158  28.275  1.00  0.00    -0.206 F 
ATOM     98  C   UNL A   1      52.323  26.888  26.629  1.00  0.00     0.059 A 
ATOM     99  C   UNL A   1      51.770  27.241  24.292  1.00  0.00     0.059 A 
ATOM    100  F   UNL A   1      49.603  27.901  23.695  1.00  0.00    -0.206 F 
ATOM    101  C   UNL A   1      52.694  26.921  25.284  1.00  0.00     0.060 A 
BRANCH 101 102
ATOM    102  S   UNL A   1      54.400  26.528  24.845  1.00  0.00     0.124 S 
ATOM    103  O   UNL A   1      54.637  25.328  25.639  1.00  0.00    -0.237 OA
ATOM    104  O   UNL A   1      54.313  26.326  23.402  1.00  0.00    -0.237 OA
ATOM    105  O   UNL A   1      55.141  27.714  25.263  1.00  0.00    -0.744 OA
ENDBRANCH 101 102
ENDBRANCH  69  94
ENDBRANCH  43  44
ENDBRANCH  35  38
ENDBRANCH  33  34
ENDBRANCH  32  33
ENDBRANCH   1  32
TORSDOF 17
ENDMDL
