MODEL 1
REMARK VINA RESULT:     -11.8      0.000      0.000
REMARK SMILES Cc1cc(OC(F)(F)F)cc2c1O[C@@H](C(F)(F)F)C(C(=O)NCCCCNC(=O)c1ccc(-c3c4nc(c(-c5c(F)cc(S(=O)(=O)[O-])cc5F)c5ccc([nH]5)c(-c5c(F)cc(S(=O)(=O)[O-])cc5F)c5nc(c(-c6c(F)cc(S(=O)(=O)[O-])cc6F)c6ccc3[nH]6)C=C5)C=C4)cc1)=C2
REMARK SMILES IDX 25 1 24 2 23 3 22 4 20 5 21 6 19 8 1 9 2 10 3 11 12 12 4 13
REMARK SMILES IDX 11 14 13 15 10 16 96 17 14 18 5 19 6 20 7 21 8 22 9 23 15 24
REMARK SMILES IDX 16 25 17 26 18 27 26 28 27 29 28 30 29 32 30 33 31 34 95 35
REMARK SMILES IDX 32 36 94 37 33 38 34 39 35 40 88 41 36 42 93 43 87 44 89 45
REMARK SMILES IDX 37 46 92 47 86 48 85 49 38 51 72 52 51 53 71 54 52 55 55 56
REMARK SMILES IDX 70 57 90 58 53 59 54 60 69 62 91 63 56 64 39 65 40 66 49 67
REMARK SMILES IDX 41 68 42 69 48 70 50 71 43 72 44 73 45 74 46 75 47 76 73 77
REMARK SMILES IDX 74 78 83 79 75 80 76 81 82 82 84 83 77 84 78 85 79 86 80 87
REMARK SMILES IDX 81 88 57 89 58 90 67 91 59 92 60 93 66 94 68 95 61 96 62 97
REMARK SMILES IDX 63 98 64 99 65 100
REMARK H PARENT 22 7 27 31 89 50 55 61
REMARK Flexibility Score: inf
ROOT
ATOM      1  C   UNL A   1      35.163  23.072  25.201  1.00  0.00     0.023 C 
ENDROOT
BRANCH   1   2
ATOM      2  C   UNL A   1      34.119  22.577  26.205  1.00  0.00     0.023 C 
BRANCH   2   3
ATOM      3  C   UNL A   1      32.811  22.108  25.568  1.00  0.00     0.116 C 
BRANCH   3   4
ATOM      4  N   UNL A   1      31.680  22.358  26.439  1.00  0.00    -0.352 N 
ATOM      5  C   UNL A   1      30.865  23.410  26.689  1.00  0.00     0.251 C 
ATOM      6  O   UNL A   1      29.922  23.185  27.453  1.00  0.00    -0.270 OA
ATOM      7  H   UNL A   1      31.447  21.571  26.982  1.00  0.00     0.163 HD
BRANCH   5   8
ATOM      8  C   UNL A   1      31.034  24.776  26.116  1.00  0.00     0.067 C 
ATOM      9  C   UNL A   1      30.721  29.312  23.719  1.00  0.00     0.048 C 
ATOM     10  C   UNL A   1      31.666  28.684  24.704  1.00  0.00    -0.005 A 
ATOM     11  C   UNL A   1      32.839  29.359  25.085  1.00  0.00     0.054 A 
ATOM     12  C   UNL A   1      31.423  27.403  25.216  1.00  0.00     0.131 A 
ATOM     13  C   UNL A   1      33.737  28.782  25.986  1.00  0.00     0.130 A 
ATOM     14  C   UNL A   1      32.300  26.828  26.136  1.00  0.00     0.021 A 
ATOM     15  O   UNL A   1      30.287  26.753  24.809  1.00  0.00    -0.475 OA
ATOM     16  C   UNL A   1      33.454  27.518  26.516  1.00  0.00     0.058 A 
ATOM     17  C   UNL A   1      31.989  25.521  26.701  1.00  0.00     0.025 C 
ATOM     18  C   UNL A   1      30.329  25.297  24.893  1.00  0.00     0.314 C 
BRANCH  13  19
ATOM     19  O   UNL A   1      34.907  29.327  26.430  1.00  0.00    -0.406 OA
BRANCH  19  20
ATOM     20  C   UNL A   1      34.866  30.132  27.594  1.00  0.00     0.573 C 
ATOM     21  F   UNL A   1      35.654  31.221  27.466  1.00  0.00    -0.132 F 
ATOM     22  F   UNL A   1      33.603  30.520  27.874  1.00  0.00    -0.132 F 
ATOM     23  F   UNL A   1      35.322  29.407  28.640  1.00  0.00    -0.132 F 
ENDBRANCH  19  20
ENDBRANCH  13  19
BRANCH  18  24
ATOM     24  C   UNL A   1      30.854  24.704  23.575  1.00  0.00     0.429 C 
ATOM     25  F   UNL A   1      30.661  25.526  22.520  1.00  0.00    -0.167 F 
ATOM     26  F   UNL A   1      32.192  24.486  23.663  1.00  0.00    -0.167 F 
ATOM     27  F   UNL A   1      30.278  23.520  23.264  1.00  0.00    -0.167 F 
ENDBRANCH  18  24
ENDBRANCH   5   8
ENDBRANCH   3   4
ENDBRANCH   2   3
ENDBRANCH   1   2
BRANCH   1  28
ATOM     28  C   UNL A   1      36.455  23.588  25.823  1.00  0.00     0.116 C 
BRANCH  28  29
ATOM     29  N   UNL A   1      37.484  22.565  25.952  1.00  0.00    -0.352 N 
ATOM     30  C   UNL A   1      38.774  22.736  26.392  1.00  0.00     0.251 C 
ATOM     31  H   UNL A   1      37.224  21.650  25.698  1.00  0.00     0.163 HD
ATOM     32  O   UNL A   1      39.571  21.804  26.402  1.00  0.00    -0.269 OA
BRANCH  30  33
ATOM     33  C   UNL A   1      39.180  24.089  26.808  1.00  0.00     0.039 A 
ATOM     34  C   UNL A   1      39.038  24.450  28.148  1.00  0.00     0.014 A 
ATOM     35  C   UNL A   1      39.826  24.928  25.895  1.00  0.00     0.014 A 
ATOM     36  C   UNL A   1      39.611  25.638  28.595  1.00  0.00     0.010 A 
ATOM     37  C   UNL A   1      40.439  26.086  26.355  1.00  0.00     0.010 A 
ATOM     38  C   UNL A   1      40.345  26.444  27.709  1.00  0.00    -0.014 A 
BRANCH  38  39
ATOM     39  C   UNL A   1      41.018  27.673  28.183  1.00  0.00     0.031 A 
ATOM     40  C   UNL A   1      42.510  27.782  28.090  1.00  0.00     0.074 A 
ATOM     41  C   UNL A   1      40.288  28.663  28.734  1.00  0.00     0.049 A 
ATOM     42  N   UNL A   1      43.289  28.758  28.475  1.00  0.00    -0.248 NA
ATOM     43  C   UNL A   1      43.223  26.634  27.507  1.00  0.00     0.031 C 
ATOM     44  C   UNL A   1      38.834  28.645  28.912  1.00  0.00     0.029 A 
ATOM     45  N   UNL A   1      40.670  29.876  29.247  1.00  0.00    -0.354 N 
ATOM     46  C   UNL A   1      44.580  28.345  28.181  1.00  0.00     0.074 A 
ATOM     47  C   UNL A   1      44.487  27.007  27.637  1.00  0.00     0.031 C 
ATOM     48  C   UNL A   1      38.445  29.804  29.469  1.00  0.00     0.029 A 
ATOM     49  C   UNL A   1      39.621  30.637  29.706  1.00  0.00     0.049 A 
ATOM     50  H   UNL A   1      41.608  30.173  29.283  1.00  0.00     0.167 HD
ATOM     51  C   UNL A   1      45.739  29.030  28.322  1.00  0.00     0.037 A 
ATOM     52  C   UNL A   1      39.612  31.871  30.246  1.00  0.00     0.037 A 
ATOM     53  C   UNL A   1      45.823  30.366  28.844  1.00  0.00     0.049 A 
ATOM     54  C   UNL A   1      40.911  32.613  30.396  1.00  0.00     0.074 A 
ATOM     55  C   UNL A   1      46.944  31.160  29.003  1.00  0.00     0.029 A 
ATOM     56  N   UNL A   1      44.737  31.109  29.285  1.00  0.00    -0.354 N 
ATOM     57  N   UNL A   1      42.122  32.224  30.073  1.00  0.00    -0.248 NA
ATOM     58  C   UNL A   1      40.847  33.963  30.975  1.00  0.00     0.031 C 
ATOM     59  C   UNL A   1      46.538  32.379  29.559  1.00  0.00     0.029 A 
ATOM     60  C   UNL A   1      45.161  32.352  29.720  1.00  0.00     0.049 A 
ATOM     61  H   UNL A   1      43.803  30.798  29.287  1.00  0.00     0.167 HD
ATOM     62  C   UNL A   1      42.959  33.288  30.385  1.00  0.00     0.074 A 
ATOM     63  C   UNL A   1      42.118  34.339  30.923  1.00  0.00     0.031 C 
ATOM     64  C   UNL A   1      44.302  33.388  30.236  1.00  0.00     0.037 A 
BRANCH  51  65
ATOM     65  C   UNL A   1      46.999  28.344  27.885  1.00  0.00     0.058 A 
ATOM     66  C   UNL A   1      47.472  28.467  26.569  1.00  0.00     0.135 A 
ATOM     67  C   UNL A   1      47.742  27.562  28.782  1.00  0.00     0.135 A 
ATOM     68  F   UNL A   1      46.784  29.187  25.669  1.00  0.00    -0.206 F 
ATOM     69  C   UNL A   1      48.624  27.814  26.148  1.00  0.00     0.059 A 
ATOM     70  C   UNL A   1      48.911  26.916  28.388  1.00  0.00     0.059 A 
ATOM     71  F   UNL A   1      47.329  27.409  30.050  1.00  0.00    -0.206 F 
ATOM     72  C   UNL A   1      49.334  27.036  27.064  1.00  0.00     0.060 A 
BRANCH  72  73
ATOM     73  S   UNL A   1      50.821  26.184  26.500  1.00  0.00     0.124 S 
ATOM     74  O   UNL A   1      50.651  26.233  25.050  1.00  0.00    -0.237 OA
ATOM     75  O   UNL A   1      51.888  27.020  27.041  1.00  0.00    -0.237 OA
ATOM     76  O   UNL A   1      50.701  24.859  27.102  1.00  0.00    -0.744 OA
ENDBRANCH  72  73
ENDBRANCH  51  65
BRANCH  52  77
ATOM     77  C   UNL A   1      38.323  32.499  30.630  1.00  0.00     0.058 A 
ATOM     78  C   UNL A   1      37.584  33.240  29.696  1.00  0.00     0.135 A 
ATOM     79  C   UNL A   1      37.788  32.346  31.918  1.00  0.00     0.135 A 
ATOM     80  F   UNL A   1      38.059  33.416  28.454  1.00  0.00    -0.206 F 
ATOM     81  C   UNL A   1      36.361  33.812  30.025  1.00  0.00     0.059 A 
ATOM     82  C   UNL A   1      36.557  32.896  32.266  1.00  0.00     0.059 A 
ATOM     83  F   UNL A   1      38.451  31.632  32.841  1.00  0.00    -0.206 F 
ATOM     84  C   UNL A   1      35.853  33.631  31.312  1.00  0.00     0.060 A 
BRANCH  84  85
ATOM     85  S   UNL A   1      34.233  34.325  31.709  1.00  0.00     0.124 S 
ATOM     86  O   UNL A   1      33.706  33.332  32.636  1.00  0.00    -0.237 OA
ATOM     87  O   UNL A   1      34.587  35.617  32.289  1.00  0.00    -0.237 OA
ATOM     88  O   UNL A   1      33.571  34.392  30.410  1.00  0.00    -0.744 OA
ENDBRANCH  84  85
ENDBRANCH  52  77
BRANCH  64  89
ATOM     89  C   UNL A   1      44.955  34.680  30.629  1.00  0.00     0.058 A 
ATOM     90  C   UNL A   1      45.481  34.867  31.914  1.00  0.00     0.135 A 
ATOM     91  C   UNL A   1      45.154  35.691  29.677  1.00  0.00     0.135 A 
ATOM     92  F   UNL A   1      45.308  33.930  32.859  1.00  0.00    -0.206 F 
ATOM     93  C   UNL A   1      46.192  36.016  32.243  1.00  0.00     0.059 A 
ATOM     94  C   UNL A   1      45.876  36.841  29.978  1.00  0.00     0.059 A 
ATOM     95  F   UNL A   1      44.673  35.551  28.431  1.00  0.00    -0.206 F 
ATOM     96  C   UNL A   1      46.393  36.993  31.265  1.00  0.00     0.060 A 
BRANCH  96  97
ATOM     97  S   UNL A   1      47.391  38.440  31.678  1.00  0.00     0.124 S 
ATOM     98  O   UNL A   1      48.465  37.841  32.463  1.00  0.00    -0.237 OA
ATOM     99  O   UNL A   1      47.772  38.943  30.362  1.00  0.00    -0.237 OA
ATOM    100  O   UNL A   1      46.465  39.289  32.422  1.00  0.00    -0.744 OA
ENDBRANCH  96  97
ENDBRANCH  64  89
ENDBRANCH  38  39
ENDBRANCH  30  33
ENDBRANCH  28  29
ENDBRANCH   1  28
TORSDOF 17
ENDMDL
MODEL 2
REMARK VINA RESULT:     -11.8      2.454      3.097
REMARK SMILES Cc1cc(OC(F)(F)F)cc2c1O[C@@H](C(F)(F)F)C(C(=O)NCCCCNC(=O)c1ccc(-c3c4nc(c(-c5c(F)cc(S(=O)(=O)[O-])cc5F)c5ccc([nH]5)c(-c5c(F)cc(S(=O)(=O)[O-])cc5F)c5nc(c(-c6c(F)cc(S(=O)(=O)[O-])cc6F)c6ccc3[nH]6)C=C5)C=C4)cc1)=C2
REMARK SMILES IDX 25 1 24 2 23 3 22 4 20 5 21 6 19 8 1 9 2 10 3 11 12 12 4 13
REMARK SMILES IDX 11 14 13 15 10 16 96 17 14 18 5 19 6 20 7 21 8 22 9 23 15 24
REMARK SMILES IDX 16 25 17 26 18 27 26 28 27 29 28 30 29 32 30 33 31 34 95 35
REMARK SMILES IDX 32 36 94 37 33 38 34 39 35 40 88 41 36 42 93 43 87 44 89 45
REMARK SMILES IDX 37 46 92 47 86 48 85 49 38 51 72 52 51 53 71 54 52 55 55 56
REMARK SMILES IDX 70 57 90 58 53 59 54 60 69 62 91 63 56 64 39 65 40 66 49 67
REMARK SMILES IDX 41 68 42 69 48 70 50 71 43 72 44 73 45 74 46 75 47 76 73 77
REMARK SMILES IDX 74 78 83 79 75 80 76 81 82 82 84 83 77 84 78 85 79 86 80 87
REMARK SMILES IDX 81 88 57 89 58 90 67 91 59 92 60 93 66 94 68 95 61 96 62 97
REMARK SMILES IDX 63 98 64 99 65 100
REMARK H PARENT 22 7 27 31 89 50 55 61
REMARK Flexibility Score: inf
ROOT
ATOM      1  C   UNL A   1      35.731  23.004  24.883  1.00  0.00     0.023 C 
ENDROOT
BRANCH   1   2
ATOM      2  C   UNL A   1      34.574  22.949  25.884  1.00  0.00     0.023 C 
BRANCH   2   3
ATOM      3  C   UNL A   1      33.312  22.275  25.346  1.00  0.00     0.116 C 
BRANCH   3   4
ATOM      4  N   UNL A   1      32.206  22.407  26.274  1.00  0.00    -0.352 N 
ATOM      5  C   UNL A   1      31.309  23.374  26.578  1.00  0.00     0.251 C 
ATOM      6  O   UNL A   1      30.429  23.052  27.383  1.00  0.00    -0.270 OA
ATOM      7  H   UNL A   1      32.076  21.596  26.816  1.00  0.00     0.163 HD
BRANCH   5   8
ATOM      8  C   UNL A   1      31.319  24.756  26.018  1.00  0.00     0.067 C 
ATOM      9  C   UNL A   1      30.507  29.233  23.629  1.00  0.00     0.048 C 
ATOM     10  C   UNL A   1      31.487  28.725  24.649  1.00  0.00    -0.005 A 
ATOM     11  C   UNL A   1      32.544  29.545  25.080  1.00  0.00     0.054 A 
ATOM     12  C   UNL A   1      31.394  27.419  25.145  1.00  0.00     0.131 A 
ATOM     13  C   UNL A   1      33.473  29.083  26.016  1.00  0.00     0.130 A 
ATOM     14  C   UNL A   1      32.302  26.956  26.098  1.00  0.00     0.021 A 
ATOM     15  O   UNL A   1      30.371  26.629  24.689  1.00  0.00    -0.475 OA
ATOM     16  C   UNL A   1      33.338  27.788  26.528  1.00  0.00     0.058 A 
ATOM     17  C   UNL A   1      32.143  25.614  26.644  1.00  0.00     0.025 C 
ATOM     18  C   UNL A   1      30.601  25.191  24.769  1.00  0.00     0.314 C 
BRANCH  13  19
ATOM     19  O   UNL A   1      34.543  29.773  26.509  1.00  0.00    -0.406 OA
BRANCH  19  20
ATOM     20  C   UNL A   1      34.310  30.702  27.552  1.00  0.00     0.573 C 
ATOM     21  F   UNL A   1      34.817  30.263  28.724  1.00  0.00    -0.132 F 
ATOM     22  F   UNL A   1      34.838  31.910  27.257  1.00  0.00    -0.132 F 
ATOM     23  F   UNL A   1      32.975  30.857  27.707  1.00  0.00    -0.132 F 
ENDBRANCH  19  20
ENDBRANCH  13  19
BRANCH  18  24
ATOM     24  C   UNL A   1      31.253  24.683  23.471  1.00  0.00     0.429 C 
ATOM     25  F   UNL A   1      32.603  24.674  23.536  1.00  0.00    -0.167 F 
ATOM     26  F   UNL A   1      30.862  23.406  23.224  1.00  0.00    -0.167 F 
ATOM     27  F   UNL A   1      30.914  25.420  22.389  1.00  0.00    -0.167 F 
ENDBRANCH  18  24
ENDBRANCH   5   8
ENDBRANCH   3   4
ENDBRANCH   2   3
ENDBRANCH   1   2
BRANCH   1  28
ATOM     28  C   UNL A   1      36.985  23.704  25.392  1.00  0.00     0.116 C 
BRANCH  28  29
ATOM     29  N   UNL A   1      38.143  22.824  25.479  1.00  0.00    -0.352 N 
ATOM     30  C   UNL A   1      39.334  23.080  26.116  1.00  0.00     0.251 C 
ATOM     31  H   UNL A   1      38.063  21.951  25.034  1.00  0.00     0.163 HD
ATOM     32  O   UNL A   1      40.263  22.282  26.071  1.00  0.00    -0.269 OA
BRANCH  30  33
ATOM     33  C   UNL A   1      39.471  24.368  26.816  1.00  0.00     0.039 A 
ATOM     34  C   UNL A   1      38.972  24.482  28.114  1.00  0.00     0.014 A 
ATOM     35  C   UNL A   1      40.215  25.397  26.232  1.00  0.00     0.014 A 
ATOM     36  C   UNL A   1      39.281  25.615  28.863  1.00  0.00     0.010 A 
ATOM     37  C   UNL A   1      40.564  26.502  26.998  1.00  0.00     0.010 A 
ATOM     38  C   UNL A   1      40.108  26.614  28.321  1.00  0.00    -0.014 A 
BRANCH  38  39
ATOM     39  C   UNL A   1      40.502  27.790  29.127  1.00  0.00     0.031 A 
ATOM     40  C   UNL A   1      41.837  27.806  29.809  1.00  0.00     0.074 A 
ATOM     41  C   UNL A   1      39.641  28.815  29.275  1.00  0.00     0.049 A 
ATOM     42  N   UNL A   1      42.356  28.724  30.581  1.00  0.00    -0.248 NA
ATOM     43  C   UNL A   1      42.692  26.623  29.617  1.00  0.00     0.031 C 
ATOM     44  C   UNL A   1      38.300  28.888  28.690  1.00  0.00     0.029 A 
ATOM     45  N   UNL A   1      39.765  29.994  29.967  1.00  0.00    -0.354 N 
ATOM     46  C   UNL A   1      43.596  28.233  30.964  1.00  0.00     0.074 A 
ATOM     47  C   UNL A   1      43.730  26.913  30.388  1.00  0.00     0.031 C 
ATOM     48  C   UNL A   1      37.737  30.061  29.025  1.00  0.00     0.029 A 
ATOM     49  C   UNL A   1      38.666  30.813  29.863  1.00  0.00     0.049 A 
ATOM     50  H   UNL A   1      40.567  30.230  30.488  1.00  0.00     0.167 HD
ATOM     51  C   UNL A   1      44.552  28.841  31.705  1.00  0.00     0.037 A 
ATOM     52  C   UNL A   1      38.441  32.036  30.381  1.00  0.00     0.037 A 
ATOM     53  C   UNL A   1      44.421  30.161  32.258  1.00  0.00     0.049 A 
ATOM     54  C   UNL A   1      39.516  32.692  31.203  1.00  0.00     0.074 A 
ATOM     55  C   UNL A   1      45.340  30.879  33.001  1.00  0.00     0.029 A 
ATOM     56  N   UNL A   1      43.298  30.965  32.120  1.00  0.00    -0.354 N 
ATOM     57  N   UNL A   1      40.702  32.232  31.522  1.00  0.00    -0.248 NA
ATOM     58  C   UNL A   1      39.229  34.034  31.730  1.00  0.00     0.031 C 
ATOM     59  C   UNL A   1      44.766  32.112  33.328  1.00  0.00     0.029 A 
ATOM     60  C   UNL A   1      43.499  32.171  32.767  1.00  0.00     0.049 A 
ATOM     61  H   UNL A   1      42.479  30.714  31.634  1.00  0.00     0.167 HD
ATOM     62  C   UNL A   1      41.312  33.235  32.264  1.00  0.00     0.074 A 
ATOM     63  C   UNL A   1      40.365  34.329  32.349  1.00  0.00     0.031 C 
ATOM     64  C   UNL A   1      42.547  33.252  32.822  1.00  0.00     0.037 A 
BRANCH  51  65
ATOM     65  C   UNL A   1      45.825  28.083  31.938  1.00  0.00     0.058 A 
ATOM     66  C   UNL A   1      46.881  28.141  31.014  1.00  0.00     0.135 A 
ATOM     67  C   UNL A   1      45.996  27.297  33.086  1.00  0.00     0.135 A 
ATOM     68  F   UNL A   1      46.756  28.862  29.889  1.00  0.00    -0.206 F 
ATOM     69  C   UNL A   1      48.054  27.421  31.208  1.00  0.00     0.059 A 
ATOM     70  C   UNL A   1      47.171  26.585  33.312  1.00  0.00     0.059 A 
ATOM     71  F   UNL A   1      45.014  27.204  33.996  1.00  0.00    -0.206 F 
ATOM     72  C   UNL A   1      48.187  26.641  32.358  1.00  0.00     0.060 A 
BRANCH  72  73
ATOM     73  S   UNL A   1      49.711  25.702  32.590  1.00  0.00     0.124 S 
ATOM     74  O   UNL A   1      49.210  24.493  33.238  1.00  0.00    -0.237 OA
ATOM     75  O   UNL A   1      50.188  25.534  31.221  1.00  0.00    -0.237 OA
ATOM     76  O   UNL A   1      50.522  26.576  33.432  1.00  0.00    -0.744 OA
ENDBRANCH  72  73
ENDBRANCH  51  65
BRANCH  52  77
ATOM     77  C   UNL A   1      37.167  32.739  30.086  1.00  0.00     0.058 A 
ATOM     78  C   UNL A   1      36.027  32.508  30.870  1.00  0.00     0.135 A 
ATOM     79  C   UNL A   1      37.070  33.677  29.047  1.00  0.00     0.135 A 
ATOM     80  F   UNL A   1      36.073  31.617  31.871  1.00  0.00    -0.206 F 
ATOM     81  C   UNL A   1      34.832  33.176  30.631  1.00  0.00     0.059 A 
ATOM     82  C   UNL A   1      35.888  34.370  28.799  1.00  0.00     0.059 A 
ATOM     83  F   UNL A   1      38.139  33.944  28.281  1.00  0.00    -0.206 F 
ATOM     84  C   UNL A   1      34.773  34.110  29.595  1.00  0.00     0.060 A 
BRANCH  84  85
ATOM     85  S   UNL A   1      33.234  35.019  29.336  1.00  0.00     0.124 S 
ATOM     86  O   UNL A   1      33.729  36.315  28.892  1.00  0.00    -0.237 OA
ATOM     87  O   UNL A   1      32.567  34.207  28.321  1.00  0.00    -0.237 OA
ATOM     88  O   UNL A   1      32.607  34.997  30.653  1.00  0.00    -0.744 OA
ENDBRANCH  84  85
ENDBRANCH  52  77
BRANCH  64  89
ATOM     89  C   UNL A   1      42.968  34.493  33.550  1.00  0.00     0.058 A 
ATOM     90  C   UNL A   1      42.839  34.598  34.942  1.00  0.00     0.135 A 
ATOM     91  C   UNL A   1      43.608  35.535  32.863  1.00  0.00     0.135 A 
ATOM     92  F   UNL A   1      42.228  33.629  35.640  1.00  0.00    -0.206 F 
ATOM     93  C   UNL A   1      43.339  35.697  35.632  1.00  0.00     0.059 A 
ATOM     94  C   UNL A   1      44.130  36.635  33.534  1.00  0.00     0.059 A 
ATOM     95  F   UNL A   1      43.760  35.473  31.530  1.00  0.00    -0.206 F 
ATOM     96  C   UNL A   1      43.992  36.707  34.920  1.00  0.00     0.060 A 
BRANCH  96  97
ATOM     97  S   UNL A   1      44.713  38.085  35.837  1.00  0.00     0.124 S 
ATOM     98  O   UNL A   1      43.994  38.004  37.103  1.00  0.00    -0.237 OA
ATOM     99  O   UNL A   1      46.127  37.723  35.886  1.00  0.00    -0.237 OA
ATOM    100  O   UNL A   1      44.399  39.244  35.007  1.00  0.00    -0.744 OA
ENDBRANCH  96  97
ENDBRANCH  64  89
ENDBRANCH  38  39
ENDBRANCH  30  33
ENDBRANCH  28  29
ENDBRANCH   1  28
TORSDOF 17
ENDMDL
MODEL 3
REMARK VINA RESULT:     -11.8      3.219      8.941
REMARK SMILES Cc1cc(OC(F)(F)F)cc2c1O[C@@H](C(F)(F)F)C(C(=O)NCCCCNC(=O)c1ccc(-c3c4nc(c(-c5c(F)cc(S(=O)(=O)[O-])cc5F)c5ccc([nH]5)c(-c5c(F)cc(S(=O)(=O)[O-])cc5F)c5nc(c(-c6c(F)cc(S(=O)(=O)[O-])cc6F)c6ccc3[nH]6)C=C5)C=C4)cc1)=C2
REMARK SMILES IDX 25 1 24 2 23 3 22 4 20 5 21 6 19 8 1 9 2 10 3 11 12 12 4 13
REMARK SMILES IDX 11 14 13 15 10 16 96 17 14 18 5 19 6 20 7 21 8 22 9 23 15 24
REMARK SMILES IDX 16 25 17 26 18 27 26 28 27 29 28 30 29 32 30 33 31 34 95 35
REMARK SMILES IDX 32 36 94 37 33 38 34 39 35 40 88 41 36 42 93 43 87 44 89 45
REMARK SMILES IDX 37 46 92 47 86 48 85 49 38 51 72 52 51 53 71 54 52 55 55 56
REMARK SMILES IDX 70 57 90 58 53 59 54 60 69 62 91 63 56 64 39 65 40 66 49 67
REMARK SMILES IDX 41 68 42 69 48 70 50 71 43 72 44 73 45 74 46 75 47 76 73 77
REMARK SMILES IDX 74 78 83 79 75 80 76 81 82 82 84 83 77 84 78 85 79 86 80 87
REMARK SMILES IDX 81 88 57 89 58 90 67 91 59 92 60 93 66 94 68 95 61 96 62 97
REMARK SMILES IDX 63 98 64 99 65 100
REMARK H PARENT 22 7 27 31 89 50 55 61
REMARK Flexibility Score: inf
ROOT
ATOM      1  C   UNL A   1      34.017  28.512  25.646  1.00  0.00     0.023 C 
ENDROOT
BRANCH   1   2
ATOM      2  C   UNL A   1      32.900  28.883  24.666  1.00  0.00     0.023 C 
BRANCH   2   3
ATOM      3  C   UNL A   1      31.805  27.824  24.536  1.00  0.00     0.116 C 
BRANCH   3   4
ATOM      4  N   UNL A   1      31.593  27.451  23.152  1.00  0.00    -0.352 N 
ATOM      5  C   UNL A   1      31.687  26.308  22.433  1.00  0.00     0.251 C 
ATOM      6  O   UNL A   1      31.310  26.383  21.259  1.00  0.00    -0.270 OA
ATOM      7  H   UNL A   1      31.311  28.215  22.599  1.00  0.00     0.163 HD
BRANCH   5   8
ATOM      8  C   UNL A   1      32.202  25.010  22.955  1.00  0.00     0.067 C 
ATOM      9  C   UNL A   1      33.028  20.225  24.640  1.00  0.00     0.048 C 
ATOM     10  C   UNL A   1      33.890  21.419  24.338  1.00  0.00    -0.005 A 
ATOM     11  C   UNL A   1      35.267  21.382  24.619  1.00  0.00     0.054 A 
ATOM     12  C   UNL A   1      33.332  22.596  23.825  1.00  0.00     0.131 A 
ATOM     13  C   UNL A   1      36.080  22.489  24.361  1.00  0.00     0.130 A 
ATOM     14  C   UNL A   1      34.139  23.698  23.539  1.00  0.00     0.021 A 
ATOM     15  O   UNL A   1      31.983  22.616  23.584  1.00  0.00    -0.475 OA
ATOM     16  C   UNL A   1      35.508  23.641  23.809  1.00  0.00     0.058 A 
ATOM     17  C   UNL A   1      33.541  24.887  22.945  1.00  0.00     0.025 C 
ATOM     18  C   UNL A   1      31.361  23.936  23.591  1.00  0.00     0.314 C 
BRANCH  13  19
ATOM     19  O   UNL A   1      37.422  22.584  24.592  1.00  0.00    -0.406 OA
BRANCH  19  20
ATOM     20  C   UNL A   1      37.845  23.116  25.834  1.00  0.00     0.573 C 
ATOM     21  F   UNL A   1      38.635  22.245  26.498  1.00  0.00    -0.132 F 
ATOM     22  F   UNL A   1      38.505  24.283  25.665  1.00  0.00    -0.132 F 
ATOM     23  F   UNL A   1      36.756  23.359  26.597  1.00  0.00    -0.132 F 
ENDBRANCH  19  20
ENDBRANCH  13  19
BRANCH  18  24
ATOM     24  C   UNL A   1      30.873  24.287  25.007  1.00  0.00     0.429 C 
ATOM     25  F   UNL A   1      30.425  23.207  25.686  1.00  0.00    -0.167 F 
ATOM     26  F   UNL A   1      31.893  24.812  25.733  1.00  0.00    -0.167 F 
ATOM     27  F   UNL A   1      29.873  25.198  25.008  1.00  0.00    -0.167 F 
ENDBRANCH  18  24
ENDBRANCH   5   8
ENDBRANCH   3   4
ENDBRANCH   2   3
ENDBRANCH   1   2
BRANCH   1  28
ATOM     28  C   UNL A   1      33.619  28.556  27.116  1.00  0.00     0.116 C 
BRANCH  28  29
ATOM     29  N   UNL A   1      33.493  29.909  27.641  1.00  0.00    -0.352 N 
ATOM     30  C   UNL A   1      34.470  30.656  28.254  1.00  0.00     0.251 C 
ATOM     31  H   UNL A   1      32.611  30.335  27.545  1.00  0.00     0.163 HD
ATOM     32  O   UNL A   1      34.229  31.768  28.711  1.00  0.00    -0.269 OA
BRANCH  30  33
ATOM     33  C   UNL A   1      35.808  30.055  28.384  1.00  0.00     0.039 A 
ATOM     34  C   UNL A   1      36.687  30.133  27.302  1.00  0.00     0.014 A 
ATOM     35  C   UNL A   1      36.223  29.550  29.620  1.00  0.00     0.014 A 
ATOM     36  C   UNL A   1      38.017  29.764  27.480  1.00  0.00     0.010 A 
ATOM     37  C   UNL A   1      37.561  29.231  29.808  1.00  0.00     0.010 A 
ATOM     38  C   UNL A   1      38.469  29.345  28.744  1.00  0.00    -0.014 A 
BRANCH  38  39
ATOM     39  C   UNL A   1      39.894  29.015  28.967  1.00  0.00     0.031 A 
ATOM     40  C   UNL A   1      40.809  30.048  29.552  1.00  0.00     0.074 A 
ATOM     41  C   UNL A   1      40.364  27.807  28.602  1.00  0.00     0.049 A 
ATOM     42  N   UNL A   1      42.091  29.968  29.798  1.00  0.00    -0.248 NA
ATOM     43  C   UNL A   1      40.210  31.352  29.884  1.00  0.00     0.031 C 
ATOM     44  C   UNL A   1      39.572  26.740  27.985  1.00  0.00     0.029 A 
ATOM     45  N   UNL A   1      41.624  27.273  28.695  1.00  0.00    -0.354 N 
ATOM     46  C   UNL A   1      42.451  31.205  30.315  1.00  0.00     0.074 A 
ATOM     47  C   UNL A   1      41.267  32.037  30.294  1.00  0.00     0.031 C 
ATOM     48  C   UNL A   1      40.358  25.670  27.781  1.00  0.00     0.029 A 
ATOM     49  C   UNL A   1      41.712  25.981  28.231  1.00  0.00     0.049 A 
ATOM     50  H   UNL A   1      42.393  27.768  29.059  1.00  0.00     0.167 HD
ATOM     51  C   UNL A   1      43.653  31.602  30.791  1.00  0.00     0.037 A 
ATOM     52  C   UNL A   1      42.765  25.143  28.186  1.00  0.00     0.037 A 
ATOM     53  C   UNL A   1      44.819  30.764  30.827  1.00  0.00     0.049 A 
ATOM     54  C   UNL A   1      44.093  25.606  28.719  1.00  0.00     0.074 A 
ATOM     55  C   UNL A   1      46.079  31.061  31.315  1.00  0.00     0.029 A 
ATOM     56  N   UNL A   1      44.865  29.458  30.362  1.00  0.00    -0.354 N 
ATOM     57  N   UNL A   1      44.407  26.767  29.244  1.00  0.00    -0.248 NA
ATOM     58  C   UNL A   1      45.206  24.649  28.663  1.00  0.00     0.031 C 
ATOM     59  C   UNL A   1      46.894  29.939  31.127  1.00  0.00     0.029 A 
ATOM     60  C   UNL A   1      46.133  28.935  30.547  1.00  0.00     0.049 A 
ATOM     61  H   UNL A   1      44.108  28.974  29.959  1.00  0.00     0.167 HD
ATOM     62  C   UNL A   1      45.746  26.670  29.604  1.00  0.00     0.074 A 
ATOM     63  C   UNL A   1      46.184  25.338  29.237  1.00  0.00     0.031 C 
ATOM     64  C   UNL A   1      46.539  27.599  30.189  1.00  0.00     0.037 A 
BRANCH  51  65
ATOM     65  C   UNL A   1      43.750  33.000  31.328  1.00  0.00     0.058 A 
ATOM     66  C   UNL A   1      44.201  34.056  30.520  1.00  0.00     0.135 A 
ATOM     67  C   UNL A   1      43.389  33.290  32.651  1.00  0.00     0.135 A 
ATOM     68  F   UNL A   1      44.578  33.824  29.253  1.00  0.00    -0.206 F 
ATOM     69  C   UNL A   1      44.318  35.349  31.016  1.00  0.00     0.059 A 
ATOM     70  C   UNL A   1      43.478  34.582  33.163  1.00  0.00     0.059 A 
ATOM     71  F   UNL A   1      42.957  32.314  33.465  1.00  0.00    -0.206 F 
ATOM     72  C   UNL A   1      43.959  35.601  32.341  1.00  0.00     0.060 A 
BRANCH  72  73
ATOM     73  S   UNL A   1      44.129  37.282  32.974  1.00  0.00     0.124 S 
ATOM     74  O   UNL A   1      43.076  37.318  33.986  1.00  0.00    -0.237 OA
ATOM     75  O   UNL A   1      45.497  37.290  33.484  1.00  0.00    -0.237 OA
ATOM     76  O   UNL A   1      43.897  38.113  31.797  1.00  0.00    -0.744 OA
ENDBRANCH  72  73
ENDBRANCH  51  65
BRANCH  52  77
ATOM     77  C   UNL A   1      42.589  23.764  27.666  1.00  0.00     0.058 A 
ATOM     78  C   UNL A   1      42.434  22.683  28.548  1.00  0.00     0.135 A 
ATOM     79  C   UNL A   1      42.536  23.499  26.289  1.00  0.00     0.135 A 
ATOM     80  F   UNL A   1      42.482  22.888  29.872  1.00  0.00    -0.206 F 
ATOM     81  C   UNL A   1      42.238  21.388  28.084  1.00  0.00     0.059 A 
ATOM     82  C   UNL A   1      42.325  22.213  25.801  1.00  0.00     0.059 A 
ATOM     83  F   UNL A   1      42.663  24.503  25.407  1.00  0.00    -0.206 F 
ATOM     84  C   UNL A   1      42.180  21.162  26.708  1.00  0.00     0.060 A 
BRANCH  84  85
ATOM     85  S   UNL A   1      41.861  19.485  26.118  1.00  0.00     0.124 S 
ATOM     86  O   UNL A   1      42.728  19.415  24.948  1.00  0.00    -0.237 OA
ATOM     87  O   UNL A   1      42.268  18.676  27.264  1.00  0.00    -0.237 OA
ATOM     88  O   UNL A   1      40.428  19.494  25.845  1.00  0.00    -0.744 OA
ENDBRANCH  84  85
ENDBRANCH  52  77
BRANCH  64  89
ATOM     89  C   UNL A   1      47.955  27.214  30.500  1.00  0.00     0.058 A 
ATOM     90  C   UNL A   1      49.003  27.526  29.623  1.00  0.00     0.135 A 
ATOM     91  C   UNL A   1      48.275  26.629  31.735  1.00  0.00     0.135 A 
ATOM     92  F   UNL A   1      48.744  28.079  28.428  1.00  0.00    -0.206 F 
ATOM     93  C   UNL A   1      50.328  27.277  29.964  1.00  0.00     0.059 A 
ATOM     94  C   UNL A   1      49.594  26.387  32.104  1.00  0.00     0.059 A 
ATOM     95  F   UNL A   1      47.303  26.321  32.608  1.00  0.00    -0.206 F 
ATOM     96  C   UNL A   1      50.614  26.716  31.211  1.00  0.00     0.060 A 
BRANCH  96  97
ATOM     97  S   UNL A   1      52.342  26.478  31.678  1.00  0.00     0.124 S 
ATOM     98  O   UNL A   1      52.320  25.117  32.202  1.00  0.00    -0.237 OA
ATOM     99  O   UNL A   1      53.037  26.657  30.407  1.00  0.00    -0.237 OA
ATOM    100  O   UNL A   1      52.574  27.529  32.664  1.00  0.00    -0.744 OA
ENDBRANCH  96  97
ENDBRANCH  64  89
ENDBRANCH  38  39
ENDBRANCH  30  33
ENDBRANCH  28  29
ENDBRANCH   1  28
TORSDOF 17
ENDMDL
