MODEL 1
REMARK VINA RESULT:     -11.8      0.000      0.000
REMARK SMILES CCOC(=O)C1=NN(c2ccc(C)cc2Cl)[C@@](C)(C(=O)NCCCCNC(=O)c2ccc(-c3c4nc(c(-c5c(F)cc(S(=O)(=O)[O-])cc5F)c5ccc([nH]5)c(-c5c(F)cc(S(=O)(=O)[O-])cc5F)c5nc(c(-c6c(F)cc(S(=O)(=O)[O-])cc6F)c6ccc3[nH]6)C=C5)C=C4)cc2)C1
REMARK SMILES IDX 23 1 22 2 21 3 19 4 20 5 17 7 6 8 7 9 95 10 8 11 18 12 4 13
REMARK SMILES IDX 5 14 3 15 2 16 1 17 9 18 10 19 15 20 11 21 14 22 16 23 12 24
REMARK SMILES IDX 13 25 24 26 25 27 26 28 27 29 28 31 29 32 30 33 94 34 31 35
REMARK SMILES IDX 93 36 32 37 33 38 34 39 87 40 35 41 92 42 86 43 88 44 36 45
REMARK SMILES IDX 91 46 85 47 84 48 37 50 71 51 50 52 70 53 51 54 54 55 69 56
REMARK SMILES IDX 89 57 52 58 53 59 68 61 90 62 55 63 38 64 39 65 48 66 40 67
REMARK SMILES IDX 41 68 47 69 49 70 42 71 43 72 44 73 45 74 46 75 72 76 73 77
REMARK SMILES IDX 82 78 74 79 75 80 81 81 83 82 76 83 77 84 78 85 79 86 80 87
REMARK SMILES IDX 56 88 57 89 66 90 58 91 59 92 65 93 67 94 60 95 61 96 62 97
REMARK SMILES IDX 63 98 64 99
REMARK H PARENT 21 6 26 30 88 49 54 60
REMARK Flexibility Score: inf
ROOT
ATOM      1  C   UNL A   1      33.240  26.818  26.391  1.00  0.00     0.023 C 
ENDROOT
BRANCH   1   2
ATOM      2  C   UNL A   1      34.154  25.843  25.652  1.00  0.00     0.116 C 
BRANCH   2   3
ATOM      3  N   UNL A   1      34.331  24.600  26.373  1.00  0.00    -0.354 N 
ATOM      4  C   UNL A   1      34.378  23.298  25.976  1.00  0.00     0.248 C 
ATOM      5  O   UNL A   1      34.530  22.484  26.898  1.00  0.00    -0.272 OA
ATOM      6  H   UNL A   1      34.439  24.720  27.345  1.00  0.00     0.163 HD
BRANCH   4   7
ATOM      7  C   UNL A   1      34.261  22.815  24.495  1.00  0.00     0.144 C 
ATOM      8  C   UNL A   1      33.278  20.708  24.462  1.00  0.00     0.149 C 
ATOM      9  N   UNL A   1      32.304  21.505  24.153  1.00  0.00    -0.169 NA
ATOM     10  C   UNL A   1      34.643  21.310  24.463  1.00  0.00     0.106 C 
ATOM     11  N   UNL A   1      32.854  22.752  24.022  1.00  0.00    -0.248 N 
ATOM     12  C   UNL A   1      35.194  23.538  23.523  1.00  0.00     0.048 C 
BRANCH   8  13
ATOM     13  C   UNL A   1      33.116  19.233  24.740  1.00  0.00     0.354 C 
ATOM     14  O   UNL A   1      32.054  18.772  25.123  1.00  0.00    -0.245 OA
BRANCH  13  15
ATOM     15  O   UNL A   1      34.268  18.569  24.530  1.00  0.00    -0.461 OA
BRANCH  15  16
ATOM     16  C   UNL A   1      34.175  17.140  24.531  1.00  0.00     0.230 C 
ATOM     17  C   UNL A   1      34.223  16.591  23.117  1.00  0.00     0.049 C 
ENDBRANCH  15  16
ENDBRANCH  13  15
ENDBRANCH   8  13
BRANCH  11  18
ATOM     18  C   UNL A   1      31.988  23.841  23.953  1.00  0.00     0.079 A 
ATOM     19  C   UNL A   1      32.047  24.676  22.822  1.00  0.00     0.030 A 
ATOM     20  C   UNL A   1      31.038  24.159  24.943  1.00  0.00     0.066 A 
ATOM     21  C   UNL A   1      31.230  25.805  22.698  1.00  0.00     0.006 A 
ATOM     22  C   UNL A   1      30.215  25.288  24.816  1.00  0.00     0.026 A 
ATOM     23  Cl  UNL A   1      30.877  23.241  26.403  1.00  0.00    -0.082 Cl
ATOM     24  C   UNL A   1      30.305  26.119  23.694  1.00  0.00    -0.049 A 
ATOM     25  C   UNL A   1      29.468  27.361  23.602  1.00  0.00     0.044 C 
ENDBRANCH  11  18
ENDBRANCH   4   7
ENDBRANCH   2   3
ENDBRANCH   1   2
BRANCH   1  26
ATOM     26  C   UNL A   1      33.666  28.289  26.354  1.00  0.00     0.023 C 
BRANCH  26  27
ATOM     27  C   UNL A   1      34.986  28.619  27.047  1.00  0.00     0.116 C 
BRANCH  27  28
ATOM     28  N   UNL A   1      34.825  29.574  28.131  1.00  0.00    -0.352 N 
ATOM     29  C   UNL A   1      35.757  30.063  29.012  1.00  0.00     0.251 C 
ATOM     30  H   UNL A   1      33.911  29.920  28.253  1.00  0.00     0.163 HD
ATOM     31  O   UNL A   1      35.392  30.756  29.959  1.00  0.00    -0.269 OA
BRANCH  29  32
ATOM     32  C   UNL A   1      37.190  29.743  28.841  1.00  0.00     0.039 A 
ATOM     33  C   UNL A   1      37.918  29.315  29.956  1.00  0.00     0.014 A 
ATOM     34  C   UNL A   1      37.824  29.898  27.604  1.00  0.00     0.014 A 
ATOM     35  C   UNL A   1      39.267  28.979  29.820  1.00  0.00     0.010 A 
ATOM     36  C   UNL A   1      39.165  29.544  27.464  1.00  0.00     0.010 A 
ATOM     37  C   UNL A   1      39.892  29.073  28.568  1.00  0.00    -0.014 A 
BRANCH  37  38
ATOM     38  C   UNL A   1      41.304  28.663  28.388  1.00  0.00     0.031 A 
ATOM     39  C   UNL A   1      42.404  29.677  28.465  1.00  0.00     0.074 A 
ATOM     40  C   UNL A   1      41.589  27.383  28.087  1.00  0.00     0.049 A 
ATOM     41  N   UNL A   1      43.670  29.541  28.167  1.00  0.00    -0.248 NA
ATOM     42  C   UNL A   1      42.025  31.024  28.918  1.00  0.00     0.031 C 
ATOM     43  C   UNL A   1      40.607  26.306  27.957  1.00  0.00     0.029 A 
ATOM     44  N   UNL A   1      42.790  26.779  27.822  1.00  0.00    -0.354 N 
ATOM     45  C   UNL A   1      44.231  30.798  28.335  1.00  0.00     0.074 A 
ATOM     46  C   UNL A   1      43.176  31.674  28.805  1.00  0.00     0.031 C 
ATOM     47  C   UNL A   1      41.248  25.169  27.635  1.00  0.00     0.029 A 
ATOM     48  C   UNL A   1      42.678  25.444  27.523  1.00  0.00     0.049 A 
ATOM     49  H   UNL A   1      43.650  27.257  27.843  1.00  0.00     0.167 HD
ATOM     50  C   UNL A   1      45.503  31.194  28.090  1.00  0.00     0.037 A 
ATOM     51  C   UNL A   1      43.619  24.546  27.185  1.00  0.00     0.037 A 
ATOM     52  C   UNL A   1      46.564  30.322  27.661  1.00  0.00     0.049 A 
ATOM     53  C   UNL A   1      45.053  24.972  27.077  1.00  0.00     0.074 A 
ATOM     54  C   UNL A   1      47.874  30.638  27.347  1.00  0.00     0.029 A 
ATOM     55  N   UNL A   1      46.438  28.949  27.515  1.00  0.00    -0.354 N 
ATOM     56  N   UNL A   1      45.559  26.176  27.187  1.00  0.00    -0.248 NA
ATOM     57  C   UNL A   1      46.040  23.920  26.805  1.00  0.00     0.031 C 
ATOM     58  C   UNL A   1      48.548  29.448  27.030  1.00  0.00     0.029 A 
ATOM     59  C   UNL A   1      47.653  28.396  27.145  1.00  0.00     0.049 A 
ATOM     60  H   UNL A   1      45.607  28.442  27.653  1.00  0.00     0.167 HD
ATOM     61  C   UNL A   1      46.924  26.031  26.978  1.00  0.00     0.074 A 
ATOM     62  C   UNL A   1      47.167  24.618  26.759  1.00  0.00     0.031 C 
ATOM     63  C   UNL A   1      47.883  26.988  26.951  1.00  0.00     0.037 A 
BRANCH  50  64
ATOM     64  C   UNL A   1      45.782  32.656  28.252  1.00  0.00     0.058 A 
ATOM     65  C   UNL A   1      45.662  33.547  27.175  1.00  0.00     0.135 A 
ATOM     66  C   UNL A   1      46.238  33.157  29.480  1.00  0.00     0.135 A 
ATOM     67  F   UNL A   1      45.249  33.105  25.977  1.00  0.00    -0.206 F 
ATOM     68  C   UNL A   1      46.012  34.887  27.304  1.00  0.00     0.059 A 
ATOM     69  C   UNL A   1      46.593  34.492  29.631  1.00  0.00     0.059 A 
ATOM     70  F   UNL A   1      46.384  32.336  30.533  1.00  0.00    -0.206 F 
ATOM     71  C   UNL A   1      46.497  35.345  28.531  1.00  0.00     0.060 A 
BRANCH  71  72
ATOM     72  S   UNL A   1      47.032  37.059  28.713  1.00  0.00     0.124 S 
ATOM     73  O   UNL A   1      48.421  36.976  28.270  1.00  0.00    -0.237 OA
ATOM     74  O   UNL A   1      46.132  37.788  27.824  1.00  0.00    -0.237 OA
ATOM     75  O   UNL A   1      46.835  37.305  30.137  1.00  0.00    -0.744 OA
ENDBRANCH  71  72
ENDBRANCH  50  64
BRANCH  51  76
ATOM     76  C   UNL A   1      43.216  23.147  26.920  1.00  0.00     0.058 A 
ATOM     77  C   UNL A   1      43.196  22.644  25.612  1.00  0.00     0.135 A 
ATOM     78  C   UNL A   1      42.922  22.272  27.972  1.00  0.00     0.135 A 
ATOM     79  F   UNL A   1      43.478  23.452  24.577  1.00  0.00    -0.206 F 
ATOM     80  C   UNL A   1      42.911  21.308  25.354  1.00  0.00     0.059 A 
ATOM     81  C   UNL A   1      42.636  20.932  27.740  1.00  0.00     0.059 A 
ATOM     82  F   UNL A   1      42.941  22.715  29.239  1.00  0.00    -0.206 F 
ATOM     83  C   UNL A   1      42.636  20.458  26.426  1.00  0.00     0.060 A 
BRANCH  83  84
ATOM     84  S   UNL A   1      42.367  18.698  26.125  1.00  0.00     0.124 S 
ATOM     85  O   UNL A   1      43.324  18.434  25.057  1.00  0.00    -0.237 OA
ATOM     86  O   UNL A   1      42.677  18.095  27.419  1.00  0.00    -0.237 OA
ATOM     87  O   UNL A   1      40.958  18.651  25.746  1.00  0.00    -0.744 OA
ENDBRANCH  83  84
ENDBRANCH  51  76
BRANCH  63  88
ATOM     88  C   UNL A   1      49.282  26.530  26.676  1.00  0.00     0.058 A 
ATOM     89  C   UNL A   1      49.802  26.549  25.374  1.00  0.00     0.135 A 
ATOM     90  C   UNL A   1      50.108  26.074  27.714  1.00  0.00     0.135 A 
ATOM     91  F   UNL A   1      49.044  26.974  24.351  1.00  0.00    -0.206 F 
ATOM     92  C   UNL A   1      51.098  26.121  25.104  1.00  0.00     0.059 A 
ATOM     93  C   UNL A   1      51.407  25.640  27.467  1.00  0.00     0.059 A 
ATOM     94  F   UNL A   1      49.648  26.031  28.974  1.00  0.00    -0.206 F 
ATOM     95  C   UNL A   1      51.889  25.658  26.156  1.00  0.00     0.060 A 
BRANCH  95  96
ATOM     96  S   UNL A   1      53.576  25.106  25.825  1.00  0.00     0.124 S 
ATOM     97  O   UNL A   1      54.200  25.277  27.133  1.00  0.00    -0.237 OA
ATOM     98  O   UNL A   1      53.391  23.725  25.389  1.00  0.00    -0.237 OA
ATOM     99  O   UNL A   1      54.024  26.028  24.787  1.00  0.00    -0.744 OA
ENDBRANCH  95  96
ENDBRANCH  63  88
ENDBRANCH  37  38
ENDBRANCH  29  32
ENDBRANCH  27  28
ENDBRANCH  26  27
ENDBRANCH   1  26
TORSDOF 18
ENDMDL
MODEL 2
REMARK VINA RESULT:     -11.7      1.569      2.711
REMARK SMILES CCOC(=O)C1=NN(c2ccc(C)cc2Cl)[C@@](C)(C(=O)NCCCCNC(=O)c2ccc(-c3c4nc(c(-c5c(F)cc(S(=O)(=O)[O-])cc5F)c5ccc([nH]5)c(-c5c(F)cc(S(=O)(=O)[O-])cc5F)c5nc(c(-c6c(F)cc(S(=O)(=O)[O-])cc6F)c6ccc3[nH]6)C=C5)C=C4)cc2)C1
REMARK SMILES IDX 23 1 22 2 21 3 19 4 20 5 17 7 6 8 7 9 95 10 8 11 18 12 4 13
REMARK SMILES IDX 5 14 3 15 2 16 1 17 9 18 10 19 15 20 11 21 14 22 16 23 12 24
REMARK SMILES IDX 13 25 24 26 25 27 26 28 27 29 28 31 29 32 30 33 94 34 31 35
REMARK SMILES IDX 93 36 32 37 33 38 34 39 87 40 35 41 92 42 86 43 88 44 36 45
REMARK SMILES IDX 91 46 85 47 84 48 37 50 71 51 50 52 70 53 51 54 54 55 69 56
REMARK SMILES IDX 89 57 52 58 53 59 68 61 90 62 55 63 38 64 39 65 48 66 40 67
REMARK SMILES IDX 41 68 47 69 49 70 42 71 43 72 44 73 45 74 46 75 72 76 73 77
REMARK SMILES IDX 82 78 74 79 75 80 81 81 83 82 76 83 77 84 78 85 79 86 80 87
REMARK SMILES IDX 56 88 57 89 66 90 58 91 59 92 65 93 67 94 60 95 61 96 62 97
REMARK SMILES IDX 63 98 64 99
REMARK H PARENT 21 6 26 30 88 49 54 60
REMARK Flexibility Score: inf
ROOT
ATOM      1  C   UNL A   1      32.814  30.089  26.976  1.00  0.00     0.023 C 
ENDROOT
BRANCH   1   2
ATOM      2  C   UNL A   1      31.790  29.352  26.115  1.00  0.00     0.116 C 
BRANCH   2   3
ATOM      3  N   UNL A   1      31.861  27.915  26.286  1.00  0.00    -0.354 N 
ATOM      4  C   UNL A   1      32.320  26.911  25.490  1.00  0.00     0.248 C 
ATOM      5  O   UNL A   1      32.201  25.775  25.973  1.00  0.00    -0.272 OA
ATOM      6  H   UNL A   1      31.507  27.603  27.150  1.00  0.00     0.163 HD
BRANCH   4   7
ATOM      7  C   UNL A   1      32.959  27.115  24.079  1.00  0.00     0.144 C 
ATOM      8  C   UNL A   1      32.892  25.101  22.920  1.00  0.00     0.149 C 
ATOM      9  N   UNL A   1      31.893  25.768  22.432  1.00  0.00    -0.169 NA
ATOM     10  C   UNL A   1      33.838  25.869  23.779  1.00  0.00     0.106 C 
ATOM     11  N   UNL A   1      31.964  27.020  22.980  1.00  0.00    -0.248 N 
ATOM     12  C   UNL A   1      33.865  28.342  23.971  1.00  0.00     0.048 C 
BRANCH   8  13
ATOM     13  C   UNL A   1      33.178  23.650  22.612  1.00  0.00     0.354 C 
ATOM     14  O   UNL A   1      33.443  23.282  21.480  1.00  0.00    -0.245 OA
BRANCH  13  15
ATOM     15  O   UNL A   1      33.073  22.889  23.717  1.00  0.00    -0.461 OA
BRANCH  15  16
ATOM     16  C   UNL A   1      32.441  21.616  23.541  1.00  0.00     0.230 C 
ATOM     17  C   UNL A   1      33.204  20.526  24.272  1.00  0.00     0.049 C 
ENDBRANCH  15  16
ENDBRANCH  13  15
ENDBRANCH   8  13
BRANCH  11  18
ATOM     18  C   UNL A   1      30.861  27.859  22.830  1.00  0.00     0.079 A 
ATOM     19  C   UNL A   1      31.032  29.078  22.150  1.00  0.00     0.030 A 
ATOM     20  C   UNL A   1      29.571  27.559  23.309  1.00  0.00     0.066 A 
ATOM     21  C   UNL A   1      29.978  29.983  21.988  1.00  0.00     0.006 A 
ATOM     22  C   UNL A   1      28.512  28.466  23.143  1.00  0.00     0.026 A 
ATOM     23  Cl  UNL A   1      29.222  26.112  24.194  1.00  0.00    -0.082 Cl
ATOM     24  C   UNL A   1      28.707  29.683  22.482  1.00  0.00    -0.049 A 
ATOM     25  C   UNL A   1      27.585  30.672  22.371  1.00  0.00     0.044 C 
ENDBRANCH  11  18
ENDBRANCH   4   7
ENDBRANCH   2   3
ENDBRANCH   1   2
BRANCH   1  26
ATOM     26  C   UNL A   1      34.084  29.305  27.320  1.00  0.00     0.023 C 
BRANCH  26  27
ATOM     27  C   UNL A   1      35.314  30.144  27.662  1.00  0.00     0.116 C 
BRANCH  27  28
ATOM     28  N   UNL A   1      35.278  30.663  29.020  1.00  0.00    -0.352 N 
ATOM     29  C   UNL A   1      36.236  30.611  30.001  1.00  0.00     0.251 C 
ATOM     30  H   UNL A   1      34.441  31.117  29.273  1.00  0.00     0.163 HD
ATOM     31  O   UNL A   1      35.957  30.980  31.140  1.00  0.00    -0.269 OA
BRANCH  29  32
ATOM     32  C   UNL A   1      37.589  30.096  29.702  1.00  0.00     0.039 A 
ATOM     33  C   UNL A   1      38.039  30.127  28.378  1.00  0.00     0.014 A 
ATOM     34  C   UNL A   1      38.395  29.553  30.707  1.00  0.00     0.014 A 
ATOM     35  C   UNL A   1      39.323  29.673  28.069  1.00  0.00     0.010 A 
ATOM     36  C   UNL A   1      39.684  29.117  30.401  1.00  0.00     0.010 A 
ATOM     37  C   UNL A   1      40.160  29.185  29.082  1.00  0.00    -0.014 A 
BRANCH  37  38
ATOM     38  C   UNL A   1      41.546  28.757  28.787  1.00  0.00     0.031 A 
ATOM     39  C   UNL A   1      42.669  29.748  28.818  1.00  0.00     0.074 A 
ATOM     40  C   UNL A   1      41.784  27.483  28.426  1.00  0.00     0.049 A 
ATOM     41  N   UNL A   1      43.907  29.601  28.425  1.00  0.00    -0.248 NA
ATOM     42  C   UNL A   1      42.350  31.085  29.339  1.00  0.00     0.031 C 
ATOM     43  C   UNL A   1      40.774  26.427  28.333  1.00  0.00     0.029 A 
ATOM     44  N   UNL A   1      42.950  26.867  28.055  1.00  0.00    -0.354 N 
ATOM     45  C   UNL A   1      44.504  30.841  28.591  1.00  0.00     0.074 A 
ATOM     46  C   UNL A   1      43.503  31.719  29.164  1.00  0.00     0.031 C 
ATOM     47  C   UNL A   1      41.367  25.291  27.930  1.00  0.00     0.029 A 
ATOM     48  C   UNL A   1      42.791  25.545  27.723  1.00  0.00     0.049 A 
ATOM     49  H   UNL A   1      43.819  27.329  28.030  1.00  0.00     0.167 HD
ATOM     50  C   UNL A   1      45.763  31.223  28.268  1.00  0.00     0.037 A 
ATOM     51  C   UNL A   1      43.688  24.642  27.289  1.00  0.00     0.037 A 
ATOM     52  C   UNL A   1      46.773  30.347  27.736  1.00  0.00     0.049 A 
ATOM     53  C   UNL A   1      45.118  25.046  27.092  1.00  0.00     0.074 A 
ATOM     54  C   UNL A   1      48.063  30.651  27.338  1.00  0.00     0.029 A 
ATOM     55  N   UNL A   1      46.609  28.983  27.555  1.00  0.00    -0.354 N 
ATOM     56  N   UNL A   1      45.654  26.238  27.203  1.00  0.00    -0.248 NA
ATOM     57  C   UNL A   1      46.062  23.987  26.716  1.00  0.00     0.031 C 
ATOM     58  C   UNL A   1      48.688  29.460  26.935  1.00  0.00     0.029 A 
ATOM     59  C   UNL A   1      47.783  28.421  27.081  1.00  0.00     0.049 A 
ATOM     60  H   UNL A   1      45.780  28.485  27.737  1.00  0.00     0.167 HD
ATOM     61  C   UNL A   1      46.998  26.076  26.892  1.00  0.00     0.074 A 
ATOM     62  C   UNL A   1      47.197  24.667  26.611  1.00  0.00     0.031 C 
ATOM     63  C   UNL A   1      47.971  27.016  26.826  1.00  0.00     0.037 A 
BRANCH  50  64
ATOM     64  C   UNL A   1      46.082  32.673  28.456  1.00  0.00     0.058 A 
ATOM     65  C   UNL A   1      46.596  33.157  29.668  1.00  0.00     0.135 A 
ATOM     66  C   UNL A   1      45.807  33.596  27.435  1.00  0.00     0.135 A 
ATOM     67  F   UNL A   1      46.853  32.312  30.678  1.00  0.00    -0.206 F 
ATOM     68  C   UNL A   1      46.802  34.518  29.873  1.00  0.00     0.059 A 
ATOM     69  C   UNL A   1      46.006  34.959  27.619  1.00  0.00     0.059 A 
ATOM     70  F   UNL A   1      45.299  33.178  26.265  1.00  0.00    -0.206 F 
ATOM     71  C   UNL A   1      46.484  35.413  28.848  1.00  0.00     0.060 A 
BRANCH  71  72
ATOM     72  S   UNL A   1      46.667  37.190  29.106  1.00  0.00     0.124 S 
ATOM     73  O   UNL A   1      45.382  37.528  29.710  1.00  0.00    -0.237 OA
ATOM     74  O   UNL A   1      47.823  37.283  29.993  1.00  0.00    -0.237 OA
ATOM     75  O   UNL A   1      46.881  37.688  27.751  1.00  0.00    -0.744 OA
ENDBRANCH  71  72
ENDBRANCH  50  64
BRANCH  51  76
ATOM     76  C   UNL A   1      43.239  23.260  27.010  1.00  0.00     0.058 A 
ATOM     77  C   UNL A   1      43.164  22.785  25.693  1.00  0.00     0.135 A 
ATOM     78  C   UNL A   1      42.956  22.371  28.054  1.00  0.00     0.135 A 
ATOM     79  F   UNL A   1      43.433  23.607  24.666  1.00  0.00    -0.206 F 
ATOM     80  C   UNL A   1      42.834  21.463  25.418  1.00  0.00     0.059 A 
ATOM     81  C   UNL A   1      42.628  21.044  27.804  1.00  0.00     0.059 A 
ATOM     82  F   UNL A   1      43.028  22.786  29.328  1.00  0.00    -0.206 F 
ATOM     83  C   UNL A   1      42.572  20.598  26.482  1.00  0.00     0.060 A 
BRANCH  83  84
ATOM     84  S   UNL A   1      42.247  18.852  26.154  1.00  0.00     0.124 S 
ATOM     85  O   UNL A   1      40.867  18.894  25.686  1.00  0.00    -0.237 OA
ATOM     86  O   UNL A   1      43.250  18.518  25.146  1.00  0.00    -0.237 OA
ATOM     87  O   UNL A   1      42.459  18.238  27.461  1.00  0.00    -0.744 OA
ENDBRANCH  83  84
ENDBRANCH  51  76
BRANCH  63  88
ATOM     88  C   UNL A   1      49.338  26.543  26.437  1.00  0.00     0.058 A 
ATOM     89  C   UNL A   1      50.184  25.937  27.378  1.00  0.00     0.135 A 
ATOM     90  C   UNL A   1      49.804  26.689  25.122  1.00  0.00     0.135 A 
ATOM     91  F   UNL A   1      49.779  25.781  28.648  1.00  0.00    -0.206 F 
ATOM     92  C   UNL A   1      51.457  25.498  27.030  1.00  0.00     0.059 A 
ATOM     93  C   UNL A   1      51.075  26.258  24.753  1.00  0.00     0.059 A 
ATOM     94  F   UNL A   1      49.030  27.270  24.192  1.00  0.00    -0.206 F 
ATOM     95  C   UNL A   1      51.898  25.673  25.718  1.00  0.00     0.060 A 
BRANCH  95  96
ATOM     96  S   UNL A   1      53.545  25.102  25.248  1.00  0.00     0.124 S 
ATOM     97  O   UNL A   1      54.383  25.801  26.217  1.00  0.00    -0.237 OA
ATOM     98  O   UNL A   1      53.452  23.655  25.421  1.00  0.00    -0.237 OA
ATOM     99  O   UNL A   1      53.666  25.553  23.866  1.00  0.00    -0.744 OA
ENDBRANCH  95  96
ENDBRANCH  63  88
ENDBRANCH  37  38
ENDBRANCH  29  32
ENDBRANCH  27  28
ENDBRANCH  26  27
ENDBRANCH   1  26
TORSDOF 18
ENDMDL
MODEL 3
REMARK VINA RESULT:     -11.5      4.411      5.357
REMARK SMILES CCOC(=O)C1=NN(c2ccc(C)cc2Cl)[C@@](C)(C(=O)NCCCCNC(=O)c2ccc(-c3c4nc(c(-c5c(F)cc(S(=O)(=O)[O-])cc5F)c5ccc([nH]5)c(-c5c(F)cc(S(=O)(=O)[O-])cc5F)c5nc(c(-c6c(F)cc(S(=O)(=O)[O-])cc6F)c6ccc3[nH]6)C=C5)C=C4)cc2)C1
REMARK SMILES IDX 23 1 22 2 21 3 19 4 20 5 17 7 6 8 7 9 95 10 8 11 18 12 4 13
REMARK SMILES IDX 5 14 3 15 2 16 1 17 9 18 10 19 15 20 11 21 14 22 16 23 12 24
REMARK SMILES IDX 13 25 24 26 25 27 26 28 27 29 28 31 29 32 30 33 94 34 31 35
REMARK SMILES IDX 93 36 32 37 33 38 34 39 87 40 35 41 92 42 86 43 88 44 36 45
REMARK SMILES IDX 91 46 85 47 84 48 37 50 71 51 50 52 70 53 51 54 54 55 69 56
REMARK SMILES IDX 89 57 52 58 53 59 68 61 90 62 55 63 38 64 39 65 48 66 40 67
REMARK SMILES IDX 41 68 47 69 49 70 42 71 43 72 44 73 45 74 46 75 72 76 73 77
REMARK SMILES IDX 82 78 74 79 75 80 81 81 83 82 76 83 77 84 78 85 79 86 80 87
REMARK SMILES IDX 56 88 57 89 66 90 58 91 59 92 65 93 67 94 60 95 61 96 62 97
REMARK SMILES IDX 63 98 64 99
REMARK H PARENT 21 6 26 30 88 49 54 60
REMARK Flexibility Score: inf
ROOT
ATOM      1  C   UNL A   1      32.954  26.409  26.089  1.00  0.00     0.023 C 
ENDROOT
BRANCH   1   2
ATOM      2  C   UNL A   1      34.194  25.604  25.706  1.00  0.00     0.116 C 
BRANCH   2   3
ATOM      3  N   UNL A   1      34.289  24.359  26.439  1.00  0.00    -0.354 N 
ATOM      4  C   UNL A   1      34.310  23.055  26.048  1.00  0.00     0.248 C 
ATOM      5  O   UNL A   1      34.386  22.239  26.978  1.00  0.00    -0.272 OA
ATOM      6  H   UNL A   1      34.353  24.479  27.414  1.00  0.00     0.163 HD
BRANCH   4   7
ATOM      7  C   UNL A   1      34.252  22.570  24.564  1.00  0.00     0.144 C 
ATOM      8  C   UNL A   1      33.346  20.429  24.503  1.00  0.00     0.149 C 
ATOM      9  N   UNL A   1      32.353  21.192  24.167  1.00  0.00    -0.169 NA
ATOM     10  C   UNL A   1      34.688  21.079  24.542  1.00  0.00     0.106 C 
ATOM     11  N   UNL A   1      32.861  22.457  24.052  1.00  0.00    -0.248 N 
ATOM     12  C   UNL A   1      35.186  23.327  23.618  1.00  0.00     0.048 C 
BRANCH   8  13
ATOM     13  C   UNL A   1      33.229  18.948  24.775  1.00  0.00     0.354 C 
ATOM     14  O   UNL A   1      32.176  18.452  25.139  1.00  0.00    -0.245 OA
BRANCH  13  15
ATOM     15  O   UNL A   1      34.406  18.325  24.585  1.00  0.00    -0.461 OA
BRANCH  15  16
ATOM     16  C   UNL A   1      34.330  16.929  24.271  1.00  0.00     0.230 C 
ATOM     17  C   UNL A   1      34.063  16.719  22.792  1.00  0.00     0.049 C 
ENDBRANCH  15  16
ENDBRANCH  13  15
ENDBRANCH   8  13
BRANCH  11  18
ATOM     18  C   UNL A   1      31.959  23.515  23.959  1.00  0.00     0.079 A 
ATOM     19  C   UNL A   1      32.063  24.392  22.864  1.00  0.00     0.030 A 
ATOM     20  C   UNL A   1      30.932  23.761  24.890  1.00  0.00     0.066 A 
ATOM     21  C   UNL A   1      31.212  25.493  22.721  1.00  0.00     0.006 A 
ATOM     22  C   UNL A   1      30.075  24.862  24.745  1.00  0.00     0.026 A 
ATOM     23  Cl  UNL A   1      30.708  22.784  26.304  1.00  0.00    -0.082 Cl
ATOM     24  C   UNL A   1      30.209  25.736  23.660  1.00  0.00    -0.049 A 
ATOM     25  C   UNL A   1      29.331  26.948  23.552  1.00  0.00     0.044 C 
ENDBRANCH  11  18
ENDBRANCH   4   7
ENDBRANCH   2   3
ENDBRANCH   1   2
BRANCH   1  26
ATOM     26  C   UNL A   1      33.216  27.731  26.818  1.00  0.00     0.023 C 
BRANCH  26  27
ATOM     27  C   UNL A   1      34.115  28.727  26.088  1.00  0.00     0.116 C 
BRANCH  27  28
ATOM     28  N   UNL A   1      33.872  30.102  26.496  1.00  0.00    -0.352 N 
ATOM     29  C   UNL A   1      34.535  30.869  27.421  1.00  0.00     0.251 C 
ATOM     30  H   UNL A   1      33.120  30.547  26.042  1.00  0.00     0.163 HD
ATOM     31  O   UNL A   1      34.082  31.968  27.733  1.00  0.00    -0.269 OA
BRANCH  29  32
ATOM     32  C   UNL A   1      35.773  30.373  28.058  1.00  0.00     0.039 A 
ATOM     33  C   UNL A   1      36.988  30.551  27.388  1.00  0.00     0.014 A 
ATOM     34  C   UNL A   1      35.738  29.705  29.287  1.00  0.00     0.014 A 
ATOM     35  C   UNL A   1      38.178  30.118  27.977  1.00  0.00     0.010 A 
ATOM     36  C   UNL A   1      36.928  29.291  29.883  1.00  0.00     0.010 A 
ATOM     37  C   UNL A   1      38.156  29.504  29.238  1.00  0.00    -0.014 A 
BRANCH  37  38
ATOM     38  C   UNL A   1      39.411  29.093  29.908  1.00  0.00     0.031 A 
ATOM     39  C   UNL A   1      39.903  29.833  31.114  1.00  0.00     0.074 A 
ATOM     40  C   UNL A   1      40.143  28.091  29.388  1.00  0.00     0.049 A 
ATOM     41  N   UNL A   1      41.053  29.732  31.728  1.00  0.00    -0.248 NA
ATOM     42  C   UNL A   1      38.989  30.829  31.692  1.00  0.00     0.031 C 
ATOM     43  C   UNL A   1      39.787  27.310  28.203  1.00  0.00     0.029 A 
ATOM     44  N   UNL A   1      41.348  27.573  29.785  1.00  0.00    -0.354 N 
ATOM     45  C   UNL A   1      41.031  30.694  32.727  1.00  0.00     0.074 A 
ATOM     46  C   UNL A   1      39.733  31.337  32.666  1.00  0.00     0.031 C 
ATOM     47  C   UNL A   1      40.755  26.409  27.969  1.00  0.00     0.029 A 
ATOM     48  C   UNL A   1      41.803  26.562  28.976  1.00  0.00     0.049 A 
ATOM     49  H   UNL A   1      41.839  27.895  30.575  1.00  0.00     0.167 HD
ATOM     50  C   UNL A   1      42.014  31.031  33.596  1.00  0.00     0.037 A 
ATOM     51  C   UNL A   1      42.939  25.846  29.032  1.00  0.00     0.037 A 
ATOM     52  C   UNL A   1      43.288  30.370  33.689  1.00  0.00     0.049 A 
ATOM     53  C   UNL A   1      43.946  26.128  30.107  1.00  0.00     0.074 A 
ATOM     54  C   UNL A   1      44.363  30.667  34.508  1.00  0.00     0.029 A 
ATOM     55  N   UNL A   1      43.646  29.255  32.948  1.00  0.00    -0.354 N 
ATOM     56  N   UNL A   1      43.933  27.077  31.011  1.00  0.00    -0.248 NA
ATOM     57  C   UNL A   1      45.115  25.243  30.171  1.00  0.00     0.031 C 
ATOM     58  C   UNL A   1      45.367  29.714  34.276  1.00  0.00     0.029 A 
ATOM     59  C   UNL A   1      44.914  28.829  33.311  1.00  0.00     0.049 A 
ATOM     60  H   UNL A   1      43.083  28.827  32.263  1.00  0.00     0.167 HD
ATOM     61  C   UNL A   1      45.102  26.916  31.743  1.00  0.00     0.074 A 
ATOM     62  C   UNL A   1      45.788  25.764  31.190  1.00  0.00     0.031 C 
ATOM     63  C   UNL A   1      45.572  27.670  32.766  1.00  0.00     0.037 A 
BRANCH  50  64
ATOM     64  C   UNL A   1      41.734  32.202  34.486  1.00  0.00     0.058 A 
ATOM     65  C   UNL A   1      41.049  32.050  35.700  1.00  0.00     0.135 A 
ATOM     66  C   UNL A   1      42.099  33.496  34.087  1.00  0.00     0.135 A 
ATOM     67  F   UNL A   1      40.663  30.832  36.110  1.00  0.00    -0.206 F 
ATOM     68  C   UNL A   1      40.707  33.151  36.479  1.00  0.00     0.059 A 
ATOM     69  C   UNL A   1      41.768  34.609  34.849  1.00  0.00     0.059 A 
ATOM     70  F   UNL A   1      42.742  33.689  32.924  1.00  0.00    -0.206 F 
ATOM     71  C   UNL A   1      41.053  34.429  36.034  1.00  0.00     0.060 A 
BRANCH  71  72
ATOM     72  S   UNL A   1      40.560  35.884  36.981  1.00  0.00     0.124 S 
ATOM     73  O   UNL A   1      39.870  35.272  38.113  1.00  0.00    -0.237 OA
ATOM     74  O   UNL A   1      41.832  36.528  37.295  1.00  0.00    -0.237 OA
ATOM     75  O   UNL A   1      39.713  36.606  36.038  1.00  0.00    -0.744 OA
ENDBRANCH  71  72
ENDBRANCH  50  64
BRANCH  51  76
ATOM     76  C   UNL A   1      43.176  24.792  28.022  1.00  0.00     0.058 A 
ATOM     77  C   UNL A   1      43.805  25.094  26.806  1.00  0.00     0.135 A 
ATOM     78  C   UNL A   1      42.850  23.456  28.286  1.00  0.00     0.135 A 
ATOM     79  F   UNL A   1      44.137  26.363  26.519  1.00  0.00    -0.206 F 
ATOM     80  C   UNL A   1      44.119  24.101  25.886  1.00  0.00     0.059 A 
ATOM     81  C   UNL A   1      43.156  22.444  27.384  1.00  0.00     0.059 A 
ATOM     82  F   UNL A   1      42.256  23.126  29.444  1.00  0.00    -0.206 F 
ATOM     83  C   UNL A   1      43.794  22.777  26.187  1.00  0.00     0.060 A 
BRANCH  83  84
ATOM     84  S   UNL A   1      44.287  21.457  25.056  1.00  0.00     0.124 S 
ATOM     85  O   UNL A   1      43.273  20.445  25.327  1.00  0.00    -0.237 OA
ATOM     86  O   UNL A   1      44.207  22.102  23.748  1.00  0.00    -0.237 OA
ATOM     87  O   UNL A   1      45.640  21.142  25.506  1.00  0.00    -0.744 OA
ENDBRANCH  83  84
ENDBRANCH  51  76
BRANCH  63  88
ATOM     88  C   UNL A   1      46.889  27.263  33.351  1.00  0.00     0.058 A 
ATOM     89  C   UNL A   1      48.092  27.759  32.827  1.00  0.00     0.135 A 
ATOM     90  C   UNL A   1      46.954  26.380  34.439  1.00  0.00     0.135 A 
ATOM     91  F   UNL A   1      48.076  28.604  31.784  1.00  0.00    -0.206 F 
ATOM     92  C   UNL A   1      49.323  27.386  33.357  1.00  0.00     0.059 A 
ATOM     93  C   UNL A   1      48.174  25.991  34.984  1.00  0.00     0.059 A 
ATOM     94  F   UNL A   1      45.828  25.875  34.966  1.00  0.00    -0.206 F 
ATOM     95  C   UNL A   1      49.353  26.492  34.428  1.00  0.00     0.060 A 
BRANCH  95  96
ATOM     96  S   UNL A   1      50.942  26.002  35.134  1.00  0.00     0.124 S 
ATOM     97  O   UNL A   1      51.372  24.970  34.196  1.00  0.00    -0.237 OA
ATOM     98  O   UNL A   1      51.711  27.243  35.105  1.00  0.00    -0.237 OA
ATOM     99  O   UNL A   1      50.577  25.533  36.467  1.00  0.00    -0.744 OA
ENDBRANCH  95  96
ENDBRANCH  63  88
ENDBRANCH  37  38
ENDBRANCH  29  32
ENDBRANCH  27  28
ENDBRANCH  26  27
ENDBRANCH   1  26
TORSDOF 18
ENDMDL
