MODEL 1
REMARK VINA RESULT:     -12.0      0.000      0.000
REMARK SMILES O=C(NCCCCNC(=O)c1c(-c2ccc(Cl)cc2)noc1CO[C@@H]1CCCCO1)c1ccc(-c2c3nc(c(-c4c(F)cc(S(=O)(=O)[O-])cc4F)c4ccc([nH]4)c(-c4c(F)cc(S(=O)(=O)[O-])cc4F)c4nc(c(-c5c(F)cc(S(=O)(=O)[O-])cc5F)c5ccc2[nH]5)C=C4)C=C3)cc1
REMARK SMILES IDX 5 1 4 2 3 3 1 4 2 5 31 7 32 8 96 9 33 10 95 11 34 12 35 13
REMARK SMILES IDX 36 14 89 15 37 16 94 17 88 18 90 19 38 20 93 21 87 22 86 23
REMARK SMILES IDX 39 25 73 26 52 27 72 28 53 29 56 30 71 31 91 32 54 33 55 34
REMARK SMILES IDX 70 36 92 37 57 38 40 39 41 40 50 41 42 42 43 43 49 44 51 45
REMARK SMILES IDX 44 46 45 47 46 48 47 49 48 50 74 51 75 52 84 53 76 54 77 55
REMARK SMILES IDX 83 56 85 57 78 58 79 59 80 60 81 61 82 62 58 63 59 64 68 65
REMARK SMILES IDX 60 66 61 67 67 68 69 69 62 70 63 71 64 72 65 73 66 74 6 75
REMARK SMILES IDX 7 76 8 77 9 78 10 80 11 81 12 82 22 83 20 84 21 85 13 86
REMARK SMILES IDX 14 87 19 88 15 89 18 90 16 91 17 92 23 93 24 94 25 95 26 96
REMARK SMILES IDX 30 97 27 98 29 99 28 100
REMARK H PARENT 3 6 90 24 56 35 8 79
REMARK Flexibility Score: inf
ROOT
ATOM      1  C   UNL A   1      32.726  27.839  26.031  1.00  0.00     0.023 C 
ENDROOT
BRANCH   1   2
ATOM      2  C   UNL A   1      33.658  28.262  27.165  1.00  0.00     0.116 C 
BRANCH   2   3
ATOM      3  N   UNL A   1      33.511  29.655  27.543  1.00  0.00    -0.352 N 
ATOM      4  O   UNL A   1      34.092  31.638  28.431  1.00  0.00    -0.269 OA
ATOM      5  C   UNL A   1      34.436  30.507  28.102  1.00  0.00     0.251 C 
ATOM      6  H   UNL A   1      32.624  30.047  27.377  1.00  0.00     0.163 HD
BRANCH   5   7
ATOM      7  C   UNL A   1      35.827  30.058  28.346  1.00  0.00     0.039 A 
ATOM      8  C   UNL A   1      36.241  29.603  29.602  1.00  0.00     0.014 A 
ATOM      9  C   UNL A   1      36.731  30.075  27.277  1.00  0.00     0.014 A 
ATOM     10  C   UNL A   1      37.580  29.270  29.813  1.00  0.00     0.010 A 
ATOM     11  C   UNL A   1      38.066  29.713  27.483  1.00  0.00     0.010 A 
ATOM     12  C   UNL A   1      38.506  29.343  28.761  1.00  0.00    -0.014 A 
BRANCH  12  13
ATOM     13  C   UNL A   1      39.935  29.054  29.025  1.00  0.00     0.031 A 
ATOM     14  C   UNL A   1      40.525  27.728  28.638  1.00  0.00     0.074 A 
ATOM     15  C   UNL A   1      40.720  30.003  29.565  1.00  0.00     0.049 A 
ATOM     16  N   UNL A   1      41.770  27.330  28.703  1.00  0.00    -0.248 NA
ATOM     17  C   UNL A   1      39.593  26.717  28.115  1.00  0.00     0.031 C 
ATOM     18  C   UNL A   1      40.268  31.324  30.003  1.00  0.00     0.029 A 
ATOM     19  N   UNL A   1      42.069  30.007  29.812  1.00  0.00    -0.354 N 
ATOM     20  C   UNL A   1      41.771  26.017  28.249  1.00  0.00     0.074 A 
ATOM     21  C   UNL A   1      40.403  25.688  27.907  1.00  0.00     0.031 C 
ATOM     22  C   UNL A   1      41.332  32.028  30.425  1.00  0.00     0.029 A 
ATOM     23  C   UNL A   1      42.534  31.209  30.284  1.00  0.00     0.049 A 
ATOM     24  H   UNL A   1      42.648  29.224  29.665  1.00  0.00     0.167 HD
ATOM     25  C   UNL A   1      42.815  25.161  28.128  1.00  0.00     0.037 A 
ATOM     26  C   UNL A   1      43.789  31.617  30.545  1.00  0.00     0.037 A 
ATOM     27  C   UNL A   1      44.180  25.483  28.441  1.00  0.00     0.049 A 
ATOM     28  C   UNL A   1      44.943  30.686  30.317  1.00  0.00     0.074 A 
ATOM     29  C   UNL A   1      45.301  24.672  28.364  1.00  0.00     0.029 A 
ATOM     30  N   UNL A   1      44.615  26.724  28.877  1.00  0.00    -0.354 N 
ATOM     31  N   UNL A   1      44.926  29.447  29.889  1.00  0.00    -0.248 NA
ATOM     32  C   UNL A   1      46.286  31.214  30.597  1.00  0.00     0.031 C 
ATOM     33  C   UNL A   1      46.417  25.431  28.745  1.00  0.00     0.029 A 
ATOM     34  C   UNL A   1      45.988  26.710  29.058  1.00  0.00     0.049 A 
ATOM     35  H   UNL A   1      44.033  27.502  29.033  1.00  0.00     0.167 HD
ATOM     36  C   UNL A   1      46.255  29.045  29.847  1.00  0.00     0.074 A 
ATOM     37  C   UNL A   1      47.050  30.174  30.286  1.00  0.00     0.031 C 
ATOM     38  C   UNL A   1      46.766  27.845  29.481  1.00  0.00     0.037 A 
BRANCH  25  39
ATOM     39  C   UNL A   1      42.491  23.785  27.636  1.00  0.00     0.058 A 
ATOM     40  C   UNL A   1      42.350  22.712  28.527  1.00  0.00     0.135 A 
ATOM     41  C   UNL A   1      42.373  23.527  26.262  1.00  0.00     0.135 A 
ATOM     42  F   UNL A   1      42.476  22.910  29.849  1.00  0.00    -0.206 F 
ATOM     43  C   UNL A   1      42.131  21.416  28.072  1.00  0.00     0.059 A 
ATOM     44  C   UNL A   1      42.152  22.240  25.785  1.00  0.00     0.059 A 
ATOM     45  F   UNL A   1      42.515  24.521  25.372  1.00  0.00    -0.206 F 
ATOM     46  C   UNL A   1      42.055  21.188  26.697  1.00  0.00     0.060 A 
BRANCH  46  47
ATOM     47  S   UNL A   1      41.842  19.503  26.082  1.00  0.00     0.124 S 
ATOM     48  O   UNL A   1      42.254  18.721  27.243  1.00  0.00    -0.237 OA
ATOM     49  O   UNL A   1      40.421  19.448  25.757  1.00  0.00    -0.237 OA
ATOM     50  O   UNL A   1      42.745  19.459  24.937  1.00  0.00    -0.744 OA
ENDBRANCH  46  47
ENDBRANCH  25  39
BRANCH  26  51
ATOM     51  C   UNL A   1      44.013  33.008  30.995  1.00  0.00     0.058 A 
ATOM     52  C   UNL A   1      44.147  34.044  30.062  1.00  0.00     0.135 A 
ATOM     53  C   UNL A   1      44.027  33.333  32.358  1.00  0.00     0.135 A 
ATOM     54  F   UNL A   1      44.133  33.770  28.748  1.00  0.00    -0.206 F 
ATOM     55  C   UNL A   1      44.275  35.369  30.464  1.00  0.00     0.059 A 
ATOM     56  C   UNL A   1      44.151  34.651  32.784  1.00  0.00     0.059 A 
ATOM     57  F   UNL A   1      43.895  32.369  33.281  1.00  0.00    -0.206 F 
ATOM     58  C   UNL A   1      44.272  35.663  31.828  1.00  0.00     0.060 A 
BRANCH  58  59
ATOM     59  S   UNL A   1      44.337  37.383  32.373  1.00  0.00     0.124 S 
ATOM     60  O   UNL A   1      45.725  37.500  32.805  1.00  0.00    -0.237 OA
ATOM     61  O   UNL A   1      43.983  38.123  31.166  1.00  0.00    -0.237 OA
ATOM     62  O   UNL A   1      43.334  37.417  33.433  1.00  0.00    -0.744 OA
ENDBRANCH  58  59
ENDBRANCH  26  51
BRANCH  38  63
ATOM     63  C   UNL A   1      48.256  27.699  29.536  1.00  0.00     0.058 A 
ATOM     64  C   UNL A   1      49.049  27.970  28.411  1.00  0.00     0.135 A 
ATOM     65  C   UNL A   1      48.896  27.304  30.719  1.00  0.00     0.135 A 
ATOM     66  F   UNL A   1      48.477  28.349  27.257  1.00  0.00    -0.206 F 
ATOM     67  C   UNL A   1      50.434  27.842  28.453  1.00  0.00     0.059 A 
ATOM     68  C   UNL A   1      50.279  27.170  30.784  1.00  0.00     0.059 A 
ATOM     69  F   UNL A   1      48.175  27.030  31.818  1.00  0.00    -0.206 F 
ATOM     70  C   UNL A   1      51.038  27.432  29.642  1.00  0.00     0.060 A 
BRANCH  70  71
ATOM     71  S   UNL A   1      52.836  27.274  29.721  1.00  0.00     0.124 S 
ATOM     72  O   UNL A   1      53.175  27.088  28.314  1.00  0.00    -0.237 OA
ATOM     73  O   UNL A   1      53.253  28.543  30.309  1.00  0.00    -0.237 OA
ATOM     74  O   UNL A   1      53.023  26.106  30.577  1.00  0.00    -0.744 OA
ENDBRANCH  70  71
ENDBRANCH  38  63
ENDBRANCH  12  13
ENDBRANCH   5   7
ENDBRANCH   2   3
ENDBRANCH   1   2
BRANCH   1  75
ATOM     75  C   UNL A   1      31.740  26.707  26.335  1.00  0.00     0.023 C 
BRANCH  75  76
ATOM     76  C   UNL A   1      32.257  25.282  26.142  1.00  0.00     0.116 C 
BRANCH  76  77
ATOM     77  N   UNL A   1      31.404  24.474  25.288  1.00  0.00    -0.352 N 
ATOM     78  C   UNL A   1      31.324  24.390  23.922  1.00  0.00     0.257 C 
ATOM     79  H   UNL A   1      30.779  23.887  25.772  1.00  0.00     0.163 HD
ATOM     80  O   UNL A   1      30.445  23.686  23.433  1.00  0.00    -0.269 OA
BRANCH  78  81
ATOM     81  C   UNL A   1      32.251  25.123  23.097  1.00  0.00     0.113 A 
ATOM     82  C   UNL A   1      32.111  26.439  22.559  1.00  0.00     0.127 A 
ATOM     83  C   UNL A   1      33.400  24.638  22.503  1.00  0.00     0.175 A 
ATOM     84  N   UNL A   1      33.172  26.746  21.794  1.00  0.00    -0.079 NA
ATOM     85  O   UNL A   1      33.973  25.628  21.770  1.00  0.00    -0.357 OA
BRANCH  82  86
ATOM     86  C   UNL A   1      31.019  27.400  22.723  1.00  0.00     0.005 A 
ATOM     87  C   UNL A   1      29.756  27.006  23.187  1.00  0.00     0.012 A 
ATOM     88  C   UNL A   1      31.229  28.752  22.403  1.00  0.00     0.012 A 
ATOM     89  C   UNL A   1      28.722  27.941  23.314  1.00  0.00     0.021 A 
ATOM     90  C   UNL A   1      30.198  29.687  22.530  1.00  0.00     0.021 A 
ATOM     91  C   UNL A   1      28.947  29.275  22.983  1.00  0.00     0.041 A 
ATOM     92  Cl  UNL A   1      27.676  30.424  23.138  1.00  0.00    -0.084 Cl
ENDBRANCH  82  86
BRANCH  83  93
ATOM     93  C   UNL A   1      34.077  23.318  22.478  1.00  0.00     0.242 C 
BRANCH  93  94
ATOM     94  O   UNL A   1      35.337  23.426  23.114  1.00  0.00    -0.345 OA
BRANCH  94  95
ATOM     95  C   UNL A   1      35.491  22.951  24.448  1.00  0.00     0.250 C 
ATOM     96  C   UNL A   1      36.059  23.931  25.482  1.00  0.00     0.062 C 
ATOM     97  O   UNL A   1      36.038  21.637  24.520  1.00  0.00    -0.353 OA
ATOM     98  C   UNL A   1      37.565  23.815  25.677  1.00  0.00     0.008 C 
ATOM     99  C   UNL A   1      37.449  21.544  24.639  1.00  0.00     0.163 C 
ATOM    100  C   UNL A   1      37.975  22.357  25.810  1.00  0.00     0.029 C 
ENDBRANCH  94  95
ENDBRANCH  93  94
ENDBRANCH  83  93
ENDBRANCH  78  81
ENDBRANCH  76  77
ENDBRANCH  75  76
ENDBRANCH   1  75
TORSDOF 18
ENDMDL
MODEL 2
REMARK VINA RESULT:     -11.7      1.810      4.193
REMARK SMILES O=C(NCCCCNC(=O)c1c(-c2ccc(Cl)cc2)noc1CO[C@@H]1CCCCO1)c1ccc(-c2c3nc(c(-c4c(F)cc(S(=O)(=O)[O-])cc4F)c4ccc([nH]4)c(-c4c(F)cc(S(=O)(=O)[O-])cc4F)c4nc(c(-c5c(F)cc(S(=O)(=O)[O-])cc5F)c5ccc2[nH]5)C=C4)C=C3)cc1
REMARK SMILES IDX 5 1 4 2 3 3 1 4 2 5 31 7 32 8 96 9 33 10 95 11 34 12 35 13
REMARK SMILES IDX 36 14 89 15 37 16 94 17 88 18 90 19 38 20 93 21 87 22 86 23
REMARK SMILES IDX 39 25 73 26 52 27 72 28 53 29 56 30 71 31 91 32 54 33 55 34
REMARK SMILES IDX 70 36 92 37 57 38 40 39 41 40 50 41 42 42 43 43 49 44 51 45
REMARK SMILES IDX 44 46 45 47 46 48 47 49 48 50 74 51 75 52 84 53 76 54 77 55
REMARK SMILES IDX 83 56 85 57 78 58 79 59 80 60 81 61 82 62 58 63 59 64 68 65
REMARK SMILES IDX 60 66 61 67 67 68 69 69 62 70 63 71 64 72 65 73 66 74 6 75
REMARK SMILES IDX 7 76 8 77 9 78 10 80 11 81 12 82 22 83 20 84 21 85 13 86
REMARK SMILES IDX 14 87 19 88 15 89 18 90 16 91 17 92 23 93 24 94 25 95 26 96
REMARK SMILES IDX 30 97 27 98 29 99 28 100
REMARK H PARENT 3 6 90 24 56 35 8 79
REMARK Flexibility Score: inf
ROOT
ATOM      1  C   UNL A   1      33.182  28.282  25.767  1.00  0.00     0.023 C 
ENDROOT
BRANCH   1   2
ATOM      2  C   UNL A   1      34.101  28.473  26.972  1.00  0.00     0.116 C 
BRANCH   2   3
ATOM      3  N   UNL A   1      33.919  29.748  27.641  1.00  0.00    -0.352 N 
ATOM      4  O   UNL A   1      34.445  31.502  28.946  1.00  0.00    -0.269 OA
ATOM      5  C   UNL A   1      34.819  30.476  28.385  1.00  0.00     0.251 C 
ATOM      6  H   UNL A   1      33.025  30.149  27.550  1.00  0.00     0.163 HD
BRANCH   5   7
ATOM      7  C   UNL A   1      36.217  30.012  28.547  1.00  0.00     0.039 A 
ATOM      8  C   UNL A   1      36.674  29.470  29.752  1.00  0.00     0.014 A 
ATOM      9  C   UNL A   1      37.082  30.106  27.451  1.00  0.00     0.014 A 
ATOM     10  C   UNL A   1      38.019  29.123  29.891  1.00  0.00     0.010 A 
ATOM     11  C   UNL A   1      38.423  29.732  27.583  1.00  0.00     0.010 A 
ATOM     12  C   UNL A   1      38.907  29.272  28.815  1.00  0.00    -0.014 A 
BRANCH  12  13
ATOM     13  C   UNL A   1      40.345  28.967  29.007  1.00  0.00     0.031 A 
ATOM     14  C   UNL A   1      40.898  27.631  28.600  1.00  0.00     0.074 A 
ATOM     15  C   UNL A   1      41.169  29.910  29.499  1.00  0.00     0.049 A 
ATOM     16  N   UNL A   1      42.139  27.217  28.603  1.00  0.00    -0.248 NA
ATOM     17  C   UNL A   1      39.927  26.629  28.133  1.00  0.00     0.031 C 
ATOM     18  C   UNL A   1      40.756  31.239  29.950  1.00  0.00     0.029 A 
ATOM     19  N   UNL A   1      42.528  29.898  29.676  1.00  0.00    -0.354 N 
ATOM     20  C   UNL A   1      42.100  25.902  28.159  1.00  0.00     0.074 A 
ATOM     21  C   UNL A   1      40.712  25.589  27.891  1.00  0.00     0.031 C 
ATOM     22  C   UNL A   1      41.849  31.933  30.311  1.00  0.00     0.029 A 
ATOM     23  C   UNL A   1      43.032  31.097  30.115  1.00  0.00     0.049 A 
ATOM     24  H   UNL A   1      43.089  29.107  29.505  1.00  0.00     0.167 HD
ATOM     25  C   UNL A   1      43.126  25.032  27.991  1.00  0.00     0.037 A 
ATOM     26  C   UNL A   1      44.304  31.490  30.308  1.00  0.00     0.037 A 
ATOM     27  C   UNL A   1      44.510  25.338  28.230  1.00  0.00     0.049 A 
ATOM     28  C   UNL A   1      45.433  30.543  30.027  1.00  0.00     0.074 A 
ATOM     29  C   UNL A   1      45.615  24.513  28.102  1.00  0.00     0.029 A 
ATOM     30  N   UNL A   1      44.981  26.576  28.635  1.00  0.00    -0.354 N 
ATOM     31  N   UNL A   1      45.378  29.302  29.609  1.00  0.00    -0.248 NA
ATOM     32  C   UNL A   1      46.795  31.056  30.233  1.00  0.00     0.031 C 
ATOM     33  C   UNL A   1      46.759  25.259  28.420  1.00  0.00     0.029 A 
ATOM     34  C   UNL A   1      46.362  26.546  28.745  1.00  0.00     0.049 A 
ATOM     35  H   UNL A   1      44.418  27.363  28.815  1.00  0.00     0.167 HD
ATOM     36  C   UNL A   1      46.698  28.883  29.502  1.00  0.00     0.074 A 
ATOM     37  C   UNL A   1      47.529  30.004  29.891  1.00  0.00     0.031 C 
ATOM     38  C   UNL A   1      47.175  27.674  29.119  1.00  0.00     0.037 A 
BRANCH  25  39
ATOM     39  C   UNL A   1      42.760  23.657  27.526  1.00  0.00     0.058 A 
ATOM     40  C   UNL A   1      42.537  22.619  28.442  1.00  0.00     0.135 A 
ATOM     41  C   UNL A   1      42.683  23.362  26.157  1.00  0.00     0.135 A 
ATOM     42  F   UNL A   1      42.622  22.851  29.761  1.00  0.00    -0.206 F 
ATOM     43  C   UNL A   1      42.279  21.320  28.016  1.00  0.00     0.059 A 
ATOM     44  C   UNL A   1      42.423  22.072  25.708  1.00  0.00     0.059 A 
ATOM     45  F   UNL A   1      42.903  24.322  25.245  1.00  0.00    -0.206 F 
ATOM     46  C   UNL A   1      42.244  21.054  26.646  1.00  0.00     0.060 A 
BRANCH  46  47
ATOM     47  S   UNL A   1      41.981  19.362  26.071  1.00  0.00     0.124 S 
ATOM     48  O   UNL A   1      40.549  19.377  25.787  1.00  0.00    -0.237 OA
ATOM     49  O   UNL A   1      42.854  19.270  24.905  1.00  0.00    -0.237 OA
ATOM     50  O   UNL A   1      42.389  18.561  27.220  1.00  0.00    -0.744 OA
ENDBRANCH  46  47
ENDBRANCH  25  39
BRANCH  26  51
ATOM     51  C   UNL A   1      44.568  32.882  30.736  1.00  0.00     0.058 A 
ATOM     52  C   UNL A   1      44.625  33.916  29.793  1.00  0.00     0.135 A 
ATOM     53  C   UNL A   1      44.697  33.208  32.092  1.00  0.00     0.135 A 
ATOM     54  F   UNL A   1      44.500  33.641  28.486  1.00  0.00    -0.206 F 
ATOM     55  C   UNL A   1      44.789  35.241  30.181  1.00  0.00     0.059 A 
ATOM     56  C   UNL A   1      44.860  34.526  32.504  1.00  0.00     0.059 A 
ATOM     57  F   UNL A   1      44.641  32.245  33.024  1.00  0.00    -0.206 F 
ATOM     58  C   UNL A   1      44.902  35.537  31.540  1.00  0.00     0.060 A 
BRANCH  58  59
ATOM     59  S   UNL A   1      45.017  37.258  32.076  1.00  0.00     0.124 S 
ATOM     60  O   UNL A   1      43.701  37.468  32.667  1.00  0.00    -0.237 OA
ATOM     61  O   UNL A   1      46.138  37.236  33.010  1.00  0.00    -0.237 OA
ATOM     62  O   UNL A   1      45.273  37.962  30.822  1.00  0.00    -0.744 OA
ENDBRANCH  58  59
ENDBRANCH  26  51
BRANCH  38  63
ATOM     63  C   UNL A   1      48.663  27.510  29.098  1.00  0.00     0.058 A 
ATOM     64  C   UNL A   1      49.359  27.081  30.238  1.00  0.00     0.135 A 
ATOM     65  C   UNL A   1      49.398  27.766  27.931  1.00  0.00     0.135 A 
ATOM     66  F   UNL A   1      48.695  26.827  31.377  1.00  0.00    -0.206 F 
ATOM     67  C   UNL A   1      50.740  26.921  30.228  1.00  0.00     0.059 A 
ATOM     68  C   UNL A   1      50.780  27.613  27.898  1.00  0.00     0.059 A 
ATOM     69  F   UNL A   1      48.774  28.183  26.817  1.00  0.00    -0.206 F 
ATOM     70  C   UNL A   1      51.443  27.200  29.055  1.00  0.00     0.060 A 
BRANCH  70  71
ATOM     71  S   UNL A   1      53.237  26.984  29.016  1.00  0.00     0.124 S 
ATOM     72  O   UNL A   1      53.399  26.095  27.871  1.00  0.00    -0.237 OA
ATOM     73  O   UNL A   1      53.728  28.346  28.833  1.00  0.00    -0.237 OA
ATOM     74  O   UNL A   1      53.522  26.394  30.321  1.00  0.00    -0.744 OA
ENDBRANCH  70  71
ENDBRANCH  38  63
ENDBRANCH  12  13
ENDBRANCH   5   7
ENDBRANCH   2   3
ENDBRANCH   1   2
BRANCH   1  75
ATOM     75  C   UNL A   1      33.845  28.300  24.386  1.00  0.00     0.023 C 
BRANCH  75  76
ATOM     76  C   UNL A   1      32.990  28.808  23.226  1.00  0.00     0.116 C 
BRANCH  76  77
ATOM     77  N   UNL A   1      32.763  27.806  22.200  1.00  0.00    -0.352 N 
ATOM     78  C   UNL A   1      32.058  26.630  22.236  1.00  0.00     0.257 C 
ATOM     79  H   UNL A   1      33.186  28.004  21.333  1.00  0.00     0.163 HD
ATOM     80  O   UNL A   1      32.091  25.902  21.248  1.00  0.00    -0.269 OA
BRANCH  78  81
ATOM     81  C   UNL A   1      31.311  26.271  23.415  1.00  0.00     0.113 A 
ATOM     82  C   UNL A   1      31.601  25.250  24.372  1.00  0.00     0.127 A 
ATOM     83  C   UNL A   1      30.055  26.721  23.774  1.00  0.00     0.175 A 
ATOM     84  N   UNL A   1      30.631  25.192  25.301  1.00  0.00    -0.079 NA
ATOM     85  O   UNL A   1      29.679  26.113  24.929  1.00  0.00    -0.357 OA
BRANCH  82  86
ATOM     86  C   UNL A   1      32.736  24.328  24.434  1.00  0.00     0.005 A 
ATOM     87  C   UNL A   1      34.053  24.791  24.558  1.00  0.00     0.012 A 
ATOM     88  C   UNL A   1      32.511  22.943  24.360  1.00  0.00     0.012 A 
ATOM     89  C   UNL A   1      35.123  23.889  24.592  1.00  0.00     0.021 A 
ATOM     90  C   UNL A   1      33.578  22.041  24.394  1.00  0.00     0.021 A 
ATOM     91  C   UNL A   1      34.880  22.520  24.508  1.00  0.00     0.041 A 
ATOM     92  Cl  UNL A   1      36.195  21.411  24.549  1.00  0.00    -0.084 Cl
ENDBRANCH  82  86
BRANCH  83  93
ATOM     93  C   UNL A   1      29.076  27.657  23.168  1.00  0.00     0.242 C 
BRANCH  93  94
ATOM     94  O   UNL A   1      29.703  28.376  22.122  1.00  0.00    -0.345 OA
BRANCH  94  95
ATOM     95  C   UNL A   1      29.826  29.791  22.221  1.00  0.00     0.250 C 
ATOM     96  C   UNL A   1      29.387  30.445  23.537  1.00  0.00     0.062 C 
ATOM     97  O   UNL A   1      29.396  30.479  21.049  1.00  0.00    -0.353 OA
ATOM     98  C   UNL A   1      27.953  30.960  23.519  1.00  0.00     0.008 C 
ATOM     99  C   UNL A   1      28.040  30.897  21.022  1.00  0.00     0.163 C 
ATOM    100  C   UNL A   1      27.678  31.731  22.238  1.00  0.00     0.029 C 
ENDBRANCH  94  95
ENDBRANCH  93  94
ENDBRANCH  83  93
ENDBRANCH  78  81
ENDBRANCH  76  77
ENDBRANCH  75  76
ENDBRANCH   1  75
TORSDOF 18
ENDMDL
MODEL 3
REMARK VINA RESULT:     -11.7      2.908      9.345
REMARK SMILES O=C(NCCCCNC(=O)c1c(-c2ccc(Cl)cc2)noc1CO[C@@H]1CCCCO1)c1ccc(-c2c3nc(c(-c4c(F)cc(S(=O)(=O)[O-])cc4F)c4ccc([nH]4)c(-c4c(F)cc(S(=O)(=O)[O-])cc4F)c4nc(c(-c5c(F)cc(S(=O)(=O)[O-])cc5F)c5ccc2[nH]5)C=C4)C=C3)cc1
REMARK SMILES IDX 5 1 4 2 3 3 1 4 2 5 31 7 32 8 96 9 33 10 95 11 34 12 35 13
REMARK SMILES IDX 36 14 89 15 37 16 94 17 88 18 90 19 38 20 93 21 87 22 86 23
REMARK SMILES IDX 39 25 73 26 52 27 72 28 53 29 56 30 71 31 91 32 54 33 55 34
REMARK SMILES IDX 70 36 92 37 57 38 40 39 41 40 50 41 42 42 43 43 49 44 51 45
REMARK SMILES IDX 44 46 45 47 46 48 47 49 48 50 74 51 75 52 84 53 76 54 77 55
REMARK SMILES IDX 83 56 85 57 78 58 79 59 80 60 81 61 82 62 58 63 59 64 68 65
REMARK SMILES IDX 60 66 61 67 67 68 69 69 62 70 63 71 64 72 65 73 66 74 6 75
REMARK SMILES IDX 7 76 8 77 9 78 10 80 11 81 12 82 22 83 20 84 21 85 13 86
REMARK SMILES IDX 14 87 19 88 15 89 18 90 16 91 17 92 23 93 24 94 25 95 26 96
REMARK SMILES IDX 30 97 27 98 29 99 28 100
REMARK H PARENT 3 6 90 24 56 35 8 79
REMARK Flexibility Score: inf
ROOT
ATOM      1  C   UNL A   1      34.175  29.013  27.563  1.00  0.00     0.023 C 
ENDROOT
BRANCH   1   2
ATOM      2  C   UNL A   1      35.342  29.864  28.057  1.00  0.00     0.116 C 
BRANCH   2   3
ATOM      3  N   UNL A   1      35.367  30.030  29.499  1.00  0.00    -0.352 N 
ATOM      4  O   UNL A   1      36.237  30.050  31.572  1.00  0.00    -0.269 OA
ATOM      5  C   UNL A   1      36.435  29.966  30.364  1.00  0.00     0.251 C 
ATOM      6  H   UNL A   1      34.495  30.215  29.918  1.00  0.00     0.163 HD
BRANCH   5   7
ATOM      7  C   UNL A   1      37.810  29.754  29.853  1.00  0.00     0.039 A 
ATOM      8  C   UNL A   1      38.132  29.961  28.508  1.00  0.00     0.014 A 
ATOM      9  C   UNL A   1      38.803  29.359  30.757  1.00  0.00     0.014 A 
ATOM     10  C   UNL A   1      39.418  29.668  28.050  1.00  0.00     0.010 A 
ATOM     11  C   UNL A   1      40.098  29.093  30.302  1.00  0.00     0.010 A 
ATOM     12  C   UNL A   1      40.404  29.212  28.939  1.00  0.00    -0.014 A 
BRANCH  12  13
ATOM     13  C   UNL A   1      41.740  28.839  28.419  1.00  0.00     0.031 A 
ATOM     14  C   UNL A   1      42.863  29.837  28.426  1.00  0.00     0.074 A 
ATOM     15  C   UNL A   1      41.963  27.585  27.986  1.00  0.00     0.049 A 
ATOM     16  N   UNL A   1      44.119  29.667  28.101  1.00  0.00    -0.248 NA
ATOM     17  C   UNL A   1      42.528  31.205  28.849  1.00  0.00     0.031 C 
ATOM     18  C   UNL A   1      40.955  26.527  27.909  1.00  0.00     0.029 A 
ATOM     19  N   UNL A   1      43.118  26.985  27.556  1.00  0.00    -0.354 N 
ATOM     20  C   UNL A   1      44.723  30.907  28.261  1.00  0.00     0.074 A 
ATOM     21  C   UNL A   1      43.695  31.820  28.716  1.00  0.00     0.031 C 
ATOM     22  C   UNL A   1      41.548  25.393  27.499  1.00  0.00     0.029 A 
ATOM     23  C   UNL A   1      42.971  25.646  27.289  1.00  0.00     0.049 A 
ATOM     24  H   UNL A   1      43.970  27.467  27.449  1.00  0.00     0.167 HD
ATOM     25  C   UNL A   1      46.014  31.257  28.046  1.00  0.00     0.037 A 
ATOM     26  C   UNL A   1      43.885  24.721  26.945  1.00  0.00     0.037 A 
ATOM     27  C   UNL A   1      47.048  30.356  27.618  1.00  0.00     0.049 A 
ATOM     28  C   UNL A   1      45.328  25.107  26.803  1.00  0.00     0.074 A 
ATOM     29  C   UNL A   1      48.382  30.627  27.359  1.00  0.00     0.029 A 
ATOM     30  N   UNL A   1      46.867  29.000  27.398  1.00  0.00    -0.354 N 
ATOM     31  N   UNL A   1      45.881  26.285  26.955  1.00  0.00    -0.248 NA
ATOM     32  C   UNL A   1      46.269  24.034  26.453  1.00  0.00     0.031 C 
ATOM     33  C   UNL A   1      49.010  29.427  26.993  1.00  0.00     0.029 A 
ATOM     34  C   UNL A   1      48.065  28.414  27.024  1.00  0.00     0.049 A 
ATOM     35  H   UNL A   1      46.012  28.522  27.495  1.00  0.00     0.167 HD
ATOM     36  C   UNL A   1      47.237  26.097  26.721  1.00  0.00     0.074 A 
ATOM     37  C   UNL A   1      47.422  24.691  26.423  1.00  0.00     0.031 C 
ATOM     38  C   UNL A   1      48.236  27.013  26.746  1.00  0.00     0.037 A 
BRANCH  25  39
ATOM     39  C   UNL A   1      46.358  32.696  28.275  1.00  0.00     0.058 A 
ATOM     40  C   UNL A   1      46.221  33.645  27.252  1.00  0.00     0.135 A 
ATOM     41  C   UNL A   1      46.879  33.119  29.507  1.00  0.00     0.135 A 
ATOM     42  F   UNL A   1      45.747  33.279  26.050  1.00  0.00    -0.206 F 
ATOM     43  C   UNL A   1      46.617  34.966  27.432  1.00  0.00     0.059 A 
ATOM     44  C   UNL A   1      47.279  34.435  29.710  1.00  0.00     0.059 A 
ATOM     45  F   UNL A   1      47.042  32.241  30.509  1.00  0.00    -0.206 F 
ATOM     46  C   UNL A   1      47.164  35.345  28.658  1.00  0.00     0.060 A 
BRANCH  46  47
ATOM     47  S   UNL A   1      47.750  37.038  28.889  1.00  0.00     0.124 S 
ATOM     48  O   UNL A   1      49.193  36.832  28.973  1.00  0.00    -0.237 OA
ATOM     49  O   UNL A   1      47.280  37.717  27.686  1.00  0.00    -0.237 OA
ATOM     50  O   UNL A   1      47.096  37.443  30.129  1.00  0.00    -0.744 OA
ENDBRANCH  46  47
ENDBRANCH  25  39
BRANCH  26  51
ATOM     51  C   UNL A   1      43.454  23.316  26.774  1.00  0.00     0.058 A 
ATOM     52  C   UNL A   1      43.324  22.764  25.493  1.00  0.00     0.135 A 
ATOM     53  C   UNL A   1      43.233  22.488  27.882  1.00  0.00     0.135 A 
ATOM     54  F   UNL A   1      43.533  23.527  24.409  1.00  0.00    -0.206 F 
ATOM     55  C   UNL A   1      43.000  21.424  25.311  1.00  0.00     0.059 A 
ATOM     56  C   UNL A   1      42.910  21.144  27.725  1.00  0.00     0.059 A 
ATOM     57  F   UNL A   1      43.354  22.979  29.124  1.00  0.00    -0.206 F 
ATOM     58  C   UNL A   1      42.799  20.621  26.434  1.00  0.00     0.060 A 
BRANCH  58  59
ATOM     59  S   UNL A   1      42.475  18.857  26.226  1.00  0.00     0.124 S 
ATOM     60  O   UNL A   1      42.556  18.381  27.602  1.00  0.00    -0.237 OA
ATOM     61  O   UNL A   1      41.147  18.836  25.623  1.00  0.00    -0.237 OA
ATOM     62  O   UNL A   1      43.560  18.439  25.343  1.00  0.00    -0.744 OA
ENDBRANCH  58  59
ENDBRANCH  26  51
BRANCH  38  63
ATOM     63  C   UNL A   1      49.617  26.514  26.450  1.00  0.00     0.058 A 
ATOM     64  C   UNL A   1      50.090  26.440  25.131  1.00  0.00     0.135 A 
ATOM     65  C   UNL A   1      50.477  26.123  27.485  1.00  0.00     0.135 A 
ATOM     66  F   UNL A   1      49.299  26.802  24.110  1.00  0.00    -0.206 F 
ATOM     67  C   UNL A   1      51.372  25.982  24.846  1.00  0.00     0.059 A 
ATOM     68  C   UNL A   1      51.764  25.662  27.223  1.00  0.00     0.059 A 
ATOM     69  F   UNL A   1      50.065  26.173  28.762  1.00  0.00    -0.206 F 
ATOM     70  C   UNL A   1      52.198  25.586  25.899  1.00  0.00     0.060 A 
BRANCH  70  71
ATOM     71  S   UNL A   1      53.872  25.003  25.550  1.00  0.00     0.124 S 
ATOM     72  O   UNL A   1      54.414  24.849  26.896  1.00  0.00    -0.237 OA
ATOM     73  O   UNL A   1      53.643  23.763  24.816  1.00  0.00    -0.237 OA
ATOM     74  O   UNL A   1      54.439  26.093  24.761  1.00  0.00    -0.744 OA
ENDBRANCH  70  71
ENDBRANCH  38  63
ENDBRANCH  12  13
ENDBRANCH   5   7
ENDBRANCH   2   3
ENDBRANCH   1   2
BRANCH   1  75
ATOM     75  C   UNL A   1      34.245  28.522  26.113  1.00  0.00     0.023 C 
BRANCH  75  76
ATOM     76  C   UNL A   1      33.540  29.384  25.066  1.00  0.00     0.116 C 
BRANCH  76  77
ATOM     77  N   UNL A   1      33.987  29.118  23.710  1.00  0.00    -0.352 N 
ATOM     78  C   UNL A   1      33.540  28.217  22.779  1.00  0.00     0.257 C 
ATOM     79  H   UNL A   1      34.737  29.681  23.409  1.00  0.00     0.163 HD
ATOM     80  O   UNL A   1      34.152  28.124  21.719  1.00  0.00    -0.269 OA
BRANCH  78  81
ATOM     81  C   UNL A   1      32.384  27.402  23.059  1.00  0.00     0.113 A 
ATOM     82  C   UNL A   1      32.341  26.026  23.443  1.00  0.00     0.127 A 
ATOM     83  C   UNL A   1      31.060  27.731  22.842  1.00  0.00     0.175 A 
ATOM     84  N   UNL A   1      31.067  25.613  23.559  1.00  0.00    -0.079 NA
ATOM     85  O   UNL A   1      30.277  26.679  23.193  1.00  0.00    -0.357 OA
BRANCH  82  86
ATOM     86  C   UNL A   1      33.442  25.093  23.685  1.00  0.00     0.005 A 
ATOM     87  C   UNL A   1      34.290  25.227  24.793  1.00  0.00     0.012 A 
ATOM     88  C   UNL A   1      33.669  24.037  22.785  1.00  0.00     0.012 A 
ATOM     89  C   UNL A   1      35.350  24.335  24.990  1.00  0.00     0.021 A 
ATOM     90  C   UNL A   1      34.728  23.145  22.981  1.00  0.00     0.021 A 
ATOM     91  C   UNL A   1      35.565  23.300  24.082  1.00  0.00     0.041 A 
ATOM     92  Cl  UNL A   1      36.868  22.204  24.323  1.00  0.00    -0.084 Cl
ENDBRANCH  82  86
BRANCH  83  93
ATOM     93  C   UNL A   1      30.364  28.925  22.301  1.00  0.00     0.242 C 
BRANCH  93  94
ATOM     94  O   UNL A   1      29.773  29.645  23.366  1.00  0.00    -0.345 OA
BRANCH  94  95
ATOM     95  C   UNL A   1      28.521  30.293  23.165  1.00  0.00     0.250 C 
ATOM     96  C   UNL A   1      27.873  30.156  21.781  1.00  0.00     0.062 C 
ATOM     97  O   UNL A   1      28.472  31.608  23.710  1.00  0.00    -0.353 OA
ATOM     98  C   UNL A   1      28.185  31.312  20.840  1.00  0.00     0.008 C 
ATOM     99  C   UNL A   1      28.826  32.670  22.838  1.00  0.00     0.163 C 
ATOM    100  C   UNL A   1      28.015  32.644  21.553  1.00  0.00     0.029 C 
ENDBRANCH  94  95
ENDBRANCH  93  94
ENDBRANCH  83  93
ENDBRANCH  78  81
ENDBRANCH  76  77
ENDBRANCH  75  76
ENDBRANCH   1  75
TORSDOF 18
ENDMDL
