MODEL 1
REMARK VINA RESULT:     -13.1      0.000      0.000
REMARK SMILES CCC(=O)N1CCC[C@](C[C@H]2CC(c3ccc(C)cc3)=NO2)(C(=O)NCCCCNC(=O)c2ccc(-c3c4nc(c(-c5c(F)cc(S(=O)(=O)[O-])cc5F)c5ccc([nH]5)c(-c5c(F)cc(S(=O)(=O)[O-])cc5F)c5nc(c(-c6c(F)cc(S(=O)(=O)[O-])cc6F)c6ccc3[nH]6)C=C5)C=C4)cc2)C1
REMARK SMILES IDX 27 1 26 2 25 3 23 4 24 5 9 7 5 8 6 9 99 10 7 11 8 12 3 13
REMARK SMILES IDX 4 14 2 15 1 16 10 17 11 18 12 19 22 20 13 21 21 22 14 23
REMARK SMILES IDX 15 24 20 25 16 26 19 27 17 28 18 29 28 30 29 31 30 32 31 33
REMARK SMILES IDX 32 35 33 36 34 37 98 38 35 39 97 40 36 41 37 42 38 43 91 44
REMARK SMILES IDX 39 45 96 46 90 47 92 48 40 49 95 50 89 51 88 52 41 54 75 55
REMARK SMILES IDX 54 56 74 57 55 58 58 59 73 60 93 61 56 62 57 63 72 65 94 66
REMARK SMILES IDX 59 67 42 68 43 69 52 70 44 71 45 72 51 73 53 74 46 75 47 76
REMARK SMILES IDX 48 77 49 78 50 79 76 80 77 81 86 82 78 83 79 84 85 85 87 86
REMARK SMILES IDX 80 87 81 88 82 89 83 90 84 91 60 92 61 93 70 94 62 95 63 96
REMARK SMILES IDX 69 97 71 98 64 99 65 100 66 101 67 102 68 103
REMARK H PARENT 25 6 30 34 92 53 58 64
REMARK Flexibility Score: inf
ROOT
ATOM      1  C   UNL A   1      31.451  28.257  27.563  1.00  0.00     0.023 C 
ENDROOT
BRANCH   1   2
ATOM      2  C   UNL A   1      31.730  27.220  26.466  1.00  0.00     0.116 C 
BRANCH   2   3
ATOM      3  N   UNL A   1      31.446  25.851  26.845  1.00  0.00    -0.356 N 
ATOM      4  C   UNL A   1      31.957  24.645  26.514  1.00  0.00     0.228 C 
ATOM      5  O   UNL A   1      31.591  23.735  27.279  1.00  0.00    -0.274 OA
ATOM      6  H   UNL A   1      30.711  25.783  27.497  1.00  0.00     0.163 HD
BRANCH   4   7
ATOM      7  C   UNL A   1      32.795  24.261  25.245  1.00  0.00     0.070 C 
ATOM      8  N   UNL A   1      32.010  25.758  23.308  1.00  0.00    -0.342 N 
ATOM      9  C   UNL A   1      31.058  24.719  22.893  1.00  0.00     0.119 C 
ATOM     10  C   UNL A   1      33.101  25.362  24.207  1.00  0.00     0.136 C 
ATOM     11  C   UNL A   1      30.717  23.681  23.948  1.00  0.00     0.023 C 
ATOM     12  C   UNL A   1      31.990  23.134  24.567  1.00  0.00     0.021 C 
BRANCH   8  13
ATOM     13  C   UNL A   1      32.019  26.887  22.483  1.00  0.00     0.222 C 
ATOM     14  O   UNL A   1      31.061  27.071  21.713  1.00  0.00    -0.275 OA
BRANCH  13  15
ATOM     15  C   UNL A   1      33.172  27.889  22.378  1.00  0.00     0.097 C 
ATOM     16  C   UNL A   1      33.609  28.816  23.490  1.00  0.00     0.014 C 
ENDBRANCH  13  15
ENDBRANCH   8  13
BRANCH   7  17
ATOM     17  C   UNL A   1      34.136  23.689  25.863  1.00  0.00     0.067 C 
BRANCH  17  18
ATOM     18  C   UNL A   1      35.502  23.724  25.154  1.00  0.00     0.211 C 
ATOM     19  C   UNL A   1      36.740  23.553  26.006  1.00  0.00     0.108 C 
ATOM     20  O   UNL A   1      35.587  22.782  24.084  1.00  0.00    -0.392 OA
ATOM     21  C   UNL A   1      37.334  22.371  25.332  1.00  0.00     0.091 C 
ATOM     22  N   UNL A   1      36.731  21.973  24.262  1.00  0.00    -0.090 NA
BRANCH  21  23
ATOM     23  C   UNL A   1      38.586  21.773  25.816  1.00  0.00    -0.001 A 
ATOM     24  C   UNL A   1      38.937  20.467  25.473  1.00  0.00     0.010 A 
ATOM     25  C   UNL A   1      39.414  22.533  26.646  1.00  0.00     0.010 A 
ATOM     26  C   UNL A   1      40.116  19.912  25.980  1.00  0.00     0.004 A 
ATOM     27  C   UNL A   1      40.580  21.969  27.165  1.00  0.00     0.004 A 
ATOM     28  C   UNL A   1      40.940  20.655  26.838  1.00  0.00    -0.051 A 
ATOM     29  C   UNL A   1      42.181  20.054  27.429  1.00  0.00     0.044 C 
ENDBRANCH  21  23
ENDBRANCH  17  18
ENDBRANCH   7  17
ENDBRANCH   4   7
ENDBRANCH   2   3
ENDBRANCH   1   2
BRANCH   1  30
ATOM     30  C   UNL A   1      31.858  29.692  27.236  1.00  0.00     0.023 C 
BRANCH  30  31
ATOM     31  C   UNL A   1      33.354  29.845  27.003  1.00  0.00     0.116 C 
BRANCH  31  32
ATOM     32  N   UNL A   1      33.922  31.165  27.154  1.00  0.00    -0.352 N 
ATOM     33  C   UNL A   1      34.979  31.543  27.981  1.00  0.00     0.251 C 
ATOM     34  H   UNL A   1      33.517  31.879  26.612  1.00  0.00     0.163 HD
ATOM     35  O   UNL A   1      35.099  32.707  28.319  1.00  0.00    -0.269 OA
BRANCH  33  36
ATOM     36  C   UNL A   1      36.018  30.532  28.352  1.00  0.00     0.039 A 
ATOM     37  C   UNL A   1      35.924  29.893  29.598  1.00  0.00     0.014 A 
ATOM     38  C   UNL A   1      37.158  30.345  27.584  1.00  0.00     0.014 A 
ATOM     39  C   UNL A   1      37.031  29.223  30.134  1.00  0.00     0.010 A 
ATOM     40  C   UNL A   1      38.290  29.836  28.166  1.00  0.00     0.010 A 
ATOM     41  C   UNL A   1      38.235  29.268  29.442  1.00  0.00    -0.014 A 
BRANCH  41  42
ATOM     42  C   UNL A   1      39.533  28.773  29.880  1.00  0.00     0.031 A 
ATOM     43  C   UNL A   1      40.035  27.487  29.338  1.00  0.00     0.074 A 
ATOM     44  C   UNL A   1      40.391  29.688  30.378  1.00  0.00     0.049 A 
ATOM     45  N   UNL A   1      41.150  26.930  29.663  1.00  0.00    -0.248 NA
ATOM     46  C   UNL A   1      39.297  26.723  28.336  1.00  0.00     0.031 C 
ATOM     47  C   UNL A   1      41.848  29.675  30.304  1.00  0.00     0.029 A 
ATOM     48  N   UNL A   1      40.102  30.772  31.200  1.00  0.00    -0.354 N 
ATOM     49  C   UNL A   1      41.429  25.955  28.725  1.00  0.00     0.074 A 
ATOM     50  C   UNL A   1      40.213  25.829  27.958  1.00  0.00     0.031 C 
ATOM     51  C   UNL A   1      42.340  30.536  31.211  1.00  0.00     0.029 A 
ATOM     52  C   UNL A   1      41.222  30.982  32.024  1.00  0.00     0.049 A 
ATOM     53  H   UNL A   1      39.268  31.296  31.203  1.00  0.00     0.167 HD
ATOM     54  C   UNL A   1      42.706  25.477  28.624  1.00  0.00     0.037 A 
ATOM     55  C   UNL A   1      41.120  30.750  33.370  1.00  0.00     0.037 A 
ATOM     56  C   UNL A   1      43.551  26.068  29.668  1.00  0.00     0.049 A 
ATOM     57  C   UNL A   1      41.966  29.592  33.858  1.00  0.00     0.074 A 
ATOM     58  C   UNL A   1      44.473  27.101  29.656  1.00  0.00     0.029 A 
ATOM     59  N   UNL A   1      43.276  25.803  31.007  1.00  0.00    -0.354 N 
ATOM     60  N   UNL A   1      42.486  28.682  33.082  1.00  0.00    -0.248 NA
ATOM     61  C   UNL A   1      42.298  29.372  35.263  1.00  0.00     0.031 C 
ATOM     62  C   UNL A   1      44.690  27.512  30.995  1.00  0.00     0.029 A 
ATOM     63  C   UNL A   1      43.918  26.715  31.824  1.00  0.00     0.049 A 
ATOM     64  H   UNL A   1      42.704  25.069  31.328  1.00  0.00     0.167 HD
ATOM     65  C   UNL A   1      43.164  27.758  33.832  1.00  0.00     0.074 A 
ATOM     66  C   UNL A   1      43.042  28.253  35.191  1.00  0.00     0.031 C 
ATOM     67  C   UNL A   1      43.759  26.662  33.271  1.00  0.00     0.037 A 
BRANCH  54  68
ATOM     68  C   UNL A   1      43.275  24.707  27.437  1.00  0.00     0.058 A 
ATOM     69  C   UNL A   1      43.928  23.466  27.630  1.00  0.00     0.135 A 
ATOM     70  C   UNL A   1      43.260  25.139  26.094  1.00  0.00     0.135 A 
ATOM     71  F   UNL A   1      43.942  22.857  28.823  1.00  0.00    -0.206 F 
ATOM     72  C   UNL A   1      44.602  22.782  26.613  1.00  0.00     0.059 A 
ATOM     73  C   UNL A   1      43.967  24.499  25.068  1.00  0.00     0.059 A 
ATOM     74  F   UNL A   1      42.504  26.165  25.693  1.00  0.00    -0.206 F 
ATOM     75  C   UNL A   1      44.647  23.323  25.338  1.00  0.00     0.060 A 
BRANCH  75  76
ATOM     76  S   UNL A   1      45.567  22.462  24.051  1.00  0.00     0.124 S 
ATOM     77  O   UNL A   1      44.546  22.263  23.026  1.00  0.00    -0.237 OA
ATOM     78  O   UNL A   1      46.614  23.425  23.726  1.00  0.00    -0.237 OA
ATOM     79  O   UNL A   1      46.024  21.244  24.714  1.00  0.00    -0.744 OA
ENDBRANCH  75  76
ENDBRANCH  54  68
BRANCH  55  80
ATOM     80  C   UNL A   1      39.781  31.139  33.905  1.00  0.00     0.058 A 
ATOM     81  C   UNL A   1      39.587  32.507  34.189  1.00  0.00     0.135 A 
ATOM     82  C   UNL A   1      38.644  30.366  33.625  1.00  0.00     0.135 A 
ATOM     83  F   UNL A   1      40.641  33.285  34.484  1.00  0.00    -0.206 F 
ATOM     84  C   UNL A   1      38.356  33.122  33.992  1.00  0.00     0.059 A 
ATOM     85  C   UNL A   1      37.395  30.962  33.438  1.00  0.00     0.059 A 
ATOM     86  F   UNL A   1      38.766  29.056  33.356  1.00  0.00    -0.206 F 
ATOM     87  C   UNL A   1      37.289  32.350  33.539  1.00  0.00     0.060 A 
BRANCH  87  88
ATOM     88  S   UNL A   1      35.855  33.222  32.862  1.00  0.00     0.124 S 
ATOM     89  O   UNL A   1      35.005  33.367  34.039  1.00  0.00    -0.237 OA
ATOM     90  O   UNL A   1      36.477  34.449  32.370  1.00  0.00    -0.237 OA
ATOM     91  O   UNL A   1      35.362  32.309  31.836  1.00  0.00    -0.744 OA
ENDBRANCH  87  88
ENDBRANCH  55  80
BRANCH  67  92
ATOM     92  C   UNL A   1      44.332  25.479  34.021  1.00  0.00     0.058 A 
ATOM     93  C   UNL A   1      43.556  24.523  34.699  1.00  0.00     0.135 A 
ATOM     94  C   UNL A   1      45.720  25.195  33.956  1.00  0.00     0.135 A 
ATOM     95  F   UNL A   1      42.219  24.603  34.731  1.00  0.00    -0.206 F 
ATOM     96  C   UNL A   1      44.120  23.414  35.335  1.00  0.00     0.059 A 
ATOM     97  C   UNL A   1      46.294  24.064  34.530  1.00  0.00     0.059 A 
ATOM     98  F   UNL A   1      46.573  26.008  33.313  1.00  0.00    -0.206 F 
ATOM     99  C   UNL A   1      45.490  23.193  35.247  1.00  0.00     0.060 A 
BRANCH  99 100
ATOM    100  S   UNL A   1      46.218  21.739  36.021  1.00  0.00     0.124 S 
ATOM    101  O   UNL A   1      47.559  21.744  35.445  1.00  0.00    -0.237 OA
ATOM    102  O   UNL A   1      46.144  22.055  37.445  1.00  0.00    -0.237 OA
ATOM    103  O   UNL A   1      45.344  20.656  35.582  1.00  0.00    -0.744 OA
ENDBRANCH  99 100
ENDBRANCH  67  92
ENDBRANCH  41  42
ENDBRANCH  33  36
ENDBRANCH  31  32
ENDBRANCH  30  31
ENDBRANCH   1  30
TORSDOF 19
ENDMDL
MODEL 2
REMARK VINA RESULT:     -12.6      1.540      2.644
REMARK SMILES CCC(=O)N1CCC[C@](C[C@H]2CC(c3ccc(C)cc3)=NO2)(C(=O)NCCCCNC(=O)c2ccc(-c3c4nc(c(-c5c(F)cc(S(=O)(=O)[O-])cc5F)c5ccc([nH]5)c(-c5c(F)cc(S(=O)(=O)[O-])cc5F)c5nc(c(-c6c(F)cc(S(=O)(=O)[O-])cc6F)c6ccc3[nH]6)C=C5)C=C4)cc2)C1
REMARK SMILES IDX 27 1 26 2 25 3 23 4 24 5 9 7 5 8 6 9 99 10 7 11 8 12 3 13
REMARK SMILES IDX 4 14 2 15 1 16 10 17 11 18 12 19 22 20 13 21 21 22 14 23
REMARK SMILES IDX 15 24 20 25 16 26 19 27 17 28 18 29 28 30 29 31 30 32 31 33
REMARK SMILES IDX 32 35 33 36 34 37 98 38 35 39 97 40 36 41 37 42 38 43 91 44
REMARK SMILES IDX 39 45 96 46 90 47 92 48 40 49 95 50 89 51 88 52 41 54 75 55
REMARK SMILES IDX 54 56 74 57 55 58 58 59 73 60 93 61 56 62 57 63 72 65 94 66
REMARK SMILES IDX 59 67 42 68 43 69 52 70 44 71 45 72 51 73 53 74 46 75 47 76
REMARK SMILES IDX 48 77 49 78 50 79 76 80 77 81 86 82 78 83 79 84 85 85 87 86
REMARK SMILES IDX 80 87 81 88 82 89 83 90 84 91 60 92 61 93 70 94 62 95 63 96
REMARK SMILES IDX 69 97 71 98 64 99 65 100 66 101 67 102 68 103
REMARK H PARENT 25 6 30 34 92 53 58 64
REMARK Flexibility Score: inf
ROOT
ATOM      1  C   UNL A   1      33.548  27.453  25.345  1.00  0.00     0.023 C 
ENDROOT
BRANCH   1   2
ATOM      2  C   UNL A   1      32.495  26.595  24.628  1.00  0.00     0.116 C 
BRANCH   2   3
ATOM      3  N   UNL A   1      33.040  25.622  23.703  1.00  0.00    -0.356 N 
ATOM      4  C   UNL A   1      33.360  24.312  23.777  1.00  0.00     0.228 C 
ATOM      5  O   UNL A   1      33.555  23.795  22.663  1.00  0.00    -0.274 OA
ATOM      6  H   UNL A   1      33.217  26.004  22.812  1.00  0.00     0.163 HD
BRANCH   4   7
ATOM      7  C   UNL A   1      33.647  23.454  25.058  1.00  0.00     0.070 C 
ATOM      8  N   UNL A   1      32.659  21.113  24.667  1.00  0.00    -0.342 N 
ATOM      9  C   UNL A   1      31.414  21.530  25.326  1.00  0.00     0.119 C 
ATOM     10  C   UNL A   1      33.856  21.933  24.891  1.00  0.00     0.136 C 
ATOM     11  C   UNL A   1      31.193  23.030  25.423  1.00  0.00     0.023 C 
ATOM     12  C   UNL A   1      32.435  23.701  25.978  1.00  0.00     0.021 C 
BRANCH   8  13
ATOM     13  C   UNL A   1      32.668  19.776  24.255  1.00  0.00     0.222 C 
ATOM     14  O   UNL A   1      32.133  19.483  23.171  1.00  0.00    -0.275 OA
BRANCH  13  15
ATOM     15  C   UNL A   1      33.209  18.605  25.079  1.00  0.00     0.097 C 
ATOM     16  C   UNL A   1      32.499  17.283  25.262  1.00  0.00     0.014 C 
ENDBRANCH  13  15
ENDBRANCH   8  13
BRANCH   7  17
ATOM     17  C   UNL A   1      34.946  24.132  25.658  1.00  0.00     0.067 C 
BRANCH  17  18
ATOM     18  C   UNL A   1      36.361  23.961  25.077  1.00  0.00     0.211 C 
ATOM     19  C   UNL A   1      37.475  23.603  26.036  1.00  0.00     0.108 C 
ATOM     20  O   UNL A   1      36.402  23.019  24.005  1.00  0.00    -0.392 OA
ATOM     21  C   UNL A   1      37.944  22.346  25.400  1.00  0.00     0.091 C 
ATOM     22  N   UNL A   1      37.390  22.045  24.273  1.00  0.00    -0.090 NA
BRANCH  21  23
ATOM     23  C   UNL A   1      39.042  21.564  25.985  1.00  0.00    -0.001 A 
ATOM     24  C   UNL A   1      39.888  22.121  26.945  1.00  0.00     0.010 A 
ATOM     25  C   UNL A   1      39.238  20.252  25.546  1.00  0.00     0.010 A 
ATOM     26  C   UNL A   1      40.948  21.365  27.455  1.00  0.00     0.004 A 
ATOM     27  C   UNL A   1      40.308  19.507  26.043  1.00  0.00     0.004 A 
ATOM     28  C   UNL A   1      41.171  20.057  27.000  1.00  0.00    -0.051 A 
ATOM     29  C   UNL A   1      42.335  19.254  27.502  1.00  0.00     0.044 C 
ENDBRANCH  21  23
ENDBRANCH  17  18
ENDBRANCH   7  17
ENDBRANCH   4   7
ENDBRANCH   2   3
ENDBRANCH   1   2
BRANCH   1  30
ATOM     30  C   UNL A   1      33.290  28.959  25.339  1.00  0.00     0.023 C 
BRANCH  30  31
ATOM     31  C   UNL A   1      33.288  29.564  26.735  1.00  0.00     0.116 C 
BRANCH  31  32
ATOM     32  N   UNL A   1      33.766  30.921  26.875  1.00  0.00    -0.352 N 
ATOM     33  C   UNL A   1      34.794  31.375  27.700  1.00  0.00     0.251 C 
ATOM     34  H   UNL A   1      33.314  31.601  26.327  1.00  0.00     0.163 HD
ATOM     35  O   UNL A   1      34.835  32.548  28.028  1.00  0.00    -0.269 OA
BRANCH  33  36
ATOM     36  C   UNL A   1      35.897  30.440  28.080  1.00  0.00     0.039 A 
ATOM     37  C   UNL A   1      35.969  29.981  29.404  1.00  0.00     0.014 A 
ATOM     38  C   UNL A   1      36.946  30.160  27.214  1.00  0.00     0.014 A 
ATOM     39  C   UNL A   1      37.150  29.407  29.891  1.00  0.00     0.010 A 
ATOM     40  C   UNL A   1      38.151  29.752  27.721  1.00  0.00     0.010 A 
ATOM     41  C   UNL A   1      38.262  29.369  29.060  1.00  0.00    -0.014 A 
BRANCH  41  42
ATOM     42  C   UNL A   1      39.617  28.957  29.403  1.00  0.00     0.031 A 
ATOM     43  C   UNL A   1      40.058  27.579  29.073  1.00  0.00     0.074 A 
ATOM     44  C   UNL A   1      40.522  29.942  29.577  1.00  0.00     0.049 A 
ATOM     45  N   UNL A   1      41.216  27.085  29.346  1.00  0.00    -0.248 NA
ATOM     46  C   UNL A   1      39.198  26.636  28.364  1.00  0.00     0.031 C 
ATOM     47  C   UNL A   1      41.955  29.894  29.303  1.00  0.00     0.029 A 
ATOM     48  N   UNL A   1      40.335  31.176  30.190  1.00  0.00    -0.354 N 
ATOM     49  C   UNL A   1      41.374  25.935  28.598  1.00  0.00     0.074 A 
ATOM     50  C   UNL A   1      40.065  25.671  28.052  1.00  0.00     0.031 C 
ATOM     51  C   UNL A   1      42.556  30.916  29.935  1.00  0.00     0.029 A 
ATOM     52  C   UNL A   1      41.556  31.536  30.788  1.00  0.00     0.049 A 
ATOM     53  H   UNL A   1      39.502  31.701  30.203  1.00  0.00     0.167 HD
ATOM     54  C   UNL A   1      42.632  25.428  28.419  1.00  0.00     0.037 A 
ATOM     55  C   UNL A   1      41.648  31.587  32.154  1.00  0.00     0.037 A 
ATOM     56  C   UNL A   1      43.606  26.209  29.191  1.00  0.00     0.049 A 
ATOM     57  C   UNL A   1      42.572  30.542  32.745  1.00  0.00     0.074 A 
ATOM     58  C   UNL A   1      44.501  27.205  28.836  1.00  0.00     0.029 A 
ATOM     59  N   UNL A   1      43.526  26.230  30.580  1.00  0.00    -0.354 N 
ATOM     60  N   UNL A   1      42.992  29.485  32.108  1.00  0.00    -0.248 NA
ATOM     61  C   UNL A   1      43.101  30.612  34.104  1.00  0.00     0.031 C 
ATOM     62  C   UNL A   1      44.899  27.880  30.018  1.00  0.00     0.029 A 
ATOM     63  C   UNL A   1      44.262  27.281  31.093  1.00  0.00     0.049 A 
ATOM     64  H   UNL A   1      43.016  25.586  31.122  1.00  0.00     0.167 HD
ATOM     65  C   UNL A   1      43.783  28.726  32.929  1.00  0.00     0.074 A 
ATOM     66  C   UNL A   1      43.845  29.492  34.161  1.00  0.00     0.031 C 
ATOM     67  C   UNL A   1      44.310  27.530  32.528  1.00  0.00     0.037 A 
BRANCH  54  68
ATOM     68  C   UNL A   1      43.040  24.422  27.348  1.00  0.00     0.058 A 
ATOM     69  C   UNL A   1      43.768  23.258  27.694  1.00  0.00     0.135 A 
ATOM     70  C   UNL A   1      42.797  24.551  25.965  1.00  0.00     0.135 A 
ATOM     71  F   UNL A   1      43.994  22.924  28.971  1.00  0.00    -0.206 F 
ATOM     72  C   UNL A   1      44.303  22.374  26.752  1.00  0.00     0.059 A 
ATOM     73  C   UNL A   1      43.360  23.708  24.998  1.00  0.00     0.059 A 
ATOM     74  F   UNL A   1      41.945  25.460  25.481  1.00  0.00    -0.206 F 
ATOM     75  C   UNL A   1      44.124  22.625  25.400  1.00  0.00     0.060 A 
BRANCH  75  76
ATOM     76  S   UNL A   1      44.867  21.511  24.195  1.00  0.00     0.124 S 
ATOM     77  O   UNL A   1      44.446  22.105  22.929  1.00  0.00    -0.237 OA
ATOM     78  O   UNL A   1      46.288  21.623  24.509  1.00  0.00    -0.237 OA
ATOM     79  O   UNL A   1      44.260  20.219  24.504  1.00  0.00    -0.744 OA
ENDBRANCH  75  76
ENDBRANCH  54  68
BRANCH  55  80
ATOM     80  C   UNL A   1      40.392  32.097  32.780  1.00  0.00     0.058 A 
ATOM     81  C   UNL A   1      40.118  33.471  32.619  1.00  0.00     0.135 A 
ATOM     82  C   UNL A   1      39.304  31.240  33.008  1.00  0.00     0.135 A 
ATOM     83  F   UNL A   1      41.126  34.336  32.421  1.00  0.00    -0.206 F 
ATOM     84  C   UNL A   1      38.818  33.941  32.475  1.00  0.00     0.059 A 
ATOM     85  C   UNL A   1      37.990  31.694  32.882  1.00  0.00     0.059 A 
ATOM     86  F   UNL A   1      39.504  29.923  33.176  1.00  0.00    -0.206 F 
ATOM     87  C   UNL A   1      37.769  33.027  32.528  1.00  0.00     0.060 A 
BRANCH  87  88
ATOM     88  S   UNL A   1      36.160  33.562  31.895  1.00  0.00     0.124 S 
ATOM     89  O   UNL A   1      35.833  34.666  32.791  1.00  0.00    -0.237 OA
ATOM     90  O   UNL A   1      36.506  33.935  30.526  1.00  0.00    -0.237 OA
ATOM     91  O   UNL A   1      35.331  32.370  32.034  1.00  0.00    -0.744 OA
ENDBRANCH  87  88
ENDBRANCH  55  80
BRANCH  67  92
ATOM     92  C   UNL A   1      45.000  26.519  33.418  1.00  0.00     0.058 A 
ATOM     93  C   UNL A   1      46.395  26.383  33.525  1.00  0.00     0.135 A 
ATOM     94  C   UNL A   1      44.244  25.726  34.319  1.00  0.00     0.135 A 
ATOM     95  F   UNL A   1      47.228  27.161  32.821  1.00  0.00    -0.206 F 
ATOM     96  C   UNL A   1      46.995  25.473  34.399  1.00  0.00     0.059 A 
ATOM     97  C   UNL A   1      44.824  24.858  35.240  1.00  0.00     0.059 A 
ATOM     98  F   UNL A   1      42.903  25.778  34.346  1.00  0.00    -0.206 F 
ATOM     99  C   UNL A   1      46.202  24.712  35.251  1.00  0.00     0.060 A 
BRANCH  99 100
ATOM    100  S   UNL A   1      46.969  23.573  36.416  1.00  0.00     0.124 S 
ATOM    101  O   UNL A   1      47.320  24.471  37.511  1.00  0.00    -0.237 OA
ATOM    102  O   UNL A   1      45.896  22.623  36.699  1.00  0.00    -0.237 OA
ATOM    103  O   UNL A   1      48.092  23.029  35.658  1.00  0.00    -0.744 OA
ENDBRANCH  99 100
ENDBRANCH  67  92
ENDBRANCH  41  42
ENDBRANCH  33  36
ENDBRANCH  31  32
ENDBRANCH  30  31
ENDBRANCH   1  30
TORSDOF 19
ENDMDL
MODEL 3
REMARK VINA RESULT:     -12.5      1.977      4.969
REMARK SMILES CCC(=O)N1CCC[C@](C[C@H]2CC(c3ccc(C)cc3)=NO2)(C(=O)NCCCCNC(=O)c2ccc(-c3c4nc(c(-c5c(F)cc(S(=O)(=O)[O-])cc5F)c5ccc([nH]5)c(-c5c(F)cc(S(=O)(=O)[O-])cc5F)c5nc(c(-c6c(F)cc(S(=O)(=O)[O-])cc6F)c6ccc3[nH]6)C=C5)C=C4)cc2)C1
REMARK SMILES IDX 27 1 26 2 25 3 23 4 24 5 9 7 5 8 6 9 99 10 7 11 8 12 3 13
REMARK SMILES IDX 4 14 2 15 1 16 10 17 11 18 12 19 22 20 13 21 21 22 14 23
REMARK SMILES IDX 15 24 20 25 16 26 19 27 17 28 18 29 28 30 29 31 30 32 31 33
REMARK SMILES IDX 32 35 33 36 34 37 98 38 35 39 97 40 36 41 37 42 38 43 91 44
REMARK SMILES IDX 39 45 96 46 90 47 92 48 40 49 95 50 89 51 88 52 41 54 75 55
REMARK SMILES IDX 54 56 74 57 55 58 58 59 73 60 93 61 56 62 57 63 72 65 94 66
REMARK SMILES IDX 59 67 42 68 43 69 52 70 44 71 45 72 51 73 53 74 46 75 47 76
REMARK SMILES IDX 48 77 49 78 50 79 76 80 77 81 86 82 78 83 79 84 85 85 87 86
REMARK SMILES IDX 80 87 81 88 82 89 83 90 84 91 60 92 61 93 70 94 62 95 63 96
REMARK SMILES IDX 69 97 71 98 64 99 65 100 66 101 67 102 68 103
REMARK H PARENT 25 6 30 34 92 53 58 64
REMARK Flexibility Score: inf
ROOT
ATOM      1  C   UNL A   1      32.031  27.387  26.929  1.00  0.00     0.023 C 
ENDROOT
BRANCH   1   2
ATOM      2  C   UNL A   1      32.753  26.084  26.554  1.00  0.00     0.116 C 
BRANCH   2   3
ATOM      3  N   UNL A   1      31.903  24.911  26.530  1.00  0.00    -0.356 N 
ATOM      4  C   UNL A   1      32.002  23.673  25.999  1.00  0.00     0.228 C 
ATOM      5  O   UNL A   1      31.150  22.884  26.442  1.00  0.00    -0.274 OA
ATOM      6  H   UNL A   1      31.055  25.047  27.014  1.00  0.00     0.163 HD
BRANCH   4   7
ATOM      7  C   UNL A   1      32.930  23.190  24.830  1.00  0.00     0.070 C 
ATOM      8  N   UNL A   1      32.915  20.619  24.835  1.00  0.00    -0.342 N 
ATOM      9  C   UNL A   1      34.116  20.615  25.681  1.00  0.00     0.119 C 
ATOM     10  C   UNL A   1      32.587  21.860  24.123  1.00  0.00     0.136 C 
ATOM     11  C   UNL A   1      34.402  21.910  26.421  1.00  0.00     0.023 C 
ATOM     12  C   UNL A   1      34.333  23.081  25.460  1.00  0.00     0.021 C 
BRANCH   8  13
ATOM     13  C   UNL A   1      32.465  19.344  24.474  1.00  0.00     0.222 C 
ATOM     14  O   UNL A   1      32.105  18.563  25.371  1.00  0.00    -0.275 OA
BRANCH  13  15
ATOM     15  C   UNL A   1      32.464  18.783  23.049  1.00  0.00     0.097 C 
ATOM     16  C   UNL A   1      33.158  17.507  22.627  1.00  0.00     0.014 C 
ENDBRANCH  13  15
ENDBRANCH   8  13
BRANCH   7  17
ATOM     17  C   UNL A   1      32.873  24.396  23.806  1.00  0.00     0.067 C 
BRANCH  17  18
ATOM     18  C   UNL A   1      31.629  24.780  22.986  1.00  0.00     0.211 C 
ATOM     19  C   UNL A   1      30.649  25.749  23.609  1.00  0.00     0.108 C 
ATOM     20  O   UNL A   1      31.960  25.282  21.691  1.00  0.00    -0.392 OA
ATOM     21  C   UNL A   1      30.659  26.805  22.566  1.00  0.00     0.091 C 
ATOM     22  N   UNL A   1      31.341  26.538  21.503  1.00  0.00    -0.090 NA
BRANCH  21  23
ATOM     23  C   UNL A   1      29.855  28.026  22.716  1.00  0.00    -0.001 A 
ATOM     24  C   UNL A   1      30.410  29.285  22.482  1.00  0.00     0.010 A 
ATOM     25  C   UNL A   1      28.523  27.905  23.120  1.00  0.00     0.010 A 
ATOM     26  C   UNL A   1      29.630  30.430  22.670  1.00  0.00     0.004 A 
ATOM     27  C   UNL A   1      27.754  29.051  23.326  1.00  0.00     0.004 A 
ATOM     28  C   UNL A   1      28.301  30.322  23.104  1.00  0.00    -0.051 A 
ATOM     29  C   UNL A   1      27.471  31.545  23.358  1.00  0.00     0.044 C 
ENDBRANCH  21  23
ENDBRANCH  17  18
ENDBRANCH   7  17
ENDBRANCH   4   7
ENDBRANCH   2   3
ENDBRANCH   1   2
BRANCH   1  30
ATOM     30  C   UNL A   1      32.163  28.529  25.923  1.00  0.00     0.023 C 
BRANCH  30  31
ATOM     31  C   UNL A   1      33.571  29.103  25.859  1.00  0.00     0.116 C 
BRANCH  31  32
ATOM     32  N   UNL A   1      33.748  30.482  26.254  1.00  0.00    -0.352 N 
ATOM     33  C   UNL A   1      34.459  30.963  27.352  1.00  0.00     0.251 C 
ATOM     34  H   UNL A   1      33.317  31.157  25.683  1.00  0.00     0.163 HD
ATOM     35  O   UNL A   1      34.209  32.069  27.800  1.00  0.00    -0.269 OA
BRANCH  33  36
ATOM     36  C   UNL A   1      35.598  30.162  27.897  1.00  0.00     0.039 A 
ATOM     37  C   UNL A   1      35.525  29.697  29.220  1.00  0.00     0.014 A 
ATOM     38  C   UNL A   1      36.790  30.021  27.200  1.00  0.00     0.014 A 
ATOM     39  C   UNL A   1      36.681  29.262  29.881  1.00  0.00     0.010 A 
ATOM     40  C   UNL A   1      37.946  29.754  27.884  1.00  0.00     0.010 A 
ATOM     41  C   UNL A   1      37.901  29.368  29.227  1.00  0.00    -0.014 A 
BRANCH  41  42
ATOM     42  C   UNL A   1      39.229  29.117  29.771  1.00  0.00     0.031 A 
ATOM     43  C   UNL A   1      39.934  27.864  29.405  1.00  0.00     0.074 A 
ATOM     44  C   UNL A   1      39.923  30.195  30.192  1.00  0.00     0.049 A 
ATOM     45  N   UNL A   1      41.095  27.512  29.837  1.00  0.00    -0.248 NA
ATOM     46  C   UNL A   1      39.366  26.896  28.471  1.00  0.00     0.031 C 
ATOM     47  C   UNL A   1      41.370  30.384  30.178  1.00  0.00     0.029 A 
ATOM     48  N   UNL A   1      39.442  31.311  30.869  1.00  0.00    -0.354 N 
ATOM     49  C   UNL A   1      41.558  26.490  29.031  1.00  0.00     0.074 A 
ATOM     50  C   UNL A   1      40.416  26.107  28.236  1.00  0.00     0.031 C 
ATOM     51  C   UNL A   1      41.687  31.401  30.997  1.00  0.00     0.029 A 
ATOM     52  C   UNL A   1      40.474  31.769  31.707  1.00  0.00     0.049 A 
ATOM     53  H   UNL A   1      38.545  31.706  30.777  1.00  0.00     0.167 HD
ATOM     54  C   UNL A   1      42.892  26.192  29.038  1.00  0.00     0.037 A 
ATOM     55  C   UNL A   1      40.330  31.675  33.066  1.00  0.00     0.037 A 
ATOM     56  C   UNL A   1      43.587  27.010  30.039  1.00  0.00     0.049 A 
ATOM     57  C   UNL A   1      41.299  30.711  33.719  1.00  0.00     0.074 A 
ATOM     58  C   UNL A   1      44.357  28.158  29.942  1.00  0.00     0.029 A 
ATOM     59  N   UNL A   1      43.278  26.858  31.388  1.00  0.00    -0.354 N 
ATOM     60  N   UNL A   1      41.982  29.805  33.076  1.00  0.00    -0.248 NA
ATOM     61  C   UNL A   1      41.579  30.698  35.152  1.00  0.00     0.031 C 
ATOM     62  C   UNL A   1      44.441  28.741  31.232  1.00  0.00     0.029 A 
ATOM     63  C   UNL A   1      43.740  27.938  32.116  1.00  0.00     0.049 A 
ATOM     64  H   UNL A   1      42.795  26.089  31.769  1.00  0.00     0.167 HD
ATOM     65  C   UNL A   1      42.739  29.078  33.957  1.00  0.00     0.074 A 
ATOM     66  C   UNL A   1      42.473  29.697  35.242  1.00  0.00     0.031 C 
ATOM     67  C   UNL A   1      43.510  28.023  33.553  1.00  0.00     0.037 A 
BRANCH  54  68
ATOM     68  C   UNL A   1      43.628  25.385  27.973  1.00  0.00     0.058 A 
ATOM     69  C   UNL A   1      43.706  25.854  26.640  1.00  0.00     0.135 A 
ATOM     70  C   UNL A   1      44.238  24.129  28.171  1.00  0.00     0.135 A 
ATOM     71  F   UNL A   1      43.275  27.075  26.298  1.00  0.00    -0.206 F 
ATOM     72  C   UNL A   1      44.231  25.099  25.587  1.00  0.00     0.059 A 
ATOM     73  C   UNL A   1      44.727  23.333  27.127  1.00  0.00     0.059 A 
ATOM     74  F   UNL A   1      44.454  23.635  29.395  1.00  0.00    -0.206 F 
ATOM     75  C   UNL A   1      44.709  23.822  25.832  1.00  0.00     0.060 A 
BRANCH  75  76
ATOM     76  S   UNL A   1      45.330  22.837  24.457  1.00  0.00     0.124 S 
ATOM     77  O   UNL A   1      45.873  21.666  25.139  1.00  0.00    -0.237 OA
ATOM     78  O   UNL A   1      44.121  22.612  23.671  1.00  0.00    -0.237 OA
ATOM     79  O   UNL A   1      46.324  23.707  23.835  1.00  0.00    -0.744 OA
ENDBRANCH  75  76
ENDBRANCH  54  68
BRANCH  55  80
ATOM     80  C   UNL A   1      38.922  31.925  33.497  1.00  0.00     0.058 A 
ATOM     81  C   UNL A   1      38.522  33.273  33.600  1.00  0.00     0.135 A 
ATOM     82  C   UNL A   1      37.922  30.965  33.274  1.00  0.00     0.135 A 
ATOM     83  F   UNL A   1      39.439  34.227  33.835  1.00  0.00    -0.206 F 
ATOM     84  C   UNL A   1      37.230  33.674  33.283  1.00  0.00     0.059 A 
ATOM     85  C   UNL A   1      36.614  31.346  32.967  1.00  0.00     0.059 A 
ATOM     86  F   UNL A   1      38.242  29.666  33.176  1.00  0.00    -0.206 F 
ATOM     87  C   UNL A   1      36.309  32.706  32.890  1.00  0.00     0.060 A 
BRANCH  87  88
ATOM     88  S   UNL A   1      34.806  33.272  32.056  1.00  0.00     0.124 S 
ATOM     89  O   UNL A   1      33.800  33.110  33.100  1.00  0.00    -0.237 OA
ATOM     90  O   UNL A   1      35.166  34.649  31.728  1.00  0.00    -0.237 OA
ATOM     91  O   UNL A   1      34.689  32.363  30.921  1.00  0.00    -0.744 OA
ENDBRANCH  87  88
ENDBRANCH  55  80
BRANCH  67  92
ATOM     92  C   UNL A   1      44.197  27.025  34.459  1.00  0.00     0.058 A 
ATOM     93  C   UNL A   1      43.531  26.005  35.161  1.00  0.00     0.135 A 
ATOM     94  C   UNL A   1      45.613  26.986  34.535  1.00  0.00     0.135 A 
ATOM     95  F   UNL A   1      42.203  25.851  35.074  1.00  0.00    -0.206 F 
ATOM     96  C   UNL A   1      44.208  25.069  35.946  1.00  0.00     0.059 A 
ATOM     97  C   UNL A   1      46.310  26.024  35.261  1.00  0.00     0.059 A 
ATOM     98  F   UNL A   1      46.376  27.880  33.888  1.00  0.00    -0.206 F 
ATOM     99  C   UNL A   1      45.598  25.087  35.992  1.00  0.00     0.060 A 
BRANCH  99 100
ATOM    100  S   UNL A   1      46.482  23.852  36.961  1.00  0.00     0.124 S 
ATOM    101  O   UNL A   1      47.854  24.058  36.511  1.00  0.00    -0.237 OA
ATOM    102  O   UNL A   1      46.203  24.255  38.337  1.00  0.00    -0.237 OA
ATOM    103  O   UNL A   1      45.860  22.598  36.547  1.00  0.00    -0.744 OA
ENDBRANCH  99 100
ENDBRANCH  67  92
ENDBRANCH  41  42
ENDBRANCH  33  36
ENDBRANCH  31  32
ENDBRANCH  30  31
ENDBRANCH   1  30
TORSDOF 19
ENDMDL
