MODEL 1
REMARK VINA RESULT:     -12.2      0.000      0.000
REMARK SMILES Cc1cc(Cl)ccc1-c1ccc(C(=O)NCCCCNC(=O)c2ccc(-c3c4nc(c(-c5c(F)cc(S(=O)(=O)[O-])cc5F)c5ccc([nH]5)c(-c5c(F)cc(S(=O)(=O)[O-])cc5F)c5nc(c(-c6c(F)cc(S(=O)(=O)[O-])cc6F)c6ccc3[nH]6)C=C5)C=C4)cc2)c(Cl)c1
REMARK SMILES IDX 18 1 17 2 16 3 15 4 13 5 14 6 12 8 9 9 10 10 91 11 11 12
REMARK SMILES IDX 89 13 90 14 8 15 1 16 2 17 3 18 4 19 7 20 5 21 6 22 19 23
REMARK SMILES IDX 20 24 21 25 22 27 23 28 24 29 88 30 25 31 87 32 26 33 27 34
REMARK SMILES IDX 28 35 81 36 29 37 86 38 80 39 82 40 30 41 85 42 79 43 78 44
REMARK SMILES IDX 31 46 65 47 44 48 64 49 45 50 48 51 63 52 83 53 46 54 47 55
REMARK SMILES IDX 62 57 84 58 49 59 32 60 33 61 42 62 34 63 35 64 41 65 43 66
REMARK SMILES IDX 36 67 37 68 38 69 39 70 40 71 66 72 67 73 76 74 68 75 69 76
REMARK SMILES IDX 75 77 77 78 70 79 71 80 72 81 73 82 74 83 50 84 51 85 60 86
REMARK SMILES IDX 52 87 53 88 59 89 61 90 54 91 55 92 56 93 57 94 58 95
REMARK H PARENT 15 7 20 26 82 45 48 56
REMARK Flexibility Score: inf
ROOT
ATOM      1  C   UNL A   1      32.308  28.025  26.662  1.00  0.00     0.023 C 
ENDROOT
BRANCH   1   2
ATOM      2  C   UNL A   1      31.554  29.048  25.823  1.00  0.00     0.023 C 
BRANCH   2   3
ATOM      3  C   UNL A   1      32.245  29.505  24.532  1.00  0.00     0.116 C 
BRANCH   3   4
ATOM      4  N   UNL A   1      31.297  29.481  23.438  1.00  0.00    -0.352 N 
ATOM      5  C   UNL A   1      30.805  28.488  22.637  1.00  0.00     0.252 C 
ATOM      6  O   UNL A   1      30.064  28.852  21.716  1.00  0.00    -0.269 OA
ATOM      7  H   UNL A   1      30.928  30.369  23.226  1.00  0.00     0.163 HD
BRANCH   5   8
ATOM      8  C   UNL A   1      30.989  27.019  22.827  1.00  0.00     0.058 A 
ATOM      9  C   UNL A   1      31.827  24.329  23.291  1.00  0.00    -0.017 A 
ATOM     10  C   UNL A   1      32.712  25.252  22.742  1.00  0.00     0.009 A 
ATOM     11  C   UNL A   1      30.526  24.753  23.576  1.00  0.00     0.030 A 
ATOM     12  C   UNL A   1      32.291  26.567  22.498  1.00  0.00     0.016 A 
ATOM     13  C   UNL A   1      30.123  26.087  23.405  1.00  0.00     0.054 A 
ATOM     14  Cl  UNL A   1      28.614  26.409  24.155  1.00  0.00    -0.083 Cl
BRANCH   9  15
ATOM     15  C   UNL A   1      32.217  22.973  23.683  1.00  0.00    -0.015 A 
ATOM     16  C   UNL A   1      32.862  23.716  26.056  1.00  0.00     0.045 C 
ATOM     17  C   UNL A   1      32.635  22.666  24.999  1.00  0.00    -0.042 A 
ATOM     18  C   UNL A   1      32.858  21.324  25.354  1.00  0.00     0.024 A 
ATOM     19  C   UNL A   1      32.647  20.300  24.432  1.00  0.00     0.041 A 
ATOM     20  C   UNL A   1      32.031  21.923  22.764  1.00  0.00     0.010 A 
ATOM     21  Cl  UNL A   1      32.873  18.662  24.907  1.00  0.00    -0.084 Cl
ATOM     22  C   UNL A   1      32.240  20.595  23.136  1.00  0.00     0.021 A 
ENDBRANCH   9  15
ENDBRANCH   5   8
ENDBRANCH   3   4
ENDBRANCH   2   3
ENDBRANCH   1   2
BRANCH   1  23
ATOM     23  C   UNL A   1      33.602  28.536  27.272  1.00  0.00     0.116 C 
BRANCH  23  24
ATOM     24  N   UNL A   1      33.532  29.917  27.737  1.00  0.00    -0.352 N 
ATOM     25  C   UNL A   1      34.537  30.670  28.296  1.00  0.00     0.251 C 
ATOM     26  H   UNL A   1      32.660  30.364  27.637  1.00  0.00     0.163 HD
ATOM     27  O   UNL A   1      34.319  31.807  28.701  1.00  0.00    -0.269 OA
BRANCH  25  28
ATOM     28  C   UNL A   1      35.870  30.058  28.446  1.00  0.00     0.039 A 
ATOM     29  C   UNL A   1      36.748  30.085  27.361  1.00  0.00     0.014 A 
ATOM     30  C   UNL A   1      36.278  29.560  29.686  1.00  0.00     0.014 A 
ATOM     31  C   UNL A   1      38.070  29.683  27.544  1.00  0.00     0.010 A 
ATOM     32  C   UNL A   1      37.613  29.236  29.885  1.00  0.00     0.010 A 
ATOM     33  C   UNL A   1      38.521  29.298  28.818  1.00  0.00    -0.014 A 
BRANCH  33  34
ATOM     34  C   UNL A   1      39.942  28.947  29.058  1.00  0.00     0.031 A 
ATOM     35  C   UNL A   1      40.874  29.979  29.628  1.00  0.00     0.074 A 
ATOM     36  C   UNL A   1      40.400  27.731  28.699  1.00  0.00     0.049 A 
ATOM     37  N   UNL A   1      42.163  29.904  29.830  1.00  0.00    -0.248 NA
ATOM     38  C   UNL A   1      40.283  31.277  29.991  1.00  0.00     0.031 C 
ATOM     39  C   UNL A   1      39.599  26.668  28.086  1.00  0.00     0.029 A 
ATOM     40  N   UNL A   1      41.656  27.188  28.790  1.00  0.00    -0.354 N 
ATOM     41  C   UNL A   1      42.538  31.144  30.331  1.00  0.00     0.074 A 
ATOM     42  C   UNL A   1      41.353  31.972  30.346  1.00  0.00     0.031 C 
ATOM     43  C   UNL A   1      40.380  25.595  27.877  1.00  0.00     0.029 A 
ATOM     44  C   UNL A   1      41.738  25.902  28.309  1.00  0.00     0.049 A 
ATOM     45  H   UNL A   1      42.426  27.673  29.164  1.00  0.00     0.167 HD
ATOM     46  C   UNL A   1      43.753  31.546  30.771  1.00  0.00     0.037 A 
ATOM     47  C   UNL A   1      42.794  25.070  28.227  1.00  0.00     0.037 A 
ATOM     48  C   UNL A   1      44.921  30.707  30.781  1.00  0.00     0.049 A 
ATOM     49  C   UNL A   1      44.133  25.538  28.730  1.00  0.00     0.074 A 
ATOM     50  C   UNL A   1      46.193  31.005  31.236  1.00  0.00     0.029 A 
ATOM     51  N   UNL A   1      44.956  29.398  30.322  1.00  0.00    -0.354 N 
ATOM     52  N   UNL A   1      44.460  26.700  29.245  1.00  0.00    -0.248 NA
ATOM     53  C   UNL A   1      45.245  24.580  28.648  1.00  0.00     0.031 C 
ATOM     54  C   UNL A   1      47.004  29.883  31.031  1.00  0.00     0.029 A 
ATOM     55  C   UNL A   1      46.228  28.876  30.481  1.00  0.00     0.049 A 
ATOM     56  H   UNL A   1      44.190  28.913  29.940  1.00  0.00     0.167 HD
ATOM     57  C   UNL A   1      45.807  26.602  29.574  1.00  0.00     0.074 A 
ATOM     58  C   UNL A   1      46.231  25.267  29.210  1.00  0.00     0.031 C 
ATOM     59  C   UNL A   1      46.621  27.536  30.126  1.00  0.00     0.037 A 
BRANCH  46  60
ATOM     60  C   UNL A   1      43.867  32.948  31.297  1.00  0.00     0.058 A 
ATOM     61  C   UNL A   1      44.208  34.018  30.454  1.00  0.00     0.135 A 
ATOM     62  C   UNL A   1      43.621  33.233  32.650  1.00  0.00     0.135 A 
ATOM     63  F   UNL A   1      44.473  33.798  29.156  1.00  0.00    -0.206 F 
ATOM     64  C   UNL A   1      44.329  35.316  30.937  1.00  0.00     0.059 A 
ATOM     65  C   UNL A   1      43.711  34.529  33.150  1.00  0.00     0.059 A 
ATOM     66  F   UNL A   1      43.295  32.246  33.499  1.00  0.00    -0.206 F 
ATOM     67  C   UNL A   1      44.081  35.560  32.288  1.00  0.00     0.060 A 
BRANCH  67  68
ATOM     68  S   UNL A   1      44.241  37.251  32.901  1.00  0.00     0.124 S 
ATOM     69  O   UNL A   1      45.630  37.266  33.349  1.00  0.00    -0.237 OA
ATOM     70  O   UNL A   1      43.951  38.045  31.712  1.00  0.00    -0.237 OA
ATOM     71  O   UNL A   1      43.240  37.324  33.960  1.00  0.00    -0.744 OA
ENDBRANCH  67  68
ENDBRANCH  46  60
BRANCH  47  72
ATOM     72  C   UNL A   1      42.628  23.701  27.670  1.00  0.00     0.058 A 
ATOM     73  C   UNL A   1      42.425  22.601  28.516  1.00  0.00     0.135 A 
ATOM     74  C   UNL A   1      42.682  23.462  26.289  1.00  0.00     0.135 A 
ATOM     75  F   UNL A   1      42.370  22.780  29.845  1.00  0.00    -0.206 F 
ATOM     76  C   UNL A   1      42.309  21.308  28.017  1.00  0.00     0.059 A 
ATOM     77  C   UNL A   1      42.545  22.181  25.763  1.00  0.00     0.059 A 
ATOM     78  F   UNL A   1      42.854  24.484  25.435  1.00  0.00    -0.206 F 
ATOM     79  C   UNL A   1      42.376  21.107  26.637  1.00  0.00     0.060 A 
BRANCH  79  80
ATOM     80  S   UNL A   1      42.204  19.429  25.994  1.00  0.00     0.124 S 
ATOM     81  O   UNL A   1      42.722  18.635  27.102  1.00  0.00    -0.237 OA
ATOM     82  O   UNL A   1      40.766  19.334  25.757  1.00  0.00    -0.237 OA
ATOM     83  O   UNL A   1      43.029  19.448  24.789  1.00  0.00    -0.744 OA
ENDBRANCH  79  80
ENDBRANCH  47  72
BRANCH  59  84
ATOM     84  C   UNL A   1      48.039  27.131  30.407  1.00  0.00     0.058 A 
ATOM     85  C   UNL A   1      49.062  27.339  29.469  1.00  0.00     0.135 A 
ATOM     86  C   UNL A   1      48.386  26.576  31.649  1.00  0.00     0.135 A 
ATOM     87  F   UNL A   1      48.779  27.860  28.265  1.00  0.00    -0.206 F 
ATOM     88  C   UNL A   1      50.380  26.992  29.747  1.00  0.00     0.059 A 
ATOM     89  C   UNL A   1      49.701  26.243  31.957  1.00  0.00     0.059 A 
ATOM     90  F   UNL A   1      47.444  26.366  32.583  1.00  0.00    -0.206 F 
ATOM     91  C   UNL A   1      50.689  26.445  30.994  1.00  0.00     0.060 A 
BRANCH  91  92
ATOM     92  S   UNL A   1      52.409  26.034  31.358  1.00  0.00     0.124 S 
ATOM     93  O   UNL A   1      52.766  27.080  32.310  1.00  0.00    -0.237 OA
ATOM     94  O   UNL A   1      52.301  24.686  31.909  1.00  0.00    -0.237 OA
ATOM     95  O   UNL A   1      53.060  26.120  30.055  1.00  0.00    -0.744 OA
ENDBRANCH  91  92
ENDBRANCH  59  84
ENDBRANCH  33  34
ENDBRANCH  25  28
ENDBRANCH  23  24
ENDBRANCH   1  23
TORSDOF 15
ENDMDL
MODEL 2
REMARK VINA RESULT:     -12.1      4.998     10.707
REMARK SMILES Cc1cc(Cl)ccc1-c1ccc(C(=O)NCCCCNC(=O)c2ccc(-c3c4nc(c(-c5c(F)cc(S(=O)(=O)[O-])cc5F)c5ccc([nH]5)c(-c5c(F)cc(S(=O)(=O)[O-])cc5F)c5nc(c(-c6c(F)cc(S(=O)(=O)[O-])cc6F)c6ccc3[nH]6)C=C5)C=C4)cc2)c(Cl)c1
REMARK SMILES IDX 18 1 17 2 16 3 15 4 13 5 14 6 12 8 9 9 10 10 91 11 11 12
REMARK SMILES IDX 89 13 90 14 8 15 1 16 2 17 3 18 4 19 7 20 5 21 6 22 19 23
REMARK SMILES IDX 20 24 21 25 22 27 23 28 24 29 88 30 25 31 87 32 26 33 27 34
REMARK SMILES IDX 28 35 81 36 29 37 86 38 80 39 82 40 30 41 85 42 79 43 78 44
REMARK SMILES IDX 31 46 65 47 44 48 64 49 45 50 48 51 63 52 83 53 46 54 47 55
REMARK SMILES IDX 62 57 84 58 49 59 32 60 33 61 42 62 34 63 35 64 41 65 43 66
REMARK SMILES IDX 36 67 37 68 38 69 39 70 40 71 66 72 67 73 76 74 68 75 69 76
REMARK SMILES IDX 75 77 77 78 70 79 71 80 72 81 73 82 74 83 50 84 51 85 60 86
REMARK SMILES IDX 52 87 53 88 59 89 61 90 54 91 55 92 56 93 57 94 58 95
REMARK H PARENT 15 7 20 26 82 45 48 56
REMARK Flexibility Score: inf
ROOT
ATOM      1  C   UNL A   1      37.491  23.751  25.541  1.00  0.00     0.023 C 
ENDROOT
BRANCH   1   2
ATOM      2  C   UNL A   1      37.374  22.314  25.049  1.00  0.00     0.023 C 
BRANCH   2   3
ATOM      3  C   UNL A   1      36.279  21.463  25.705  1.00  0.00     0.116 C 
BRANCH   3   4
ATOM      4  N   UNL A   1      35.166  21.315  24.791  1.00  0.00    -0.352 N 
ATOM      5  C   UNL A   1      34.076  22.087  24.497  1.00  0.00     0.252 C 
ATOM      6  O   UNL A   1      33.256  21.594  23.716  1.00  0.00    -0.269 OA
ATOM      7  H   UNL A   1      35.201  20.480  24.270  1.00  0.00     0.163 HD
BRANCH   5   8
ATOM      8  C   UNL A   1      33.837  23.493  24.942  1.00  0.00     0.058 A 
ATOM      9  C   UNL A   1      33.337  26.281  25.295  1.00  0.00    -0.017 A 
ATOM     10  C   UNL A   1      34.023  25.831  24.171  1.00  0.00     0.009 A 
ATOM     11  C   UNL A   1      32.933  25.337  26.242  1.00  0.00     0.030 A 
ATOM     12  C   UNL A   1      34.282  24.462  24.011  1.00  0.00     0.016 A 
ATOM     13  C   UNL A   1      33.123  23.959  26.050  1.00  0.00     0.054 A 
ATOM     14  Cl  UNL A   1      32.230  23.018  27.172  1.00  0.00    -0.083 Cl
BRANCH   9  15
ATOM     15  C   UNL A   1      32.925  27.674  25.483  1.00  0.00    -0.015 A 
ATOM     16  C   UNL A   1      30.933  27.426  23.880  1.00  0.00     0.045 C 
ATOM     17  C   UNL A   1      31.758  28.197  24.878  1.00  0.00    -0.042 A 
ATOM     18  C   UNL A   1      31.334  29.496  25.210  1.00  0.00     0.024 A 
ATOM     19  C   UNL A   1      32.037  30.257  26.142  1.00  0.00     0.041 A 
ATOM     20  C   UNL A   1      33.630  28.469  26.406  1.00  0.00     0.010 A 
ATOM     21  Cl  UNL A   1      31.468  31.821  26.573  1.00  0.00    -0.084 Cl
ATOM     22  C   UNL A   1      33.187  29.751  26.737  1.00  0.00     0.021 A 
ENDBRANCH   9  15
ENDBRANCH   5   8
ENDBRANCH   3   4
ENDBRANCH   2   3
ENDBRANCH   1   2
BRANCH   1  23
ATOM     23  C   UNL A   1      38.506  23.960  26.652  1.00  0.00     0.116 C 
BRANCH  23  24
ATOM     24  N   UNL A   1      39.892  23.932  26.200  1.00  0.00    -0.352 N 
ATOM     25  C   UNL A   1      40.904  24.801  26.532  1.00  0.00     0.251 C 
ATOM     26  H   UNL A   1      40.132  23.203  25.583  1.00  0.00     0.163 HD
ATOM     27  O   UNL A   1      42.015  24.693  26.024  1.00  0.00    -0.269 OA
BRANCH  25  28
ATOM     28  C   UNL A   1      40.606  25.897  27.471  1.00  0.00     0.039 A 
ATOM     29  C   UNL A   1      39.699  25.667  28.507  1.00  0.00     0.014 A 
ATOM     30  C   UNL A   1      41.303  27.104  27.385  1.00  0.00     0.014 A 
ATOM     31  C   UNL A   1      39.550  26.625  29.509  1.00  0.00     0.010 A 
ATOM     32  C   UNL A   1      41.212  28.020  28.424  1.00  0.00     0.010 A 
ATOM     33  C   UNL A   1      40.338  27.787  29.496  1.00  0.00    -0.014 A 
BRANCH  33  34
ATOM     34  C   UNL A   1      40.261  28.782  30.594  1.00  0.00     0.031 A 
ATOM     35  C   UNL A   1      41.145  28.626  31.799  1.00  0.00     0.074 A 
ATOM     36  C   UNL A   1      39.352  29.775  30.533  1.00  0.00     0.049 A 
ATOM     37  N   UNL A   1      41.171  29.331  32.900  1.00  0.00    -0.248 NA
ATOM     38  C   UNL A   1      42.108  27.512  31.775  1.00  0.00     0.031 C 
ATOM     39  C   UNL A   1      38.403  29.993  29.438  1.00  0.00     0.029 A 
ATOM     40  N   UNL A   1      39.070  30.783  31.419  1.00  0.00    -0.354 N 
ATOM     41  C   UNL A   1      42.139  28.740  33.701  1.00  0.00     0.074 A 
ATOM     42  C   UNL A   1      42.636  27.585  32.987  1.00  0.00     0.031 C 
ATOM     43  C   UNL A   1      37.661  31.079  29.709  1.00  0.00     0.029 A 
ATOM     44  C   UNL A   1      38.057  31.615  31.006  1.00  0.00     0.049 A 
ATOM     45  H   UNL A   1      39.549  30.900  32.271  1.00  0.00     0.167 HD
ATOM     46  C   UNL A   1      42.597  29.143  34.909  1.00  0.00     0.037 A 
ATOM     47  C   UNL A   1      37.510  32.688  31.611  1.00  0.00     0.037 A 
ATOM     48  C   UNL A   1      42.119  30.310  35.601  1.00  0.00     0.049 A 
ATOM     49  C   UNL A   1      38.043  33.121  32.950  1.00  0.00     0.074 A 
ATOM     50  C   UNL A   1      42.540  30.826  36.814  1.00  0.00     0.029 A 
ATOM     51  N   UNL A   1      41.119  31.150  35.133  1.00  0.00    -0.354 N 
ATOM     52  N   UNL A   1      38.993  32.577  33.674  1.00  0.00    -0.248 NA
ATOM     53  C   UNL A   1      37.435  34.316  33.552  1.00  0.00     0.031 C 
ATOM     54  C   UNL A   1      41.776  31.966  37.091  1.00  0.00     0.029 A 
ATOM     55  C   UNL A   1      40.906  32.178  36.034  1.00  0.00     0.049 A 
ATOM     56  H   UNL A   1      40.632  31.031  34.285  1.00  0.00     0.167 HD
ATOM     57  C   UNL A   1      39.116  33.380  34.802  1.00  0.00     0.074 A 
ATOM     58  C   UNL A   1      38.151  34.451  34.660  1.00  0.00     0.031 C 
ATOM     59  C   UNL A   1      39.951  33.243  35.861  1.00  0.00     0.037 A 
BRANCH  46  60
ATOM     60  C   UNL A   1      43.686  28.324  35.543  1.00  0.00     0.058 A 
ATOM     61  C   UNL A   1      43.390  27.294  36.451  1.00  0.00     0.135 A 
ATOM     62  C   UNL A   1      45.036  28.555  35.232  1.00  0.00     0.135 A 
ATOM     63  F   UNL A   1      42.116  27.045  36.798  1.00  0.00    -0.206 F 
ATOM     64  C   UNL A   1      44.393  26.543  37.051  1.00  0.00     0.059 A 
ATOM     65  C   UNL A   1      46.055  27.797  35.801  1.00  0.00     0.059 A 
ATOM     66  F   UNL A   1      45.373  29.530  34.373  1.00  0.00    -0.206 F 
ATOM     67  C   UNL A   1      45.723  26.804  36.722  1.00  0.00     0.060 A 
BRANCH  67  68
ATOM     68  S   UNL A   1      47.015  25.818  37.508  1.00  0.00     0.124 S 
ATOM     69  O   UNL A   1      47.092  26.442  38.826  1.00  0.00    -0.237 OA
ATOM     70  O   UNL A   1      46.448  24.475  37.477  1.00  0.00    -0.237 OA
ATOM     71  O   UNL A   1      48.173  26.028  36.647  1.00  0.00    -0.744 OA
ENDBRANCH  67  68
ENDBRANCH  46  60
BRANCH  47  72
ATOM     72  C   UNL A   1      36.414  33.444  30.949  1.00  0.00     0.058 A 
ATOM     73  C   UNL A   1      35.099  33.374  31.431  1.00  0.00     0.135 A 
ATOM     74  C   UNL A   1      36.654  34.240  29.819  1.00  0.00     0.135 A 
ATOM     75  F   UNL A   1      34.820  32.623  32.508  1.00  0.00    -0.206 F 
ATOM     76  C   UNL A   1      34.053  34.041  30.801  1.00  0.00     0.059 A 
ATOM     77  C   UNL A   1      35.629  34.935  29.185  1.00  0.00     0.059 A 
ATOM     78  F   UNL A   1      37.898  34.356  29.330  1.00  0.00    -0.206 F 
ATOM     79  C   UNL A   1      34.329  34.816  29.674  1.00  0.00     0.060 A 
BRANCH  79  80
ATOM     80  S   UNL A   1      32.971  35.696  28.872  1.00  0.00     0.124 S 
ATOM     81  O   UNL A   1      32.192  36.143  30.021  1.00  0.00    -0.237 OA
ATOM     82  O   UNL A   1      33.673  36.740  28.132  1.00  0.00    -0.237 OA
ATOM     83  O   UNL A   1      32.348  34.666  28.046  1.00  0.00    -0.744 OA
ENDBRANCH  79  80
ENDBRANCH  47  72
BRANCH  59  84
ATOM     84  C   UNL A   1      39.885  34.297  36.929  1.00  0.00     0.058 A 
ATOM     85  C   UNL A   1      40.615  35.491  36.827  1.00  0.00     0.135 A 
ATOM     86  C   UNL A   1      39.043  34.131  38.039  1.00  0.00     0.135 A 
ATOM     87  F   UNL A   1      41.439  35.694  35.787  1.00  0.00    -0.206 F 
ATOM     88  C   UNL A   1      40.525  36.479  37.803  1.00  0.00     0.059 A 
ATOM     89  C   UNL A   1      38.921  35.114  39.015  1.00  0.00     0.059 A 
ATOM     90  F   UNL A   1      38.318  33.009  38.176  1.00  0.00    -0.206 F 
ATOM     91  C   UNL A   1      39.675  36.280  38.893  1.00  0.00     0.060 A 
BRANCH  91  92
ATOM     92  S   UNL A   1      39.538  37.585  40.133  1.00  0.00     0.124 S 
ATOM     93  O   UNL A   1      39.191  36.820  41.326  1.00  0.00    -0.237 OA
ATOM     94  O   UNL A   1      40.874  38.172  40.123  1.00  0.00    -0.237 OA
ATOM     95  O   UNL A   1      38.480  38.443  39.606  1.00  0.00    -0.744 OA
ENDBRANCH  91  92
ENDBRANCH  59  84
ENDBRANCH  33  34
ENDBRANCH  25  28
ENDBRANCH  23  24
ENDBRANCH   1  23
TORSDOF 15
ENDMDL
MODEL 3
REMARK VINA RESULT:     -12.0      1.003      1.757
REMARK SMILES Cc1cc(Cl)ccc1-c1ccc(C(=O)NCCCCNC(=O)c2ccc(-c3c4nc(c(-c5c(F)cc(S(=O)(=O)[O-])cc5F)c5ccc([nH]5)c(-c5c(F)cc(S(=O)(=O)[O-])cc5F)c5nc(c(-c6c(F)cc(S(=O)(=O)[O-])cc6F)c6ccc3[nH]6)C=C5)C=C4)cc2)c(Cl)c1
REMARK SMILES IDX 18 1 17 2 16 3 15 4 13 5 14 6 12 8 9 9 10 10 91 11 11 12
REMARK SMILES IDX 89 13 90 14 8 15 1 16 2 17 3 18 4 19 7 20 5 21 6 22 19 23
REMARK SMILES IDX 20 24 21 25 22 27 23 28 24 29 88 30 25 31 87 32 26 33 27 34
REMARK SMILES IDX 28 35 81 36 29 37 86 38 80 39 82 40 30 41 85 42 79 43 78 44
REMARK SMILES IDX 31 46 65 47 44 48 64 49 45 50 48 51 63 52 83 53 46 54 47 55
REMARK SMILES IDX 62 57 84 58 49 59 32 60 33 61 42 62 34 63 35 64 41 65 43 66
REMARK SMILES IDX 36 67 37 68 38 69 39 70 40 71 66 72 67 73 76 74 68 75 69 76
REMARK SMILES IDX 75 77 77 78 70 79 71 80 72 81 73 82 74 83 50 84 51 85 60 86
REMARK SMILES IDX 52 87 53 88 59 89 61 90 54 91 55 92 56 93 57 94 58 95
REMARK H PARENT 15 7 20 26 82 45 48 56
REMARK Flexibility Score: inf
ROOT
ATOM      1  C   UNL A   1      32.713  28.176  26.106  1.00  0.00     0.023 C 
ENDROOT
BRANCH   1   2
ATOM      2  C   UNL A   1      33.520  27.896  24.844  1.00  0.00     0.023 C 
BRANCH   2   3
ATOM      3  C   UNL A   1      32.727  27.849  23.532  1.00  0.00     0.116 C 
BRANCH   3   4
ATOM      4  N   UNL A   1      31.386  27.369  23.792  1.00  0.00    -0.352 N 
ATOM      5  C   UNL A   1      30.817  26.125  23.821  1.00  0.00     0.252 C 
ATOM      6  O   UNL A   1      29.593  26.093  23.985  1.00  0.00    -0.269 OA
ATOM      7  H   UNL A   1      30.747  28.092  23.990  1.00  0.00     0.163 HD
BRANCH   5   8
ATOM      8  C   UNL A   1      31.536  24.818  23.778  1.00  0.00     0.058 A 
ATOM      9  C   UNL A   1      32.484  22.127  23.898  1.00  0.00    -0.017 A 
ATOM     10  C   UNL A   1      31.595  22.598  24.859  1.00  0.00     0.009 A 
ATOM     11  C   UNL A   1      32.910  23.012  22.904  1.00  0.00     0.030 A 
ATOM     12  C   UNL A   1      31.146  23.926  24.807  1.00  0.00     0.016 A 
ATOM     13  C   UNL A   1      32.406  24.318  22.804  1.00  0.00     0.054 A 
ATOM     14  Cl  UNL A   1      32.816  25.059  21.311  1.00  0.00    -0.083 Cl
BRANCH   9  15
ATOM     15  C   UNL A   1      32.910  20.728  23.811  1.00  0.00    -0.015 A 
ATOM     16  C   UNL A   1      34.809  21.079  25.506  1.00  0.00     0.045 C 
ATOM     17  C   UNL A   1      33.954  20.214  24.616  1.00  0.00    -0.042 A 
ATOM     18  C   UNL A   1      34.222  18.834  24.595  1.00  0.00     0.024 A 
ATOM     19  C   UNL A   1      33.457  17.973  23.810  1.00  0.00     0.041 A 
ATOM     20  C   UNL A   1      32.165  19.842  23.012  1.00  0.00     0.010 A 
ATOM     21  Cl  UNL A   1      33.768  16.282  23.843  1.00  0.00    -0.084 Cl
ATOM     22  C   UNL A   1      32.432  18.472  23.014  1.00  0.00     0.021 A 
ENDBRANCH   9  15
ENDBRANCH   5   8
ENDBRANCH   3   4
ENDBRANCH   2   3
ENDBRANCH   1   2
BRANCH   1  23
ATOM     23  C   UNL A   1      33.548  28.501  27.333  1.00  0.00     0.116 C 
BRANCH  23  24
ATOM     24  N   UNL A   1      33.481  29.899  27.741  1.00  0.00    -0.352 N 
ATOM     25  C   UNL A   1      34.489  30.676  28.260  1.00  0.00     0.251 C 
ATOM     26  H   UNL A   1      32.607  30.340  27.633  1.00  0.00     0.163 HD
ATOM     27  O   UNL A   1      34.273  31.827  28.621  1.00  0.00    -0.269 OA
BRANCH  25  28
ATOM     28  C   UNL A   1      35.824  30.072  28.421  1.00  0.00     0.039 A 
ATOM     29  C   UNL A   1      36.694  30.059  27.329  1.00  0.00     0.014 A 
ATOM     30  C   UNL A   1      36.244  29.621  29.676  1.00  0.00     0.014 A 
ATOM     31  C   UNL A   1      38.018  29.666  27.516  1.00  0.00     0.010 A 
ATOM     32  C   UNL A   1      37.581  29.307  29.876  1.00  0.00     0.010 A 
ATOM     33  C   UNL A   1      38.480  29.330  28.800  1.00  0.00    -0.014 A 
BRANCH  33  34
ATOM     34  C   UNL A   1      39.904  28.991  29.041  1.00  0.00     0.031 A 
ATOM     35  C   UNL A   1      40.832  30.036  29.592  1.00  0.00     0.074 A 
ATOM     36  C   UNL A   1      40.368  27.772  28.700  1.00  0.00     0.049 A 
ATOM     37  N   UNL A   1      42.122  29.972  29.791  1.00  0.00    -0.248 NA
ATOM     38  C   UNL A   1      40.235  31.337  29.937  1.00  0.00     0.031 C 
ATOM     39  C   UNL A   1      39.571  26.695  28.106  1.00  0.00     0.029 A 
ATOM     40  N   UNL A   1      41.627  27.237  28.795  1.00  0.00    -0.354 N 
ATOM     41  C   UNL A   1      42.491  31.222  30.272  1.00  0.00     0.074 A 
ATOM     42  C   UNL A   1      41.302  32.044  30.277  1.00  0.00     0.031 C 
ATOM     43  C   UNL A   1      40.357  25.623  27.911  1.00  0.00     0.029 A 
ATOM     44  C   UNL A   1      41.714  25.945  28.334  1.00  0.00     0.049 A 
ATOM     45  H   UNL A   1      42.395  27.732  29.159  1.00  0.00     0.167 HD
ATOM     46  C   UNL A   1      43.705  31.637  30.701  1.00  0.00     0.037 A 
ATOM     47  C   UNL A   1      42.775  25.117  28.262  1.00  0.00     0.037 A 
ATOM     48  C   UNL A   1      44.878  30.804  30.721  1.00  0.00     0.049 A 
ATOM     49  C   UNL A   1      44.113  25.600  28.754  1.00  0.00     0.074 A 
ATOM     50  C   UNL A   1      46.150  31.117  31.168  1.00  0.00     0.029 A 
ATOM     51  N   UNL A   1      44.919  29.489  30.283  1.00  0.00    -0.354 N 
ATOM     52  N   UNL A   1      44.435  26.771  29.249  1.00  0.00    -0.248 NA
ATOM     53  C   UNL A   1      45.230  24.647  28.684  1.00  0.00     0.031 C 
ATOM     54  C   UNL A   1      46.966  29.996  30.978  1.00  0.00     0.029 A 
ATOM     55  C   UNL A   1      46.194  28.976  30.446  1.00  0.00     0.049 A 
ATOM     56  H   UNL A   1      44.154  28.994  29.910  1.00  0.00     0.167 HD
ATOM     57  C   UNL A   1      45.783  26.687  29.576  1.00  0.00     0.074 A 
ATOM     58  C   UNL A   1      46.213  25.348  29.232  1.00  0.00     0.031 C 
ATOM     59  C   UNL A   1      46.594  27.633  30.111  1.00  0.00     0.037 A 
BRANCH  46  60
ATOM     60  C   UNL A   1      43.813  33.048  31.205  1.00  0.00     0.058 A 
ATOM     61  C   UNL A   1      44.155  34.105  30.346  1.00  0.00     0.135 A 
ATOM     62  C   UNL A   1      43.560  33.354  32.552  1.00  0.00     0.135 A 
ATOM     63  F   UNL A   1      44.428  33.864  29.053  1.00  0.00    -0.206 F 
ATOM     64  C   UNL A   1      44.271  35.410  30.809  1.00  0.00     0.059 A 
ATOM     65  C   UNL A   1      43.644  34.658  33.031  1.00  0.00     0.059 A 
ATOM     66  F   UNL A   1      43.233  32.380  33.416  1.00  0.00    -0.206 F 
ATOM     67  C   UNL A   1      44.016  35.676  32.154  1.00  0.00     0.060 A 
BRANCH  67  68
ATOM     68  S   UNL A   1      44.168  37.377  32.741  1.00  0.00     0.124 S 
ATOM     69  O   UNL A   1      43.891  38.129  31.521  1.00  0.00    -0.237 OA
ATOM     70  O   UNL A   1      43.140  37.446  33.774  1.00  0.00    -0.237 OA
ATOM     71  O   UNL A   1      45.543  37.448  33.223  1.00  0.00    -0.744 OA
ENDBRANCH  67  68
ENDBRANCH  46  60
BRANCH  47  72
ATOM     72  C   UNL A   1      42.615  23.738  27.727  1.00  0.00     0.058 A 
ATOM     73  C   UNL A   1      42.596  23.502  26.345  1.00  0.00     0.135 A 
ATOM     74  C   UNL A   1      42.465  22.636  28.581  1.00  0.00     0.135 A 
ATOM     75  F   UNL A   1      42.733  24.526  25.488  1.00  0.00    -0.206 F 
ATOM     76  C   UNL A   1      42.407  22.226  25.825  1.00  0.00     0.059 A 
ATOM     77  C   UNL A   1      42.297  21.347  28.086  1.00  0.00     0.059 A 
ATOM     78  F   UNL A   1      42.496  22.806  29.912  1.00  0.00    -0.206 F 
ATOM     79  C   UNL A   1      42.253  21.154  26.705  1.00  0.00     0.060 A 
BRANCH  79  80
ATOM     80  S   UNL A   1      42.026  19.497  26.025  1.00  0.00     0.124 S 
ATOM     81  O   UNL A   1      40.586  19.466  25.799  1.00  0.00    -0.237 OA
ATOM     82  O   UNL A   1      42.860  19.538  24.826  1.00  0.00    -0.237 OA
ATOM     83  O   UNL A   1      42.518  18.629  27.090  1.00  0.00    -0.744 OA
ENDBRANCH  79  80
ENDBRANCH  47  72
BRANCH  59  84
ATOM     84  C   UNL A   1      48.015  27.240  30.394  1.00  0.00     0.058 A 
ATOM     85  C   UNL A   1      49.042  27.485  29.470  1.00  0.00     0.135 A 
ATOM     86  C   UNL A   1      48.359  26.660  31.625  1.00  0.00     0.135 A 
ATOM     87  F   UNL A   1      48.762  28.031  28.277  1.00  0.00    -0.206 F 
ATOM     88  C   UNL A   1      50.363  27.148  29.751  1.00  0.00     0.059 A 
ATOM     89  C   UNL A   1      49.676  26.337  31.935  1.00  0.00     0.059 A 
ATOM     90  F   UNL A   1      47.412  26.415  32.546  1.00  0.00    -0.206 F 
ATOM     91  C   UNL A   1      50.669  26.575  30.986  1.00  0.00     0.060 A 
BRANCH  91  92
ATOM     92  S   UNL A   1      52.391  26.179  31.355  1.00  0.00     0.124 S 
ATOM     93  O   UNL A   1      52.763  27.278  32.239  1.00  0.00    -0.237 OA
ATOM     94  O   UNL A   1      52.284  24.866  31.985  1.00  0.00    -0.237 OA
ATOM     95  O   UNL A   1      53.028  26.184  30.041  1.00  0.00    -0.744 OA
ENDBRANCH  91  92
ENDBRANCH  59  84
ENDBRANCH  33  34
ENDBRANCH  25  28
ENDBRANCH  23  24
ENDBRANCH   1  23
TORSDOF 15
ENDMDL
