MODEL 1
REMARK VINA RESULT:     -12.1      0.000      0.000
REMARK SMILES O=C(NCCCCNC(=O)[C@@]1([NH2+]C2CC2)CCC[C@@H](n2cncn2)C1)c1ccc(-c2c3nc(c(-c4c(F)cc(S(=O)(=O)[O-])cc4F)c4ccc([nH]4)c(-c4c(F)cc(S(=O)(=O)[O-])cc4F)c4nc(c(-c5c(F)cc(S(=O)(=O)[O-])cc5F)c5ccc2[nH]5)C=C4)C=C3)cc1
REMARK SMILES IDX 5 1 4 2 3 3 1 4 2 5 26 7 27 8 91 9 28 10 90 11 29 12 30 13
REMARK SMILES IDX 31 14 84 15 32 16 89 17 83 18 85 19 33 20 88 21 82 22 81 23
REMARK SMILES IDX 34 25 68 26 47 27 67 28 48 29 51 30 66 31 86 32 49 33 50 34
REMARK SMILES IDX 65 36 87 37 52 38 35 39 36 40 45 41 37 42 38 43 44 44 46 45
REMARK SMILES IDX 39 46 40 47 41 48 42 49 43 50 69 51 70 52 79 53 71 54 72 55
REMARK SMILES IDX 78 56 80 57 73 58 74 59 75 60 76 61 77 62 53 63 54 64 63 65
REMARK SMILES IDX 55 66 56 67 62 68 64 69 57 70 58 71 59 72 60 73 61 74 6 75
REMARK SMILES IDX 7 76 8 77 9 78 10 80 11 81 16 82 25 83 17 84 19 85 18 86
REMARK SMILES IDX 12 87 13 90 14 91 15 92 20 93 21 94 24 95 22 96 23 97
REMARK H PARENT 3 6 85 24 51 35 8 79 12 88 12 89
REMARK Flexibility Score: inf
ROOT
ATOM      1  C   UNL A   1      33.603  28.677  27.116  1.00  0.00     0.023 C 
ENDROOT
BRANCH   1   2
ATOM      2  C   UNL A   1      33.877  30.155  26.830  1.00  0.00     0.116 C 
BRANCH   2   3
ATOM      3  N   UNL A   1      33.815  31.058  27.964  1.00  0.00    -0.352 N 
ATOM      4  O   UNL A   1      34.346  32.527  29.526  1.00  0.00    -0.269 OA
ATOM      5  C   UNL A   1      34.739  31.592  28.824  1.00  0.00     0.251 C 
ATOM      6  H   UNL A   1      32.897  31.354  28.162  1.00  0.00     0.163 HD
BRANCH   5   7
ATOM      7  C   UNL A   1      36.127  31.087  29.014  1.00  0.00     0.039 A 
ATOM      8  C   UNL A   1      37.278  31.873  29.029  1.00  0.00     0.014 A 
ATOM      9  C   UNL A   1      36.267  29.694  29.171  1.00  0.00     0.014 A 
ATOM     10  C   UNL A   1      38.538  31.279  29.089  1.00  0.00     0.010 A 
ATOM     11  C   UNL A   1      37.523  29.097  29.263  1.00  0.00     0.010 A 
ATOM     12  C   UNL A   1      38.665  29.890  29.183  1.00  0.00    -0.014 A 
BRANCH  12  13
ATOM     13  C   UNL A   1      40.012  29.333  29.321  1.00  0.00     0.031 A 
ATOM     14  C   UNL A   1      40.524  29.212  30.722  1.00  0.00     0.074 A 
ATOM     15  C   UNL A   1      40.723  28.806  28.303  1.00  0.00     0.049 A 
ATOM     16  N   UNL A   1      41.593  29.721  31.247  1.00  0.00    -0.248 NA
ATOM     17  C   UNL A   1      39.684  28.471  31.677  1.00  0.00     0.031 C 
ATOM     18  C   UNL A   1      40.281  28.535  26.935  1.00  0.00     0.029 A 
ATOM     19  N   UNL A   1      41.992  28.302  28.325  1.00  0.00    -0.354 N 
ATOM     20  C   UNL A   1      41.656  29.229  32.552  1.00  0.00     0.074 A 
ATOM     21  C   UNL A   1      40.404  28.558  32.795  1.00  0.00     0.031 C 
ATOM     22  C   UNL A   1      41.184  27.733  26.327  1.00  0.00     0.029 A 
ATOM     23  C   UNL A   1      42.323  27.545  27.210  1.00  0.00     0.049 A 
ATOM     24  H   UNL A   1      42.617  28.461  29.067  1.00  0.00     0.167 HD
ATOM     25  C   UNL A   1      42.790  29.264  33.307  1.00  0.00     0.037 A 
ATOM     26  C   UNL A   1      43.421  26.765  27.056  1.00  0.00     0.037 A 
ATOM     27  C   UNL A   1      43.746  30.213  32.806  1.00  0.00     0.049 A 
ATOM     28  C   UNL A   1      44.443  27.220  28.032  1.00  0.00     0.074 A 
ATOM     29  C   UNL A   1      43.745  31.582  32.617  1.00  0.00     0.029 A 
ATOM     30  N   UNL A   1      44.825  29.746  32.098  1.00  0.00    -0.354 N 
ATOM     31  N   UNL A   1      45.052  28.372  27.980  1.00  0.00    -0.248 NA
ATOM     32  C   UNL A   1      44.515  26.536  29.314  1.00  0.00     0.031 C 
ATOM     33  C   UNL A   1      44.503  31.793  31.428  1.00  0.00     0.029 A 
ATOM     34  C   UNL A   1      44.942  30.545  30.987  1.00  0.00     0.049 A 
ATOM     35  H   UNL A   1      45.402  28.987  32.340  1.00  0.00     0.167 HD
ATOM     36  C   UNL A   1      45.227  28.744  29.304  1.00  0.00     0.074 A 
ATOM     37  C   UNL A   1      44.976  27.531  30.075  1.00  0.00     0.031 C 
ATOM     38  C   UNL A   1      45.299  30.058  29.672  1.00  0.00     0.037 A 
BRANCH  25  39
ATOM     39  C   UNL A   1      43.134  28.243  34.363  1.00  0.00     0.058 A 
ATOM     40  C   UNL A   1      43.312  28.633  35.706  1.00  0.00     0.135 A 
ATOM     41  C   UNL A   1      43.543  26.926  34.052  1.00  0.00     0.135 A 
ATOM     42  F   UNL A   1      42.984  29.872  36.108  1.00  0.00    -0.206 F 
ATOM     43  C   UNL A   1      43.887  27.790  36.661  1.00  0.00     0.059 A 
ATOM     44  C   UNL A   1      44.069  26.052  34.998  1.00  0.00     0.059 A 
ATOM     45  F   UNL A   1      43.532  26.464  32.795  1.00  0.00    -0.206 F 
ATOM     46  C   UNL A   1      44.274  26.504  36.292  1.00  0.00     0.060 A 
BRANCH  46  47
ATOM     47  S   UNL A   1      45.106  25.447  37.493  1.00  0.00     0.124 S 
ATOM     48  O   UNL A   1      46.505  25.787  37.258  1.00  0.00    -0.237 OA
ATOM     49  O   UNL A   1      44.538  25.910  38.754  1.00  0.00    -0.237 OA
ATOM     50  O   UNL A   1      44.706  24.101  37.089  1.00  0.00    -0.744 OA
ENDBRANCH  46  47
ENDBRANCH  25  39
BRANCH  26  51
ATOM     51  C   UNL A   1      43.519  25.457  26.356  1.00  0.00     0.058 A 
ATOM     52  C   UNL A   1      44.466  25.239  25.341  1.00  0.00     0.135 A 
ATOM     53  C   UNL A   1      42.876  24.310  26.863  1.00  0.00     0.135 A 
ATOM     54  F   UNL A   1      45.148  26.271  24.819  1.00  0.00    -0.206 F 
ATOM     55  C   UNL A   1      44.789  23.956  24.886  1.00  0.00     0.059 A 
ATOM     56  C   UNL A   1      43.171  23.023  26.417  1.00  0.00     0.059 A 
ATOM     57  F   UNL A   1      42.006  24.396  27.881  1.00  0.00    -0.206 F 
ATOM     58  C   UNL A   1      44.148  22.851  25.445  1.00  0.00     0.060 A 
BRANCH  58  59
ATOM     59  S   UNL A   1      44.686  21.185  24.992  1.00  0.00     0.124 S 
ATOM     60  O   UNL A   1      46.043  21.151  25.527  1.00  0.00    -0.237 OA
ATOM     61  O   UNL A   1      43.708  20.348  25.677  1.00  0.00    -0.237 OA
ATOM     62  O   UNL A   1      44.590  21.183  23.534  1.00  0.00    -0.744 OA
ENDBRANCH  58  59
ENDBRANCH  26  51
BRANCH  38  63
ATOM     63  C   UNL A   1      45.490  31.092  28.590  1.00  0.00     0.058 A 
ATOM     64  C   UNL A   1      44.442  31.631  27.822  1.00  0.00     0.135 A 
ATOM     65  C   UNL A   1      46.759  31.671  28.430  1.00  0.00     0.135 A 
ATOM     66  F   UNL A   1      43.179  31.216  27.991  1.00  0.00    -0.206 F 
ATOM     67  C   UNL A   1      44.654  32.664  26.907  1.00  0.00     0.059 A 
ATOM     68  C   UNL A   1      46.987  32.725  27.548  1.00  0.00     0.059 A 
ATOM     69  F   UNL A   1      47.791  31.248  29.180  1.00  0.00    -0.206 F 
ATOM     70  C   UNL A   1      45.931  33.209  26.779  1.00  0.00     0.060 A 
BRANCH  70  71
ATOM     71  S   UNL A   1      46.181  34.610  25.668  1.00  0.00     0.124 S 
ATOM     72  O   UNL A   1      45.824  35.744  26.520  1.00  0.00    -0.237 OA
ATOM     73  O   UNL A   1      47.601  34.498  25.332  1.00  0.00    -0.237 OA
ATOM     74  O   UNL A   1      45.268  34.344  24.567  1.00  0.00    -0.744 OA
ENDBRANCH  70  71
ENDBRANCH  38  63
ENDBRANCH  12  13
ENDBRANCH   5   7
ENDBRANCH   2   3
ENDBRANCH   1   2
BRANCH   1  75
ATOM     75  C   UNL A   1      32.150  28.270  27.382  1.00  0.00     0.023 C 
BRANCH  75  76
ATOM     76  C   UNL A   1      31.413  27.552  26.257  1.00  0.00     0.116 C 
BRANCH  76  77
ATOM     77  N   UNL A   1      30.868  26.249  26.592  1.00  0.00    -0.351 N 
ATOM     78  C   UNL A   1      31.446  25.011  26.462  1.00  0.00     0.281 C 
ATOM     79  H   UNL A   1      29.957  26.254  26.965  1.00  0.00     0.163 HD
ATOM     80  O   UNL A   1      30.913  24.094  27.102  1.00  0.00    -0.268 OA
BRANCH  78  81
ATOM     81  C   UNL A   1      32.617  24.696  25.458  1.00  0.00     0.177 C 
ATOM     82  C   UNL A   1      33.998  24.848  26.148  1.00  0.00     0.079 C 
ATOM     83  C   UNL A   1      32.460  23.179  25.121  1.00  0.00     0.106 C 
ATOM     84  C   UNL A   1      35.151  24.401  25.253  1.00  0.00     0.009 C 
ATOM     85  C   UNL A   1      33.636  22.524  24.358  1.00  0.00     0.116 C 
ATOM     86  C   UNL A   1      35.017  22.926  24.922  1.00  0.00     0.028 C 
BRANCH  81  87
ATOM     87  N   UNL A   1      32.566  25.508  24.220  1.00  0.00    -0.331 N 
ATOM     88  H   UNL A   1      33.530  25.761  24.005  1.00  0.00     0.347 HD
ATOM     89  H   UNL A   1      31.906  26.244  24.474  1.00  0.00     0.347 HD
BRANCH  87  90
ATOM     90  C   UNL A   1      31.986  24.990  22.975  1.00  0.00     0.183 C 
ATOM     91  C   UNL A   1      31.605  25.813  21.778  1.00  0.00     0.071 C 
ATOM     92  C   UNL A   1      32.782  24.885  21.707  1.00  0.00     0.071 C 
ENDBRANCH  87  90
ENDBRANCH  81  87
BRANCH  85  93
ATOM     93  N   UNL A   1      33.498  21.060  24.307  1.00  0.00    -0.250 N 
ATOM     94  C   UNL A   1      34.390  20.114  24.715  1.00  0.00     0.220 A 
ATOM     95  N   UNL A   1      32.369  20.472  23.851  1.00  0.00    -0.160 NA
ATOM     96  N   UNL A   1      33.891  18.915  24.511  1.00  0.00    -0.224 NA
ATOM     97  C   UNL A   1      32.667  19.178  23.976  1.00  0.00     0.246 A 
ENDBRANCH  85  93
ENDBRANCH  78  81
ENDBRANCH  76  77
ENDBRANCH  75  76
ENDBRANCH   1  75
TORSDOF 17
ENDMDL
MODEL 2
REMARK VINA RESULT:     -11.9      1.366      2.244
REMARK SMILES O=C(NCCCCNC(=O)[C@@]1([NH2+]C2CC2)CCC[C@@H](n2cncn2)C1)c1ccc(-c2c3nc(c(-c4c(F)cc(S(=O)(=O)[O-])cc4F)c4ccc([nH]4)c(-c4c(F)cc(S(=O)(=O)[O-])cc4F)c4nc(c(-c5c(F)cc(S(=O)(=O)[O-])cc5F)c5ccc2[nH]5)C=C4)C=C3)cc1
REMARK SMILES IDX 5 1 4 2 3 3 1 4 2 5 26 7 27 8 91 9 28 10 90 11 29 12 30 13
REMARK SMILES IDX 31 14 84 15 32 16 89 17 83 18 85 19 33 20 88 21 82 22 81 23
REMARK SMILES IDX 34 25 68 26 47 27 67 28 48 29 51 30 66 31 86 32 49 33 50 34
REMARK SMILES IDX 65 36 87 37 52 38 35 39 36 40 45 41 37 42 38 43 44 44 46 45
REMARK SMILES IDX 39 46 40 47 41 48 42 49 43 50 69 51 70 52 79 53 71 54 72 55
REMARK SMILES IDX 78 56 80 57 73 58 74 59 75 60 76 61 77 62 53 63 54 64 63 65
REMARK SMILES IDX 55 66 56 67 62 68 64 69 57 70 58 71 59 72 60 73 61 74 6 75
REMARK SMILES IDX 7 76 8 77 9 78 10 80 11 81 16 82 25 83 17 84 19 85 18 86
REMARK SMILES IDX 12 87 13 90 14 91 15 92 20 93 21 94 24 95 22 96 23 97
REMARK H PARENT 3 6 85 24 51 35 8 79 12 88 12 89
REMARK Flexibility Score: inf
ROOT
ATOM      1  C   UNL A   1      32.151  28.889  27.264  1.00  0.00     0.023 C 
ENDROOT
BRANCH   1   2
ATOM      2  C   UNL A   1      33.396  29.754  27.057  1.00  0.00     0.116 C 
BRANCH   2   3
ATOM      3  N   UNL A   1      33.580  30.858  27.980  1.00  0.00    -0.352 N 
ATOM      4  O   UNL A   1      34.458  32.534  29.121  1.00  0.00    -0.269 OA
ATOM      5  C   UNL A   1      34.665  31.446  28.577  1.00  0.00     0.251 C 
ATOM      6  H   UNL A   1      32.730  31.281  28.238  1.00  0.00     0.163 HD
BRANCH   5   7
ATOM      7  C   UNL A   1      36.024  30.844  28.673  1.00  0.00     0.039 A 
ATOM      8  C   UNL A   1      36.311  29.482  28.601  1.00  0.00     0.014 A 
ATOM      9  C   UNL A   1      37.090  31.743  28.873  1.00  0.00     0.014 A 
ATOM     10  C   UNL A   1      37.607  29.020  28.829  1.00  0.00     0.010 A 
ATOM     11  C   UNL A   1      38.393  31.289  29.071  1.00  0.00     0.010 A 
ATOM     12  C   UNL A   1      38.646  29.920  29.087  1.00  0.00    -0.014 A 
BRANCH  12  13
ATOM     13  C   UNL A   1      39.998  29.378  29.241  1.00  0.00     0.031 A 
ATOM     14  C   UNL A   1      40.505  29.285  30.645  1.00  0.00     0.074 A 
ATOM     15  C   UNL A   1      40.717  28.839  28.235  1.00  0.00     0.049 A 
ATOM     16  N   UNL A   1      41.568  29.813  31.165  1.00  0.00    -0.248 NA
ATOM     17  C   UNL A   1      39.669  28.555  31.610  1.00  0.00     0.031 C 
ATOM     18  C   UNL A   1      40.282  28.540  26.869  1.00  0.00     0.029 A 
ATOM     19  N   UNL A   1      41.990  28.346  28.270  1.00  0.00    -0.354 N 
ATOM     20  C   UNL A   1      41.630  29.345  32.479  1.00  0.00     0.074 A 
ATOM     21  C   UNL A   1      40.383  28.668  32.729  1.00  0.00     0.031 C 
ATOM     22  C   UNL A   1      41.195  27.735  26.279  1.00  0.00     0.029 A 
ATOM     23  C   UNL A   1      42.331  27.572  27.170  1.00  0.00     0.049 A 
ATOM     24  H   UNL A   1      42.611  28.524  29.012  1.00  0.00     0.167 HD
ATOM     25  C   UNL A   1      42.761  29.403  33.237  1.00  0.00     0.037 A 
ATOM     26  C   UNL A   1      43.437  26.799  27.033  1.00  0.00     0.037 A 
ATOM     27  C   UNL A   1      43.710  30.351  32.722  1.00  0.00     0.049 A 
ATOM     28  C   UNL A   1      44.451  27.281  28.005  1.00  0.00     0.074 A 
ATOM     29  C   UNL A   1      43.699  31.716  32.510  1.00  0.00     0.029 A 
ATOM     30  N   UNL A   1      44.796  29.881  32.027  1.00  0.00    -0.354 N 
ATOM     31  N   UNL A   1      45.051  28.437  27.935  1.00  0.00    -0.248 NA
ATOM     32  C   UNL A   1      44.524  26.620  29.299  1.00  0.00     0.031 C 
ATOM     33  C   UNL A   1      44.459  31.913  31.320  1.00  0.00     0.029 A 
ATOM     34  C   UNL A   1      44.911  30.661  30.903  1.00  0.00     0.049 A 
ATOM     35  H   UNL A   1      45.379  29.132  32.284  1.00  0.00     0.167 HD
ATOM     36  C   UNL A   1      45.217  28.834  29.253  1.00  0.00     0.074 A 
ATOM     37  C   UNL A   1      44.974  27.632  30.044  1.00  0.00     0.031 C 
ATOM     38  C   UNL A   1      45.277  30.154  29.597  1.00  0.00     0.037 A 
BRANCH  25  39
ATOM     39  C   UNL A   1      43.110  28.404  34.312  1.00  0.00     0.058 A 
ATOM     40  C   UNL A   1      43.318  28.825  35.642  1.00  0.00     0.135 A 
ATOM     41  C   UNL A   1      43.495  27.074  34.028  1.00  0.00     0.135 A 
ATOM     42  F   UNL A   1      43.015  30.078  36.017  1.00  0.00    -0.206 F 
ATOM     43  C   UNL A   1      43.898  27.998  36.606  1.00  0.00     0.059 A 
ATOM     44  C   UNL A   1      44.025  26.216  34.985  1.00  0.00     0.059 A 
ATOM     45  F   UNL A   1      43.454  26.580  32.783  1.00  0.00    -0.206 F 
ATOM     46  C   UNL A   1      44.260  26.697  36.263  1.00  0.00     0.060 A 
BRANCH  46  47
ATOM     47  S   UNL A   1      45.099  25.659  37.475  1.00  0.00     0.124 S 
ATOM     48  O   UNL A   1      44.011  24.789  37.913  1.00  0.00    -0.237 OA
ATOM     49  O   UNL A   1      46.139  25.027  36.672  1.00  0.00    -0.237 OA
ATOM     50  O   UNL A   1      45.578  26.619  38.466  1.00  0.00    -0.744 OA
ENDBRANCH  46  47
ENDBRANCH  25  39
BRANCH  26  51
ATOM     51  C   UNL A   1      43.549  25.480  26.357  1.00  0.00     0.058 A 
ATOM     52  C   UNL A   1      44.435  25.280  25.285  1.00  0.00     0.135 A 
ATOM     53  C   UNL A   1      42.995  24.318  26.932  1.00  0.00     0.135 A 
ATOM     54  F   UNL A   1      45.031  26.329  24.695  1.00  0.00    -0.206 F 
ATOM     55  C   UNL A   1      44.786  24.001  24.837  1.00  0.00     0.059 A 
ATOM     56  C   UNL A   1      43.320  23.035  26.495  1.00  0.00     0.059 A 
ATOM     57  F   UNL A   1      42.193  24.391  28.004  1.00  0.00    -0.206 F 
ATOM     58  C   UNL A   1      44.236  22.883  25.462  1.00  0.00     0.060 A 
BRANCH  58  59
ATOM     59  S   UNL A   1      44.819  21.233  25.010  1.00  0.00     0.124 S 
ATOM     60  O   UNL A   1      44.708  21.262  23.555  1.00  0.00    -0.237 OA
ATOM     61  O   UNL A   1      46.175  21.226  25.547  1.00  0.00    -0.237 OA
ATOM     62  O   UNL A   1      43.880  20.344  25.690  1.00  0.00    -0.744 OA
ENDBRANCH  58  59
ENDBRANCH  26  51
BRANCH  38  63
ATOM     63  C   UNL A   1      45.463  31.171  28.498  1.00  0.00     0.058 A 
ATOM     64  C   UNL A   1      44.417  31.669  27.700  1.00  0.00     0.135 A 
ATOM     65  C   UNL A   1      46.720  31.777  28.349  1.00  0.00     0.135 A 
ATOM     66  F   UNL A   1      43.161  31.226  27.855  1.00  0.00    -0.206 F 
ATOM     67  C   UNL A   1      44.621  32.687  26.768  1.00  0.00     0.059 A 
ATOM     68  C   UNL A   1      46.940  32.818  27.450  1.00  0.00     0.059 A 
ATOM     69  F   UNL A   1      47.748  31.394  29.126  1.00  0.00    -0.206 F 
ATOM     70  C   UNL A   1      45.886  33.260  26.652  1.00  0.00     0.060 A 
BRANCH  70  71
ATOM     71  S   UNL A   1      46.124  34.645  25.517  1.00  0.00     0.124 S 
ATOM     72  O   UNL A   1      45.721  35.786  26.337  1.00  0.00    -0.237 OA
ATOM     73  O   UNL A   1      47.552  34.563  25.212  1.00  0.00    -0.237 OA
ATOM     74  O   UNL A   1      45.241  34.333  24.404  1.00  0.00    -0.744 OA
ENDBRANCH  70  71
ENDBRANCH  38  63
ENDBRANCH  12  13
ENDBRANCH   5   7
ENDBRANCH   2   3
ENDBRANCH   1   2
BRANCH   1  75
ATOM     75  C   UNL A   1      32.078  27.565  26.495  1.00  0.00     0.023 C 
BRANCH  75  76
ATOM     76  C   UNL A   1      33.400  26.893  26.144  1.00  0.00     0.116 C 
BRANCH  76  77
ATOM     77  N   UNL A   1      33.626  26.650  24.731  1.00  0.00    -0.351 N 
ATOM     78  C   UNL A   1      33.639  25.458  24.050  1.00  0.00     0.281 C 
ATOM     79  H   UNL A   1      33.793  27.452  24.184  1.00  0.00     0.163 HD
ATOM     80  O   UNL A   1      33.540  25.536  22.818  1.00  0.00    -0.268 OA
BRANCH  78  81
ATOM     81  C   UNL A   1      33.914  24.067  24.733  1.00  0.00     0.177 C 
ATOM     82  C   UNL A   1      33.932  22.925  23.683  1.00  0.00     0.079 C 
ATOM     83  C   UNL A   1      35.369  24.173  25.292  1.00  0.00     0.106 C 
ATOM     84  C   UNL A   1      34.349  21.585  24.285  1.00  0.00     0.009 C 
ATOM     85  C   UNL A   1      36.008  22.853  25.787  1.00  0.00     0.116 C 
ATOM     86  C   UNL A   1      35.765  21.669  24.825  1.00  0.00     0.028 C 
BRANCH  81  87
ATOM     87  N   UNL A   1      32.964  23.749  25.825  1.00  0.00    -0.331 N 
ATOM     88  H   UNL A   1      33.005  24.532  26.476  1.00  0.00     0.347 HD
ATOM     89  H   UNL A   1      33.290  22.832  26.132  1.00  0.00     0.347 HD
BRANCH  87  90
ATOM     90  C   UNL A   1      31.540  23.501  25.568  1.00  0.00     0.183 C 
ATOM     91  C   UNL A   1      30.543  23.000  26.574  1.00  0.00     0.071 C 
ATOM     92  C   UNL A   1      30.465  24.415  26.079  1.00  0.00     0.071 C 
ENDBRANCH  87  90
ENDBRANCH  81  87
BRANCH  85  93
ATOM     93  N   UNL A   1      37.444  23.019  26.060  1.00  0.00    -0.250 N 
ATOM     94  C   UNL A   1      38.095  24.131  26.507  1.00  0.00     0.220 A 
ATOM     95  N   UNL A   1      38.314  21.994  25.920  1.00  0.00    -0.160 NA
ATOM     96  N   UNL A   1      39.377  23.873  26.636  1.00  0.00    -0.224 NA
ATOM     97  C   UNL A   1      39.469  22.568  26.259  1.00  0.00     0.246 A 
ENDBRANCH  85  93
ENDBRANCH  78  81
ENDBRANCH  76  77
ENDBRANCH  75  76
ENDBRANCH   1  75
TORSDOF 17
ENDMDL
MODEL 3
REMARK VINA RESULT:     -11.9      2.664      9.245
REMARK SMILES O=C(NCCCCNC(=O)[C@@]1([NH2+]C2CC2)CCC[C@@H](n2cncn2)C1)c1ccc(-c2c3nc(c(-c4c(F)cc(S(=O)(=O)[O-])cc4F)c4ccc([nH]4)c(-c4c(F)cc(S(=O)(=O)[O-])cc4F)c4nc(c(-c5c(F)cc(S(=O)(=O)[O-])cc5F)c5ccc2[nH]5)C=C4)C=C3)cc1
REMARK SMILES IDX 5 1 4 2 3 3 1 4 2 5 26 7 27 8 91 9 28 10 90 11 29 12 30 13
REMARK SMILES IDX 31 14 84 15 32 16 89 17 83 18 85 19 33 20 88 21 82 22 81 23
REMARK SMILES IDX 34 25 68 26 47 27 67 28 48 29 51 30 66 31 86 32 49 33 50 34
REMARK SMILES IDX 65 36 87 37 52 38 35 39 36 40 45 41 37 42 38 43 44 44 46 45
REMARK SMILES IDX 39 46 40 47 41 48 42 49 43 50 69 51 70 52 79 53 71 54 72 55
REMARK SMILES IDX 78 56 80 57 73 58 74 59 75 60 76 61 77 62 53 63 54 64 63 65
REMARK SMILES IDX 55 66 56 67 62 68 64 69 57 70 58 71 59 72 60 73 61 74 6 75
REMARK SMILES IDX 7 76 8 77 9 78 10 80 11 81 16 82 25 83 17 84 19 85 18 86
REMARK SMILES IDX 12 87 13 90 14 91 15 92 20 93 21 94 24 95 22 96 23 97
REMARK H PARENT 3 6 85 24 51 35 8 79 12 88 12 89
REMARK Flexibility Score: inf
ROOT
ATOM      1  C   UNL A   1      39.698  20.181  25.895  1.00  0.00     0.023 C 
ENDROOT
BRANCH   1   2
ATOM      2  C   UNL A   1      40.977  19.642  26.540  1.00  0.00     0.116 C 
BRANCH   2   3
ATOM      3  N   UNL A   1      42.218  19.899  25.832  1.00  0.00    -0.352 N 
ATOM      4  O   UNL A   1      44.209  20.675  25.273  1.00  0.00    -0.269 OA
ATOM      5  C   UNL A   1      43.136  20.916  25.832  1.00  0.00     0.251 C 
ATOM      6  H   UNL A   1      42.453  19.175  25.208  1.00  0.00     0.163 HD
BRANCH   5   7
ATOM      7  C   UNL A   1      42.907  22.280  26.384  1.00  0.00     0.039 A 
ATOM      8  C   UNL A   1      42.478  23.386  25.653  1.00  0.00     0.014 A 
ATOM      9  C   UNL A   1      43.170  22.447  27.758  1.00  0.00     0.014 A 
ATOM     10  C   UNL A   1      42.418  24.646  26.248  1.00  0.00     0.010 A 
ATOM     11  C   UNL A   1      43.081  23.699  28.365  1.00  0.00     0.010 A 
ATOM     12  C   UNL A   1      42.741  24.810  27.598  1.00  0.00    -0.014 A 
BRANCH  12  13
ATOM     13  C   UNL A   1      42.582  26.143  28.183  1.00  0.00     0.031 A 
ATOM     14  C   UNL A   1      43.677  27.118  27.884  1.00  0.00     0.074 A 
ATOM     15  C   UNL A   1      41.470  26.563  28.822  1.00  0.00     0.049 A 
ATOM     16  N   UNL A   1      44.435  27.771  28.708  1.00  0.00    -0.248 NA
ATOM     17  C   UNL A   1      44.006  27.338  26.467  1.00  0.00     0.031 C 
ATOM     18  C   UNL A   1      40.179  25.883  28.935  1.00  0.00     0.029 A 
ATOM     19  N   UNL A   1      41.243  27.764  29.429  1.00  0.00    -0.354 N 
ATOM     20  C   UNL A   1      45.224  28.613  27.922  1.00  0.00     0.074 A 
ATOM     21  C   UNL A   1      44.996  28.226  26.553  1.00  0.00     0.031 C 
ATOM     22  C   UNL A   1      39.253  26.761  29.382  1.00  0.00     0.029 A 
ATOM     23  C   UNL A   1      39.907  28.016  29.710  1.00  0.00     0.049 A 
ATOM     24  H   UNL A   1      41.964  28.397  29.649  1.00  0.00     0.167 HD
ATOM     25  C   UNL A   1      45.901  29.683  28.428  1.00  0.00     0.037 A 
ATOM     26  C   UNL A   1      39.372  29.194  30.116  1.00  0.00     0.037 A 
ATOM     27  C   UNL A   1      46.067  29.595  29.852  1.00  0.00     0.049 A 
ATOM     28  C   UNL A   1      40.467  30.019  30.684  1.00  0.00     0.074 A 
ATOM     29  C   UNL A   1      46.697  28.707  30.702  1.00  0.00     0.029 A 
ATOM     30  N   UNL A   1      45.257  30.359  30.655  1.00  0.00    -0.354 N 
ATOM     31  N   UNL A   1      41.105  29.742  31.787  1.00  0.00    -0.248 NA
ATOM     32  C   UNL A   1      41.127  30.974  29.807  1.00  0.00     0.031 C 
ATOM     33  C   UNL A   1      45.870  28.653  31.863  1.00  0.00     0.029 A 
ATOM     34  C   UNL A   1      44.809  29.535  31.658  1.00  0.00     0.049 A 
ATOM     35  H   UNL A   1      45.040  31.311  30.535  1.00  0.00     0.167 HD
ATOM     36  C   UNL A   1      42.409  30.156  31.560  1.00  0.00     0.074 A 
ATOM     37  C   UNL A   1      42.336  31.001  30.372  1.00  0.00     0.031 C 
ATOM     38  C   UNL A   1      43.465  29.567  32.195  1.00  0.00     0.037 A 
BRANCH  25  39
ATOM     39  C   UNL A   1      46.193  30.942  27.650  1.00  0.00     0.058 A 
ATOM     40  C   UNL A   1      47.516  31.408  27.511  1.00  0.00     0.135 A 
ATOM     41  C   UNL A   1      45.183  31.846  27.246  1.00  0.00     0.135 A 
ATOM     42  F   UNL A   1      48.553  30.644  27.889  1.00  0.00    -0.206 F 
ATOM     43  C   UNL A   1      47.812  32.690  27.041  1.00  0.00     0.059 A 
ATOM     44  C   UNL A   1      45.457  33.106  26.726  1.00  0.00     0.059 A 
ATOM     45  F   UNL A   1      43.884  31.575  27.425  1.00  0.00    -0.206 F 
ATOM     46  C   UNL A   1      46.772  33.537  26.663  1.00  0.00     0.060 A 
BRANCH  46  47
ATOM     47  S   UNL A   1      47.143  35.225  26.150  1.00  0.00     0.124 S 
ATOM     48  O   UNL A   1      48.084  35.642  27.184  1.00  0.00    -0.237 OA
ATOM     49  O   UNL A   1      47.703  35.025  24.818  1.00  0.00    -0.237 OA
ATOM     50  O   UNL A   1      45.838  35.879  26.181  1.00  0.00    -0.744 OA
ENDBRANCH  46  47
ENDBRANCH  25  39
BRANCH  26  51
ATOM     51  C   UNL A   1      38.053  29.771  29.745  1.00  0.00     0.058 A 
ATOM     52  C   UNL A   1      37.278  30.484  30.677  1.00  0.00     0.135 A 
ATOM     53  C   UNL A   1      37.657  29.876  28.397  1.00  0.00     0.135 A 
ATOM     54  F   UNL A   1      37.599  30.463  31.980  1.00  0.00    -0.206 F 
ATOM     55  C   UNL A   1      36.201  31.289  30.289  1.00  0.00     0.059 A 
ATOM     56  C   UNL A   1      36.581  30.662  27.988  1.00  0.00     0.059 A 
ATOM     57  F   UNL A   1      38.367  29.294  27.419  1.00  0.00    -0.206 F 
ATOM     58  C   UNL A   1      35.872  31.386  28.938  1.00  0.00     0.060 A 
BRANCH  58  59
ATOM     59  S   UNL A   1      34.601  32.560  28.413  1.00  0.00     0.124 S 
ATOM     60  O   UNL A   1      35.376  33.504  27.614  1.00  0.00    -0.237 OA
ATOM     61  O   UNL A   1      33.678  31.706  27.674  1.00  0.00    -0.237 OA
ATOM     62  O   UNL A   1      34.084  33.086  29.673  1.00  0.00    -0.744 OA
ENDBRANCH  58  59
ENDBRANCH  26  51
BRANCH  38  63
ATOM     63  C   UNL A   1      43.178  28.666  33.370  1.00  0.00     0.058 A 
ATOM     64  C   UNL A   1      42.943  29.127  34.679  1.00  0.00     0.135 A 
ATOM     65  C   UNL A   1      42.982  27.296  33.134  1.00  0.00     0.135 A 
ATOM     66  F   UNL A   1      42.997  30.435  34.969  1.00  0.00    -0.206 F 
ATOM     67  C   UNL A   1      42.576  28.262  35.710  1.00  0.00     0.059 A 
ATOM     68  C   UNL A   1      42.583  26.420  34.141  1.00  0.00     0.059 A 
ATOM     69  F   UNL A   1      43.126  26.800  31.893  1.00  0.00    -0.206 F 
ATOM     70  C   UNL A   1      42.394  26.908  35.432  1.00  0.00     0.060 A 
BRANCH  70  71
ATOM     71  S   UNL A   1      41.822  25.809  36.746  1.00  0.00     0.124 S 
ATOM     72  O   UNL A   1      41.487  24.595  36.005  1.00  0.00    -0.237 OA
ATOM     73  O   UNL A   1      42.997  25.714  37.613  1.00  0.00    -0.237 OA
ATOM     74  O   UNL A   1      40.692  26.521  37.322  1.00  0.00    -0.744 OA
ENDBRANCH  70  71
ENDBRANCH  38  63
ENDBRANCH  12  13
ENDBRANCH   5   7
ENDBRANCH   2   3
ENDBRANCH   1   2
BRANCH   1  75
ATOM     75  C   UNL A   1      39.313  21.632  26.203  1.00  0.00     0.023 C 
BRANCH  75  76
ATOM     76  C   UNL A   1      37.905  22.071  25.820  1.00  0.00     0.116 C 
BRANCH  76  77
ATOM     77  N   UNL A   1      37.613  22.080  24.397  1.00  0.00    -0.351 N 
ATOM     78  C   UNL A   1      36.600  22.718  23.727  1.00  0.00     0.281 C 
ATOM     79  H   UNL A   1      38.229  21.557  23.835  1.00  0.00     0.163 HD
ATOM     80  O   UNL A   1      36.746  22.831  22.502  1.00  0.00    -0.268 OA
BRANCH  78  81
ATOM     81  C   UNL A   1      35.248  23.158  24.403  1.00  0.00     0.177 C 
ATOM     82  C   UNL A   1      35.479  24.325  25.399  1.00  0.00     0.079 C 
ATOM     83  C   UNL A   1      34.386  23.739  23.238  1.00  0.00     0.106 C 
ATOM     84  C   UNL A   1      34.171  24.882  25.958  1.00  0.00     0.009 C 
ATOM     85  C   UNL A   1      33.101  24.496  23.650  1.00  0.00     0.116 C 
ATOM     86  C   UNL A   1      33.325  25.459  24.837  1.00  0.00     0.028 C 
BRANCH  81  87
ATOM     87  N   UNL A   1      34.533  22.045  25.069  1.00  0.00    -0.331 N 
ATOM     88  H   UNL A   1      33.766  22.469  25.590  1.00  0.00     0.347 HD
ATOM     89  H   UNL A   1      35.284  21.584  25.583  1.00  0.00     0.347 HD
BRANCH  87  90
ATOM     90  C   UNL A   1      33.950  20.932  24.309  1.00  0.00     0.183 C 
ATOM     91  C   UNL A   1      33.705  19.546  24.835  1.00  0.00     0.071 C 
ATOM     92  C   UNL A   1      32.546  20.454  24.543  1.00  0.00     0.071 C 
ENDBRANCH  87  90
ENDBRANCH  81  87
BRANCH  85  93
ATOM     93  N   UNL A   1      32.501  25.203  22.509  1.00  0.00    -0.250 N 
ATOM     94  C   UNL A   1      31.459  26.083  22.514  1.00  0.00     0.220 A 
ATOM     95  N   UNL A   1      32.990  25.066  21.256  1.00  0.00    -0.160 NA
ATOM     96  N   UNL A   1      31.229  26.506  21.291  1.00  0.00    -0.224 NA
ATOM     97  C   UNL A   1      32.173  25.856  20.556  1.00  0.00     0.246 A 
ENDBRANCH  85  93
ENDBRANCH  78  81
ENDBRANCH  76  77
ENDBRANCH  75  76
ENDBRANCH   1  75
TORSDOF 17
ENDMDL
