MODEL 1
REMARK VINA RESULT:     -11.5      0.000      0.000
REMARK SMILES O=C(CC[N@H+]1CCC[C@H](c2nccn2Cc2cscn2)C1)NCCCCNC(=O)c1ccc(-c2c3nc(c(-c4c(F)cc(S(=O)(=O)[O-])cc4F)c4ccc([nH]4)c(-c4c(F)cc(S(=O)(=O)[O-])cc4F)c4nc(c(-c5c(F)cc(S(=O)(=O)[O-])cc5F)c5ccc2[nH]5)C=C4)C=C3)cc1
REMARK SMILES IDX 23 1 22 2 1 3 2 4 3 6 4 7 5 8 6 9 21 10 7 12 9 13 8 14 10 15
REMARK SMILES IDX 11 16 14 17 12 18 13 19 15 20 16 21 17 22 20 23 18 24 19 25
REMARK SMILES IDX 24 26 25 27 26 28 27 29 28 30 29 32 30 33 31 34 95 35 32 36
REMARK SMILES IDX 94 37 33 38 34 39 35 40 88 41 36 42 93 43 87 44 89 45 37 46
REMARK SMILES IDX 92 47 86 48 85 49 38 51 72 52 51 53 71 54 52 55 55 56 70 57
REMARK SMILES IDX 90 58 53 59 54 60 69 62 91 63 56 64 39 65 40 66 49 67 41 68
REMARK SMILES IDX 42 69 48 70 50 71 43 72 44 73 45 74 46 75 47 76 73 77 74 78
REMARK SMILES IDX 83 79 75 80 76 81 82 82 84 83 77 84 78 85 79 86 80 87 81 88
REMARK SMILES IDX 57 89 58 90 67 91 59 92 60 93 66 94 68 95 61 96 62 97 63 98
REMARK SMILES IDX 64 99 65 100
REMARK H PARENT 22 5 5 11 27 31 89 50 55 61
REMARK Flexibility Score: inf
ROOT
ATOM      1  C   UNL A   1      39.156  22.094  26.297  1.00  0.00     0.116 C 
ENDROOT
BRANCH   1   2
ATOM      2  N   UNL A   1      38.306  22.734  25.313  1.00  0.00    -0.356 N 
ATOM      3  O   UNL A   1      36.532  21.304  25.465  1.00  0.00    -0.275 OA
ATOM      4  C   UNL A   1      37.058  22.289  24.950  1.00  0.00     0.225 C 
ATOM      5  H   UNL A   1      38.647  23.547  24.874  1.00  0.00     0.163 HD
BRANCH   4   6
ATOM      6  C   UNL A   1      36.413  22.982  23.751  1.00  0.00     0.161 C 
BRANCH   6   7
ATOM      7  C   UNL A   1      34.887  23.063  23.679  1.00  0.00     0.272 C 
BRANCH   7   8
ATOM      8  N   UNL A   1      34.247  24.348  23.948  1.00  0.00    -0.334 N 
ATOM      9  C   UNL A   1      34.578  24.917  25.252  1.00  0.00     0.262 C 
ATOM     10  C   UNL A   1      33.775  25.162  22.838  1.00  0.00     0.273 C 
ATOM     11  H   UNL A   1      33.260  24.151  24.107  1.00  0.00     0.348 HD
ATOM     12  C   UNL A   1      33.889  26.234  25.579  1.00  0.00     0.062 C 
ATOM     13  C   UNL A   1      33.115  26.484  23.215  1.00  0.00     0.111 C 
ATOM     14  C   UNL A   1      33.897  27.137  24.360  1.00  0.00     0.023 C 
BRANCH  13  15
ATOM     15  C   UNL A   1      31.633  26.542  23.497  1.00  0.00     0.117 A 
ATOM     16  N   UNL A   1      30.975  25.407  23.692  1.00  0.00    -0.241 NA
ATOM     17  N   UNL A   1      30.753  27.610  23.548  1.00  0.00    -0.328 N 
ATOM     18  C   UNL A   1      29.661  25.725  23.834  1.00  0.00     0.131 A 
ATOM     19  C   UNL A   1      29.503  27.082  23.801  1.00  0.00     0.108 A 
BRANCH  17  20
ATOM     20  C   UNL A   1      30.978  29.050  23.516  1.00  0.00     0.180 C 
BRANCH  20  21
ATOM     21  C   UNL A   1      29.829  29.822  22.952  1.00  0.00     0.071 A 
ATOM     22  C   UNL A   1      29.081  30.790  23.601  1.00  0.00     0.092 A 
ATOM     23  N   UNL A   1      29.502  29.661  21.610  1.00  0.00    -0.248 NA
ATOM     24  S   UNL A   1      27.905  31.451  22.544  1.00  0.00    -0.130 S 
ATOM     25  C   UNL A   1      28.482  30.431  21.296  1.00  0.00     0.175 A 
ENDBRANCH  20  21
ENDBRANCH  17  20
ENDBRANCH  13  15
ENDBRANCH   7   8
ENDBRANCH   6   7
ENDBRANCH   4   6
ENDBRANCH   1   2
BRANCH   1  26
ATOM     26  C   UNL A   1      40.008  20.939  25.733  1.00  0.00     0.023 C 
BRANCH  26  27
ATOM     27  C   UNL A   1      40.518  19.862  26.711  1.00  0.00     0.023 C 
BRANCH  27  28
ATOM     28  C   UNL A   1      41.941  20.051  27.220  1.00  0.00     0.116 C 
BRANCH  28  29
ATOM     29  N   UNL A   1      43.009  19.878  26.239  1.00  0.00    -0.352 N 
ATOM     30  C   UNL A   1      43.669  20.873  25.526  1.00  0.00     0.251 C 
ATOM     31  H   UNL A   1      43.295  18.952  26.062  1.00  0.00     0.163 HD
ATOM     32  O   UNL A   1      44.318  20.584  24.517  1.00  0.00    -0.269 OA
BRANCH  30  33
ATOM     33  C   UNL A   1      43.593  22.283  25.978  1.00  0.00     0.039 A 
ATOM     34  C   UNL A   1      42.762  23.237  25.374  1.00  0.00     0.014 A 
ATOM     35  C   UNL A   1      44.393  22.661  27.046  1.00  0.00     0.014 A 
ATOM     36  C   UNL A   1      42.683  24.529  25.915  1.00  0.00     0.010 A 
ATOM     37  C   UNL A   1      44.176  23.852  27.683  1.00  0.00     0.010 A 
ATOM     38  C   UNL A   1      43.385  24.826  27.092  1.00  0.00    -0.014 A 
BRANCH  38  39
ATOM     39  C   UNL A   1      43.273  26.106  27.798  1.00  0.00     0.031 A 
ATOM     40  C   UNL A   1      44.313  27.116  27.435  1.00  0.00     0.074 A 
ATOM     41  C   UNL A   1      42.143  26.458  28.463  1.00  0.00     0.049 A 
ATOM     42  N   UNL A   1      45.228  27.636  28.185  1.00  0.00    -0.248 NA
ATOM     43  C   UNL A   1      44.435  27.500  26.019  1.00  0.00     0.031 C 
ATOM     44  C   UNL A   1      40.886  25.699  28.578  1.00  0.00     0.029 A 
ATOM     45  N   UNL A   1      41.817  27.632  29.067  1.00  0.00    -0.354 N 
ATOM     46  C   UNL A   1      45.886  28.579  27.391  1.00  0.00     0.074 A 
ATOM     47  C   UNL A   1      45.508  28.290  26.036  1.00  0.00     0.031 C 
ATOM     48  C   UNL A   1      39.887  26.519  28.969  1.00  0.00     0.029 A 
ATOM     49  C   UNL A   1      40.456  27.805  29.318  1.00  0.00     0.049 A 
ATOM     50  H   UNL A   1      42.491  28.309  29.310  1.00  0.00     0.167 HD
ATOM     51  C   UNL A   1      46.483  29.679  27.932  1.00  0.00     0.037 A 
ATOM     52  C   UNL A   1      39.833  28.930  29.755  1.00  0.00     0.037 A 
ATOM     53  C   UNL A   1      46.622  29.531  29.359  1.00  0.00     0.049 A 
ATOM     54  C   UNL A   1      40.884  29.802  30.339  1.00  0.00     0.074 A 
ATOM     55  C   UNL A   1      47.261  28.628  30.184  1.00  0.00     0.029 A 
ATOM     56  N   UNL A   1      45.709  30.187  30.149  1.00  0.00    -0.354 N 
ATOM     57  N   UNL A   1      41.577  29.496  31.402  1.00  0.00    -0.248 NA
ATOM     58  C   UNL A   1      41.491  30.790  29.461  1.00  0.00     0.031 C 
ATOM     59  C   UNL A   1      46.372  28.446  31.283  1.00  0.00     0.029 A 
ATOM     60  C   UNL A   1      45.286  29.307  31.110  1.00  0.00     0.049 A 
ATOM     61  H   UNL A   1      45.412  31.119  30.044  1.00  0.00     0.167 HD
ATOM     62  C   UNL A   1      42.868  29.917  31.119  1.00  0.00     0.074 A 
ATOM     63  C   UNL A   1      42.735  30.779  29.945  1.00  0.00     0.031 C 
ATOM     64  C   UNL A   1      43.954  29.304  31.678  1.00  0.00     0.037 A 
BRANCH  51  65
ATOM     65  C   UNL A   1      46.600  31.036  27.263  1.00  0.00     0.058 A 
ATOM     66  C   UNL A   1      47.882  31.603  27.086  1.00  0.00     0.135 A 
ATOM     67  C   UNL A   1      45.520  31.921  27.050  1.00  0.00     0.135 A 
ATOM     68  F   UNL A   1      48.989  30.861  27.254  1.00  0.00    -0.206 F 
ATOM     69  C   UNL A   1      48.077  32.959  26.815  1.00  0.00     0.059 A 
ATOM     70  C   UNL A   1      45.690  33.263  26.724  1.00  0.00     0.059 A 
ATOM     71  F   UNL A   1      44.247  31.563  27.241  1.00  0.00    -0.206 F 
ATOM     72  C   UNL A   1      46.970  33.786  26.654  1.00  0.00     0.060 A 
BRANCH  72  73
ATOM     73  S   UNL A   1      47.208  35.555  26.419  1.00  0.00     0.124 S 
ATOM     74  O   UNL A   1      47.496  35.994  27.774  1.00  0.00    -0.237 OA
ATOM     75  O   UNL A   1      48.327  35.585  25.480  1.00  0.00    -0.237 OA
ATOM     76  O   UNL A   1      45.927  35.994  25.867  1.00  0.00    -0.744 OA
ENDBRANCH  72  73
ENDBRANCH  51  65
BRANCH  52  77
ATOM     77  C   UNL A   1      38.476  29.429  29.397  1.00  0.00     0.058 A 
ATOM     78  C   UNL A   1      37.544  29.818  30.376  1.00  0.00     0.135 A 
ATOM     79  C   UNL A   1      38.162  29.787  28.069  1.00  0.00     0.135 A 
ATOM     80  F   UNL A   1      37.773  29.544  31.669  1.00  0.00    -0.206 F 
ATOM     81  C   UNL A   1      36.387  30.547  30.062  1.00  0.00     0.059 A 
ATOM     82  C   UNL A   1      37.015  30.505  27.732  1.00  0.00     0.059 A 
ATOM     83  F   UNL A   1      39.014  29.526  27.064  1.00  0.00    -0.206 F 
ATOM     84  C   UNL A   1      36.139  30.900  28.736  1.00  0.00     0.060 A 
BRANCH  84  85
ATOM     85  S   UNL A   1      34.739  31.976  28.334  1.00  0.00     0.124 S 
ATOM     86  O   UNL A   1      33.844  31.059  27.636  1.00  0.00    -0.237 OA
ATOM     87  O   UNL A   1      34.298  32.421  29.651  1.00  0.00    -0.237 OA
ATOM     88  O   UNL A   1      35.341  33.015  27.501  1.00  0.00    -0.744 OA
ENDBRANCH  84  85
ENDBRANCH  52  77
BRANCH  64  89
ATOM     89  C   UNL A   1      43.743  28.379  32.848  1.00  0.00     0.058 A 
ATOM     90  C   UNL A   1      43.663  26.977  32.760  1.00  0.00     0.135 A 
ATOM     91  C   UNL A   1      43.841  28.934  34.133  1.00  0.00     0.135 A 
ATOM     92  F   UNL A   1      43.654  26.359  31.572  1.00  0.00    -0.206 F 
ATOM     93  C   UNL A   1      43.672  26.169  33.900  1.00  0.00     0.059 A 
ATOM     94  C   UNL A   1      43.882  28.148  35.279  1.00  0.00     0.059 A 
ATOM     95  F   UNL A   1      43.974  30.263  34.280  1.00  0.00    -0.206 F 
ATOM     96  C   UNL A   1      43.793  26.764  35.156  1.00  0.00     0.060 A 
BRANCH  96  97
ATOM     97  S   UNL A   1      43.923  25.718  36.624  1.00  0.00     0.124 S 
ATOM     98  O   UNL A   1      45.358  25.467  36.693  1.00  0.00    -0.237 OA
ATOM     99  O   UNL A   1      43.377  26.573  37.674  1.00  0.00    -0.237 OA
ATOM    100  O   UNL A   1      43.103  24.557  36.290  1.00  0.00    -0.744 OA
ENDBRANCH  96  97
ENDBRANCH  64  89
ENDBRANCH  38  39
ENDBRANCH  30  33
ENDBRANCH  28  29
ENDBRANCH  27  28
ENDBRANCH  26  27
ENDBRANCH   1  26
TORSDOF 19
ENDMDL
MODEL 2
REMARK VINA RESULT:     -11.2      1.667      2.462
REMARK SMILES O=C(CC[N@H+]1CCC[C@H](c2nccn2Cc2cscn2)C1)NCCCCNC(=O)c1ccc(-c2c3nc(c(-c4c(F)cc(S(=O)(=O)[O-])cc4F)c4ccc([nH]4)c(-c4c(F)cc(S(=O)(=O)[O-])cc4F)c4nc(c(-c5c(F)cc(S(=O)(=O)[O-])cc5F)c5ccc2[nH]5)C=C4)C=C3)cc1
REMARK SMILES IDX 23 1 22 2 1 3 2 4 3 6 4 7 5 8 6 9 21 10 7 12 9 13 8 14 10 15
REMARK SMILES IDX 11 16 14 17 12 18 13 19 15 20 16 21 17 22 20 23 18 24 19 25
REMARK SMILES IDX 24 26 25 27 26 28 27 29 28 30 29 32 30 33 31 34 95 35 32 36
REMARK SMILES IDX 94 37 33 38 34 39 35 40 88 41 36 42 93 43 87 44 89 45 37 46
REMARK SMILES IDX 92 47 86 48 85 49 38 51 72 52 51 53 71 54 52 55 55 56 70 57
REMARK SMILES IDX 90 58 53 59 54 60 69 62 91 63 56 64 39 65 40 66 49 67 41 68
REMARK SMILES IDX 42 69 48 70 50 71 43 72 44 73 45 74 46 75 47 76 73 77 74 78
REMARK SMILES IDX 83 79 75 80 76 81 82 82 84 83 77 84 78 85 79 86 80 87 81 88
REMARK SMILES IDX 57 89 58 90 67 91 59 92 60 93 66 94 68 95 61 96 62 97 63 98
REMARK SMILES IDX 64 99 65 100
REMARK H PARENT 22 5 5 11 27 31 89 50 55 61
REMARK Flexibility Score: inf
ROOT
ATOM      1  C   UNL A   1      40.088  21.512  27.124  1.00  0.00     0.116 C 
ENDROOT
BRANCH   1   2
ATOM      2  N   UNL A   1      39.159  22.413  26.471  1.00  0.00    -0.356 N 
ATOM      3  O   UNL A   1      37.952  20.839  25.340  1.00  0.00    -0.275 OA
ATOM      4  C   UNL A   1      38.164  22.020  25.610  1.00  0.00     0.225 C 
ATOM      5  H   UNL A   1      39.248  23.376  26.658  1.00  0.00     0.163 HD
BRANCH   4   6
ATOM      6  C   UNL A   1      37.428  23.134  24.870  1.00  0.00     0.161 C 
BRANCH   6   7
ATOM      7  C   UNL A   1      36.346  23.923  25.610  1.00  0.00     0.272 C 
BRANCH   7   8
ATOM      8  N   UNL A   1      35.004  23.352  25.690  1.00  0.00    -0.334 N 
ATOM      9  C   UNL A   1      34.665  22.468  24.578  1.00  0.00     0.262 C 
ATOM     10  C   UNL A   1      34.329  23.281  26.978  1.00  0.00     0.273 C 
ATOM     11  H   UNL A   1      34.355  24.112  25.492  1.00  0.00     0.348 HD
ATOM     12  C   UNL A   1      33.255  21.895  24.611  1.00  0.00     0.062 C 
ATOM     13  C   UNL A   1      32.929  22.675  26.964  1.00  0.00     0.111 C 
ATOM     14  C   UNL A   1      32.906  21.465  26.024  1.00  0.00     0.023 C 
BRANCH  13  15
ATOM     15  C   UNL A   1      31.724  23.550  26.717  1.00  0.00     0.117 A 
ATOM     16  N   UNL A   1      30.548  23.169  27.200  1.00  0.00    -0.241 NA
ATOM     17  N   UNL A   1      31.577  24.723  25.997  1.00  0.00    -0.328 N 
ATOM     18  C   UNL A   1      29.627  24.069  26.769  1.00  0.00     0.131 A 
ATOM     19  C   UNL A   1      30.242  25.068  26.067  1.00  0.00     0.108 A 
BRANCH  17  20
ATOM     20  C   UNL A   1      32.558  25.605  25.376  1.00  0.00     0.180 C 
BRANCH  20  21
ATOM     21  C   UNL A   1      31.961  26.576  24.408  1.00  0.00     0.071 A 
ATOM     22  C   UNL A   1      31.879  27.950  24.556  1.00  0.00     0.092 A 
ATOM     23  N   UNL A   1      31.521  26.113  23.173  1.00  0.00    -0.248 NA
ATOM     24  S   UNL A   1      31.171  28.663  23.168  1.00  0.00    -0.130 S 
ATOM     25  C   UNL A   1      31.046  27.111  22.458  1.00  0.00     0.175 A 
ENDBRANCH  20  21
ENDBRANCH  17  20
ENDBRANCH  13  15
ENDBRANCH   7   8
ENDBRANCH   6   7
ENDBRANCH   4   6
ENDBRANCH   1   2
BRANCH   1  26
ATOM     26  C   UNL A   1      41.349  21.202  26.294  1.00  0.00     0.023 C 
BRANCH  26  27
ATOM     27  C   UNL A   1      41.645  19.732  25.936  1.00  0.00     0.023 C 
BRANCH  27  28
ATOM     28  C   UNL A   1      43.072  19.263  26.189  1.00  0.00     0.116 C 
BRANCH  28  29
ATOM     29  N   UNL A   1      43.959  19.230  25.029  1.00  0.00    -0.352 N 
ATOM     30  C   UNL A   1      44.462  20.316  24.321  1.00  0.00     0.251 C 
ATOM     31  H   UNL A   1      44.233  18.339  24.712  1.00  0.00     0.163 HD
ATOM     32  O   UNL A   1      44.935  20.154  23.192  1.00  0.00    -0.269 OA
BRANCH  30  33
ATOM     33  C   UNL A   1      44.431  21.672  24.922  1.00  0.00     0.039 A 
ATOM     34  C   UNL A   1      43.715  22.740  24.362  1.00  0.00     0.014 A 
ATOM     35  C   UNL A   1      45.153  21.876  26.088  1.00  0.00     0.014 A 
ATOM     36  C   UNL A   1      43.666  23.969  25.038  1.00  0.00     0.010 A 
ATOM     37  C   UNL A   1      44.952  23.005  26.835  1.00  0.00     0.010 A 
ATOM     38  C   UNL A   1      44.276  24.088  26.294  1.00  0.00    -0.014 A 
BRANCH  38  39
ATOM     39  C   UNL A   1      44.178  25.290  27.128  1.00  0.00     0.031 A 
ATOM     40  C   UNL A   1      45.208  26.336  26.847  1.00  0.00     0.074 A 
ATOM     41  C   UNL A   1      43.063  25.568  27.851  1.00  0.00     0.049 A 
ATOM     42  N   UNL A   1      46.139  26.781  27.624  1.00  0.00    -0.248 NA
ATOM     43  C   UNL A   1      45.297  26.861  25.474  1.00  0.00     0.031 C 
ATOM     44  C   UNL A   1      41.810  24.797  27.917  1.00  0.00     0.029 A 
ATOM     45  N   UNL A   1      42.749  26.674  28.579  1.00  0.00    -0.354 N 
ATOM     46  C   UNL A   1      46.777  27.803  26.915  1.00  0.00     0.074 A 
ATOM     47  C   UNL A   1      46.369  27.650  25.547  1.00  0.00     0.031 C 
ATOM     48  C   UNL A   1      40.819  25.569  28.411  1.00  0.00     0.029 A 
ATOM     49  C   UNL A   1      41.394  26.815  28.876  1.00  0.00     0.049 A 
ATOM     50  H   UNL A   1      43.427  27.326  28.873  1.00  0.00     0.167 HD
ATOM     51  C   UNL A   1      47.385  28.844  27.552  1.00  0.00     0.037 A 
ATOM     52  C   UNL A   1      40.780  27.888  29.439  1.00  0.00     0.037 A 
ATOM     53  C   UNL A   1      47.557  28.553  28.952  1.00  0.00     0.049 A 
ATOM     54  C   UNL A   1      41.842  28.701  30.084  1.00  0.00     0.074 A 
ATOM     55  C   UNL A   1      48.215  27.574  29.667  1.00  0.00     0.029 A 
ATOM     56  N   UNL A   1      46.660  29.122  29.825  1.00  0.00    -0.354 N 
ATOM     57  N   UNL A   1      42.559  28.292  31.095  1.00  0.00    -0.248 NA
ATOM     58  C   UNL A   1      42.427  29.775  29.298  1.00  0.00     0.031 C 
ATOM     59  C   UNL A   1      47.352  27.278  30.762  1.00  0.00     0.029 A 
ATOM     60  C   UNL A   1      46.261  28.148  30.702  1.00  0.00     0.049 A 
ATOM     61  H   UNL A   1      46.360  30.059  29.822  1.00  0.00     0.167 HD
ATOM     62  C   UNL A   1      43.843  28.744  30.826  1.00  0.00     0.074 A 
ATOM     63  C   UNL A   1      43.682  29.720  29.750  1.00  0.00     0.031 C 
ATOM     64  C   UNL A   1      44.942  28.082  31.296  1.00  0.00     0.037 A 
BRANCH  51  65
ATOM     65  C   UNL A   1      47.484  30.262  27.021  1.00  0.00     0.058 A 
ATOM     66  C   UNL A   1      48.731  30.926  27.071  1.00  0.00     0.135 A 
ATOM     67  C   UNL A   1      46.377  31.091  26.735  1.00  0.00     0.135 A 
ATOM     68  F   UNL A   1      49.860  30.244  27.327  1.00  0.00    -0.206 F 
ATOM     69  C   UNL A   1      48.854  32.311  26.943  1.00  0.00     0.059 A 
ATOM     70  C   UNL A   1      46.484  32.466  26.549  1.00  0.00     0.059 A 
ATOM     71  F   UNL A   1      45.121  30.635  26.718  1.00  0.00    -0.206 F 
ATOM     72  C   UNL A   1      47.718  33.075  26.701  1.00  0.00     0.060 A 
BRANCH  72  73
ATOM     73  S   UNL A   1      47.849  34.870  26.649  1.00  0.00     0.124 S 
ATOM     74  O   UNL A   1      49.004  35.104  27.500  1.00  0.00    -0.237 OA
ATOM     75  O   UNL A   1      48.038  35.117  25.222  1.00  0.00    -0.237 OA
ATOM     76  O   UNL A   1      46.563  35.314  27.187  1.00  0.00    -0.744 OA
ENDBRANCH  72  73
ENDBRANCH  51  65
BRANCH  52  77
ATOM     77  C   UNL A   1      39.414  28.415  29.163  1.00  0.00     0.058 A 
ATOM     78  C   UNL A   1      38.458  28.576  30.184  1.00  0.00     0.135 A 
ATOM     79  C   UNL A   1      39.107  29.026  27.929  1.00  0.00     0.135 A 
ATOM     80  F   UNL A   1      38.679  28.055  31.400  1.00  0.00    -0.206 F 
ATOM     81  C   UNL A   1      37.286  29.326  30.002  1.00  0.00     0.059 A 
ATOM     82  C   UNL A   1      37.944  29.767  27.722  1.00  0.00     0.059 A 
ATOM     83  F   UNL A   1      39.978  28.992  26.908  1.00  0.00    -0.206 F 
ATOM     84  C   UNL A   1      37.046  29.932  28.770  1.00  0.00     0.060 A 
BRANCH  84  85
ATOM     85  S   UNL A   1      35.621  31.031  28.566  1.00  0.00     0.124 S 
ATOM     86  O   UNL A   1      35.299  31.369  29.949  1.00  0.00    -0.237 OA
ATOM     87  O   UNL A   1      36.173  32.111  27.757  1.00  0.00    -0.237 OA
ATOM     88  O   UNL A   1      34.640  30.188  27.884  1.00  0.00    -0.744 OA
ENDBRANCH  84  85
ENDBRANCH  52  77
BRANCH  64  89
ATOM     89  C   UNL A   1      44.760  27.042  32.371  1.00  0.00     0.058 A 
ATOM     90  C   UNL A   1      44.510  27.323  33.727  1.00  0.00     0.135 A 
ATOM     91  C   UNL A   1      44.622  25.708  31.959  1.00  0.00     0.135 A 
ATOM     92  F   UNL A   1      44.534  28.581  34.187  1.00  0.00    -0.206 F 
ATOM     93  C   UNL A   1      44.149  26.320  34.629  1.00  0.00     0.059 A 
ATOM     94  C   UNL A   1      44.235  24.699  32.833  1.00  0.00     0.059 A 
ATOM     95  F   UNL A   1      44.795  25.385  30.666  1.00  0.00    -0.206 F 
ATOM     96  C   UNL A   1      44.003  25.010  34.170  1.00  0.00     0.060 A 
BRANCH  96  97
ATOM     97  S   UNL A   1      43.423  23.732  35.307  1.00  0.00     0.124 S 
ATOM     98  O   UNL A   1      43.795  22.508  34.605  1.00  0.00    -0.237 OA
ATOM     99  O   UNL A   1      44.177  24.020  36.523  1.00  0.00    -0.237 OA
ATOM    100  O   UNL A   1      41.987  23.984  35.400  1.00  0.00    -0.744 OA
ENDBRANCH  96  97
ENDBRANCH  64  89
ENDBRANCH  38  39
ENDBRANCH  30  33
ENDBRANCH  28  29
ENDBRANCH  27  28
ENDBRANCH  26  27
ENDBRANCH   1  26
TORSDOF 19
ENDMDL
MODEL 3
REMARK VINA RESULT:     -11.0      3.202      9.510
REMARK SMILES O=C(CC[N@H+]1CCC[C@H](c2nccn2Cc2cscn2)C1)NCCCCNC(=O)c1ccc(-c2c3nc(c(-c4c(F)cc(S(=O)(=O)[O-])cc4F)c4ccc([nH]4)c(-c4c(F)cc(S(=O)(=O)[O-])cc4F)c4nc(c(-c5c(F)cc(S(=O)(=O)[O-])cc5F)c5ccc2[nH]5)C=C4)C=C3)cc1
REMARK SMILES IDX 23 1 22 2 1 3 2 4 3 6 4 7 5 8 6 9 21 10 7 12 9 13 8 14 10 15
REMARK SMILES IDX 11 16 14 17 12 18 13 19 15 20 16 21 17 22 20 23 18 24 19 25
REMARK SMILES IDX 24 26 25 27 26 28 27 29 28 30 29 32 30 33 31 34 95 35 32 36
REMARK SMILES IDX 94 37 33 38 34 39 35 40 88 41 36 42 93 43 87 44 89 45 37 46
REMARK SMILES IDX 92 47 86 48 85 49 38 51 72 52 51 53 71 54 52 55 55 56 70 57
REMARK SMILES IDX 90 58 53 59 54 60 69 62 91 63 56 64 39 65 40 66 49 67 41 68
REMARK SMILES IDX 42 69 48 70 50 71 43 72 44 73 45 74 46 75 47 76 73 77 74 78
REMARK SMILES IDX 83 79 75 80 76 81 82 82 84 83 77 84 78 85 79 86 80 87 81 88
REMARK SMILES IDX 57 89 58 90 67 91 59 92 60 93 66 94 68 95 61 96 62 97 63 98
REMARK SMILES IDX 64 99 65 100
REMARK H PARENT 22 5 5 11 27 31 89 50 55 61
REMARK Flexibility Score: inf
ROOT
ATOM      1  C   UNL A   1      35.305  30.546  27.805  1.00  0.00     0.116 C 
ENDROOT
BRANCH   1   2
ATOM      2  N   UNL A   1      34.141  30.595  26.943  1.00  0.00    -0.356 N 
ATOM      3  O   UNL A   1      33.614  28.374  27.014  1.00  0.00    -0.275 OA
ATOM      4  C   UNL A   1      33.382  29.505  26.591  1.00  0.00     0.225 C 
ATOM      5  H   UNL A   1      33.874  31.473  26.585  1.00  0.00     0.163 HD
BRANCH   4   6
ATOM      6  C   UNL A   1      32.325  29.734  25.514  1.00  0.00     0.161 C 
BRANCH   6   7
ATOM      7  C   UNL A   1      32.515  29.081  24.143  1.00  0.00     0.272 C 
BRANCH   7   8
ATOM      8  N   UNL A   1      32.219  27.657  24.006  1.00  0.00    -0.334 N 
ATOM      9  C   UNL A   1      30.855  27.371  23.568  1.00  0.00     0.262 C 
ATOM     10  C   UNL A   1      33.311  26.710  23.833  1.00  0.00     0.273 C 
ATOM     11  H   UNL A   1      32.163  27.283  24.953  1.00  0.00     0.348 HD
ATOM     12  C   UNL A   1      30.505  25.894  23.463  1.00  0.00     0.062 C 
ATOM     13  C   UNL A   1      32.907  25.245  23.705  1.00  0.00     0.111 C 
ATOM     14  C   UNL A   1      31.654  25.134  22.828  1.00  0.00     0.023 C 
BRANCH  13  15
ATOM     15  C   UNL A   1      32.756  24.387  24.938  1.00  0.00     0.117 A 
ATOM     16  N   UNL A   1      31.932  24.787  25.899  1.00  0.00    -0.241 NA
ATOM     17  N   UNL A   1      33.382  23.212  25.317  1.00  0.00    -0.328 N 
ATOM     18  C   UNL A   1      32.045  23.898  26.920  1.00  0.00     0.131 A 
ATOM     19  C   UNL A   1      32.895  22.887  26.567  1.00  0.00     0.108 A 
BRANCH  17  20
ATOM     20  C   UNL A   1      34.272  22.313  24.592  1.00  0.00     0.180 C 
BRANCH  20  21
ATOM     21  C   UNL A   1      33.701  20.948  24.380  1.00  0.00     0.071 A 
ATOM     22  C   UNL A   1      32.623  20.614  23.580  1.00  0.00     0.092 A 
ATOM     23  N   UNL A   1      34.347  19.852  24.945  1.00  0.00    -0.248 NA
ATOM     24  S   UNL A   1      32.364  18.920  23.594  1.00  0.00    -0.130 S 
ATOM     25  C   UNL A   1      33.709  18.743  24.637  1.00  0.00     0.175 A 
ENDBRANCH  20  21
ENDBRANCH  17  20
ENDBRANCH  13  15
ENDBRANCH   7   8
ENDBRANCH   6   7
ENDBRANCH   4   6
ENDBRANCH   1   2
BRANCH   1  26
ATOM     26  C   UNL A   1      36.027  31.899  27.959  1.00  0.00     0.023 C 
BRANCH  26  27
ATOM     27  C   UNL A   1      35.171  33.176  28.074  1.00  0.00     0.023 C 
BRANCH  27  28
ATOM     28  C   UNL A   1      33.995  33.099  29.038  1.00  0.00     0.116 C 
BRANCH  28  29
ATOM     29  N   UNL A   1      33.963  34.098  30.104  1.00  0.00    -0.352 N 
ATOM     30  C   UNL A   1      34.693  34.092  31.287  1.00  0.00     0.251 C 
ATOM     31  H   UNL A   1      33.355  34.861  29.970  1.00  0.00     0.163 HD
ATOM     32  O   UNL A   1      34.350  34.811  32.230  1.00  0.00    -0.269 OA
BRANCH  30  33
ATOM     33  C   UNL A   1      35.886  33.221  31.418  1.00  0.00     0.039 A 
ATOM     34  C   UNL A   1      35.806  31.851  31.708  1.00  0.00     0.014 A 
ATOM     35  C   UNL A   1      37.132  33.805  31.248  1.00  0.00     0.014 A 
ATOM     36  C   UNL A   1      36.977  31.079  31.730  1.00  0.00     0.010 A 
ATOM     37  C   UNL A   1      38.244  33.025  31.083  1.00  0.00     0.010 A 
ATOM     38  C   UNL A   1      38.201  31.674  31.395  1.00  0.00    -0.014 A 
BRANCH  38  39
ATOM     39  C   UNL A   1      39.456  30.927  31.274  1.00  0.00     0.031 A 
ATOM     40  C   UNL A   1      40.154  30.658  32.567  1.00  0.00     0.074 A 
ATOM     41  C   UNL A   1      39.780  30.255  30.139  1.00  0.00     0.049 A 
ATOM     42  N   UNL A   1      41.312  31.076  32.961  1.00  0.00    -0.248 NA
ATOM     43  C   UNL A   1      39.410  29.937  33.613  1.00  0.00     0.031 C 
ATOM     44  C   UNL A   1      38.986  30.125  28.905  1.00  0.00     0.029 A 
ATOM     45  N   UNL A   1      40.828  29.425  29.886  1.00  0.00    -0.354 N 
ATOM     46  C   UNL A   1      41.533  30.480  34.205  1.00  0.00     0.074 A 
ATOM     47  C   UNL A   1      40.258  29.985  34.641  1.00  0.00     0.031 C 
ATOM     48  C   UNL A   1      39.443  29.089  28.170  1.00  0.00     0.029 A 
ATOM     49  C   UNL A   1      40.669  28.602  28.772  1.00  0.00     0.049 A 
ATOM     50  H   UNL A   1      41.638  29.407  30.447  1.00  0.00     0.167 HD
ATOM     51  C   UNL A   1      42.792  30.215  34.658  1.00  0.00     0.037 A 
ATOM     52  C   UNL A   1      41.469  27.576  28.382  1.00  0.00     0.037 A 
ATOM     53  C   UNL A   1      43.773  30.919  33.871  1.00  0.00     0.049 A 
ATOM     54  C   UNL A   1      42.767  27.755  29.081  1.00  0.00     0.074 A 
ATOM     55  C   UNL A   1      44.023  32.246  33.589  1.00  0.00     0.029 A 
ATOM     56  N   UNL A   1      44.444  30.195  32.915  1.00  0.00    -0.354 N 
ATOM     57  N   UNL A   1      43.572  28.763  28.876  1.00  0.00    -0.248 NA
ATOM     58  C   UNL A   1      42.940  27.067  30.350  1.00  0.00     0.031 C 
ATOM     59  C   UNL A   1      44.411  32.262  32.218  1.00  0.00     0.029 A 
ATOM     60  C   UNL A   1      44.459  30.941  31.766  1.00  0.00     0.049 A 
ATOM     61  H   UNL A   1      44.843  29.303  33.033  1.00  0.00     0.167 HD
ATOM     62  C   UNL A   1      44.048  29.100  30.136  1.00  0.00     0.074 A 
ATOM     63  C   UNL A   1      43.688  27.969  30.990  1.00  0.00     0.031 C 
ATOM     64  C   UNL A   1      44.429  30.378  30.432  1.00  0.00     0.037 A 
BRANCH  51  65
ATOM     65  C   UNL A   1      43.180  29.049  35.548  1.00  0.00     0.058 A 
ATOM     66  C   UNL A   1      43.955  29.297  36.703  1.00  0.00     0.135 A 
ATOM     67  C   UNL A   1      43.076  27.690  35.178  1.00  0.00     0.135 A 
ATOM     68  F   UNL A   1      44.123  30.549  37.159  1.00  0.00    -0.206 F 
ATOM     69  C   UNL A   1      44.648  28.290  37.378  1.00  0.00     0.059 A 
ATOM     70  C   UNL A   1      43.713  26.663  35.868  1.00  0.00     0.059 A 
ATOM     71  F   UNL A   1      42.437  27.289  34.074  1.00  0.00    -0.206 F 
ATOM     72  C   UNL A   1      44.534  26.975  36.938  1.00  0.00     0.060 A 
BRANCH  72  73
ATOM     73  S   UNL A   1      45.512  25.687  37.729  1.00  0.00     0.124 S 
ATOM     74  O   UNL A   1      46.599  25.519  36.778  1.00  0.00    -0.237 OA
ATOM     75  O   UNL A   1      45.860  26.311  39.003  1.00  0.00    -0.237 OA
ATOM     76  O   UNL A   1      44.575  24.567  37.825  1.00  0.00    -0.744 OA
ENDBRANCH  72  73
ENDBRANCH  51  65
BRANCH  52  77
ATOM     77  C   UNL A   1      41.073  26.297  27.730  1.00  0.00     0.058 A 
ATOM     78  C   UNL A   1      41.855  25.702  26.723  1.00  0.00     0.135 A 
ATOM     79  C   UNL A   1      40.049  25.492  28.272  1.00  0.00     0.135 A 
ATOM     80  F   UNL A   1      42.869  26.383  26.169  1.00  0.00    -0.206 F 
ATOM     81  C   UNL A   1      41.656  24.378  26.303  1.00  0.00     0.059 A 
ATOM     82  C   UNL A   1      39.827  24.177  27.865  1.00  0.00     0.059 A 
ATOM     83  F   UNL A   1      39.287  25.936  29.284  1.00  0.00    -0.206 F 
ATOM     84  C   UNL A   1      40.648  23.617  26.893  1.00  0.00     0.060 A 
BRANCH  84  85
ATOM     85  S   UNL A   1      40.480  21.862  26.479  1.00  0.00     0.124 S 
ATOM     86  O   UNL A   1      40.573  21.231  27.792  1.00  0.00    -0.237 OA
ATOM     87  O   UNL A   1      39.171  21.815  25.839  1.00  0.00    -0.237 OA
ATOM     88  O   UNL A   1      41.612  21.617  25.587  1.00  0.00    -0.744 OA
ENDBRANCH  84  85
ENDBRANCH  52  77
BRANCH  64  89
ATOM     89  C   UNL A   1      44.636  31.355  29.304  1.00  0.00     0.058 A 
ATOM     90  C   UNL A   1      45.766  31.389  28.467  1.00  0.00     0.135 A 
ATOM     91  C   UNL A   1      43.539  32.147  28.930  1.00  0.00     0.135 A 
ATOM     92  F   UNL A   1      46.823  30.599  28.701  1.00  0.00    -0.206 F 
ATOM     93  C   UNL A   1      45.804  32.182  27.317  1.00  0.00     0.059 A 
ATOM     94  C   UNL A   1      43.543  32.920  27.775  1.00  0.00     0.059 A 
ATOM     95  F   UNL A   1      42.411  32.116  29.660  1.00  0.00    -0.206 F 
ATOM     96  C   UNL A   1      44.682  32.936  26.973  1.00  0.00     0.060 A 
BRANCH  96  97
ATOM     97  S   UNL A   1      44.682  33.870  25.427  1.00  0.00     0.124 S 
ATOM     98  O   UNL A   1      43.732  34.939  25.715  1.00  0.00    -0.237 OA
ATOM     99  O   UNL A   1      46.077  34.280  25.301  1.00  0.00    -0.237 OA
ATOM    100  O   UNL A   1      44.237  32.892  24.437  1.00  0.00    -0.744 OA
ENDBRANCH  96  97
ENDBRANCH  64  89
ENDBRANCH  38  39
ENDBRANCH  30  33
ENDBRANCH  28  29
ENDBRANCH  27  28
ENDBRANCH  26  27
ENDBRANCH   1  26
TORSDOF 19
ENDMDL
