MODEL 1
REMARK VINA RESULT:     -11.4      0.000      0.000
REMARK SMILES C[C@@H]1[C@@H](C(=O)NCCCCNC(=O)c2ccc(-c3c4nc(c(-c5c(F)cc(S(=O)(=O)[O-])cc5F)c5ccc([nH]5)c(-c5c(F)cc(S(=O)(=O)[O-])cc5F)c5nc(c(-c6c(F)cc(S(=O)(=O)[O-])cc6F)c6ccc3[nH]6)C=C5)C=C4)cc2)CCN1C(=O)[C@@H](C)OCc1ccccc1
REMARK SMILES IDX 7 1 6 2 4 3 5 4 3 6 1 7 2 8 82 9 80 10 81 11 83 12 84 13
REMARK SMILES IDX 85 14 86 15 87 16 88 17 89 18 90 19 94 20 91 21 93 22 92 23
REMARK SMILES IDX 8 24 9 25 10 26 11 27 12 28 13 30 14 31 15 32 79 33 16 34
REMARK SMILES IDX 78 35 17 36 18 37 19 38 72 39 20 40 77 41 71 42 73 43 21 44
REMARK SMILES IDX 76 45 70 46 69 47 22 49 56 50 35 51 55 52 36 53 39 54 54 55
REMARK SMILES IDX 74 56 37 57 38 58 53 60 75 61 40 62 23 63 24 64 33 65 25 66
REMARK SMILES IDX 26 67 32 68 34 69 27 70 28 71 29 72 30 73 31 74 57 75 58 76
REMARK SMILES IDX 67 77 59 78 60 79 66 80 68 81 61 82 62 83 63 84 64 85 65 86
REMARK SMILES IDX 41 87 42 88 51 89 43 90 44 91 50 92 52 93 45 94 46 95 47 96
REMARK SMILES IDX 48 97 49 98
REMARK H PARENT 6 5 11 29 73 48 39 59
REMARK Flexibility Score: inf
ROOT
ATOM      1  C   UNL A   1      36.853  21.684  25.191  1.00  0.00     0.116 C 
ENDROOT
BRANCH   1   2
ATOM      2  N   UNL A   1      35.950  21.514  26.313  1.00  0.00    -0.356 N 
ATOM      3  C   UNL A   1      34.582  21.567  26.311  1.00  0.00     0.225 C 
ATOM      4  O   UNL A   1      33.984  21.326  27.356  1.00  0.00    -0.275 OA
ATOM      5  H   UNL A   1      36.373  21.338  27.185  1.00  0.00     0.163 HD
BRANCH   3   6
ATOM      6  C   UNL A   1      33.882  21.969  25.021  1.00  0.00     0.102 C 
ATOM      7  C   UNL A   1      33.449  23.934  23.533  1.00  0.00     0.032 C 
ATOM      8  C   UNL A   1      33.468  23.446  24.992  1.00  0.00     0.094 C 
ATOM      9  N   UNL A   1      32.121  23.468  25.536  1.00  0.00    -0.337 N 
ATOM     10  C   UNL A   1      32.550  21.241  24.822  1.00  0.00     0.037 C 
ATOM     11  C   UNL A   1      31.520  22.146  25.486  1.00  0.00     0.121 C 
BRANCH   9  12
ATOM     12  C   UNL A   1      31.421  24.507  26.111  1.00  0.00     0.251 C 
ATOM     13  O   UNL A   1      30.866  24.324  27.206  1.00  0.00    -0.272 OA
BRANCH  12  14
ATOM     14  C   UNL A   1      31.442  25.965  25.511  1.00  0.00     0.204 C 
ATOM     15  C   UNL A   1      30.229  26.184  24.603  1.00  0.00     0.049 C 
BRANCH  14  16
ATOM     16  O   UNL A   1      31.941  27.143  26.119  1.00  0.00    -0.364 OA
BRANCH  16  17
ATOM     17  C   UNL A   1      33.324  27.353  26.350  1.00  0.00     0.196 C 
BRANCH  17  18
ATOM     18  C   UNL A   1      33.722  28.704  26.889  1.00  0.00    -0.022 A 
ATOM     19  C   UNL A   1      35.052  28.979  27.230  1.00  0.00     0.006 A 
ATOM     20  C   UNL A   1      32.761  29.714  27.057  1.00  0.00     0.006 A 
ATOM     21  C   UNL A   1      35.428  30.263  27.628  1.00  0.00     0.000 A 
ATOM     22  C   UNL A   1      33.139  30.999  27.442  1.00  0.00     0.000 A 
ATOM     23  C   UNL A   1      34.475  31.277  27.714  1.00  0.00     0.000 A 
ENDBRANCH  17  18
ENDBRANCH  16  17
ENDBRANCH  14  16
ENDBRANCH  12  14
ENDBRANCH   9  12
ENDBRANCH   3   6
ENDBRANCH   1   2
BRANCH   1  24
ATOM     24  C   UNL A   1      37.311  23.124  25.000  1.00  0.00     0.023 C 
BRANCH  24  25
ATOM     25  C   UNL A   1      37.447  23.945  26.282  1.00  0.00     0.023 C 
BRANCH  25  26
ATOM     26  C   UNL A   1      38.846  23.998  26.885  1.00  0.00     0.116 C 
BRANCH  26  27
ATOM     27  N   UNL A   1      39.848  24.514  25.964  1.00  0.00    -0.352 N 
ATOM     28  C   UNL A   1      40.693  25.592  26.099  1.00  0.00     0.251 C 
ATOM     29  H   UNL A   1      39.935  24.017  25.118  1.00  0.00     0.163 HD
ATOM     30  O   UNL A   1      41.387  25.944  25.157  1.00  0.00    -0.269 OA
BRANCH  28  31
ATOM     31  C   UNL A   1      40.722  26.341  27.374  1.00  0.00     0.039 A 
ATOM     32  C   UNL A   1      41.631  27.392  27.519  1.00  0.00     0.014 A 
ATOM     33  C   UNL A   1      39.837  26.025  28.409  1.00  0.00     0.014 A 
ATOM     34  C   UNL A   1      41.598  28.177  28.673  1.00  0.00     0.010 A 
ATOM     35  C   UNL A   1      39.750  26.860  29.518  1.00  0.00     0.010 A 
ATOM     36  C   UNL A   1      40.631  27.943  29.664  1.00  0.00    -0.014 A 
BRANCH  36  37
ATOM     37  C   UNL A   1      40.527  28.809  30.866  1.00  0.00     0.031 A 
ATOM     38  C   UNL A   1      39.499  29.906  30.913  1.00  0.00     0.074 A 
ATOM     39  C   UNL A   1      41.400  28.656  31.882  1.00  0.00     0.049 A 
ATOM     40  N   UNL A   1      39.309  30.823  31.825  1.00  0.00    -0.248 NA
ATOM     41  C   UNL A   1      38.586  30.007  29.762  1.00  0.00     0.031 C 
ATOM     42  C   UNL A   1      42.476  27.662  31.935  1.00  0.00     0.029 A 
ATOM     43  N   UNL A   1      41.530  29.344  33.063  1.00  0.00    -0.354 N 
ATOM     44  C   UNL A   1      38.273  31.619  31.351  1.00  0.00     0.074 A 
ATOM     45  C   UNL A   1      37.914  31.112  30.045  1.00  0.00     0.031 C 
ATOM     46  C   UNL A   1      43.137  27.790  33.096  1.00  0.00     0.029 A 
ATOM     47  C   UNL A   1      42.561  28.895  33.854  1.00  0.00     0.049 A 
ATOM     48  H   UNL A   1      40.940  30.090  33.318  1.00  0.00     0.167 HD
ATOM     49  C   UNL A   1      37.657  32.663  31.959  1.00  0.00     0.037 A 
ATOM     50  C   UNL A   1      42.994  29.329  35.055  1.00  0.00     0.037 A 
ATOM     51  C   UNL A   1      37.996  33.141  33.273  1.00  0.00     0.049 A 
ATOM     52  C   UNL A   1      42.283  30.476  35.720  1.00  0.00     0.074 A 
ATOM     53  C   UNL A   1      37.399  34.155  34.001  1.00  0.00     0.029 A 
ATOM     54  N   UNL A   1      39.021  32.634  34.059  1.00  0.00    -0.354 N 
ATOM     55  N   UNL A   1      41.270  31.184  35.281  1.00  0.00    -0.248 NA
ATOM     56  C   UNL A   1      42.768  30.879  37.048  1.00  0.00     0.031 C 
ATOM     57  C   UNL A   1      38.084  34.285  35.213  1.00  0.00     0.029 A 
ATOM     58  C   UNL A   1      39.079  33.321  35.260  1.00  0.00     0.049 A 
ATOM     59  H   UNL A   1      39.618  31.896  33.802  1.00  0.00     0.167 HD
ATOM     60  C   UNL A   1      40.974  32.093  36.290  1.00  0.00     0.074 A 
ATOM     61  C   UNL A   1      41.913  31.841  37.365  1.00  0.00     0.031 C 
ATOM     62  C   UNL A   1      40.011  33.047  36.326  1.00  0.00     0.037 A 
BRANCH  49  63
ATOM     63  C   UNL A   1      36.549  33.346  31.206  1.00  0.00     0.058 A 
ATOM     64  C   UNL A   1      35.203  33.190  31.574  1.00  0.00     0.135 A 
ATOM     65  C   UNL A   1      36.835  34.177  30.112  1.00  0.00     0.135 A 
ATOM     66  F   UNL A   1      34.871  32.394  32.603  1.00  0.00    -0.206 F 
ATOM     67  C   UNL A   1      34.177  33.801  30.861  1.00  0.00     0.059 A 
ATOM     68  C   UNL A   1      35.827  34.824  29.401  1.00  0.00     0.059 A 
ATOM     69  F   UNL A   1      38.105  34.363  29.716  1.00  0.00    -0.206 F 
ATOM     70  C   UNL A   1      34.500  34.613  29.773  1.00  0.00     0.060 A 
BRANCH  70  71
ATOM     71  S   UNL A   1      33.157  35.392  28.851  1.00  0.00     0.124 S 
ATOM     72  O   UNL A   1      32.346  35.943  29.931  1.00  0.00    -0.237 OA
ATOM     73  O   UNL A   1      33.866  36.369  28.030  1.00  0.00    -0.237 OA
ATOM     74  O   UNL A   1      32.558  34.280  28.119  1.00  0.00    -0.744 OA
ENDBRANCH  70  71
ENDBRANCH  49  63
BRANCH  50  75
ATOM     75  C   UNL A   1      44.136  28.648  35.722  1.00  0.00     0.058 A 
ATOM     76  C   UNL A   1      43.917  27.611  36.640  1.00  0.00     0.135 A 
ATOM     77  C   UNL A   1      45.464  29.004  35.443  1.00  0.00     0.135 A 
ATOM     78  F   UNL A   1      42.664  27.238  36.943  1.00  0.00    -0.206 F 
ATOM     79  C   UNL A   1      44.972  26.959  37.270  1.00  0.00     0.059 A 
ATOM     80  C   UNL A   1      46.536  28.351  36.043  1.00  0.00     0.059 A 
ATOM     81  F   UNL A   1      45.728  29.979  34.559  1.00  0.00    -0.206 F 
ATOM     82  C   UNL A   1      46.280  27.335  36.962  1.00  0.00     0.060 A 
BRANCH  82  83
ATOM     83  S   UNL A   1      47.644  26.444  37.744  1.00  0.00     0.124 S 
ATOM     84  O   UNL A   1      47.851  25.345  36.808  1.00  0.00    -0.237 OA
ATOM     85  O   UNL A   1      48.692  27.459  37.778  1.00  0.00    -0.237 OA
ATOM     86  O   UNL A   1      47.099  26.073  39.045  1.00  0.00    -0.744 OA
ENDBRANCH  82  83
ENDBRANCH  50  75
BRANCH  62  87
ATOM     87  C   UNL A   1      39.888  33.859  37.585  1.00  0.00     0.058 A 
ATOM     88  C   UNL A   1      40.636  35.029  37.787  1.00  0.00     0.135 A 
ATOM     89  C   UNL A   1      38.968  33.488  38.580  1.00  0.00     0.135 A 
ATOM     90  F   UNL A   1      41.533  35.424  36.869  1.00  0.00    -0.206 F 
ATOM     91  C   UNL A   1      40.494  35.791  38.942  1.00  0.00     0.059 A 
ATOM     92  C   UNL A   1      38.791  34.248  39.730  1.00  0.00     0.059 A 
ATOM     93  F   UNL A   1      38.220  32.383  38.429  1.00  0.00    -0.206 F 
ATOM     94  C   UNL A   1      39.567  35.392  39.909  1.00  0.00     0.060 A 
BRANCH  94  95
ATOM     95  S   UNL A   1      39.368  36.405  41.389  1.00  0.00     0.124 S 
ATOM     96  O   UNL A   1      40.716  36.381  41.946  1.00  0.00    -0.237 OA
ATOM     97  O   UNL A   1      38.933  37.685  40.837  1.00  0.00    -0.237 OA
ATOM     98  O   UNL A   1      38.357  35.686  42.158  1.00  0.00    -0.744 OA
ENDBRANCH  94  95
ENDBRANCH  62  87
ENDBRANCH  36  37
ENDBRANCH  28  31
ENDBRANCH  26  27
ENDBRANCH  25  26
ENDBRANCH  24  25
ENDBRANCH   1  24
TORSDOF 19
ENDMDL
MODEL 2
REMARK VINA RESULT:     -11.1      3.353      9.058
REMARK SMILES C[C@@H]1[C@@H](C(=O)NCCCCNC(=O)c2ccc(-c3c4nc(c(-c5c(F)cc(S(=O)(=O)[O-])cc5F)c5ccc([nH]5)c(-c5c(F)cc(S(=O)(=O)[O-])cc5F)c5nc(c(-c6c(F)cc(S(=O)(=O)[O-])cc6F)c6ccc3[nH]6)C=C5)C=C4)cc2)CCN1C(=O)[C@@H](C)OCc1ccccc1
REMARK SMILES IDX 7 1 6 2 4 3 5 4 3 6 1 7 2 8 82 9 80 10 81 11 83 12 84 13
REMARK SMILES IDX 85 14 86 15 87 16 88 17 89 18 90 19 94 20 91 21 93 22 92 23
REMARK SMILES IDX 8 24 9 25 10 26 11 27 12 28 13 30 14 31 15 32 79 33 16 34
REMARK SMILES IDX 78 35 17 36 18 37 19 38 72 39 20 40 77 41 71 42 73 43 21 44
REMARK SMILES IDX 76 45 70 46 69 47 22 49 56 50 35 51 55 52 36 53 39 54 54 55
REMARK SMILES IDX 74 56 37 57 38 58 53 60 75 61 40 62 23 63 24 64 33 65 25 66
REMARK SMILES IDX 26 67 32 68 34 69 27 70 28 71 29 72 30 73 31 74 57 75 58 76
REMARK SMILES IDX 67 77 59 78 60 79 66 80 68 81 61 82 62 83 63 84 64 85 65 86
REMARK SMILES IDX 41 87 42 88 51 89 43 90 44 91 50 92 52 93 45 94 46 95 47 96
REMARK SMILES IDX 48 97 49 98
REMARK H PARENT 6 5 11 29 73 48 39 59
REMARK Flexibility Score: inf
ROOT
ATOM      1  C   UNL A   1      33.949  21.834  26.643  1.00  0.00     0.116 C 
ENDROOT
BRANCH   1   2
ATOM      2  N   UNL A   1      33.264  23.083  26.917  1.00  0.00    -0.356 N 
ATOM      3  C   UNL A   1      32.413  23.775  26.099  1.00  0.00     0.225 C 
ATOM      4  O   UNL A   1      31.871  24.786  26.538  1.00  0.00    -0.275 OA
ATOM      5  H   UNL A   1      33.432  23.482  27.801  1.00  0.00     0.163 HD
BRANCH   3   6
ATOM      6  C   UNL A   1      32.223  23.276  24.675  1.00  0.00     0.102 C 
ATOM      7  C   UNL A   1      33.446  22.932  22.518  1.00  0.00     0.032 C 
ATOM      8  C   UNL A   1      33.196  23.915  23.674  1.00  0.00     0.094 C 
ATOM      9  N   UNL A   1      32.503  25.093  23.179  1.00  0.00    -0.337 N 
ATOM     10  C   UNL A   1      30.854  23.647  24.098  1.00  0.00     0.037 C 
ATOM     11  C   UNL A   1      31.077  25.000  23.434  1.00  0.00     0.121 C 
BRANCH   9  12
ATOM     12  C   UNL A   1      33.014  26.233  22.595  1.00  0.00     0.251 C 
ATOM     13  O   UNL A   1      33.687  26.126  21.559  1.00  0.00    -0.272 OA
BRANCH  12  14
ATOM     14  C   UNL A   1      32.631  27.676  23.101  1.00  0.00     0.204 C 
ATOM     15  C   UNL A   1      33.894  28.477  23.427  1.00  0.00     0.049 C 
BRANCH  14  16
ATOM     16  O   UNL A   1      31.521  28.465  22.709  1.00  0.00    -0.364 OA
BRANCH  16  17
ATOM     17  C   UNL A   1      30.734  29.186  23.642  1.00  0.00     0.196 C 
BRANCH  17  18
ATOM     18  C   UNL A   1      29.687  30.110  23.071  1.00  0.00    -0.022 A 
ATOM     19  C   UNL A   1      29.087  31.096  23.864  1.00  0.00     0.006 A 
ATOM     20  C   UNL A   1      29.297  29.998  21.726  1.00  0.00     0.006 A 
ATOM     21  C   UNL A   1      28.198  32.012  23.300  1.00  0.00     0.000 A 
ATOM     22  C   UNL A   1      28.419  30.921  21.160  1.00  0.00     0.000 A 
ATOM     23  C   UNL A   1      27.881  31.937  21.944  1.00  0.00     0.000 A 
ENDBRANCH  17  18
ENDBRANCH  16  17
ENDBRANCH  14  16
ENDBRANCH  12  14
ENDBRANCH   9  12
ENDBRANCH   3   6
ENDBRANCH   1   2
BRANCH   1  24
ATOM     24  C   UNL A   1      35.381  22.026  26.161  1.00  0.00     0.023 C 
BRANCH  24  25
ATOM     25  C   UNL A   1      35.858  23.475  26.083  1.00  0.00     0.023 C 
BRANCH  25  26
ATOM     26  C   UNL A   1      37.055  23.728  25.173  1.00  0.00     0.116 C 
BRANCH  26  27
ATOM     27  N   UNL A   1      38.150  22.795  25.394  1.00  0.00    -0.352 N 
ATOM     28  C   UNL A   1      39.335  22.976  26.070  1.00  0.00     0.251 C 
ATOM     29  H   UNL A   1      38.023  21.900  25.002  1.00  0.00     0.163 HD
ATOM     30  O   UNL A   1      40.190  22.103  26.045  1.00  0.00    -0.269 OA
BRANCH  28  31
ATOM     31  C   UNL A   1      39.578  24.245  26.790  1.00  0.00     0.039 A 
ATOM     32  C   UNL A   1      39.046  24.407  28.071  1.00  0.00     0.014 A 
ATOM     33  C   UNL A   1      40.350  25.257  26.214  1.00  0.00     0.014 A 
ATOM     34  C   UNL A   1      39.355  25.552  28.806  1.00  0.00     0.010 A 
ATOM     35  C   UNL A   1      40.726  26.356  26.979  1.00  0.00     0.010 A 
ATOM     36  C   UNL A   1      40.230  26.518  28.282  1.00  0.00    -0.014 A 
BRANCH  36  37
ATOM     37  C   UNL A   1      40.633  27.709  29.071  1.00  0.00     0.031 A 
ATOM     38  C   UNL A   1      41.957  27.721  29.788  1.00  0.00     0.074 A 
ATOM     39  C   UNL A   1      39.784  28.747  29.203  1.00  0.00     0.049 A 
ATOM     40  N   UNL A   1      42.450  28.620  30.598  1.00  0.00    -0.248 NA
ATOM     41  C   UNL A   1      42.825  26.548  29.594  1.00  0.00     0.031 C 
ATOM     42  C   UNL A   1      38.450  28.835  28.600  1.00  0.00     0.029 A 
ATOM     43  N   UNL A   1      39.908  29.925  29.898  1.00  0.00    -0.354 N 
ATOM     44  C   UNL A   1      43.672  28.114  31.025  1.00  0.00     0.074 A 
ATOM     45  C   UNL A   1      43.818  26.804  30.429  1.00  0.00     0.031 C 
ATOM     46  C   UNL A   1      37.894  30.011  28.932  1.00  0.00     0.029 A 
ATOM     47  C   UNL A   1      38.809  30.745  29.799  1.00  0.00     0.049 A 
ATOM     48  H   UNL A   1      40.710  30.159  30.419  1.00  0.00     0.167 HD
ATOM     49  C   UNL A   1      44.602  28.698  31.821  1.00  0.00     0.037 A 
ATOM     50  C   UNL A   1      38.567  31.952  30.348  1.00  0.00     0.037 A 
ATOM     51  C   UNL A   1      44.465  30.015  32.383  1.00  0.00     0.049 A 
ATOM     52  C   UNL A   1      39.621  32.590  31.212  1.00  0.00     0.074 A 
ATOM     53  C   UNL A   1      45.371  30.719  33.157  1.00  0.00     0.029 A 
ATOM     54  N   UNL A   1      43.354  30.830  32.227  1.00  0.00    -0.354 N 
ATOM     55  N   UNL A   1      40.794  32.119  31.563  1.00  0.00    -0.248 NA
ATOM     56  C   UNL A   1      39.322  33.925  31.748  1.00  0.00     0.031 C 
ATOM     57  C   UNL A   1      44.793  31.947  33.497  1.00  0.00     0.029 A 
ATOM     58  C   UNL A   1      43.546  32.026  32.897  1.00  0.00     0.049 A 
ATOM     59  H   UNL A   1      42.547  30.594  31.715  1.00  0.00     0.167 HD
ATOM     60  C   UNL A   1      41.388  33.113  32.332  1.00  0.00     0.074 A 
ATOM     61  C   UNL A   1      40.446  34.212  32.391  1.00  0.00     0.031 C 
ATOM     62  C   UNL A   1      42.604  33.117  32.933  1.00  0.00     0.037 A 
BRANCH  49  63
ATOM     63  C   UNL A   1      45.849  27.912  32.119  1.00  0.00     0.058 A 
ATOM     64  C   UNL A   1      46.965  27.950  31.266  1.00  0.00     0.135 A 
ATOM     65  C   UNL A   1      45.937  27.120  33.274  1.00  0.00     0.135 A 
ATOM     66  F   UNL A   1      46.929  28.677  30.138  1.00  0.00    -0.206 F 
ATOM     67  C   UNL A   1      48.108  27.202  31.528  1.00  0.00     0.059 A 
ATOM     68  C   UNL A   1      47.082  26.387  33.573  1.00  0.00     0.059 A 
ATOM     69  F   UNL A   1      44.901  27.047  34.125  1.00  0.00    -0.206 F 
ATOM     70  C   UNL A   1      48.154  26.420  32.683  1.00  0.00     0.060 A 
BRANCH  70  71
ATOM     71  S   UNL A   1      49.641  25.447  33.005  1.00  0.00     0.124 S 
ATOM     72  O   UNL A   1      50.329  26.285  33.981  1.00  0.00    -0.237 OA
ATOM     73  O   UNL A   1      49.092  24.196  33.519  1.00  0.00    -0.237 OA
ATOM     74  O   UNL A   1      50.278  25.357  31.695  1.00  0.00    -0.744 OA
ENDBRANCH  70  71
ENDBRANCH  49  63
BRANCH  50  75
ATOM     75  C   UNL A   1      37.286  32.652  30.063  1.00  0.00     0.058 A 
ATOM     76  C   UNL A   1      36.136  32.382  30.820  1.00  0.00     0.135 A 
ATOM     77  C   UNL A   1      37.187  33.614  29.047  1.00  0.00     0.135 A 
ATOM     78  F   UNL A   1      36.179  31.466  31.800  1.00  0.00    -0.206 F 
ATOM     79  C   UNL A   1      34.931  33.029  30.573  1.00  0.00     0.059 A 
ATOM     80  C   UNL A   1      35.998  34.292  28.796  1.00  0.00     0.059 A 
ATOM     81  F   UNL A   1      38.263  33.922  28.305  1.00  0.00    -0.206 F 
ATOM     82  C   UNL A   1      34.872  33.986  29.559  1.00  0.00     0.060 A 
BRANCH  82  83
ATOM     83  S   UNL A   1      33.316  34.862  29.283  1.00  0.00     0.124 S 
ATOM     84  O   UNL A   1      33.786  36.132  28.742  1.00  0.00    -0.237 OA
ATOM     85  O   UNL A   1      32.632  33.981  28.342  1.00  0.00    -0.237 OA
ATOM     86  O   UNL A   1      32.725  34.922  30.616  1.00  0.00    -0.744 OA
ENDBRANCH  82  83
ENDBRANCH  50  75
BRANCH  62  87
ATOM     87  C   UNL A   1      43.010  34.366  33.666  1.00  0.00     0.058 A 
ATOM     88  C   UNL A   1      42.924  34.465  35.063  1.00  0.00     0.135 A 
ATOM     89  C   UNL A   1      43.542  35.457  32.961  1.00  0.00     0.135 A 
ATOM     90  F   UNL A   1      42.416  33.451  35.782  1.00  0.00    -0.206 F 
ATOM     91  C   UNL A   1      43.329  35.613  35.734  1.00  0.00     0.059 A 
ATOM     92  C   UNL A   1      43.979  36.604  33.614  1.00  0.00     0.059 A 
ATOM     93  F   UNL A   1      43.657  35.408  31.624  1.00  0.00    -0.206 F 
ATOM     94  C   UNL A   1      43.857  36.679  35.001  1.00  0.00     0.060 A 
BRANCH  94  95
ATOM     95  S   UNL A   1      44.410  38.151  35.886  1.00  0.00     0.124 S 
ATOM     96  O   UNL A   1      44.089  39.206  34.930  1.00  0.00    -0.237 OA
ATOM     97  O   UNL A   1      43.590  38.119  37.094  1.00  0.00    -0.237 OA
ATOM     98  O   UNL A   1      45.833  37.905  36.095  1.00  0.00    -0.744 OA
ENDBRANCH  94  95
ENDBRANCH  62  87
ENDBRANCH  36  37
ENDBRANCH  28  31
ENDBRANCH  26  27
ENDBRANCH  25  26
ENDBRANCH  24  25
ENDBRANCH   1  24
TORSDOF 19
ENDMDL
MODEL 3
REMARK VINA RESULT:     -11.1      3.037      8.869
REMARK SMILES C[C@@H]1[C@@H](C(=O)NCCCCNC(=O)c2ccc(-c3c4nc(c(-c5c(F)cc(S(=O)(=O)[O-])cc5F)c5ccc([nH]5)c(-c5c(F)cc(S(=O)(=O)[O-])cc5F)c5nc(c(-c6c(F)cc(S(=O)(=O)[O-])cc6F)c6ccc3[nH]6)C=C5)C=C4)cc2)CCN1C(=O)[C@@H](C)OCc1ccccc1
REMARK SMILES IDX 7 1 6 2 4 3 5 4 3 6 1 7 2 8 82 9 80 10 81 11 83 12 84 13
REMARK SMILES IDX 85 14 86 15 87 16 88 17 89 18 90 19 94 20 91 21 93 22 92 23
REMARK SMILES IDX 8 24 9 25 10 26 11 27 12 28 13 30 14 31 15 32 79 33 16 34
REMARK SMILES IDX 78 35 17 36 18 37 19 38 72 39 20 40 77 41 71 42 73 43 21 44
REMARK SMILES IDX 76 45 70 46 69 47 22 49 56 50 35 51 55 52 36 53 39 54 54 55
REMARK SMILES IDX 74 56 37 57 38 58 53 60 75 61 40 62 23 63 24 64 33 65 25 66
REMARK SMILES IDX 26 67 32 68 34 69 27 70 28 71 29 72 30 73 31 74 57 75 58 76
REMARK SMILES IDX 67 77 59 78 60 79 66 80 68 81 61 82 62 83 63 84 64 85 65 86
REMARK SMILES IDX 41 87 42 88 51 89 43 90 44 91 50 92 52 93 45 94 46 95 47 96
REMARK SMILES IDX 48 97 49 98
REMARK H PARENT 6 5 11 29 73 48 39 59
REMARK Flexibility Score: inf
ROOT
ATOM      1  C   UNL A   1      34.221  21.659  27.161  1.00  0.00     0.116 C 
ENDROOT
BRANCH   1   2
ATOM      2  N   UNL A   1      33.423  22.826  27.486  1.00  0.00    -0.356 N 
ATOM      3  C   UNL A   1      32.249  23.231  26.912  1.00  0.00     0.225 C 
ATOM      4  O   UNL A   1      31.679  24.216  27.374  1.00  0.00    -0.275 OA
ATOM      5  H   UNL A   1      33.769  23.397  28.210  1.00  0.00     0.163 HD
BRANCH   3   6
ATOM      6  C   UNL A   1      31.740  22.462  25.702  1.00  0.00     0.102 C 
ATOM      7  C   UNL A   1      32.512  21.042  23.790  1.00  0.00     0.032 C 
ATOM      8  C   UNL A   1      32.784  22.331  24.584  1.00  0.00     0.094 C 
ATOM      9  N   UNL A   1      32.568  23.490  23.733  1.00  0.00    -0.337 N 
ATOM     10  C   UNL A   1      30.580  23.171  24.998  1.00  0.00     0.037 C 
ATOM     11  C   UNL A   1      31.252  24.061  23.961  1.00  0.00     0.121 C 
BRANCH   9  12
ATOM     12  C   UNL A   1      33.427  24.102  22.846  1.00  0.00     0.251 C 
ATOM     13  O   UNL A   1      34.030  23.404  22.016  1.00  0.00    -0.272 OA
BRANCH  12  14
ATOM     14  C   UNL A   1      33.542  25.670  22.738  1.00  0.00     0.204 C 
ATOM     15  C   UNL A   1      32.782  26.175  21.509  1.00  0.00     0.049 C 
BRANCH  14  16
ATOM     16  O   UNL A   1      33.631  26.607  23.798  1.00  0.00    -0.364 OA
BRANCH  16  17
ATOM     17  C   UNL A   1      32.631  27.584  24.035  1.00  0.00     0.196 C 
BRANCH  17  18
ATOM     18  C   UNL A   1      32.895  28.564  25.151  1.00  0.00    -0.022 A 
ATOM     19  C   UNL A   1      32.063  29.673  25.347  1.00  0.00     0.006 A 
ATOM     20  C   UNL A   1      33.983  28.377  26.019  1.00  0.00     0.006 A 
ATOM     21  C   UNL A   1      32.252  30.513  26.444  1.00  0.00     0.000 A 
ATOM     22  C   UNL A   1      34.165  29.209  27.122  1.00  0.00     0.000 A 
ATOM     23  C   UNL A   1      33.290  30.268  27.343  1.00  0.00     0.000 A 
ENDBRANCH  17  18
ENDBRANCH  16  17
ENDBRANCH  14  16
ENDBRANCH  12  14
ENDBRANCH   9  12
ENDBRANCH   3   6
ENDBRANCH   1   2
BRANCH   1  24
ATOM     24  C   UNL A   1      35.559  22.005  26.520  1.00  0.00     0.023 C 
BRANCH  24  25
ATOM     25  C   UNL A   1      35.701  23.446  26.035  1.00  0.00     0.023 C 
BRANCH  25  26
ATOM     26  C   UNL A   1      36.912  23.729  25.153  1.00  0.00     0.116 C 
BRANCH  26  27
ATOM     27  N   UNL A   1      38.007  22.793  25.365  1.00  0.00    -0.352 N 
ATOM     28  C   UNL A   1      39.196  22.970  26.034  1.00  0.00     0.251 C 
ATOM     29  H   UNL A   1      37.875  21.900  24.972  1.00  0.00     0.163 HD
ATOM     30  O   UNL A   1      40.049  22.095  26.002  1.00  0.00    -0.269 OA
BRANCH  28  31
ATOM     31  C   UNL A   1      39.447  24.237  26.754  1.00  0.00     0.039 A 
ATOM     32  C   UNL A   1      38.962  24.381  28.057  1.00  0.00     0.014 A 
ATOM     33  C   UNL A   1      40.180  25.266  26.158  1.00  0.00     0.014 A 
ATOM     34  C   UNL A   1      39.281  25.526  28.789  1.00  0.00     0.010 A 
ATOM     35  C   UNL A   1      40.568  26.365  26.917  1.00  0.00     0.010 A 
ATOM     36  C   UNL A   1      40.120  26.509  28.239  1.00  0.00    -0.014 A 
BRANCH  36  37
ATOM     37  C   UNL A   1      40.535  27.701  29.022  1.00  0.00     0.031 A 
ATOM     38  C   UNL A   1      41.861  27.707  29.733  1.00  0.00     0.074 A 
ATOM     39  C   UNL A   1      39.692  28.745  29.155  1.00  0.00     0.049 A 
ATOM     40  N   UNL A   1      42.364  28.606  30.537  1.00  0.00    -0.248 NA
ATOM     41  C   UNL A   1      42.721  26.527  29.539  1.00  0.00     0.031 C 
ATOM     42  C   UNL A   1      38.357  28.839  28.557  1.00  0.00     0.029 A 
ATOM     43  N   UNL A   1      39.828  29.924  29.844  1.00  0.00    -0.354 N 
ATOM     44  C   UNL A   1      43.585  28.093  30.961  1.00  0.00     0.074 A 
ATOM     45  C   UNL A   1      43.720  26.780  30.369  1.00  0.00     0.031 C 
ATOM     46  C   UNL A   1      37.809  30.020  28.887  1.00  0.00     0.029 A 
ATOM     47  C   UNL A   1      38.734  30.751  29.747  1.00  0.00     0.049 A 
ATOM     48  H   UNL A   1      40.634  30.155  30.361  1.00  0.00     0.167 HD
ATOM     49  C   UNL A   1      44.522  28.673  31.750  1.00  0.00     0.037 A 
ATOM     50  C   UNL A   1      38.502  31.962  30.293  1.00  0.00     0.037 A 
ATOM     51  C   UNL A   1      44.397  29.993  32.308  1.00  0.00     0.049 A 
ATOM     52  C   UNL A   1      39.563  32.595  31.150  1.00  0.00     0.074 A 
ATOM     53  C   UNL A   1      45.310  30.694  33.075  1.00  0.00     0.029 A 
ATOM     54  N   UNL A   1      43.290  30.816  32.154  1.00  0.00    -0.354 N 
ATOM     55  N   UNL A   1      40.735  32.119  31.497  1.00  0.00    -0.248 NA
ATOM     56  C   UNL A   1      39.276  33.935  31.683  1.00  0.00     0.031 C 
ATOM     57  C   UNL A   1      44.742  31.927  33.414  1.00  0.00     0.029 A 
ATOM     58  C   UNL A   1      43.493  32.013  32.819  1.00  0.00     0.049 A 
ATOM     59  H   UNL A   1      42.479  30.583  31.647  1.00  0.00     0.167 HD
ATOM     60  C   UNL A   1      41.339  33.111  32.260  1.00  0.00     0.074 A 
ATOM     61  C   UNL A   1      40.405  34.217  32.319  1.00  0.00     0.031 C 
ATOM     62  C   UNL A   1      42.558  33.109  32.855  1.00  0.00     0.037 A 
BRANCH  49  63
ATOM     63  C   UNL A   1      45.765  27.880  32.045  1.00  0.00     0.058 A 
ATOM     64  C   UNL A   1      45.867  27.068  33.187  1.00  0.00     0.135 A 
ATOM     65  C   UNL A   1      46.863  27.921  31.173  1.00  0.00     0.135 A 
ATOM     66  F   UNL A   1      44.852  27.004  34.064  1.00  0.00    -0.206 F 
ATOM     67  C   UNL A   1      47.026  26.355  33.473  1.00  0.00     0.059 A 
ATOM     68  C   UNL A   1      48.024  27.192  31.423  1.00  0.00     0.059 A 
ATOM     69  F   UNL A   1      46.821  28.680  30.066  1.00  0.00    -0.206 F 
ATOM     70  C   UNL A   1      48.102  26.429  32.586  1.00  0.00     0.060 A 
BRANCH  70  71
ATOM     71  S   UNL A   1      49.604  25.506  32.976  1.00  0.00     0.124 S 
ATOM     72  O   UNL A   1      50.266  26.412  33.908  1.00  0.00    -0.237 OA
ATOM     73  O   UNL A   1      49.075  24.276  33.556  1.00  0.00    -0.237 OA
ATOM     74  O   UNL A   1      50.255  25.354  31.678  1.00  0.00    -0.744 OA
ENDBRANCH  70  71
ENDBRANCH  49  63
BRANCH  50  75
ATOM     75  C   UNL A   1      37.224  32.669  30.012  1.00  0.00     0.058 A 
ATOM     76  C   UNL A   1      37.159  33.674  29.035  1.00  0.00     0.135 A 
ATOM     77  C   UNL A   1      36.042  32.346  30.695  1.00  0.00     0.135 A 
ATOM     78  F   UNL A   1      38.263  34.022  28.358  1.00  0.00    -0.206 F 
ATOM     79  C   UNL A   1      35.973  34.343  28.755  1.00  0.00     0.059 A 
ATOM     80  C   UNL A   1      34.838  32.985  30.417  1.00  0.00     0.059 A 
ATOM     81  F   UNL A   1      36.047  31.380  31.628  1.00  0.00    -0.206 F 
ATOM     82  C   UNL A   1      34.815  33.990  29.450  1.00  0.00     0.060 A 
BRANCH  82  83
ATOM     83  S   UNL A   1      33.268  34.826  29.039  1.00  0.00     0.124 S 
ATOM     84  O   UNL A   1      33.749  36.117  28.561  1.00  0.00    -0.237 OA
ATOM     85  O   UNL A   1      32.701  33.941  28.027  1.00  0.00    -0.237 OA
ATOM     86  O   UNL A   1      32.552  34.849  30.311  1.00  0.00    -0.744 OA
ENDBRANCH  82  83
ENDBRANCH  50  75
BRANCH  62  87
ATOM     87  C   UNL A   1      42.975  34.358  33.582  1.00  0.00     0.058 A 
ATOM     88  C   UNL A   1      42.728  34.535  34.951  1.00  0.00     0.135 A 
ATOM     89  C   UNL A   1      43.679  35.367  32.905  1.00  0.00     0.135 A 
ATOM     90  F   UNL A   1      42.053  33.602  35.642  1.00  0.00    -0.206 F 
ATOM     91  C   UNL A   1      43.144  35.681  35.622  1.00  0.00     0.059 A 
ATOM     92  C   UNL A   1      44.128  36.509  33.560  1.00  0.00     0.059 A 
ATOM     93  F   UNL A   1      43.952  35.241  31.597  1.00  0.00    -0.206 F 
ATOM     94  C   UNL A   1      43.845  36.663  34.917  1.00  0.00     0.060 A 
BRANCH  94  95
ATOM     95  S   UNL A   1      44.409  38.130  35.804  1.00  0.00     0.124 S 
ATOM     96  O   UNL A   1      45.854  37.930  35.814  1.00  0.00    -0.237 OA
ATOM     97  O   UNL A   1      43.925  39.215  34.955  1.00  0.00    -0.237 OA
ATOM     98  O   UNL A   1      43.749  38.016  37.101  1.00  0.00    -0.744 OA
ENDBRANCH  94  95
ENDBRANCH  62  87
ENDBRANCH  36  37
ENDBRANCH  28  31
ENDBRANCH  26  27
ENDBRANCH  25  26
ENDBRANCH  24  25
ENDBRANCH   1  24
TORSDOF 19
ENDMDL
