MODEL 1
REMARK VINA RESULT:     -13.0      0.000      0.000
REMARK SMILES COC(=O)c1ccc2c(c1)=N[C@H](c1cn(CCC(=O)NCCCCNC(=O)c3ccc(-c4c5nc(c(-c6c(F)cc(S(=O)(=O)[O-])cc6F)c6ccc([nH]6)c(-c6c(F)cc(S(=O)(=O)[O-])cc6F)c6nc(c(-c7c(F)cc(S(=O)(=O)[O-])cc7F)c7ccc4[nH]7)C=C6)C=C5)cc3)c3ccccc13)N=2
REMARK SMILES IDX 21 1 20 2 18 3 19 4 17 6 16 7 15 8 13 9 14 10 99 11 94 12
REMARK SMILES IDX 98 13 95 14 97 15 96 16 12 17 5 18 6 19 10 20 7 21 9 22 8 23
REMARK SMILES IDX 11 24 100 25 3 26 4 27 2 28 1 29 22 30 23 31 24 32 25 33
REMARK SMILES IDX 26 34 27 36 28 37 29 38 93 39 30 40 92 41 31 42 32 43 33 44
REMARK SMILES IDX 86 45 34 46 91 47 85 48 87 49 35 50 90 51 84 52 83 53 36 55
REMARK SMILES IDX 70 56 49 57 69 58 50 59 53 60 68 61 88 62 51 63 52 64 67 66
REMARK SMILES IDX 89 67 54 68 37 69 38 70 47 71 39 72 40 73 46 74 48 75 41 76
REMARK SMILES IDX 42 77 43 78 44 79 45 80 71 81 72 82 81 83 73 84 74 85 80 86
REMARK SMILES IDX 82 87 75 88 76 89 77 90 78 91 79 92 55 93 56 94 65 95 57 96
REMARK SMILES IDX 58 97 64 98 66 99 59 100 60 101 61 102 62 103 63 104
REMARK H PARENT 20 5 25 35 87 54 53 65
REMARK Flexibility Score: inf
ROOT
ATOM      1  C   UNL A   1      31.406  30.335  25.199  1.00  0.00     0.116 C 
ENDROOT
BRANCH   1   2
ATOM      2  N   UNL A   1      30.260  30.888  24.488  1.00  0.00    -0.356 N 
ATOM      3  C   UNL A   1      29.474  30.409  23.477  1.00  0.00     0.221 C 
ATOM      4  O   UNL A   1      28.442  31.040  23.220  1.00  0.00    -0.275 OA
ATOM      5  H   UNL A   1      30.000  31.786  24.798  1.00  0.00     0.163 HD
BRANCH   3   6
ATOM      6  C   UNL A   1      29.770  29.116  22.734  1.00  0.00     0.122 C 
BRANCH   6   7
ATOM      7  C   UNL A   1      29.267  27.855  23.485  1.00  0.00     0.132 C 
BRANCH   7   8
ATOM      8  N   UNL A   1      30.245  26.758  23.586  1.00  0.00    -0.347 N 
ATOM      9  C   UNL A   1      30.483  25.281  25.202  1.00  0.00     0.024 A 
ATOM     10  C   UNL A   1      29.827  25.509  23.988  1.00  0.00     0.094 A 
ATOM     11  C   UNL A   1      31.138  26.547  25.507  1.00  0.00     0.007 A 
ATOM     12  C   UNL A   1      31.475  26.896  24.202  1.00  0.00     0.048 A 
ATOM     13  C   UNL A   1      32.018  27.046  26.475  1.00  0.00     0.011 A 
ATOM     14  C   UNL A   1      32.830  26.821  23.832  1.00  0.00     0.027 A 
ATOM     15  C   UNL A   1      33.364  27.168  26.172  1.00  0.00     0.001 A 
ATOM     16  C   UNL A   1      33.774  26.895  24.876  1.00  0.00     0.002 A 
BRANCH   9  17
ATOM     17  C   UNL A   1      30.552  23.918  25.830  1.00  0.00     0.255 C 
ATOM     18  C   UNL A   1      34.276  21.382  25.736  1.00  0.00     0.062 A 
ATOM     19  C   UNL A   1      34.137  21.573  27.173  1.00  0.00     0.018 A 
ATOM     20  C   UNL A   1      33.351  21.833  24.872  1.00  0.00     0.046 A 
ATOM     21  C   UNL A   1      33.204  22.362  27.723  1.00  0.00     0.031 A 
ATOM     22  C   UNL A   1      32.233  22.607  25.412  1.00  0.00     0.087 A 
ATOM     23  C   UNL A   1      32.238  23.005  26.832  1.00  0.00     0.086 A 
ATOM     24  N   UNL A   1      31.177  23.018  24.810  1.00  0.00    -0.252 NA
ATOM     25  N   UNL A   1      31.298  23.840  27.110  1.00  0.00    -0.252 NA
BRANCH  18  26
ATOM     26  C   UNL A   1      35.453  20.693  25.116  1.00  0.00     0.337 C 
ATOM     27  O   UNL A   1      35.520  19.495  24.948  1.00  0.00    -0.246 OA
BRANCH  26  28
ATOM     28  O   UNL A   1      36.424  21.596  24.809  1.00  0.00    -0.465 OA
ATOM     29  C   UNL A   1      37.753  21.116  25.034  1.00  0.00     0.282 C 
ENDBRANCH  26  28
ENDBRANCH  18  26
ENDBRANCH   9  17
ENDBRANCH   7   8
ENDBRANCH   6   7
ENDBRANCH   3   6
ENDBRANCH   1   2
BRANCH   1  30
ATOM     30  C   UNL A   1      31.798  30.998  26.535  1.00  0.00     0.023 C 
BRANCH  30  31
ATOM     31  C   UNL A   1      33.105  30.600  27.257  1.00  0.00     0.023 C 
BRANCH  31  32
ATOM     32  C   UNL A   1      34.074  31.731  27.593  1.00  0.00     0.116 C 
BRANCH  32  33
ATOM     33  N   UNL A   1      34.027  32.111  28.990  1.00  0.00    -0.352 N 
ATOM     34  C   UNL A   1      34.864  32.088  30.064  1.00  0.00     0.251 C 
ATOM     35  H   UNL A   1      33.150  32.489  29.228  1.00  0.00     0.163 HD
ATOM     36  O   UNL A   1      34.394  32.582  31.097  1.00  0.00    -0.269 OA
BRANCH  34  37
ATOM     37  C   UNL A   1      36.247  31.539  30.135  1.00  0.00     0.039 A 
ATOM     38  C   UNL A   1      37.432  32.273  30.163  1.00  0.00     0.014 A 
ATOM     39  C   UNL A   1      36.333  30.134  30.002  1.00  0.00     0.014 A 
ATOM     40  C   UNL A   1      38.662  31.607  30.003  1.00  0.00     0.010 A 
ATOM     41  C   UNL A   1      37.550  29.475  29.835  1.00  0.00     0.010 A 
ATOM     42  C   UNL A   1      38.725  30.211  29.802  1.00  0.00    -0.014 A 
BRANCH  42  43
ATOM     43  C   UNL A   1      40.034  29.529  29.797  1.00  0.00     0.031 A 
ATOM     44  C   UNL A   1      40.523  29.261  31.176  1.00  0.00     0.074 A 
ATOM     45  C   UNL A   1      40.698  29.017  28.730  1.00  0.00     0.049 A 
ATOM     46  N   UNL A   1      41.492  29.853  31.790  1.00  0.00    -0.248 NA
ATOM     47  C   UNL A   1      39.739  28.359  32.038  1.00  0.00     0.031 C 
ATOM     48  C   UNL A   1      40.215  28.921  27.350  1.00  0.00     0.029 A 
ATOM     49  N   UNL A   1      41.924  28.394  28.653  1.00  0.00    -0.354 N 
ATOM     50  C   UNL A   1      41.618  29.194  33.010  1.00  0.00     0.074 A 
ATOM     51  C   UNL A   1      40.399  28.452  33.195  1.00  0.00     0.031 C 
ATOM     52  C   UNL A   1      41.021  28.103  26.632  1.00  0.00     0.029 A 
ATOM     53  C   UNL A   1      42.165  27.725  27.446  1.00  0.00     0.049 A 
ATOM     54  H   UNL A   1      42.579  28.417  29.387  1.00  0.00     0.167 HD
ATOM     55  C   UNL A   1      42.841  29.057  33.591  1.00  0.00     0.037 A 
ATOM     56  C   UNL A   1      43.219  26.926  27.125  1.00  0.00     0.037 A 
ATOM     57  C   UNL A   1      43.801  29.932  32.970  1.00  0.00     0.049 A 
ATOM     58  C   UNL A   1      44.352  27.323  27.990  1.00  0.00     0.074 A 
ATOM     59  C   UNL A   1      44.106  31.274  32.978  1.00  0.00     0.029 A 
ATOM     60  N   UNL A   1      44.385  29.386  31.860  1.00  0.00    -0.354 N 
ATOM     61  N   UNL A   1      44.945  28.481  27.908  1.00  0.00    -0.248 NA
ATOM     62  C   UNL A   1      44.651  26.544  29.187  1.00  0.00     0.031 C 
ATOM     63  C   UNL A   1      44.793  31.538  31.755  1.00  0.00     0.029 A 
ATOM     64  C   UNL A   1      44.928  30.344  31.051  1.00  0.00     0.049 A 
ATOM     65  H   UNL A   1      44.411  28.420  31.668  1.00  0.00     0.167 HD
ATOM     66  C   UNL A   1      45.318  28.754  29.205  1.00  0.00     0.074 A 
ATOM     67  C   UNL A   1      45.282  27.476  29.903  1.00  0.00     0.031 C 
ATOM     68  C   UNL A   1      45.273  30.028  29.684  1.00  0.00     0.037 A 
BRANCH  55  69
ATOM     69  C   UNL A   1      43.312  27.808  34.315  1.00  0.00     0.058 A 
ATOM     70  C   UNL A   1      43.787  27.921  35.641  1.00  0.00     0.135 A 
ATOM     71  C   UNL A   1      43.614  26.589  33.667  1.00  0.00     0.135 A 
ATOM     72  F   UNL A   1      43.583  29.046  36.344  1.00  0.00    -0.206 F 
ATOM     73  C   UNL A   1      44.543  26.919  36.254  1.00  0.00     0.059 A 
ATOM     74  C   UNL A   1      44.321  25.559  34.278  1.00  0.00     0.059 A 
ATOM     75  F   UNL A   1      43.328  26.375  32.378  1.00  0.00    -0.206 F 
ATOM     76  C   UNL A   1      44.810  25.743  35.560  1.00  0.00     0.060 A 
BRANCH  76  77
ATOM     77  S   UNL A   1      45.832  24.472  36.324  1.00  0.00     0.124 S 
ATOM     78  O   UNL A   1      47.127  24.722  35.703  1.00  0.00    -0.237 OA
ATOM     79  O   UNL A   1      45.722  24.810  37.739  1.00  0.00    -0.237 OA
ATOM     80  O   UNL A   1      45.171  23.230  35.931  1.00  0.00    -0.744 OA
ENDBRANCH  76  77
ENDBRANCH  55  69
BRANCH  56  81
ATOM     81  C   UNL A   1      43.305  25.700  26.275  1.00  0.00     0.058 A 
ATOM     82  C   UNL A   1      44.325  25.545  25.309  1.00  0.00     0.135 A 
ATOM     83  C   UNL A   1      42.609  24.529  26.621  1.00  0.00     0.135 A 
ATOM     84  F   UNL A   1      45.042  26.605  24.906  1.00  0.00    -0.206 F 
ATOM     85  C   UNL A   1      44.693  24.295  24.795  1.00  0.00     0.059 A 
ATOM     86  C   UNL A   1      42.954  23.271  26.116  1.00  0.00     0.059 A 
ATOM     87  F   UNL A   1      41.631  24.559  27.539  1.00  0.00    -0.206 F 
ATOM     88  C   UNL A   1      44.023  23.157  25.233  1.00  0.00     0.060 A 
BRANCH  88  89
ATOM     89  S   UNL A   1      44.637  21.523  24.747  1.00  0.00     0.124 S 
ATOM     90  O   UNL A   1      45.972  21.513  25.333  1.00  0.00    -0.237 OA
ATOM     91  O   UNL A   1      43.663  20.631  25.366  1.00  0.00    -0.237 OA
ATOM     92  O   UNL A   1      44.598  21.568  23.287  1.00  0.00    -0.744 OA
ENDBRANCH  88  89
ENDBRANCH  56  81
BRANCH  68  93
ATOM     93  C   UNL A   1      45.471  31.151  28.717  1.00  0.00     0.058 A 
ATOM     94  C   UNL A   1      46.705  31.583  28.206  1.00  0.00     0.135 A 
ATOM     95  C   UNL A   1      44.311  31.772  28.228  1.00  0.00     0.135 A 
ATOM     96  F   UNL A   1      47.852  30.995  28.578  1.00  0.00    -0.206 F 
ATOM     97  C   UNL A   1      46.778  32.606  27.257  1.00  0.00     0.059 A 
ATOM     98  C   UNL A   1      44.359  32.769  27.265  1.00  0.00     0.059 A 
ATOM     99  F   UNL A   1      43.103  31.375  28.661  1.00  0.00    -0.206 F 
ATOM    100  C   UNL A   1      45.597  33.187  26.790  1.00  0.00     0.060 A 
BRANCH 100 101
ATOM    101  S   UNL A   1      45.684  34.459  25.512  1.00  0.00     0.124 S 
ATOM    102  O   UNL A   1      45.116  35.617  26.194  1.00  0.00    -0.237 OA
ATOM    103  O   UNL A   1      47.115  34.521  25.232  1.00  0.00    -0.237 OA
ATOM    104  O   UNL A   1      44.868  33.912  24.430  1.00  0.00    -0.744 OA
ENDBRANCH 100 101
ENDBRANCH  68  93
ENDBRANCH  42  43
ENDBRANCH  34  37
ENDBRANCH  32  33
ENDBRANCH  31  32
ENDBRANCH  30  31
ENDBRANCH   1  30
TORSDOF 19
ENDMDL
MODEL 2
REMARK VINA RESULT:     -13.0      2.944      9.832
REMARK SMILES COC(=O)c1ccc2c(c1)=N[C@H](c1cn(CCC(=O)NCCCCNC(=O)c3ccc(-c4c5nc(c(-c6c(F)cc(S(=O)(=O)[O-])cc6F)c6ccc([nH]6)c(-c6c(F)cc(S(=O)(=O)[O-])cc6F)c6nc(c(-c7c(F)cc(S(=O)(=O)[O-])cc7F)c7ccc4[nH]7)C=C6)C=C5)cc3)c3ccccc13)N=2
REMARK SMILES IDX 21 1 20 2 18 3 19 4 17 6 16 7 15 8 13 9 14 10 99 11 94 12
REMARK SMILES IDX 98 13 95 14 97 15 96 16 12 17 5 18 6 19 10 20 7 21 9 22 8 23
REMARK SMILES IDX 11 24 100 25 3 26 4 27 2 28 1 29 22 30 23 31 24 32 25 33
REMARK SMILES IDX 26 34 27 36 28 37 29 38 93 39 30 40 92 41 31 42 32 43 33 44
REMARK SMILES IDX 86 45 34 46 91 47 85 48 87 49 35 50 90 51 84 52 83 53 36 55
REMARK SMILES IDX 70 56 49 57 69 58 50 59 53 60 68 61 88 62 51 63 52 64 67 66
REMARK SMILES IDX 89 67 54 68 37 69 38 70 47 71 39 72 40 73 46 74 48 75 41 76
REMARK SMILES IDX 42 77 43 78 44 79 45 80 71 81 72 82 81 83 73 84 74 85 80 86
REMARK SMILES IDX 82 87 75 88 76 89 77 90 78 91 79 92 55 93 56 94 65 95 57 96
REMARK SMILES IDX 58 97 64 98 66 99 59 100 60 101 61 102 62 103 63 104
REMARK H PARENT 20 5 25 35 87 54 53 65
REMARK Flexibility Score: inf
ROOT
ATOM      1  C   UNL A   1      36.352  20.759  25.365  1.00  0.00     0.116 C 
ENDROOT
BRANCH   1   2
ATOM      2  N   UNL A   1      35.926  19.421  24.976  1.00  0.00    -0.356 N 
ATOM      3  C   UNL A   1      34.698  18.868  24.737  1.00  0.00     0.221 C 
ATOM      4  O   UNL A   1      34.677  17.744  24.224  1.00  0.00    -0.275 OA
ATOM      5  H   UNL A   1      36.672  18.788  24.862  1.00  0.00     0.163 HD
BRANCH   3   6
ATOM      6  C   UNL A   1      33.391  19.603  24.993  1.00  0.00     0.122 C 
BRANCH   6   7
ATOM      7  C   UNL A   1      32.819  20.285  23.723  1.00  0.00     0.132 C 
BRANCH   7   8
ATOM      8  N   UNL A   1      32.454  21.704  23.887  1.00  0.00    -0.347 N 
ATOM      9  C   UNL A   1      32.999  23.414  22.610  1.00  0.00     0.024 A 
ATOM     10  C   UNL A   1      32.025  22.427  22.797  1.00  0.00     0.094 A 
ATOM     11  C   UNL A   1      34.054  23.068  23.556  1.00  0.00     0.007 A 
ATOM     12  C   UNL A   1      33.234  22.609  24.583  1.00  0.00     0.048 A 
ATOM     13  C   UNL A   1      35.264  23.618  23.996  1.00  0.00     0.011 A 
ATOM     14  C   UNL A   1      33.111  23.410  25.732  1.00  0.00     0.027 A 
ATOM     15  C   UNL A   1      35.302  24.301  25.201  1.00  0.00     0.001 A 
ATOM     16  C   UNL A   1      34.159  24.318  25.984  1.00  0.00     0.002 A 
BRANCH   9  17
ATOM     17  C   UNL A   1      32.770  24.605  21.724  1.00  0.00     0.255 C 
ATOM     18  C   UNL A   1      31.534  28.630  23.329  1.00  0.00     0.062 A 
ATOM     19  C   UNL A   1      32.824  28.976  22.748  1.00  0.00     0.018 A 
ATOM     20  C   UNL A   1      31.005  27.402  23.193  1.00  0.00     0.046 A 
ATOM     21  C   UNL A   1      33.656  28.071  22.215  1.00  0.00     0.031 A 
ATOM     22  C   UNL A   1      31.809  26.385  22.514  1.00  0.00     0.087 A 
ATOM     23  C   UNL A   1      33.208  26.679  22.155  1.00  0.00     0.086 A 
ATOM     24  N   UNL A   1      31.467  25.202  22.153  1.00  0.00    -0.252 NA
ATOM     25  N   UNL A   1      33.839  25.634  21.747  1.00  0.00    -0.252 NA
BRANCH  18  26
ATOM     26  C   UNL A   1      30.715  29.598  24.128  1.00  0.00     0.337 C 
ATOM     27  O   UNL A   1      31.116  30.153  25.127  1.00  0.00    -0.246 OA
BRANCH  26  28
ATOM     28  O   UNL A   1      29.472  29.726  23.589  1.00  0.00    -0.465 OA
ATOM     29  C   UNL A   1      29.445  30.474  22.369  1.00  0.00     0.282 C 
ENDBRANCH  26  28
ENDBRANCH  18  26
ENDBRANCH   9  17
ENDBRANCH   7   8
ENDBRANCH   6   7
ENDBRANCH   3   6
ENDBRANCH   1   2
BRANCH   1  30
ATOM     30  C   UNL A   1      37.797  21.171  25.022  1.00  0.00     0.023 C 
BRANCH  30  31
ATOM     31  C   UNL A   1      38.640  21.993  26.022  1.00  0.00     0.023 C 
BRANCH  31  32
ATOM     32  C   UNL A   1      39.934  21.351  26.519  1.00  0.00     0.116 C 
BRANCH  32  33
ATOM     33  N   UNL A   1      41.106  21.853  25.833  1.00  0.00    -0.352 N 
ATOM     34  C   UNL A   1      41.839  23.000  25.807  1.00  0.00     0.251 C 
ATOM     35  H   UNL A   1      41.473  21.180  25.215  1.00  0.00     0.163 HD
ATOM     36  O   UNL A   1      42.833  22.963  25.071  1.00  0.00    -0.269 OA
BRANCH  34  37
ATOM     37  C   UNL A   1      41.579  24.269  26.543  1.00  0.00     0.039 A 
ATOM     38  C   UNL A   1      40.706  25.286  26.162  1.00  0.00     0.014 A 
ATOM     39  C   UNL A   1      42.432  24.498  27.648  1.00  0.00     0.014 A 
ATOM     40  C   UNL A   1      40.739  26.517  26.844  1.00  0.00     0.010 A 
ATOM     41  C   UNL A   1      42.472  25.720  28.317  1.00  0.00     0.010 A 
ATOM     42  C   UNL A   1      41.646  26.753  27.900  1.00  0.00    -0.014 A 
BRANCH  42  43
ATOM     43  C   UNL A   1      41.544  27.994  28.692  1.00  0.00     0.031 A 
ATOM     44  C   UNL A   1      42.604  28.972  28.327  1.00  0.00     0.074 A 
ATOM     45  C   UNL A   1      40.547  28.358  29.538  1.00  0.00     0.049 A 
ATOM     46  N   UNL A   1      43.636  29.303  29.029  1.00  0.00    -0.248 NA
ATOM     47  C   UNL A   1      42.621  29.513  26.957  1.00  0.00     0.031 C 
ATOM     48  C   UNL A   1      39.284  27.653  29.773  1.00  0.00     0.029 A 
ATOM     49  N   UNL A   1      40.402  29.482  30.320  1.00  0.00    -0.354 N 
ATOM     50  C   UNL A   1      44.271  30.308  28.304  1.00  0.00     0.074 A 
ATOM     51  C   UNL A   1      43.742  30.238  26.969  1.00  0.00     0.031 C 
ATOM     52  C   UNL A   1      38.427  28.451  30.452  1.00  0.00     0.029 A 
ATOM     53  C   UNL A   1      39.115  29.673  30.836  1.00  0.00     0.049 A 
ATOM     54  H   UNL A   1      41.144  30.102  30.502  1.00  0.00     0.167 HD
ATOM     55  C   UNL A   1      44.924  31.311  28.953  1.00  0.00     0.037 A 
ATOM     56  C   UNL A   1      38.638  30.742  31.532  1.00  0.00     0.037 A 
ATOM     57  C   UNL A   1      45.123  30.977  30.339  1.00  0.00     0.049 A 
ATOM     58  C   UNL A   1      39.797  31.402  32.172  1.00  0.00     0.074 A 
ATOM     59  C   UNL A   1      45.946  30.156  31.078  1.00  0.00     0.029 A 
ATOM     60  N   UNL A   1      44.056  31.305  31.128  1.00  0.00    -0.354 N 
ATOM     61  N   UNL A   1      40.507  30.848  33.116  1.00  0.00    -0.248 NA
ATOM     62  C   UNL A   1      40.385  32.585  31.552  1.00  0.00     0.031 C 
ATOM     63  C   UNL A   1      45.263  29.902  32.304  1.00  0.00     0.029 A 
ATOM     64  C   UNL A   1      44.061  30.606  32.302  1.00  0.00     0.049 A 
ATOM     65  H   UNL A   1      43.369  31.965  30.881  1.00  0.00     0.167 HD
ATOM     66  C   UNL A   1      41.779  31.329  32.899  1.00  0.00     0.074 A 
ATOM     67  C   UNL A   1      41.616  32.511  32.062  1.00  0.00     0.031 C 
ATOM     68  C   UNL A   1      42.865  30.535  33.109  1.00  0.00     0.037 A 
BRANCH  55  69
ATOM     69  C   UNL A   1      44.908  32.766  28.520  1.00  0.00     0.058 A 
ATOM     70  C   UNL A   1      46.135  33.422  28.273  1.00  0.00     0.135 A 
ATOM     71  C   UNL A   1      43.784  33.613  28.648  1.00  0.00     0.135 A 
ATOM     72  F   UNL A   1      47.273  32.721  28.161  1.00  0.00    -0.206 F 
ATOM     73  C   UNL A   1      46.240  34.814  28.208  1.00  0.00     0.059 A 
ATOM     74  C   UNL A   1      43.860  34.997  28.536  1.00  0.00     0.059 A 
ATOM     75  F   UNL A   1      42.577  33.151  28.989  1.00  0.00    -0.206 F 
ATOM     76  C   UNL A   1      45.095  35.593  28.347  1.00  0.00     0.060 A 
BRANCH  76  77
ATOM     77  S   UNL A   1      45.233  37.389  28.322  1.00  0.00     0.124 S 
ATOM     78  O   UNL A   1      46.668  37.572  28.145  1.00  0.00    -0.237 OA
ATOM     79  O   UNL A   1      44.395  37.737  27.178  1.00  0.00    -0.237 OA
ATOM     80  O   UNL A   1      44.699  37.784  29.623  1.00  0.00    -0.744 OA
ENDBRANCH  76  77
ENDBRANCH  55  69
BRANCH  56  81
ATOM     81  C   UNL A   1      37.291  31.388  31.548  1.00  0.00     0.058 A 
ATOM     82  C   UNL A   1      36.609  31.636  32.760  1.00  0.00     0.135 A 
ATOM     83  C   UNL A   1      36.804  32.075  30.422  1.00  0.00     0.135 A 
ATOM     84  F   UNL A   1      36.993  31.023  33.890  1.00  0.00    -0.206 F 
ATOM     85  C   UNL A   1      35.577  32.577  32.866  1.00  0.00     0.059 A 
ATOM     86  C   UNL A   1      35.771  33.014  30.501  1.00  0.00     0.059 A 
ATOM     87  F   UNL A   1      37.388  31.925  29.223  1.00  0.00    -0.206 F 
ATOM     88  C   UNL A   1      35.187  33.288  31.734  1.00  0.00     0.060 A 
BRANCH  88  89
ATOM     89  S   UNL A   1      34.014  34.658  31.906  1.00  0.00     0.124 S 
ATOM     90  O   UNL A   1      33.492  34.783  30.550  1.00  0.00    -0.237 OA
ATOM     91  O   UNL A   1      33.081  34.141  32.901  1.00  0.00    -0.237 OA
ATOM     92  O   UNL A   1      34.852  35.766  32.356  1.00  0.00    -0.744 OA
ENDBRANCH  88  89
ENDBRANCH  56  81
BRANCH  68  93
ATOM     93  C   UNL A   1      42.761  29.461  34.144  1.00  0.00     0.058 A 
ATOM     94  C   UNL A   1      42.998  29.624  35.519  1.00  0.00     0.135 A 
ATOM     95  C   UNL A   1      42.315  28.205  33.705  1.00  0.00     0.135 A 
ATOM     96  F   UNL A   1      43.365  30.812  36.022  1.00  0.00    -0.206 F 
ATOM     97  C   UNL A   1      42.815  28.568  36.415  1.00  0.00     0.059 A 
ATOM     98  C   UNL A   1      42.098  27.152  34.581  1.00  0.00     0.059 A 
ATOM     99  F   UNL A   1      42.043  28.005  32.405  1.00  0.00    -0.206 F 
ATOM    100  C   UNL A   1      42.358  27.338  35.935  1.00  0.00     0.060 A 
BRANCH 100 101
ATOM    101  S   UNL A   1      42.051  25.994  37.099  1.00  0.00     0.124 S 
ATOM    102  O   UNL A   1      42.497  24.827  36.345  1.00  0.00    -0.237 OA
ATOM    103  O   UNL A   1      42.882  26.373  38.238  1.00  0.00    -0.237 OA
ATOM    104  O   UNL A   1      40.611  26.069  37.336  1.00  0.00    -0.744 OA
ENDBRANCH 100 101
ENDBRANCH  68  93
ENDBRANCH  42  43
ENDBRANCH  34  37
ENDBRANCH  32  33
ENDBRANCH  31  32
ENDBRANCH  30  31
ENDBRANCH   1  30
TORSDOF 19
ENDMDL
MODEL 3
REMARK VINA RESULT:     -13.0      2.786      9.627
REMARK SMILES COC(=O)c1ccc2c(c1)=N[C@H](c1cn(CCC(=O)NCCCCNC(=O)c3ccc(-c4c5nc(c(-c6c(F)cc(S(=O)(=O)[O-])cc6F)c6ccc([nH]6)c(-c6c(F)cc(S(=O)(=O)[O-])cc6F)c6nc(c(-c7c(F)cc(S(=O)(=O)[O-])cc7F)c7ccc4[nH]7)C=C6)C=C5)cc3)c3ccccc13)N=2
REMARK SMILES IDX 21 1 20 2 18 3 19 4 17 6 16 7 15 8 13 9 14 10 99 11 94 12
REMARK SMILES IDX 98 13 95 14 97 15 96 16 12 17 5 18 6 19 10 20 7 21 9 22 8 23
REMARK SMILES IDX 11 24 100 25 3 26 4 27 2 28 1 29 22 30 23 31 24 32 25 33
REMARK SMILES IDX 26 34 27 36 28 37 29 38 93 39 30 40 92 41 31 42 32 43 33 44
REMARK SMILES IDX 86 45 34 46 91 47 85 48 87 49 35 50 90 51 84 52 83 53 36 55
REMARK SMILES IDX 70 56 49 57 69 58 50 59 53 60 68 61 88 62 51 63 52 64 67 66
REMARK SMILES IDX 89 67 54 68 37 69 38 70 47 71 39 72 40 73 46 74 48 75 41 76
REMARK SMILES IDX 42 77 43 78 44 79 45 80 71 81 72 82 81 83 73 84 74 85 80 86
REMARK SMILES IDX 82 87 75 88 76 89 77 90 78 91 79 92 55 93 56 94 65 95 57 96
REMARK SMILES IDX 58 97 64 98 66 99 59 100 60 101 61 102 62 103 63 104
REMARK H PARENT 20 5 25 35 87 54 53 65
REMARK Flexibility Score: inf
ROOT
ATOM      1  C   UNL A   1      35.637  20.815  25.406  1.00  0.00     0.116 C 
ENDROOT
BRANCH   1   2
ATOM      2  N   UNL A   1      34.890  19.590  25.150  1.00  0.00    -0.356 N 
ATOM      3  C   UNL A   1      33.685  19.343  24.552  1.00  0.00     0.221 C 
ATOM      4  O   UNL A   1      33.410  18.164  24.306  1.00  0.00    -0.275 OA
ATOM      5  H   UNL A   1      35.344  18.777  25.471  1.00  0.00     0.163 HD
BRANCH   3   6
ATOM      6  C   UNL A   1      32.733  20.445  24.114  1.00  0.00     0.122 C 
BRANCH   6   7
ATOM      7  C   UNL A   1      31.979  21.104  25.299  1.00  0.00     0.132 C 
BRANCH   7   8
ATOM      8  N   UNL A   1      32.365  22.496  25.588  1.00  0.00    -0.347 N 
ATOM      9  C   UNL A   1      31.178  24.331  25.312  1.00  0.00     0.024 A 
ATOM     10  C   UNL A   1      31.481  23.327  26.238  1.00  0.00     0.094 A 
ATOM     11  C   UNL A   1      31.818  23.893  24.077  1.00  0.00     0.007 A 
ATOM     12  C   UNL A   1      32.953  23.327  24.652  1.00  0.00     0.048 A 
ATOM     13  C   UNL A   1      32.025  24.398  22.787  1.00  0.00     0.011 A 
ATOM     14  C   UNL A   1      34.175  24.004  24.494  1.00  0.00     0.027 A 
ATOM     15  C   UNL A   1      33.252  24.952  22.463  1.00  0.00     0.001 A 
ATOM     16  C   UNL A   1      34.273  24.884  23.399  1.00  0.00     0.002 A 
BRANCH   9  17
ATOM     17  C   UNL A   1      30.493  25.606  25.711  1.00  0.00     0.255 C 
ATOM     18  C   UNL A   1      32.751  29.395  26.637  1.00  0.00     0.062 A 
ATOM     19  C   UNL A   1      31.980  29.837  25.483  1.00  0.00     0.018 A 
ATOM     20  C   UNL A   1      32.578  28.176  27.177  1.00  0.00     0.046 A 
ATOM     21  C   UNL A   1      31.199  29.019  24.764  1.00  0.00     0.031 A 
ATOM     22  C   UNL A   1      31.648  27.262  26.512  1.00  0.00     0.087 A 
ATOM     23  C   UNL A   1      31.067  27.631  25.209  1.00  0.00     0.086 A 
ATOM     24  N   UNL A   1      31.225  26.118  26.912  1.00  0.00    -0.252 NA
ATOM     25  N   UNL A   1      30.431  26.655  24.662  1.00  0.00    -0.252 NA
BRANCH  18  26
ATOM     26  C   UNL A   1      33.795  30.246  27.293  1.00  0.00     0.337 C 
ATOM     27  O   UNL A   1      33.624  31.405  27.597  1.00  0.00    -0.246 OA
BRANCH  26  28
ATOM     28  O   UNL A   1      34.947  29.539  27.459  1.00  0.00    -0.465 OA
ATOM     29  C   UNL A   1      36.084  30.350  27.770  1.00  0.00     0.282 C 
ENDBRANCH  26  28
ENDBRANCH  18  26
ENDBRANCH   9  17
ENDBRANCH   7   8
ENDBRANCH   6   7
ENDBRANCH   3   6
ENDBRANCH   1   2
BRANCH   1  30
ATOM     30  C   UNL A   1      37.036  20.939  24.770  1.00  0.00     0.023 C 
BRANCH  30  31
ATOM     31  C   UNL A   1      37.976  22.102  25.155  1.00  0.00     0.023 C 
BRANCH  31  32
ATOM     32  C   UNL A   1      39.010  21.816  26.242  1.00  0.00     0.116 C 
BRANCH  32  33
ATOM     33  N   UNL A   1      40.365  21.790  25.732  1.00  0.00    -0.352 N 
ATOM     34  C   UNL A   1      41.492  22.548  25.838  1.00  0.00     0.251 C 
ATOM     35  H   UNL A   1      40.512  21.012  25.147  1.00  0.00     0.163 HD
ATOM     36  O   UNL A   1      42.476  22.098  25.238  1.00  0.00    -0.269 OA
BRANCH  34  37
ATOM     37  C   UNL A   1      41.665  23.833  26.572  1.00  0.00     0.039 A 
ATOM     38  C   UNL A   1      42.566  24.085  27.604  1.00  0.00     0.014 A 
ATOM     39  C   UNL A   1      40.698  24.820  26.271  1.00  0.00     0.014 A 
ATOM     40  C   UNL A   1      42.453  25.276  28.346  1.00  0.00     0.010 A 
ATOM     41  C   UNL A   1      40.580  25.996  27.010  1.00  0.00     0.010 A 
ATOM     42  C   UNL A   1      41.438  26.220  28.076  1.00  0.00    -0.014 A 
BRANCH  42  43
ATOM     43  C   UNL A   1      41.447  27.525  28.766  1.00  0.00     0.031 A 
ATOM     44  C   UNL A   1      42.568  28.386  28.303  1.00  0.00     0.074 A 
ATOM     45  C   UNL A   1      40.501  28.030  29.597  1.00  0.00     0.049 A 
ATOM     46  N   UNL A   1      43.639  28.694  28.957  1.00  0.00    -0.248 NA
ATOM     47  C   UNL A   1      42.592  28.813  26.894  1.00  0.00     0.031 C 
ATOM     48  C   UNL A   1      39.195  27.445  29.912  1.00  0.00     0.029 A 
ATOM     49  N   UNL A   1      40.459  29.221  30.288  1.00  0.00    -0.354 N 
ATOM     50  C   UNL A   1      44.329  29.586  28.141  1.00  0.00     0.074 A 
ATOM     51  C   UNL A   1      43.764  29.450  26.826  1.00  0.00     0.031 C 
ATOM     52  C   UNL A   1      38.416  28.357  30.539  1.00  0.00     0.029 A 
ATOM     53  C   UNL A   1      39.202  29.550  30.810  1.00  0.00     0.049 A 
ATOM     54  H   UNL A   1      41.249  29.795  30.405  1.00  0.00     0.167 HD
ATOM     55  C   UNL A   1      45.070  30.585  28.694  1.00  0.00     0.037 A 
ATOM     56  C   UNL A   1      38.824  30.705  31.425  1.00  0.00     0.037 A 
ATOM     57  C   UNL A   1      45.278  30.349  30.099  1.00  0.00     0.049 A 
ATOM     58  C   UNL A   1      40.044  31.324  31.987  1.00  0.00     0.074 A 
ATOM     59  C   UNL A   1      46.054  29.530  30.887  1.00  0.00     0.029 A 
ATOM     60  N   UNL A   1      44.257  30.819  30.878  1.00  0.00    -0.354 N 
ATOM     61  N   UNL A   1      40.733  30.795  32.960  1.00  0.00    -0.248 NA
ATOM     62  C   UNL A   1      40.703  32.405  31.263  1.00  0.00     0.031 C 
ATOM     63  C   UNL A   1      45.384  29.427  32.143  1.00  0.00     0.029 A 
ATOM     64  C   UNL A   1      44.238  30.218  32.105  1.00  0.00     0.049 A 
ATOM     65  H   UNL A   1      43.615  31.508  30.590  1.00  0.00     0.167 HD
ATOM     66  C   UNL A   1      42.032  31.159  32.681  1.00  0.00     0.074 A 
ATOM     67  C   UNL A   1      41.936  32.279  31.754  1.00  0.00     0.031 C 
ATOM     68  C   UNL A   1      43.060  30.303  32.936  1.00  0.00     0.037 A 
BRANCH  55  69
ATOM     69  C   UNL A   1      45.152  31.997  28.144  1.00  0.00     0.058 A 
ATOM     70  C   UNL A   1      46.418  32.541  27.833  1.00  0.00     0.135 A 
ATOM     71  C   UNL A   1      44.094  32.932  28.214  1.00  0.00     0.135 A 
ATOM     72  F   UNL A   1      47.502  31.751  27.767  1.00  0.00    -0.206 F 
ATOM     73  C   UNL A   1      46.623  33.911  27.653  1.00  0.00     0.059 A 
ATOM     74  C   UNL A   1      44.267  34.293  27.988  1.00  0.00     0.059 A 
ATOM     75  F   UNL A   1      42.862  32.588  28.603  1.00  0.00    -0.206 F 
ATOM     76  C   UNL A   1      45.539  34.781  27.740  1.00  0.00     0.060 A 
BRANCH  76  77
ATOM     77  S   UNL A   1      45.805  36.554  27.566  1.00  0.00     0.124 S 
ATOM     78  O   UNL A   1      44.520  36.993  27.035  1.00  0.00    -0.237 OA
ATOM     79  O   UNL A   1      46.101  36.948  28.940  1.00  0.00    -0.237 OA
ATOM     80  O   UNL A   1      46.933  36.634  26.642  1.00  0.00    -0.744 OA
ENDBRANCH  76  77
ENDBRANCH  55  69
BRANCH  56  81
ATOM     81  C   UNL A   1      37.529  31.451  31.412  1.00  0.00     0.058 A 
ATOM     82  C   UNL A   1      36.662  31.436  32.527  1.00  0.00     0.135 A 
ATOM     83  C   UNL A   1      37.280  32.453  30.458  1.00  0.00     0.135 A 
ATOM     84  F   UNL A   1      36.812  30.513  33.489  1.00  0.00    -0.206 F 
ATOM     85  C   UNL A   1      35.676  32.411  32.729  1.00  0.00     0.059 A 
ATOM     86  C   UNL A   1      36.298  33.433  30.634  1.00  0.00     0.059 A 
ATOM     87  F   UNL A   1      38.053  32.568  29.368  1.00  0.00    -0.206 F 
ATOM     88  C   UNL A   1      35.525  33.428  31.791  1.00  0.00     0.060 A 
BRANCH  88  89
ATOM     89  S   UNL A   1      34.411  34.811  32.152  1.00  0.00     0.124 S 
ATOM     90  O   UNL A   1      34.032  35.254  30.815  1.00  0.00    -0.237 OA
ATOM     91  O   UNL A   1      33.360  34.165  32.930  1.00  0.00    -0.237 OA
ATOM     92  O   UNL A   1      35.256  35.739  32.899  1.00  0.00    -0.744 OA
ENDBRANCH  88  89
ENDBRANCH  56  81
BRANCH  68  93
ATOM     93  C   UNL A   1      42.901  29.327  34.058  1.00  0.00     0.058 A 
ATOM     94  C   UNL A   1      43.123  29.599  35.417  1.00  0.00     0.135 A 
ATOM     95  C   UNL A   1      42.418  28.054  33.719  1.00  0.00     0.135 A 
ATOM     96  F   UNL A   1      43.524  30.813  35.824  1.00  0.00    -0.206 F 
ATOM     97  C   UNL A   1      42.888  28.632  36.397  1.00  0.00     0.059 A 
ATOM     98  C   UNL A   1      42.150  27.088  34.678  1.00  0.00     0.059 A 
ATOM     99  F   UNL A   1      42.159  27.752  32.436  1.00  0.00    -0.206 F 
ATOM    100  C   UNL A   1      42.395  27.381  36.015  1.00  0.00     0.060 A 
BRANCH 100 101
ATOM    101  S   UNL A   1      42.022  26.153  37.285  1.00  0.00     0.124 S 
ATOM    102  O   UNL A   1      43.007  26.469  38.314  1.00  0.00    -0.237 OA
ATOM    103  O   UNL A   1      40.634  26.459  37.614  1.00  0.00    -0.237 OA
ATOM    104  O   UNL A   1      42.226  24.879  36.598  1.00  0.00    -0.744 OA
ENDBRANCH 100 101
ENDBRANCH  68  93
ENDBRANCH  42  43
ENDBRANCH  34  37
ENDBRANCH  32  33
ENDBRANCH  31  32
ENDBRANCH  30  31
ENDBRANCH   1  30
TORSDOF 19
ENDMDL
