MODEL 1
REMARK VINA RESULT:     -12.0      0.000      0.000
REMARK SMILES Cc1ccc(-n2nc(C(=O)NCCCCNC(=O)c3ccc(-c4c5nc(c(-c6c(F)cc(S(=O)(=O)[O-])cc6F)c6ccc([nH]6)c(-c6c(F)cc(S(=O)(=O)[O-])cc6F)c6nc(c(-c7c(F)cc(S(=O)(=O)[O-])cc7F)c7ccc4[nH]7)C=C6)C=C5)cc3)c(C)c(C#N)c2=O)cc1Cl
REMARK SMILES IDX 14 1 13 2 12 3 11 4 9 5 10 6 8 8 6 9 7 10 90 11 87 12 91 13
REMARK SMILES IDX 85 14 86 15 5 16 1 17 2 18 3 19 93 20 4 21 92 22 94 23 88 24
REMARK SMILES IDX 89 25 15 26 16 27 17 28 18 30 19 31 20 32 84 33 21 34 83 35
REMARK SMILES IDX 22 36 23 37 24 38 77 39 25 40 82 41 76 42 78 43 26 44 81 45
REMARK SMILES IDX 75 46 74 47 27 49 61 50 40 51 60 52 41 53 44 54 59 55 79 56
REMARK SMILES IDX 42 57 43 58 58 60 80 61 45 62 28 63 29 64 38 65 30 66 31 67
REMARK SMILES IDX 37 68 39 69 32 70 33 71 34 72 35 73 36 74 62 75 63 76 72 77
REMARK SMILES IDX 64 78 65 79 71 80 73 81 66 82 67 83 68 84 69 85 70 86 46 87
REMARK SMILES IDX 47 88 56 89 48 90 49 91 55 92 57 93 50 94 51 95 52 96 53 97
REMARK SMILES IDX 54 98
REMARK H PARENT 11 7 16 29 78 48 44 59
REMARK Flexibility Score: inf
ROOT
ATOM      1  C   UNL A   1      33.109  28.522  24.909  1.00  0.00     0.023 C 
ENDROOT
BRANCH   1   2
ATOM      2  C   UNL A   1      33.885  28.575  23.603  1.00  0.00     0.023 C 
BRANCH   2   3
ATOM      3  C   UNL A   1      33.000  28.314  22.387  1.00  0.00     0.116 C 
BRANCH   3   4
ATOM      4  N   UNL A   1      33.324  27.081  21.737  1.00  0.00    -0.351 N 
ATOM      5  C   UNL A   1      33.240  25.754  22.014  1.00  0.00     0.272 C 
ATOM      6  O   UNL A   1      33.308  25.053  20.994  1.00  0.00    -0.267 OA
ATOM      7  H   UNL A   1      33.717  27.237  20.847  1.00  0.00     0.163 HD
BRANCH   5   8
ATOM      8  C   UNL A   1      33.105  24.997  23.364  1.00  0.00     0.153 A 
ATOM      9  N   UNL A   1      34.440  23.773  24.806  1.00  0.00    -0.195 N 
ATOM     10  N   UNL A   1      34.284  24.561  23.721  1.00  0.00    -0.159 NA
ATOM     11  C   UNL A   1      33.424  23.447  25.679  1.00  0.00     0.289 A 
ATOM     12  C   UNL A   1      32.111  24.025  25.349  1.00  0.00     0.124 A 
ATOM     13  O   UNL A   1      33.548  22.754  26.688  1.00  0.00    -0.266 OA
ATOM     14  C   UNL A   1      31.889  24.735  24.220  1.00  0.00     0.006 A 
ATOM     15  C   UNL A   1      30.508  25.218  23.945  1.00  0.00     0.048 C 
BRANCH   9  16
ATOM     16  C   UNL A   1      35.736  23.228  24.961  1.00  0.00     0.070 A 
ATOM     17  C   UNL A   1      39.396  21.172  25.899  1.00  0.00     0.046 C 
ATOM     18  C   UNL A   1      38.168  21.946  25.521  1.00  0.00    -0.032 A 
ATOM     19  C   UNL A   1      37.226  21.339  24.683  1.00  0.00     0.007 A 
ATOM     20  C   UNL A   1      37.903  23.234  26.020  1.00  0.00     0.046 A 
ATOM     21  C   UNL A   1      36.016  21.970  24.419  1.00  0.00     0.029 A 
ATOM     22  C   UNL A   1      36.709  23.893  25.710  1.00  0.00     0.049 A 
ATOM     23  Cl  UNL A   1      39.006  24.020  27.093  1.00  0.00    -0.084 Cl
ENDBRANCH   9  16
BRANCH  12  24
ATOM     24  C   UNL A   1      31.089  23.758  26.314  1.00  0.00     0.105 C 
ATOM     25  N   UNL A   1      30.304  23.545  27.137  1.00  0.00    -0.192 NA
ENDBRANCH  12  24
ENDBRANCH   5   8
ENDBRANCH   3   4
ENDBRANCH   2   3
ENDBRANCH   1   2
BRANCH   1  26
ATOM     26  C   UNL A   1      33.946  28.869  26.130  1.00  0.00     0.116 C 
BRANCH  26  27
ATOM     27  N   UNL A   1      33.725  30.217  26.637  1.00  0.00    -0.352 N 
ATOM     28  C   UNL A   1      34.525  30.909  27.520  1.00  0.00     0.251 C 
ATOM     29  H   UNL A   1      32.919  30.682  26.316  1.00  0.00     0.163 HD
ATOM     30  O   UNL A   1      34.204  32.014  27.937  1.00  0.00    -0.269 OA
BRANCH  28  31
ATOM     31  C   UNL A   1      35.752  30.236  27.988  1.00  0.00     0.039 A 
ATOM     32  C   UNL A   1      36.938  30.446  27.287  1.00  0.00     0.014 A 
ATOM     33  C   UNL A   1      35.751  29.583  29.225  1.00  0.00     0.014 A 
ATOM     34  C   UNL A   1      38.143  30.062  27.870  1.00  0.00     0.010 A 
ATOM     35  C   UNL A   1      36.962  29.314  29.850  1.00  0.00     0.010 A 
ATOM     36  C   UNL A   1      38.171  29.539  29.176  1.00  0.00    -0.014 A 
BRANCH  36  37
ATOM     37  C   UNL A   1      39.464  29.211  29.828  1.00  0.00     0.031 A 
ATOM     38  C   UNL A   1      39.873  29.936  31.080  1.00  0.00     0.074 A 
ATOM     39  C   UNL A   1      40.263  28.261  29.299  1.00  0.00     0.049 A 
ATOM     40  N   UNL A   1      40.923  29.742  31.834  1.00  0.00    -0.248 NA
ATOM     41  C   UNL A   1      39.005  31.035  31.538  1.00  0.00     0.031 C 
ATOM     42  C   UNL A   1      40.003  27.533  28.053  1.00  0.00     0.029 A 
ATOM     43  N   UNL A   1      41.447  27.728  29.747  1.00  0.00    -0.354 N 
ATOM     44  C   UNL A   1      40.831  30.679  32.856  1.00  0.00     0.074 A 
ATOM     45  C   UNL A   1      39.677  31.501  32.579  1.00  0.00     0.031 C 
ATOM     46  C   UNL A   1      40.960  26.609  27.873  1.00  0.00     0.029 A 
ATOM     47  C   UNL A   1      41.925  26.701  28.965  1.00  0.00     0.049 A 
ATOM     48  H   UNL A   1      41.910  28.050  30.554  1.00  0.00     0.167 HD
ATOM     49  C   UNL A   1      41.609  30.811  33.953  1.00  0.00     0.037 A 
ATOM     50  C   UNL A   1      43.010  25.914  29.117  1.00  0.00     0.037 A 
ATOM     51  C   UNL A   1      42.743  29.976  34.233  1.00  0.00     0.049 A 
ATOM     52  C   UNL A   1      43.886  26.108  30.328  1.00  0.00     0.074 A 
ATOM     53  C   UNL A   1      43.572  30.003  35.339  1.00  0.00     0.029 A 
ATOM     54  N   UNL A   1      43.209  28.968  33.402  1.00  0.00    -0.354 N 
ATOM     55  N   UNL A   1      43.734  26.945  31.327  1.00  0.00    -0.248 NA
ATOM     56  C   UNL A   1      45.078  25.254  30.438  1.00  0.00     0.031 C 
ATOM     57  C   UNL A   1      44.579  29.055  35.147  1.00  0.00     0.029 A 
ATOM     58  C   UNL A   1      44.338  28.390  33.955  1.00  0.00     0.049 A 
ATOM     59  H   UNL A   1      42.800  28.705  32.547  1.00  0.00     0.167 HD
ATOM     60  C   UNL A   1      44.794  26.701  32.194  1.00  0.00     0.074 A 
ATOM     61  C   UNL A   1      45.573  25.630  31.610  1.00  0.00     0.031 C 
ATOM     62  C   UNL A   1      45.094  27.313  33.366  1.00  0.00     0.037 A 
BRANCH  49  63
ATOM     63  C   UNL A   1      41.246  31.880  34.947  1.00  0.00     0.058 A 
ATOM     64  C   UNL A   1      41.804  33.166  34.877  1.00  0.00     0.135 A 
ATOM     65  C   UNL A   1      40.282  31.637  35.939  1.00  0.00     0.135 A 
ATOM     66  F   UNL A   1      42.745  33.447  33.960  1.00  0.00    -0.206 F 
ATOM     67  C   UNL A   1      41.434  34.169  35.764  1.00  0.00     0.059 A 
ATOM     68  C   UNL A   1      39.872  32.636  36.817  1.00  0.00     0.059 A 
ATOM     69  F   UNL A   1      39.723  30.423  36.055  1.00  0.00    -0.206 F 
ATOM     70  C   UNL A   1      40.460  33.896  36.726  1.00  0.00     0.060 A 
BRANCH  70  71
ATOM     71  S   UNL A   1      39.975  35.221  37.850  1.00  0.00     0.124 S 
ATOM     72  O   UNL A   1      39.887  36.358  36.938  1.00  0.00    -0.237 OA
ATOM     73  O   UNL A   1      38.705  34.730  38.373  1.00  0.00    -0.237 OA
ATOM     74  O   UNL A   1      41.070  35.274  38.811  1.00  0.00    -0.744 OA
ENDBRANCH  70  71
ENDBRANCH  49  63
BRANCH  50  75
ATOM     75  C   UNL A   1      43.308  24.851  28.116  1.00  0.00     0.058 A 
ATOM     76  C   UNL A   1      44.191  25.085  27.050  1.00  0.00     0.135 A 
ATOM     77  C   UNL A   1      42.734  23.573  28.214  1.00  0.00     0.135 A 
ATOM     78  F   UNL A   1      44.763  26.290  26.905  1.00  0.00    -0.206 F 
ATOM     79  C   UNL A   1      44.484  24.098  26.113  1.00  0.00     0.059 A 
ATOM     80  C   UNL A   1      43.034  22.561  27.307  1.00  0.00     0.059 A 
ATOM     81  F   UNL A   1      41.893  23.290  29.221  1.00  0.00    -0.206 F 
ATOM     82  C   UNL A   1      43.904  22.836  26.255  1.00  0.00     0.060 A 
BRANCH  82  83
ATOM     83  S   UNL A   1      44.331  21.551  25.059  1.00  0.00     0.124 S 
ATOM     84  O   UNL A   1      44.136  22.248  23.794  1.00  0.00    -0.237 OA
ATOM     85  O   UNL A   1      45.713  21.251  25.419  1.00  0.00    -0.237 OA
ATOM     86  O   UNL A   1      43.371  20.489  25.349  1.00  0.00    -0.744 OA
ENDBRANCH  82  83
ENDBRANCH  50  75
BRANCH  62  87
ATOM     87  C   UNL A   1      46.307  26.844  34.123  1.00  0.00     0.058 A 
ATOM     88  C   UNL A   1      46.232  25.786  35.041  1.00  0.00     0.135 A 
ATOM     89  C   UNL A   1      47.576  27.364  33.820  1.00  0.00     0.135 A 
ATOM     90  F   UNL A   1      45.042  25.258  35.369  1.00  0.00    -0.206 F 
ATOM     91  C   UNL A   1      47.375  25.256  35.628  1.00  0.00     0.059 A 
ATOM     92  C   UNL A   1      48.735  26.828  34.372  1.00  0.00     0.059 A 
ATOM     93  F   UNL A   1      47.703  28.369  32.938  1.00  0.00    -0.206 F 
ATOM     94  C   UNL A   1      48.623  25.771  35.274  1.00  0.00     0.060 A 
BRANCH  94  95
ATOM     95  S   UNL A   1      50.098  25.008  35.980  1.00  0.00     0.124 S 
ATOM     96  O   UNL A   1      50.866  26.178  36.395  1.00  0.00    -0.237 OA
ATOM     97  O   UNL A   1      49.540  24.199  37.058  1.00  0.00    -0.237 OA
ATOM     98  O   UNL A   1      50.662  24.254  34.864  1.00  0.00    -0.744 OA
ENDBRANCH  94  95
ENDBRANCH  62  87
ENDBRANCH  36  37
ENDBRANCH  28  31
ENDBRANCH  26  27
ENDBRANCH   1  26
TORSDOF 16
ENDMDL
MODEL 2
REMARK VINA RESULT:     -11.8      1.002      2.332
REMARK SMILES Cc1ccc(-n2nc(C(=O)NCCCCNC(=O)c3ccc(-c4c5nc(c(-c6c(F)cc(S(=O)(=O)[O-])cc6F)c6ccc([nH]6)c(-c6c(F)cc(S(=O)(=O)[O-])cc6F)c6nc(c(-c7c(F)cc(S(=O)(=O)[O-])cc7F)c7ccc4[nH]7)C=C6)C=C5)cc3)c(C)c(C#N)c2=O)cc1Cl
REMARK SMILES IDX 14 1 13 2 12 3 11 4 9 5 10 6 8 8 6 9 7 10 90 11 87 12 91 13
REMARK SMILES IDX 85 14 86 15 5 16 1 17 2 18 3 19 93 20 4 21 92 22 94 23 88 24
REMARK SMILES IDX 89 25 15 26 16 27 17 28 18 30 19 31 20 32 84 33 21 34 83 35
REMARK SMILES IDX 22 36 23 37 24 38 77 39 25 40 82 41 76 42 78 43 26 44 81 45
REMARK SMILES IDX 75 46 74 47 27 49 61 50 40 51 60 52 41 53 44 54 59 55 79 56
REMARK SMILES IDX 42 57 43 58 58 60 80 61 45 62 28 63 29 64 38 65 30 66 31 67
REMARK SMILES IDX 37 68 39 69 32 70 33 71 34 72 35 73 36 74 62 75 63 76 72 77
REMARK SMILES IDX 64 78 65 79 71 80 73 81 66 82 67 83 68 84 69 85 70 86 46 87
REMARK SMILES IDX 47 88 56 89 48 90 49 91 55 92 57 93 50 94 51 95 52 96 53 97
REMARK SMILES IDX 54 98
REMARK H PARENT 11 7 16 29 78 48 44 59
REMARK Flexibility Score: inf
ROOT
ATOM      1  C   UNL A   1      33.491  27.857  26.924  1.00  0.00     0.023 C 
ENDROOT
BRANCH   1   2
ATOM      2  C   UNL A   1      32.088  28.195  27.404  1.00  0.00     0.023 C 
BRANCH   2   3
ATOM      3  C   UNL A   1      31.007  27.491  26.589  1.00  0.00     0.116 C 
BRANCH   3   4
ATOM      4  N   UNL A   1      30.963  26.084  26.849  1.00  0.00    -0.351 N 
ATOM      5  C   UNL A   1      31.611  24.969  26.422  1.00  0.00     0.272 C 
ATOM      6  O   UNL A   1      31.477  24.016  27.203  1.00  0.00    -0.267 OA
ATOM      7  H   UNL A   1      30.277  25.865  27.520  1.00  0.00     0.163 HD
BRANCH   5   8
ATOM      8  C   UNL A   1      32.440  24.697  25.137  1.00  0.00     0.153 A 
ATOM      9  N   UNL A   1      34.460  23.731  24.549  1.00  0.00    -0.195 N 
ATOM     10  N   UNL A   1      33.505  24.012  25.460  1.00  0.00    -0.159 NA
ATOM     11  C   UNL A   1      34.364  24.033  23.207  1.00  0.00     0.289 A 
ATOM     12  C   UNL A   1      33.117  24.707  22.809  1.00  0.00     0.124 A 
ATOM     13  O   UNL A   1      35.209  23.763  22.355  1.00  0.00    -0.266 OA
ATOM     14  C   UNL A   1      32.181  25.097  23.703  1.00  0.00     0.006 A 
ATOM     15  C   UNL A   1      30.987  25.833  23.206  1.00  0.00     0.048 C 
BRANCH   9  16
ATOM     16  C   UNL A   1      35.634  23.150  25.081  1.00  0.00     0.070 A 
ATOM     17  C   UNL A   1      39.518  21.651  26.168  1.00  0.00     0.046 C 
ATOM     18  C   UNL A   1      38.128  22.123  25.855  1.00  0.00    -0.032 A 
ATOM     19  C   UNL A   1      37.799  23.456  26.123  1.00  0.00     0.007 A 
ATOM     20  C   UNL A   1      37.165  21.293  25.255  1.00  0.00     0.046 A 
ATOM     21  C   UNL A   1      36.568  23.966  25.726  1.00  0.00     0.029 A 
ATOM     22  C   UNL A   1      35.906  21.791  24.904  1.00  0.00     0.049 A 
ATOM     23  Cl  UNL A   1      37.524  19.650  24.859  1.00  0.00    -0.084 Cl
ENDBRANCH   9  16
BRANCH  12  24
ATOM     24  C   UNL A   1      32.990  24.929  21.402  1.00  0.00     0.105 C 
ATOM     25  N   UNL A   1      32.946  25.114  20.260  1.00  0.00    -0.192 NA
ENDBRANCH  12  24
ENDBRANCH   5   8
ENDBRANCH   3   4
ENDBRANCH   2   3
ENDBRANCH   1   2
BRANCH   1  26
ATOM     26  C   UNL A   1      34.150  28.975  26.133  1.00  0.00     0.116 C 
BRANCH  26  27
ATOM     27  N   UNL A   1      33.928  30.304  26.686  1.00  0.00    -0.352 N 
ATOM     28  C   UNL A   1      34.725  30.965  27.594  1.00  0.00     0.251 C 
ATOM     29  H   UNL A   1      33.122  30.780  26.379  1.00  0.00     0.163 HD
ATOM     30  O   UNL A   1      34.403  32.055  28.048  1.00  0.00    -0.269 OA
BRANCH  28  31
ATOM     31  C   UNL A   1      35.951  30.276  28.042  1.00  0.00     0.039 A 
ATOM     32  C   UNL A   1      37.157  30.583  27.414  1.00  0.00     0.014 A 
ATOM     33  C   UNL A   1      35.920  29.502  29.205  1.00  0.00     0.014 A 
ATOM     34  C   UNL A   1      38.349  30.170  28.004  1.00  0.00     0.010 A 
ATOM     35  C   UNL A   1      37.113  29.199  29.849  1.00  0.00     0.010 A 
ATOM     36  C   UNL A   1      38.341  29.518  29.251  1.00  0.00    -0.014 A 
BRANCH  36  37
ATOM     37  C   UNL A   1      39.616  29.155  29.919  1.00  0.00     0.031 A 
ATOM     38  C   UNL A   1      40.020  29.855  31.186  1.00  0.00     0.074 A 
ATOM     39  C   UNL A   1      40.404  28.195  29.390  1.00  0.00     0.049 A 
ATOM     40  N   UNL A   1      41.054  29.631  31.954  1.00  0.00    -0.248 NA
ATOM     41  C   UNL A   1      39.168  30.967  31.645  1.00  0.00     0.031 C 
ATOM     42  C   UNL A   1      40.148  27.488  28.131  1.00  0.00     0.029 A 
ATOM     43  N   UNL A   1      41.569  27.632  29.850  1.00  0.00    -0.354 N 
ATOM     44  C   UNL A   1      40.965  30.557  32.986  1.00  0.00     0.074 A 
ATOM     45  C   UNL A   1      39.833  31.406  32.702  1.00  0.00     0.031 C 
ATOM     46  C   UNL A   1      41.089  26.547  27.954  1.00  0.00     0.029 A 
ATOM     47  C   UNL A   1      42.038  26.605  29.062  1.00  0.00     0.049 A 
ATOM     48  H   UNL A   1      42.026  27.935  30.667  1.00  0.00     0.167 HD
ATOM     49  C   UNL A   1      41.728  30.659  34.097  1.00  0.00     0.037 A 
ATOM     50  C   UNL A   1      43.105  25.795  29.220  1.00  0.00     0.037 A 
ATOM     51  C   UNL A   1      42.840  29.797  34.383  1.00  0.00     0.049 A 
ATOM     52  C   UNL A   1      43.966  25.955  30.448  1.00  0.00     0.074 A 
ATOM     53  C   UNL A   1      43.652  29.793  35.503  1.00  0.00     0.029 A 
ATOM     54  N   UNL A   1      43.299  28.790  33.547  1.00  0.00    -0.354 N 
ATOM     55  N   UNL A   1      43.815  26.783  31.454  1.00  0.00    -0.248 NA
ATOM     56  C   UNL A   1      45.137  25.075  30.565  1.00  0.00     0.031 C 
ATOM     57  C   UNL A   1      44.642  28.827  35.314  1.00  0.00     0.029 A 
ATOM     58  C   UNL A   1      44.407  28.182  34.110  1.00  0.00     0.049 A 
ATOM     59  H   UNL A   1      42.897  28.546  32.683  1.00  0.00     0.167 HD
ATOM     60  C   UNL A   1      44.855  26.506  32.335  1.00  0.00     0.074 A 
ATOM     61  C   UNL A   1      45.622  25.426  31.750  1.00  0.00     0.031 C 
ATOM     62  C   UNL A   1      45.150  27.096  33.519  1.00  0.00     0.037 A 
BRANCH  49  63
ATOM     63  C   UNL A   1      41.372  31.722  35.099  1.00  0.00     0.058 A 
ATOM     64  C   UNL A   1      40.373  31.515  36.064  1.00  0.00     0.135 A 
ATOM     65  C   UNL A   1      42.081  32.934  35.138  1.00  0.00     0.135 A 
ATOM     66  F   UNL A   1      39.651  30.383  36.058  1.00  0.00    -0.206 F 
ATOM     67  C   UNL A   1      40.077  32.477  37.021  1.00  0.00     0.059 A 
ATOM     68  C   UNL A   1      41.823  33.897  36.109  1.00  0.00     0.059 A 
ATOM     69  F   UNL A   1      43.040  33.186  34.235  1.00  0.00    -0.206 F 
ATOM     70  C   UNL A   1      40.813  33.662  37.041  1.00  0.00     0.060 A 
BRANCH  70  71
ATOM     71  S   UNL A   1      40.430  34.885  38.310  1.00  0.00     0.124 S 
ATOM     72  O   UNL A   1      40.935  34.226  39.511  1.00  0.00    -0.237 OA
ATOM     73  O   UNL A   1      41.190  36.046  37.859  1.00  0.00    -0.237 OA
ATOM     74  O   UNL A   1      38.979  35.017  38.232  1.00  0.00    -0.744 OA
ENDBRANCH  70  71
ENDBRANCH  49  63
BRANCH  50  75
ATOM     75  C   UNL A   1      43.397  24.738  28.211  1.00  0.00     0.058 A 
ATOM     76  C   UNL A   1      42.897  23.435  28.359  1.00  0.00     0.135 A 
ATOM     77  C   UNL A   1      44.166  25.012  27.068  1.00  0.00     0.135 A 
ATOM     78  F   UNL A   1      42.163  23.116  29.437  1.00  0.00    -0.206 F 
ATOM     79  C   UNL A   1      43.157  22.441  27.420  1.00  0.00     0.059 A 
ATOM     80  C   UNL A   1      44.414  24.042  26.100  1.00  0.00     0.059 A 
ATOM     81  F   UNL A   1      44.657  26.245  26.868  1.00  0.00    -0.206 F 
ATOM     82  C   UNL A   1      43.912  22.757  26.289  1.00  0.00     0.060 A 
BRANCH  82  83
ATOM     83  S   UNL A   1      44.200  21.470  25.055  1.00  0.00     0.124 S 
ATOM     84  O   UNL A   1      43.088  20.563  25.310  1.00  0.00    -0.237 OA
ATOM     85  O   UNL A   1      44.136  22.228  23.809  1.00  0.00    -0.237 OA
ATOM     86  O   UNL A   1      45.523  20.960  25.404  1.00  0.00    -0.744 OA
ENDBRANCH  82  83
ENDBRANCH  50  75
BRANCH  62  87
ATOM     87  C   UNL A   1      46.340  26.594  34.289  1.00  0.00     0.058 A 
ATOM     88  C   UNL A   1      46.233  25.513  35.177  1.00  0.00     0.135 A 
ATOM     89  C   UNL A   1      47.622  27.105  34.026  1.00  0.00     0.135 A 
ATOM     90  F   UNL A   1      45.030  24.992  35.467  1.00  0.00    -0.206 F 
ATOM     91  C   UNL A   1      47.357  24.954  35.774  1.00  0.00     0.059 A 
ATOM     92  C   UNL A   1      48.762  26.540  34.588  1.00  0.00     0.059 A 
ATOM     93  F   UNL A   1      47.780  28.130  33.173  1.00  0.00    -0.206 F 
ATOM     94  C   UNL A   1      48.619  25.462  35.460  1.00  0.00     0.060 A 
BRANCH  94  95
ATOM     95  S   UNL A   1      50.069  24.663  36.177  1.00  0.00     0.124 S 
ATOM     96  O   UNL A   1      51.015  25.773  36.245  1.00  0.00    -0.237 OA
ATOM     97  O   UNL A   1      49.557  24.185  37.456  1.00  0.00    -0.237 OA
ATOM     98  O   UNL A   1      50.399  23.620  35.209  1.00  0.00    -0.744 OA
ENDBRANCH  94  95
ENDBRANCH  62  87
ENDBRANCH  36  37
ENDBRANCH  28  31
ENDBRANCH  26  27
ENDBRANCH   1  26
TORSDOF 16
ENDMDL
MODEL 3
REMARK VINA RESULT:     -11.7      5.121      9.647
REMARK SMILES Cc1ccc(-n2nc(C(=O)NCCCCNC(=O)c3ccc(-c4c5nc(c(-c6c(F)cc(S(=O)(=O)[O-])cc6F)c6ccc([nH]6)c(-c6c(F)cc(S(=O)(=O)[O-])cc6F)c6nc(c(-c7c(F)cc(S(=O)(=O)[O-])cc7F)c7ccc4[nH]7)C=C6)C=C5)cc3)c(C)c(C#N)c2=O)cc1Cl
REMARK SMILES IDX 14 1 13 2 12 3 11 4 9 5 10 6 8 8 6 9 7 10 90 11 87 12 91 13
REMARK SMILES IDX 85 14 86 15 5 16 1 17 2 18 3 19 93 20 4 21 92 22 94 23 88 24
REMARK SMILES IDX 89 25 15 26 16 27 17 28 18 30 19 31 20 32 84 33 21 34 83 35
REMARK SMILES IDX 22 36 23 37 24 38 77 39 25 40 82 41 76 42 78 43 26 44 81 45
REMARK SMILES IDX 75 46 74 47 27 49 61 50 40 51 60 52 41 53 44 54 59 55 79 56
REMARK SMILES IDX 42 57 43 58 58 60 80 61 45 62 28 63 29 64 38 65 30 66 31 67
REMARK SMILES IDX 37 68 39 69 32 70 33 71 34 72 35 73 36 74 62 75 63 76 72 77
REMARK SMILES IDX 64 78 65 79 71 80 73 81 66 82 67 83 68 84 69 85 70 86 46 87
REMARK SMILES IDX 47 88 56 89 48 90 49 91 55 92 57 93 50 94 51 95 52 96 53 97
REMARK SMILES IDX 54 98
REMARK H PARENT 11 7 16 29 78 48 44 59
REMARK Flexibility Score: inf
ROOT
ATOM      1  C   UNL A   1      35.419  32.347  27.820  1.00  0.00     0.023 C 
ENDROOT
BRANCH   1   2
ATOM      2  C   UNL A   1      34.044  31.697  27.854  1.00  0.00     0.023 C 
BRANCH   2   3
ATOM      3  C   UNL A   1      34.043  30.301  27.237  1.00  0.00     0.116 C 
BRANCH   3   4
ATOM      4  N   UNL A   1      32.933  29.515  27.683  1.00  0.00    -0.351 N 
ATOM      5  C   UNL A   1      32.052  28.634  27.141  1.00  0.00     0.272 C 
ATOM      6  O   UNL A   1      31.498  27.932  28.000  1.00  0.00    -0.267 OA
ATOM      7  H   UNL A   1      32.761  29.650  28.643  1.00  0.00     0.163 HD
BRANCH   5   8
ATOM      8  C   UNL A   1      31.620  28.394  25.669  1.00  0.00     0.153 A 
ATOM      9  N   UNL A   1      31.628  26.674  24.118  1.00  0.00    -0.195 N 
ATOM     10  N   UNL A   1      31.817  27.136  25.373  1.00  0.00    -0.159 NA
ATOM     11  C   UNL A   1      31.123  27.430  23.082  1.00  0.00     0.289 A 
ATOM     12  C   UNL A   1      30.791  28.822  23.432  1.00  0.00     0.124 A 
ATOM     13  O   UNL A   1      30.917  27.024  21.939  1.00  0.00    -0.266 OA
ATOM     14  C   UNL A   1      31.058  29.352  24.646  1.00  0.00     0.006 A 
ATOM     15  C   UNL A   1      30.747  30.789  24.878  1.00  0.00     0.048 C 
BRANCH   9  16
ATOM     16  C   UNL A   1      32.058  25.344  23.906  1.00  0.00     0.070 A 
ATOM     17  C   UNL A   1      33.313  21.229  23.928  1.00  0.00     0.046 C 
ATOM     18  C   UNL A   1      32.897  22.668  23.832  1.00  0.00    -0.032 A 
ATOM     19  C   UNL A   1      31.537  22.979  23.927  1.00  0.00     0.007 A 
ATOM     20  C   UNL A   1      33.827  23.716  23.707  1.00  0.00     0.046 A 
ATOM     21  C   UNL A   1      31.125  24.305  23.977  1.00  0.00     0.029 A 
ATOM     22  C   UNL A   1      33.408  25.050  23.703  1.00  0.00     0.049 A 
ATOM     23  Cl  UNL A   1      35.524  23.400  23.630  1.00  0.00    -0.084 Cl
ENDBRANCH   9  16
BRANCH  12  24
ATOM     24  C   UNL A   1      30.180  29.566  22.374  1.00  0.00     0.105 C 
ATOM     25  N   UNL A   1      29.657  30.119  21.502  1.00  0.00    -0.192 NA
ENDBRANCH  12  24
ENDBRANCH   5   8
ENDBRANCH   3   4
ENDBRANCH   2   3
ENDBRANCH   1   2
BRANCH   1  26
ATOM     26  C   UNL A   1      36.089  32.428  29.182  1.00  0.00     0.116 C 
BRANCH  26  27
ATOM     27  N   UNL A   1      35.727  31.344  30.086  1.00  0.00    -0.352 N 
ATOM     28  C   UNL A   1      36.547  30.328  30.527  1.00  0.00     0.251 C 
ATOM     29  H   UNL A   1      34.800  31.336  30.416  1.00  0.00     0.163 HD
ATOM     30  O   UNL A   1      36.116  29.425  31.232  1.00  0.00    -0.269 OA
BRANCH  28  31
ATOM     31  C   UNL A   1      37.948  30.342  30.064  1.00  0.00     0.039 A 
ATOM     32  C   UNL A   1      38.963  30.465  31.011  1.00  0.00     0.014 A 
ATOM     33  C   UNL A   1      38.237  30.025  28.733  1.00  0.00     0.014 A 
ATOM     34  C   UNL A   1      40.275  30.192  30.632  1.00  0.00     0.010 A 
ATOM     35  C   UNL A   1      39.527  29.639  28.394  1.00  0.00     0.010 A 
ATOM     36  C   UNL A   1      40.563  29.729  29.335  1.00  0.00    -0.014 A 
BRANCH  36  37
ATOM     37  C   UNL A   1      41.951  29.357  28.959  1.00  0.00     0.031 A 
ATOM     38  C   UNL A   1      42.254  27.949  28.527  1.00  0.00     0.074 A 
ATOM     39  C   UNL A   1      42.930  30.284  29.000  1.00  0.00     0.049 A 
ATOM     40  N   UNL A   1      43.381  27.450  28.093  1.00  0.00    -0.248 NA
ATOM     41  C   UNL A   1      41.160  26.966  28.612  1.00  0.00     0.031 C 
ATOM     42  C   UNL A   1      42.770  31.666  29.461  1.00  0.00     0.029 A 
ATOM     43  N   UNL A   1      44.252  30.213  28.632  1.00  0.00    -0.354 N 
ATOM     44  C   UNL A   1      43.126  26.108  27.841  1.00  0.00     0.074 A 
ATOM     45  C   UNL A   1      41.768  25.846  28.255  1.00  0.00     0.031 C 
ATOM     46  C   UNL A   1      43.927  32.326  29.289  1.00  0.00     0.029 A 
ATOM     47  C   UNL A   1      44.924  31.410  28.743  1.00  0.00     0.049 A 
ATOM     48  H   UNL A   1      44.679  29.384  28.318  1.00  0.00     0.167 HD
ATOM     49  C   UNL A   1      43.933  25.187  27.268  1.00  0.00     0.037 A 
ATOM     50  C   UNL A   1      46.194  31.735  28.429  1.00  0.00     0.037 A 
ATOM     51  C   UNL A   1      45.276  25.461  26.839  1.00  0.00     0.049 A 
ATOM     52  C   UNL A   1      47.090  30.681  27.829  1.00  0.00     0.074 A 
ATOM     53  C   UNL A   1      46.163  24.606  26.210  1.00  0.00     0.029 A 
ATOM     54  N   UNL A   1      45.927  26.675  26.995  1.00  0.00    -0.354 N 
ATOM     55  N   UNL A   1      46.802  29.438  27.521  1.00  0.00    -0.248 NA
ATOM     56  C   UNL A   1      48.477  31.067  27.534  1.00  0.00     0.031 C 
ATOM     57  C   UNL A   1      47.373  25.284  26.045  1.00  0.00     0.029 A 
ATOM     58  C   UNL A   1      47.219  26.582  26.507  1.00  0.00     0.049 A 
ATOM     59  H   UNL A   1      45.530  27.482  27.394  1.00  0.00     0.167 HD
ATOM     60  C   UNL A   1      47.963  28.903  26.972  1.00  0.00     0.074 A 
ATOM     61  C   UNL A   1      48.953  29.959  26.979  1.00  0.00     0.031 C 
ATOM     62  C   UNL A   1      48.187  27.649  26.508  1.00  0.00     0.037 A 
BRANCH  49  63
ATOM     63  C   UNL A   1      43.380  23.806  27.048  1.00  0.00     0.058 A 
ATOM     64  C   UNL A   1      42.878  23.409  25.799  1.00  0.00     0.135 A 
ATOM     65  C   UNL A   1      43.414  22.850  28.076  1.00  0.00     0.135 A 
ATOM     66  F   UNL A   1      42.803  24.289  24.787  1.00  0.00    -0.206 F 
ATOM     67  C   UNL A   1      42.412  22.118  25.580  1.00  0.00     0.059 A 
ATOM     68  C   UNL A   1      42.983  21.543  27.869  1.00  0.00     0.059 A 
ATOM     69  F   UNL A   1      43.878  23.179  29.291  1.00  0.00    -0.206 F 
ATOM     70  C   UNL A   1      42.477  21.190  26.620  1.00  0.00     0.060 A 
BRANCH  70  71
ATOM     71  S   UNL A   1      41.892  19.512  26.305  1.00  0.00     0.124 S 
ATOM     72  O   UNL A   1      42.653  19.158  25.110  1.00  0.00    -0.237 OA
ATOM     73  O   UNL A   1      42.276  18.818  27.528  1.00  0.00    -0.237 OA
ATOM     74  O   UNL A   1      40.457  19.682  26.104  1.00  0.00    -0.744 OA
ENDBRANCH  70  71
ENDBRANCH  49  63
BRANCH  50  75
ATOM     75  C   UNL A   1      46.684  33.126  28.641  1.00  0.00     0.058 A 
ATOM     76  C   UNL A   1      47.272  33.511  29.857  1.00  0.00     0.135 A 
ATOM     77  C   UNL A   1      46.593  34.096  27.629  1.00  0.00     0.135 A 
ATOM     78  F   UNL A   1      47.378  32.627  30.861  1.00  0.00    -0.206 F 
ATOM     79  C   UNL A   1      47.740  34.806  30.065  1.00  0.00     0.059 A 
ATOM     80  C   UNL A   1      47.081  35.388  27.804  1.00  0.00     0.059 A 
ATOM     81  F   UNL A   1      46.053  33.779  26.442  1.00  0.00    -0.206 F 
ATOM     82  C   UNL A   1      47.646  35.735  29.028  1.00  0.00     0.060 A 
BRANCH  82  83
ATOM     83  S   UNL A   1      48.301  37.397  29.296  1.00  0.00     0.124 S 
ATOM     84  O   UNL A   1      49.487  37.387  28.449  1.00  0.00    -0.237 OA
ATOM     85  O   UNL A   1      47.196  38.234  28.841  1.00  0.00    -0.237 OA
ATOM     86  O   UNL A   1      48.553  37.432  30.734  1.00  0.00    -0.744 OA
ENDBRANCH  82  83
ENDBRANCH  50  75
BRANCH  62  87
ATOM     87  C   UNL A   1      49.547  27.330  25.949  1.00  0.00     0.058 A 
ATOM     88  C   UNL A   1      50.590  26.882  26.774  1.00  0.00     0.135 A 
ATOM     89  C   UNL A   1      49.762  27.336  24.561  1.00  0.00     0.135 A 
ATOM     90  F   UNL A   1      50.436  26.863  28.108  1.00  0.00    -0.206 F 
ATOM     91  C   UNL A   1      51.797  26.446  26.241  1.00  0.00     0.059 A 
ATOM     92  C   UNL A   1      50.950  26.874  24.005  1.00  0.00     0.059 A 
ATOM     93  F   UNL A   1      48.791  27.743  23.727  1.00  0.00    -0.206 F 
ATOM     94  C   UNL A   1      51.962  26.429  24.855  1.00  0.00     0.060 A 
BRANCH  94  95
ATOM     95  S   UNL A   1      53.503  25.775  24.182  1.00  0.00     0.124 S 
ATOM     96  O   UNL A   1      54.487  26.690  24.751  1.00  0.00    -0.237 OA
ATOM     97  O   UNL A   1      53.518  24.416  24.711  1.00  0.00    -0.237 OA
ATOM     98  O   UNL A   1      53.317  25.878  22.737  1.00  0.00    -0.744 OA
ENDBRANCH  94  95
ENDBRANCH  62  87
ENDBRANCH  36  37
ENDBRANCH  28  31
ENDBRANCH  26  27
ENDBRANCH   1  26
TORSDOF 16
ENDMDL
