MODEL 1
REMARK VINA RESULT:     -11.5      0.000      0.000
REMARK SMILES COCCNC(=O)c1cccc(NC(=O)[C@@H]2CCCC[C@H]2C(=O)NCCCCNC(=O)c2ccc(-c3c4nc(c(-c5c(F)cc(S(=O)(=O)[O-])cc5F)c5ccc([nH]5)c(-c5c(F)cc(S(=O)(=O)[O-])cc5F)c5nc(c(-c6c(F)cc(S(=O)(=O)[O-])cc6F)c6ccc3[nH]6)C=C5)C=C4)cc2)c1
REMARK SMILES IDX 25 1 24 2 22 3 23 4 21 6 16 7 17 8 18 9 20 10 19 11 14 12
REMARK SMILES IDX 13 13 15 15 12 16 8 17 9 18 98 19 10 20 11 21 6 22 5 23 7 25
REMARK SMILES IDX 4 26 3 27 2 28 1 29 26 30 27 31 28 32 29 33 30 34 31 36
REMARK SMILES IDX 32 37 33 38 97 39 34 40 96 41 35 42 36 43 37 44 90 45 38 46
REMARK SMILES IDX 95 47 89 48 91 49 39 50 94 51 88 52 87 53 40 55 74 56 53 57
REMARK SMILES IDX 73 58 54 59 57 60 72 61 92 62 55 63 56 64 71 66 93 67 58 68
REMARK SMILES IDX 41 69 42 70 51 71 43 72 44 73 50 74 52 75 45 76 46 77 47 78
REMARK SMILES IDX 48 79 49 80 75 81 76 82 85 83 77 84 78 85 84 86 86 87 79 88
REMARK SMILES IDX 80 89 81 90 82 91 83 92 59 93 60 94 69 95 61 96 62 97 68 98
REMARK SMILES IDX 70 99 63 100 64 101 65 102 66 103 67 104
REMARK H PARENT 24 5 13 14 5 24 29 35 91 54 57 65
REMARK Flexibility Score: inf
ROOT
ATOM      1  C   UNL A   1      32.248  26.053  26.054  1.00  0.00     0.116 C 
ENDROOT
BRANCH   1   2
ATOM      2  N   UNL A   1      31.441  24.976  25.512  1.00  0.00    -0.356 N 
ATOM      3  C   UNL A   1      31.761  23.769  24.968  1.00  0.00     0.223 C 
ATOM      4  O   UNL A   1      30.825  23.016  24.690  1.00  0.00    -0.275 OA
ATOM      5  H   UNL A   1      30.472  25.151  25.543  1.00  0.00     0.163 HD
BRANCH   3   6
ATOM      6  C   UNL A   1      33.207  23.308  24.769  1.00  0.00     0.091 C 
ATOM      7  C   UNL A   1      34.004  24.196  23.794  1.00  0.00     0.091 C 
ATOM      8  C   UNL A   1      35.465  23.737  23.720  1.00  0.00     0.014 C 
ATOM      9  C   UNL A   1      36.107  23.807  25.096  1.00  0.00     0.001 C 
ATOM     10  C   UNL A   1      33.892  23.144  26.141  1.00  0.00     0.014 C 
ATOM     11  C   UNL A   1      35.393  22.872  26.062  1.00  0.00     0.001 C 
BRANCH   7  12
ATOM     12  C   UNL A   1      33.435  24.243  22.391  1.00  0.00     0.228 C 
ATOM     13  N   UNL A   1      32.770  25.341  21.919  1.00  0.00    -0.326 N 
ATOM     14  H   UNL A   1      32.532  25.246  20.968  1.00  0.00     0.169 HD
ATOM     15  O   UNL A   1      33.620  23.318  21.596  1.00  0.00    -0.274 OA
BRANCH  13  16
ATOM     16  C   UNL A   1      32.337  26.575  22.450  1.00  0.00     0.041 A 
ATOM     17  C   UNL A   1      30.392  27.919  23.061  1.00  0.00     0.041 A 
ATOM     18  C   UNL A   1      31.215  28.959  23.487  1.00  0.00     0.014 A 
ATOM     19  C   UNL A   1      30.949  26.745  22.532  1.00  0.00     0.040 A 
ATOM     20  C   UNL A   1      32.592  28.806  23.413  1.00  0.00     0.003 A 
ATOM     21  C   UNL A   1      33.143  27.625  22.898  1.00  0.00     0.026 A 
BRANCH  17  22
ATOM     22  C   UNL A   1      28.933  28.134  23.053  1.00  0.00     0.251 C 
ATOM     23  N   UNL A   1      28.397  29.268  22.508  1.00  0.00    -0.350 N 
ATOM     24  H   UNL A   1      27.471  29.460  22.782  1.00  0.00     0.163 HD
ATOM     25  O   UNL A   1      28.200  27.290  23.563  1.00  0.00    -0.269 OA
BRANCH  23  26
ATOM     26  C   UNL A   1      28.978  30.239  21.587  1.00  0.00     0.144 C 
BRANCH  26  27
ATOM     27  C   UNL A   1      29.001  31.661  22.161  1.00  0.00     0.181 C 
BRANCH  27  28
ATOM     28  O   UNL A   1      27.794  32.380  21.897  1.00  0.00    -0.383 OA
ATOM     29  C   UNL A   1      27.693  32.883  20.573  1.00  0.00     0.194 C 
ENDBRANCH  27  28
ENDBRANCH  26  27
ENDBRANCH  23  26
ENDBRANCH  17  22
ENDBRANCH  13  16
ENDBRANCH   7  12
ENDBRANCH   3   6
ENDBRANCH   1   2
BRANCH   1  30
ATOM     30  C   UNL A   1      31.386  27.180  26.620  1.00  0.00     0.023 C 
BRANCH  30  31
ATOM     31  C   UNL A   1      32.104  28.103  27.604  1.00  0.00     0.023 C 
BRANCH  31  32
ATOM     32  C   UNL A   1      33.456  28.630  27.135  1.00  0.00     0.116 C 
BRANCH  32  33
ATOM     33  N   UNL A   1      33.535  30.083  27.125  1.00  0.00    -0.352 N 
ATOM     34  C   UNL A   1      34.533  30.894  27.615  1.00  0.00     0.251 C 
ATOM     35  H   UNL A   1      32.771  30.549  26.713  1.00  0.00     0.163 HD
ATOM     36  O   UNL A   1      34.388  32.111  27.626  1.00  0.00    -0.269 OA
BRANCH  34  37
ATOM     37  C   UNL A   1      35.762  30.278  28.160  1.00  0.00     0.039 A 
ATOM     38  C   UNL A   1      36.928  30.303  27.390  1.00  0.00     0.014 A 
ATOM     39  C   UNL A   1      35.774  29.730  29.444  1.00  0.00     0.014 A 
ATOM     40  C   UNL A   1      38.128  29.852  27.943  1.00  0.00     0.010 A 
ATOM     41  C   UNL A   1      36.982  29.345  30.017  1.00  0.00     0.010 A 
ATOM     42  C   UNL A   1      38.173  29.411  29.277  1.00  0.00    -0.014 A 
BRANCH  42  43
ATOM     43  C   UNL A   1      39.454  29.043  29.930  1.00  0.00     0.031 A 
ATOM     44  C   UNL A   1      39.984  29.868  31.069  1.00  0.00     0.074 A 
ATOM     45  C   UNL A   1      40.185  28.025  29.433  1.00  0.00     0.049 A 
ATOM     46  N   UNL A   1      41.129  29.775  31.692  1.00  0.00    -0.248 NA
ATOM     47  C   UNL A   1      39.125  30.962  31.550  1.00  0.00     0.031 C 
ATOM     48  C   UNL A   1      39.804  27.187  28.294  1.00  0.00     0.029 A 
ATOM     49  N   UNL A   1      41.413  27.538  29.805  1.00  0.00    -0.354 N 
ATOM     50  C   UNL A   1      41.141  30.808  32.621  1.00  0.00     0.074 A 
ATOM     51  C   UNL A   1      39.905  31.541  32.452  1.00  0.00     0.031 C 
ATOM     52  C   UNL A   1      40.773  26.286  28.067  1.00  0.00     0.029 A 
ATOM     53  C   UNL A   1      41.861  26.506  29.015  1.00  0.00     0.049 A 
ATOM     54  H   UNL A   1      41.925  27.895  30.567  1.00  0.00     0.167 HD
ATOM     55  C   UNL A   1      42.087  31.106  33.543  1.00  0.00     0.037 A 
ATOM     56  C   UNL A   1      43.023  25.825  29.038  1.00  0.00     0.037 A 
ATOM     57  C   UNL A   1      43.298  30.351  33.728  1.00  0.00     0.049 A 
ATOM     58  C   UNL A   1      44.056  26.169  30.075  1.00  0.00     0.074 A 
ATOM     59  C   UNL A   1      44.273  30.515  34.695  1.00  0.00     0.029 A 
ATOM     60  N   UNL A   1      43.705  29.297  32.923  1.00  0.00    -0.354 N 
ATOM     61  N   UNL A   1      44.013  27.096  31.002  1.00  0.00    -0.248 NA
ATOM     62  C   UNL A   1      45.296  25.380  30.068  1.00  0.00     0.031 C 
ATOM     63  C   UNL A   1      45.293  29.589  34.449  1.00  0.00     0.029 A 
ATOM     64  C   UNL A   1      44.933  28.821  33.353  1.00  0.00     0.049 A 
ATOM     65  H   UNL A   1      43.197  28.939  32.160  1.00  0.00     0.167 HD
ATOM     66  C   UNL A   1      45.213  26.995  31.696  1.00  0.00     0.074 A 
ATOM     67  C   UNL A   1      45.954  25.905  31.093  1.00  0.00     0.031 C 
ATOM     68  C   UNL A   1      45.661  27.740  32.736  1.00  0.00     0.037 A 
BRANCH  55  69
ATOM     69  C   UNL A   1      41.846  32.301  34.424  1.00  0.00     0.058 A 
ATOM     70  C   UNL A   1      41.104  32.204  35.612  1.00  0.00     0.135 A 
ATOM     71  C   UNL A   1      42.385  33.553  34.087  1.00  0.00     0.135 A 
ATOM     72  F   UNL A   1      40.555  31.033  35.973  1.00  0.00    -0.206 F 
ATOM     73  C   UNL A   1      40.874  33.314  36.417  1.00  0.00     0.059 A 
ATOM     74  C   UNL A   1      42.189  34.672  34.892  1.00  0.00     0.059 A 
ATOM     75  F   UNL A   1      43.102  33.701  32.963  1.00  0.00    -0.206 F 
ATOM     76  C   UNL A   1      41.417  34.545  36.047  1.00  0.00     0.060 A 
BRANCH  76  77
ATOM     77  S   UNL A   1      41.101  35.979  37.098  1.00  0.00     0.124 S 
ATOM     78  O   UNL A   1      40.971  35.352  38.411  1.00  0.00    -0.237 OA
ATOM     79  O   UNL A   1      42.300  36.785  36.897  1.00  0.00    -0.237 OA
ATOM     80  O   UNL A   1      39.873  36.540  36.547  1.00  0.00    -0.744 OA
ENDBRANCH  76  77
ENDBRANCH  55  69
BRANCH  56  81
ATOM     81  C   UNL A   1      43.263  24.745  28.045  1.00  0.00     0.058 A 
ATOM     82  C   UNL A   1      43.847  25.025  26.801  1.00  0.00     0.135 A 
ATOM     83  C   UNL A   1      42.951  23.408  28.335  1.00  0.00     0.135 A 
ATOM     84  F   UNL A   1      44.156  26.290  26.476  1.00  0.00    -0.206 F 
ATOM     85  C   UNL A   1      44.108  24.021  25.876  1.00  0.00     0.059 A 
ATOM     86  C   UNL A   1      43.222  22.382  27.436  1.00  0.00     0.059 A 
ATOM     87  F   UNL A   1      42.407  23.086  29.519  1.00  0.00    -0.206 F 
ATOM     88  C   UNL A   1      43.797  22.699  26.205  1.00  0.00     0.060 A 
BRANCH  88  89
ATOM     89  S   UNL A   1      44.208  21.393  25.028  1.00  0.00     0.124 S 
ATOM     90  O   UNL A   1      43.140  20.431  25.271  1.00  0.00    -0.237 OA
ATOM     91  O   UNL A   1      44.153  22.102  23.752  1.00  0.00    -0.237 OA
ATOM     92  O   UNL A   1      45.543  20.976  25.445  1.00  0.00    -0.744 OA
ENDBRANCH  88  89
ENDBRANCH  56  81
BRANCH  68  93
ATOM     93  C   UNL A   1      47.016  27.405  33.294  1.00  0.00     0.058 A 
ATOM     94  C   UNL A   1      48.169  28.084  32.872  1.00  0.00     0.135 A 
ATOM     95  C   UNL A   1      47.154  26.444  34.309  1.00  0.00     0.135 A 
ATOM     96  F   UNL A   1      48.092  29.005  31.898  1.00  0.00    -0.206 F 
ATOM     97  C   UNL A   1      49.415  27.815  33.429  1.00  0.00     0.059 A 
ATOM     98  C   UNL A   1      48.386  26.176  34.897  1.00  0.00     0.059 A 
ATOM     99  F   UNL A   1      46.080  25.772  34.753  1.00  0.00    -0.206 F 
ATOM    100  C   UNL A   1      49.512  26.862  34.444  1.00  0.00     0.060 A 
BRANCH 100 101
ATOM    101  S   UNL A   1      51.127  26.559  35.195  1.00  0.00     0.124 S 
ATOM    102  O   UNL A   1      51.059  25.128  35.470  1.00  0.00    -0.237 OA
ATOM    103  O   UNL A   1      52.045  26.958  34.132  1.00  0.00    -0.237 OA
ATOM    104  O   UNL A   1      51.123  27.426  36.369  1.00  0.00    -0.744 OA
ENDBRANCH 100 101
ENDBRANCH  68  93
ENDBRANCH  42  43
ENDBRANCH  34  37
ENDBRANCH  32  33
ENDBRANCH  31  32
ENDBRANCH  30  31
ENDBRANCH   1  30
TORSDOF 20
ENDMDL
MODEL 2
REMARK VINA RESULT:     -11.4      3.330      8.898
REMARK SMILES COCCNC(=O)c1cccc(NC(=O)[C@@H]2CCCC[C@H]2C(=O)NCCCCNC(=O)c2ccc(-c3c4nc(c(-c5c(F)cc(S(=O)(=O)[O-])cc5F)c5ccc([nH]5)c(-c5c(F)cc(S(=O)(=O)[O-])cc5F)c5nc(c(-c6c(F)cc(S(=O)(=O)[O-])cc6F)c6ccc3[nH]6)C=C5)C=C4)cc2)c1
REMARK SMILES IDX 25 1 24 2 22 3 23 4 21 6 16 7 17 8 18 9 20 10 19 11 14 12
REMARK SMILES IDX 13 13 15 15 12 16 8 17 9 18 98 19 10 20 11 21 6 22 5 23 7 25
REMARK SMILES IDX 4 26 3 27 2 28 1 29 26 30 27 31 28 32 29 33 30 34 31 36
REMARK SMILES IDX 32 37 33 38 97 39 34 40 96 41 35 42 36 43 37 44 90 45 38 46
REMARK SMILES IDX 95 47 89 48 91 49 39 50 94 51 88 52 87 53 40 55 74 56 53 57
REMARK SMILES IDX 73 58 54 59 57 60 72 61 92 62 55 63 56 64 71 66 93 67 58 68
REMARK SMILES IDX 41 69 42 70 51 71 43 72 44 73 50 74 52 75 45 76 46 77 47 78
REMARK SMILES IDX 48 79 49 80 75 81 76 82 85 83 77 84 78 85 84 86 86 87 79 88
REMARK SMILES IDX 80 89 81 90 82 91 83 92 59 93 60 94 69 95 61 96 62 97 68 98
REMARK SMILES IDX 70 99 63 100 64 101 65 102 66 103 67 104
REMARK H PARENT 24 5 13 14 5 24 29 35 91 54 57 65
REMARK Flexibility Score: inf
ROOT
ATOM      1  C   UNL A   1      36.573  23.691  25.929  1.00  0.00     0.116 C 
ENDROOT
BRANCH   1   2
ATOM      2  N   UNL A   1      35.780  24.866  25.614  1.00  0.00    -0.356 N 
ATOM      3  C   UNL A   1      34.494  25.024  25.197  1.00  0.00     0.223 C 
ATOM      4  O   UNL A   1      34.071  26.180  25.116  1.00  0.00    -0.275 OA
ATOM      5  H   UNL A   1      36.268  25.715  25.723  1.00  0.00     0.163 HD
BRANCH   3   6
ATOM      6  C   UNL A   1      33.565  23.842  24.909  1.00  0.00     0.091 C 
ATOM      7  C   UNL A   1      32.073  24.175  25.103  1.00  0.00     0.091 C 
ATOM      8  C   UNL A   1      31.199  22.980  24.703  1.00  0.00     0.014 C 
ATOM      9  C   UNL A   1      31.444  22.614  23.248  1.00  0.00     0.001 C 
ATOM     10  C   UNL A   1      33.884  23.259  23.517  1.00  0.00     0.014 C 
ATOM     11  C   UNL A   1      32.894  22.197  23.043  1.00  0.00     0.001 C 
BRANCH   7  12
ATOM     12  C   UNL A   1      31.708  24.597  26.511  1.00  0.00     0.228 C 
ATOM     13  N   UNL A   1      31.368  25.887  26.811  1.00  0.00    -0.326 N 
ATOM     14  H   UNL A   1      31.083  25.983  27.749  1.00  0.00     0.169 HD
ATOM     15  O   UNL A   1      31.630  23.772  27.425  1.00  0.00    -0.274 OA
BRANCH  13  16
ATOM     16  C   UNL A   1      31.323  27.116  26.117  1.00  0.00     0.041 A 
ATOM     17  C   UNL A   1      30.577  28.237  24.081  1.00  0.00     0.041 A 
ATOM     18  C   UNL A   1      31.098  29.450  24.530  1.00  0.00     0.014 A 
ATOM     19  C   UNL A   1      30.704  27.079  24.861  1.00  0.00     0.040 A 
ATOM     20  C   UNL A   1      31.713  29.503  25.772  1.00  0.00     0.003 A 
ATOM     21  C   UNL A   1      31.824  28.345  26.554  1.00  0.00     0.026 A 
BRANCH  17  22
ATOM     22  C   UNL A   1      30.015  28.175  22.719  1.00  0.00     0.251 C 
ATOM     23  N   UNL A   1      28.848  28.819  22.415  1.00  0.00    -0.350 N 
ATOM     24  H   UNL A   1      28.408  28.510  21.590  1.00  0.00     0.163 HD
ATOM     25  O   UNL A   1      30.596  27.516  21.860  1.00  0.00    -0.269 OA
BRANCH  23  26
ATOM     26  C   UNL A   1      28.150  29.891  23.118  1.00  0.00     0.144 C 
BRANCH  26  27
ATOM     27  C   UNL A   1      28.142  31.208  22.333  1.00  0.00     0.181 C 
BRANCH  27  28
ATOM     28  O   UNL A   1      27.919  32.345  23.169  1.00  0.00    -0.383 OA
ATOM     29  C   UNL A   1      28.867  33.388  23.002  1.00  0.00     0.194 C 
ENDBRANCH  27  28
ENDBRANCH  26  27
ENDBRANCH  23  26
ENDBRANCH  17  22
ENDBRANCH  13  16
ENDBRANCH   7  12
ENDBRANCH   3   6
ENDBRANCH   1   2
BRANCH   1  30
ATOM     30  C   UNL A   1      38.041  24.042  26.163  1.00  0.00     0.023 C 
BRANCH  30  31
ATOM     31  C   UNL A   1      38.921  22.864  26.580  1.00  0.00     0.023 C 
BRANCH  31  32
ATOM     32  C   UNL A   1      40.323  23.234  27.053  1.00  0.00     0.116 C 
BRANCH  32  33
ATOM     33  N   UNL A   1      41.113  23.914  26.037  1.00  0.00    -0.352 N 
ATOM     34  C   UNL A   1      41.696  25.159  26.092  1.00  0.00     0.251 C 
ATOM     35  H   UNL A   1      41.246  23.417  25.198  1.00  0.00     0.163 HD
ATOM     36  O   UNL A   1      42.236  25.630  25.097  1.00  0.00    -0.269 OA
BRANCH  34  37
ATOM     37  C   UNL A   1      41.631  25.934  27.350  1.00  0.00     0.039 A 
ATOM     38  C   UNL A   1      42.686  26.791  27.670  1.00  0.00     0.014 A 
ATOM     39  C   UNL A   1      40.509  25.852  28.178  1.00  0.00     0.014 A 
ATOM     40  C   UNL A   1      42.578  27.632  28.781  1.00  0.00     0.010 A 
ATOM     41  C   UNL A   1      40.374  26.738  29.243  1.00  0.00     0.010 A 
ATOM     42  C   UNL A   1      41.402  27.643  29.549  1.00  0.00    -0.014 A 
BRANCH  42  43
ATOM     43  C   UNL A   1      41.209  28.611  30.658  1.00  0.00     0.031 A 
ATOM     44  C   UNL A   1      42.022  28.489  31.916  1.00  0.00     0.074 A 
ATOM     45  C   UNL A   1      40.234  29.538  30.569  1.00  0.00     0.049 A 
ATOM     46  N   UNL A   1      41.923  29.163  33.031  1.00  0.00    -0.248 NA
ATOM     47  C   UNL A   1      43.064  27.450  31.932  1.00  0.00     0.031 C 
ATOM     48  C   UNL A   1      39.340  29.719  29.423  1.00  0.00     0.029 A 
ATOM     49  N   UNL A   1      39.814  30.487  31.468  1.00  0.00    -0.354 N 
ATOM     50  C   UNL A   1      42.869  28.619  33.889  1.00  0.00     0.074 A 
ATOM     51  C   UNL A   1      43.505  27.529  33.179  1.00  0.00     0.031 C 
ATOM     52  C   UNL A   1      38.485  30.720  29.684  1.00  0.00     0.029 A 
ATOM     53  C   UNL A   1      38.741  31.227  31.029  1.00  0.00     0.049 A 
ATOM     54  H   UNL A   1      40.241  30.624  32.344  1.00  0.00     0.167 HD
ATOM     55  C   UNL A   1      43.191  29.003  35.148  1.00  0.00     0.037 A 
ATOM     56  C   UNL A   1      38.031  32.191  31.646  1.00  0.00     0.037 A 
ATOM     57  C   UNL A   1      42.578  30.108  35.835  1.00  0.00     0.049 A 
ATOM     58  C   UNL A   1      38.411  32.606  33.040  1.00  0.00     0.074 A 
ATOM     59  C   UNL A   1      42.899  30.636  37.072  1.00  0.00     0.029 A 
ATOM     60  N   UNL A   1      41.510  30.850  35.348  1.00  0.00    -0.354 N 
ATOM     61  N   UNL A   1      39.367  32.136  33.805  1.00  0.00    -0.248 NA
ATOM     62  C   UNL A   1      37.617  33.678  33.656  1.00  0.00     0.031 C 
ATOM     63  C   UNL A   1      41.997  31.668  37.355  1.00  0.00     0.029 A 
ATOM     64  C   UNL A   1      41.140  31.810  36.275  1.00  0.00     0.049 A 
ATOM     65  H   UNL A   1      41.080  30.714  34.473  1.00  0.00     0.167 HD
ATOM     66  C   UNL A   1      39.296  32.862  34.989  1.00  0.00     0.074 A 
ATOM     67  C   UNL A   1      38.216  33.814  34.832  1.00  0.00     0.031 C 
ATOM     68  C   UNL A   1      40.056  32.746  36.106  1.00  0.00     0.037 A 
BRANCH  55  69
ATOM     69  C   UNL A   1      44.259  28.220  35.860  1.00  0.00     0.058 A 
ATOM     70  C   UNL A   1      43.955  27.079  36.619  1.00  0.00     0.135 A 
ATOM     71  C   UNL A   1      45.607  28.601  35.762  1.00  0.00     0.135 A 
ATOM     72  F   UNL A   1      42.681  26.679  36.758  1.00  0.00    -0.206 F 
ATOM     73  C   UNL A   1      44.944  26.365  37.286  1.00  0.00     0.059 A 
ATOM     74  C   UNL A   1      46.617  27.885  36.399  1.00  0.00     0.059 A 
ATOM     75  F   UNL A   1      45.954  29.684  35.048  1.00  0.00    -0.206 F 
ATOM     76  C   UNL A   1      46.273  26.778  37.173  1.00  0.00     0.060 A 
BRANCH  76  77
ATOM     77  S   UNL A   1      47.544  25.845  38.052  1.00  0.00     0.124 S 
ATOM     78  O   UNL A   1      47.974  24.902  37.024  1.00  0.00    -0.237 OA
ATOM     79  O   UNL A   1      48.508  26.882  38.402  1.00  0.00    -0.237 OA
ATOM     80  O   UNL A   1      46.820  25.260  39.176  1.00  0.00    -0.744 OA
ENDBRANCH  76  77
ENDBRANCH  55  69
BRANCH  56  81
ATOM     81  C   UNL A   1      36.890  32.832  30.939  1.00  0.00     0.058 A 
ATOM     82  C   UNL A   1      37.108  33.800  29.949  1.00  0.00     0.135 A 
ATOM     83  C   UNL A   1      35.564  32.462  31.213  1.00  0.00     0.135 A 
ATOM     84  F   UNL A   1      38.358  34.191  29.657  1.00  0.00    -0.206 F 
ATOM     85  C   UNL A   1      36.052  34.384  29.257  1.00  0.00     0.059 A 
ATOM     86  C   UNL A   1      34.493  33.015  30.521  1.00  0.00     0.059 A 
ATOM     87  F   UNL A   1      35.305  31.527  32.142  1.00  0.00    -0.206 F 
ATOM     88  C   UNL A   1      34.747  33.980  29.546  1.00  0.00     0.060 A 
BRANCH  88  89
ATOM     89  S   UNL A   1      33.389  34.690  28.590  1.00  0.00     0.124 S 
ATOM     90  O   UNL A   1      32.459  35.076  29.644  1.00  0.00    -0.237 OA
ATOM     91  O   UNL A   1      34.049  35.785  27.886  1.00  0.00    -0.237 OA
ATOM     92  O   UNL A   1      32.961  33.580  27.744  1.00  0.00    -0.744 OA
ENDBRANCH  88  89
ENDBRANCH  56  81
BRANCH  68  93
ATOM     93  C   UNL A   1      39.751  33.672  37.250  1.00  0.00     0.058 A 
ATOM     94  C   UNL A   1      38.894  33.288  38.292  1.00  0.00     0.135 A 
ATOM     95  C   UNL A   1      40.373  34.927  37.339  1.00  0.00     0.135 A 
ATOM     96  F   UNL A   1      38.267  32.101  38.249  1.00  0.00    -0.206 F 
ATOM     97  C   UNL A   1      38.656  34.121  39.381  1.00  0.00     0.059 A 
ATOM     98  C   UNL A   1      40.168  35.766  38.430  1.00  0.00     0.059 A 
ATOM     99  F   UNL A   1      41.207  35.338  36.372  1.00  0.00    -0.206 F 
ATOM    100  C   UNL A   1      39.301  35.357  39.442  1.00  0.00     0.060 A 
BRANCH 100 101
ATOM    101  S   UNL A   1      39.023  36.407  40.885  1.00  0.00     0.124 S 
ATOM    102  O   UNL A   1      40.341  36.400  41.511  1.00  0.00    -0.237 OA
ATOM    103  O   UNL A   1      38.617  37.671  40.277  1.00  0.00    -0.237 OA
ATOM    104  O   UNL A   1      37.975  35.706  41.619  1.00  0.00    -0.744 OA
ENDBRANCH 100 101
ENDBRANCH  68  93
ENDBRANCH  42  43
ENDBRANCH  34  37
ENDBRANCH  32  33
ENDBRANCH  31  32
ENDBRANCH  30  31
ENDBRANCH   1  30
TORSDOF 20
ENDMDL
MODEL 3
REMARK VINA RESULT:     -11.3      1.005      2.006
REMARK SMILES COCCNC(=O)c1cccc(NC(=O)[C@@H]2CCCC[C@H]2C(=O)NCCCCNC(=O)c2ccc(-c3c4nc(c(-c5c(F)cc(S(=O)(=O)[O-])cc5F)c5ccc([nH]5)c(-c5c(F)cc(S(=O)(=O)[O-])cc5F)c5nc(c(-c6c(F)cc(S(=O)(=O)[O-])cc6F)c6ccc3[nH]6)C=C5)C=C4)cc2)c1
REMARK SMILES IDX 25 1 24 2 22 3 23 4 21 6 16 7 17 8 18 9 20 10 19 11 14 12
REMARK SMILES IDX 13 13 15 15 12 16 8 17 9 18 98 19 10 20 11 21 6 22 5 23 7 25
REMARK SMILES IDX 4 26 3 27 2 28 1 29 26 30 27 31 28 32 29 33 30 34 31 36
REMARK SMILES IDX 32 37 33 38 97 39 34 40 96 41 35 42 36 43 37 44 90 45 38 46
REMARK SMILES IDX 95 47 89 48 91 49 39 50 94 51 88 52 87 53 40 55 74 56 53 57
REMARK SMILES IDX 73 58 54 59 57 60 72 61 92 62 55 63 56 64 71 66 93 67 58 68
REMARK SMILES IDX 41 69 42 70 51 71 43 72 44 73 50 74 52 75 45 76 46 77 47 78
REMARK SMILES IDX 48 79 49 80 75 81 76 82 85 83 77 84 78 85 84 86 86 87 79 88
REMARK SMILES IDX 80 89 81 90 82 91 83 92 59 93 60 94 69 95 61 96 62 97 68 98
REMARK SMILES IDX 70 99 63 100 64 101 65 102 66 103 67 104
REMARK H PARENT 24 5 13 14 5 24 29 35 91 54 57 65
REMARK Flexibility Score: inf
ROOT
ATOM      1  C   UNL A   1      32.585  25.744  26.420  1.00  0.00     0.116 C 
ENDROOT
BRANCH   1   2
ATOM      2  N   UNL A   1      31.517  24.826  26.774  1.00  0.00    -0.356 N 
ATOM      3  C   UNL A   1      31.283  23.522  26.462  1.00  0.00     0.223 C 
ATOM      4  O   UNL A   1      30.323  22.979  27.015  1.00  0.00    -0.275 OA
ATOM      5  H   UNL A   1      30.827  25.225  27.353  1.00  0.00     0.163 HD
BRANCH   3   6
ATOM      6  C   UNL A   1      32.193  22.716  25.532  1.00  0.00     0.091 C 
ATOM      7  C   UNL A   1      32.508  23.438  24.208  1.00  0.00     0.091 C 
ATOM      8  C   UNL A   1      33.501  22.621  23.372  1.00  0.00     0.014 C 
ATOM      9  C   UNL A   1      34.793  22.414  24.147  1.00  0.00     0.001 C 
ATOM     10  C   UNL A   1      33.456  22.273  26.299  1.00  0.00     0.014 C 
ATOM     11  C   UNL A   1      34.525  21.626  25.422  1.00  0.00     0.001 C 
BRANCH   7  12
ATOM     12  C   UNL A   1      31.289  23.740  23.360  1.00  0.00     0.228 C 
ATOM     13  N   UNL A   1      31.121  24.950  22.745  1.00  0.00    -0.326 N 
ATOM     14  H   UNL A   1      30.321  24.962  22.171  1.00  0.00     0.169 HD
ATOM     15  O   UNL A   1      30.440  22.875  23.132  1.00  0.00    -0.274 OA
BRANCH  13  16
ATOM     16  C   UNL A   1      31.802  26.186  22.727  1.00  0.00     0.041 A 
ATOM     17  C   UNL A   1      31.698  28.538  23.375  1.00  0.00     0.041 A 
ATOM     18  C   UNL A   1      32.957  28.770  22.825  1.00  0.00     0.014 A 
ATOM     19  C   UNL A   1      31.120  27.261  23.311  1.00  0.00     0.040 A 
ATOM     20  C   UNL A   1      33.645  27.715  22.244  1.00  0.00     0.003 A 
ATOM     21  C   UNL A   1      33.070  26.438  22.196  1.00  0.00     0.026 A 
BRANCH  17  22
ATOM     22  C   UNL A   1      30.937  29.687  23.901  1.00  0.00     0.251 C 
ATOM     23  N   UNL A   1      30.092  30.394  23.091  1.00  0.00    -0.350 N 
ATOM     24  H   UNL A   1      29.843  31.284  23.430  1.00  0.00     0.163 HD
ATOM     25  O   UNL A   1      31.086  30.019  25.074  1.00  0.00    -0.269 OA
BRANCH  23  26
ATOM     26  C   UNL A   1      29.501  30.041  21.804  1.00  0.00     0.144 C 
BRANCH  26  27
ATOM     27  C   UNL A   1      27.977  30.209  21.786  1.00  0.00     0.181 C 
BRANCH  27  28
ATOM     28  O   UNL A   1      27.380  29.951  23.059  1.00  0.00    -0.383 OA
ATOM     29  C   UNL A   1      27.021  28.593  23.271  1.00  0.00     0.194 C 
ENDBRANCH  27  28
ENDBRANCH  26  27
ENDBRANCH  23  26
ENDBRANCH  17  22
ENDBRANCH  13  16
ENDBRANCH   7  12
ENDBRANCH   3   6
ENDBRANCH   1   2
BRANCH   1  30
ATOM     30  C   UNL A   1      32.170  27.201  26.615  1.00  0.00     0.023 C 
BRANCH  30  31
ATOM     31  C   UNL A   1      33.210  28.073  27.317  1.00  0.00     0.023 C 
BRANCH  31  32
ATOM     32  C   UNL A   1      34.039  28.965  26.399  1.00  0.00     0.116 C 
BRANCH  32  33
ATOM     33  N   UNL A   1      33.958  30.378  26.743  1.00  0.00    -0.352 N 
ATOM     34  C   UNL A   1      34.788  31.113  27.559  1.00  0.00     0.251 C 
ATOM     35  H   UNL A   1      33.210  30.873  26.338  1.00  0.00     0.163 HD
ATOM     36  O   UNL A   1      34.509  32.275  27.833  1.00  0.00    -0.269 OA
BRANCH  34  37
ATOM     37  C   UNL A   1      35.993  30.474  28.129  1.00  0.00     0.039 A 
ATOM     38  C   UNL A   1      37.229  30.696  27.517  1.00  0.00     0.014 A 
ATOM     39  C   UNL A   1      35.908  29.705  29.292  1.00  0.00     0.014 A 
ATOM     40  C   UNL A   1      38.393  30.216  28.120  1.00  0.00     0.010 A 
ATOM     41  C   UNL A   1      37.074  29.287  29.927  1.00  0.00     0.010 A 
ATOM     42  C   UNL A   1      38.328  29.547  29.353  1.00  0.00    -0.014 A 
BRANCH  42  43
ATOM     43  C   UNL A   1      39.556  29.135  30.078  1.00  0.00     0.031 A 
ATOM     44  C   UNL A   1      40.020  29.911  31.279  1.00  0.00     0.074 A 
ATOM     45  C   UNL A   1      40.304  28.122  29.596  1.00  0.00     0.049 A 
ATOM     46  N   UNL A   1      41.118  29.776  31.974  1.00  0.00    -0.248 NA
ATOM     47  C   UNL A   1      39.146  31.002  31.739  1.00  0.00     0.031 C 
ATOM     48  C   UNL A   1      39.989  27.329  28.406  1.00  0.00     0.029 A 
ATOM     49  N   UNL A   1      41.497  27.601  30.033  1.00  0.00    -0.354 N 
ATOM     50  C   UNL A   1      41.082  30.777  32.937  1.00  0.00     0.074 A 
ATOM     51  C   UNL A   1      39.872  31.537  32.711  1.00  0.00     0.031 C 
ATOM     52  C   UNL A   1      40.958  26.420  28.212  1.00  0.00     0.029 A 
ATOM     53  C   UNL A   1      41.981  26.589  29.239  1.00  0.00     0.049 A 
ATOM     54  H   UNL A   1      41.961  27.922  30.840  1.00  0.00     0.167 HD
ATOM     55  C   UNL A   1      41.968  31.027  33.931  1.00  0.00     0.037 A 
ATOM     56  C   UNL A   1      43.129  25.887  29.316  1.00  0.00     0.037 A 
ATOM     57  C   UNL A   1      43.153  30.245  34.170  1.00  0.00     0.049 A 
ATOM     58  C   UNL A   1      44.095  26.178  30.432  1.00  0.00     0.074 A 
ATOM     59  C   UNL A   1      44.061  30.360  35.207  1.00  0.00     0.029 A 
ATOM     60  N   UNL A   1      43.598  29.212  33.359  1.00  0.00    -0.354 N 
ATOM     61  N   UNL A   1      44.002  27.073  31.386  1.00  0.00    -0.248 NA
ATOM     62  C   UNL A   1      45.320  25.368  30.481  1.00  0.00     0.031 C 
ATOM     63  C   UNL A   1      45.082  29.424  34.997  1.00  0.00     0.029 A 
ATOM     64  C   UNL A   1      44.786  28.700  33.853  1.00  0.00     0.049 A 
ATOM     65  H   UNL A   1      43.137  28.890  32.550  1.00  0.00     0.167 HD
ATOM     66  C   UNL A   1      45.151  26.927  32.155  1.00  0.00     0.074 A 
ATOM     67  C   UNL A   1      45.915  25.846  31.566  1.00  0.00     0.031 C 
ATOM     68  C   UNL A   1      45.538  27.628  33.249  1.00  0.00     0.037 A 
BRANCH  55  69
ATOM     69  C   UNL A   1      41.685  32.195  34.835  1.00  0.00     0.058 A 
ATOM     70  C   UNL A   1      42.242  33.462  34.599  1.00  0.00     0.135 A 
ATOM     71  C   UNL A   1      40.826  32.050  35.936  1.00  0.00     0.135 A 
ATOM     72  F   UNL A   1      43.081  33.651  33.568  1.00  0.00    -0.206 F 
ATOM     73  C   UNL A   1      41.986  34.536  35.444  1.00  0.00     0.059 A 
ATOM     74  C   UNL A   1      40.535  33.119  36.780  1.00  0.00     0.059 A 
ATOM     75  F   UNL A   1      40.266  30.861  36.207  1.00  0.00    -0.206 F 
ATOM     76  C   UNL A   1      41.134  34.354  36.535  1.00  0.00     0.060 A 
BRANCH  76  77
ATOM     77  S   UNL A   1      40.820  35.756  37.628  1.00  0.00     0.124 S 
ATOM     78  O   UNL A   1      39.842  36.514  36.852  1.00  0.00    -0.237 OA
ATOM     79  O   UNL A   1      40.309  35.108  38.830  1.00  0.00    -0.237 OA
ATOM     80  O   UNL A   1      42.132  36.381  37.765  1.00  0.00    -0.744 OA
ENDBRANCH  76  77
ENDBRANCH  55  69
BRANCH  56  81
ATOM     81  C   UNL A   1      43.420  24.838  28.305  1.00  0.00     0.058 A 
ATOM     82  C   UNL A   1      42.999  23.514  28.497  1.00  0.00     0.135 A 
ATOM     83  C   UNL A   1      44.091  25.144  27.110  1.00  0.00     0.135 A 
ATOM     84  F   UNL A   1      42.360  23.172  29.626  1.00  0.00    -0.206 F 
ATOM     85  C   UNL A   1      43.235  22.529  27.545  1.00  0.00     0.059 A 
ATOM     86  C   UNL A   1      44.321  24.181  26.134  1.00  0.00     0.059 A 
ATOM     87  F   UNL A   1      44.500  26.400  26.872  1.00  0.00    -0.206 F 
ATOM     88  C   UNL A   1      43.893  22.873  26.361  1.00  0.00     0.060 A 
BRANCH  88  89
ATOM     89  S   UNL A   1      44.129  21.604  25.099  1.00  0.00     0.124 S 
ATOM     90  O   UNL A   1      45.484  21.150  25.389  1.00  0.00    -0.237 OA
ATOM     91  O   UNL A   1      43.059  20.660  25.410  1.00  0.00    -0.237 OA
ATOM     92  O   UNL A   1      43.960  22.340  23.850  1.00  0.00    -0.744 OA
ENDBRANCH  88  89
ENDBRANCH  56  81
BRANCH  68  93
ATOM     93  C   UNL A   1      46.847  27.251  33.885  1.00  0.00     0.058 A 
ATOM     94  C   UNL A   1      46.928  26.224  34.837  1.00  0.00     0.135 A 
ATOM     95  C   UNL A   1      48.040  27.876  33.489  1.00  0.00     0.135 A 
ATOM     96  F   UNL A   1      45.814  25.601  35.256  1.00  0.00    -0.206 F 
ATOM     97  C   UNL A   1      48.146  25.834  35.383  1.00  0.00     0.059 A 
ATOM     98  C   UNL A   1      49.272  27.487  34.005  1.00  0.00     0.059 A 
ATOM     99  F   UNL A   1      48.017  28.860  32.576  1.00  0.00    -0.206 F 
ATOM    100  C   UNL A   1      49.314  26.469  34.958  1.00  0.00     0.060 A 
BRANCH 100 101
ATOM    101  S   UNL A   1      50.894  25.920  35.637  1.00  0.00     0.124 S 
ATOM    102  O   UNL A   1      50.580  24.556  36.047  1.00  0.00    -0.237 OA
ATOM    103  O   UNL A   1      51.788  26.047  34.489  1.00  0.00    -0.237 OA
ATOM    104  O   UNL A   1      51.143  26.862  36.724  1.00  0.00    -0.744 OA
ENDBRANCH 100 101
ENDBRANCH  68  93
ENDBRANCH  42  43
ENDBRANCH  34  37
ENDBRANCH  32  33
ENDBRANCH  31  32
ENDBRANCH  30  31
ENDBRANCH   1  30
TORSDOF 20
ENDMDL
