MODEL 1
REMARK VINA RESULT:     -11.3      0.000      0.000
REMARK SMILES COc1cccc(OC)c1[C@@H](C(=O)NCCCCNC(=O)c1ccc(-c2c3nc(c(-c4c(F)cc(S(=O)(=O)[O-])cc4F)c4ccc([nH]4)c(-c4c(F)cc(S(=O)(=O)[O-])cc4F)c4nc(c(-c5c(F)cc(S(=O)(=O)[O-])cc5F)c5ccc2[nH]5)C=C4)C=C3)cc1)[N@H+](C)Cc1c(C)n[nH]c1C
REMARK SMILES IDX 16 1 15 2 14 3 12 4 13 5 11 7 10 8 3 9 4 10 5 11 7 12 6 13
REMARK SMILES IDX 2 14 1 15 8 16 9 17 88 18 89 19 90 21 91 22 92 23 96 24
REMARK SMILES IDX 93 25 94 26 95 27 97 28 17 30 18 31 19 32 20 33 21 35 22 36
REMARK SMILES IDX 23 37 87 38 24 39 86 40 25 41 26 42 27 43 80 44 28 45 85 46
REMARK SMILES IDX 79 47 81 48 29 49 84 50 78 51 77 52 30 54 64 55 43 56 63 57
REMARK SMILES IDX 44 58 47 59 62 60 82 61 45 62 46 63 61 65 83 66 48 67 31 68
REMARK SMILES IDX 32 69 41 70 33 71 34 72 40 73 42 74 35 75 36 76 37 77 38 78
REMARK SMILES IDX 39 79 65 80 66 81 75 82 67 83 68 84 74 85 76 86 69 87 70 88
REMARK SMILES IDX 71 89 72 90 73 91 49 92 50 93 59 94 51 95 52 96 58 97 60 98
REMARK SMILES IDX 53 99 54 100 55 101 56 102 57 103
REMARK H PARENT 14 6 88 20 95 29 19 34 81 53 47 64
REMARK Flexibility Score: inf
ROOT
ATOM      1  C   UNL A   1      37.705  22.421  24.807  1.00  0.00     0.023 C 
ENDROOT
BRANCH   1   2
ATOM      2  C   UNL A   1      36.632  23.393  24.331  1.00  0.00     0.116 C 
BRANCH   2   3
ATOM      3  N   UNL A   1      35.495  23.403  25.217  1.00  0.00    -0.351 N 
ATOM      4  C   UNL A   1      34.195  23.762  25.067  1.00  0.00     0.283 C 
ATOM      5  O   UNL A   1      33.547  23.604  26.106  1.00  0.00    -0.268 OA
ATOM      6  H   UNL A   1      35.706  23.080  26.123  1.00  0.00     0.163 HD
BRANCH   4   7
ATOM      7  C   UNL A   1      33.559  24.149  23.701  1.00  0.00     0.313 C 
BRANCH   7   8
ATOM      8  C   UNL A   1      33.535  25.640  23.351  1.00  0.00     0.103 A 
ATOM      9  C   UNL A   1      33.346  26.080  22.010  1.00  0.00     0.132 A 
ATOM     10  C   UNL A   1      33.423  27.437  21.656  1.00  0.00     0.047 A 
ATOM     11  C   UNL A   1      33.653  28.407  22.621  1.00  0.00     0.008 A 
ATOM     12  C   UNL A   1      33.814  26.653  24.292  1.00  0.00     0.132 A 
ATOM     13  C   UNL A   1      33.839  28.014  23.940  1.00  0.00     0.047 A 
BRANCH   9  14
ATOM     14  O   UNL A   1      33.361  25.238  20.921  1.00  0.00    -0.496 OA
ATOM     15  C   UNL A   1      32.479  25.583  19.863  1.00  0.00     0.278 C 
ENDBRANCH   9  14
BRANCH  12  16
ATOM     16  O   UNL A   1      33.990  26.398  25.621  1.00  0.00    -0.496 OA
ATOM     17  C   UNL A   1      33.770  27.525  26.463  1.00  0.00     0.278 C 
ENDBRANCH  12  16
ENDBRANCH   7   8
BRANCH   7  18
ATOM     18  N   UNL A   1      32.351  23.328  23.408  1.00  0.00    -0.319 N 
ATOM     19  C   UNL A   1      32.534  22.101  22.664  1.00  0.00     0.333 C 
ATOM     20  H   UNL A   1      32.364  23.196  24.420  1.00  0.00     0.349 HD
BRANCH  18  21
ATOM     21  C   UNL A   1      30.980  23.819  23.429  1.00  0.00     0.303 C 
BRANCH  21  22
ATOM     22  C   UNL A   1      30.549  24.460  24.722  1.00  0.00     0.050 A 
ATOM     23  C   UNL A   1      30.250  23.865  25.994  1.00  0.00     0.068 A 
ATOM     24  C   UNL A   1      30.211  25.798  24.914  1.00  0.00     0.041 A 
ATOM     25  C   UNL A   1      30.296  22.443  26.427  1.00  0.00     0.069 C 
ATOM     26  N   UNL A   1      29.846  24.773  26.893  1.00  0.00    -0.180 NA
ATOM     27  N   UNL A   1      29.928  25.932  26.242  1.00  0.00    -0.282 N 
ATOM     28  C   UNL A   1      30.111  26.959  23.999  1.00  0.00     0.066 C 
ATOM     29  H   UNL A   1      29.796  26.804  26.679  1.00  0.00     0.190 HD
ENDBRANCH  21  22
ENDBRANCH  18  21
ENDBRANCH   7  18
ENDBRANCH   4   7
ENDBRANCH   2   3
ENDBRANCH   1   2
BRANCH   1  30
ATOM     30  C   UNL A   1      38.141  22.647  26.258  1.00  0.00     0.023 C 
BRANCH  30  31
ATOM     31  C   UNL A   1      38.862  23.968  26.501  1.00  0.00     0.116 C 
BRANCH  31  32
ATOM     32  N   UNL A   1      40.267  23.907  26.132  1.00  0.00    -0.352 N 
ATOM     33  C   UNL A   1      41.287  24.751  26.484  1.00  0.00     0.251 C 
ATOM     34  H   UNL A   1      40.521  23.154  25.550  1.00  0.00     0.163 HD
ATOM     35  O   UNL A   1      42.392  24.634  25.960  1.00  0.00    -0.269 OA
BRANCH  33  36
ATOM     36  C   UNL A   1      41.032  25.819  27.468  1.00  0.00     0.039 A 
ATOM     37  C   UNL A   1      40.019  25.631  28.411  1.00  0.00     0.014 A 
ATOM     38  C   UNL A   1      41.809  26.981  27.481  1.00  0.00     0.014 A 
ATOM     39  C   UNL A   1      39.822  26.588  29.405  1.00  0.00     0.010 A 
ATOM     40  C   UNL A   1      41.660  27.898  28.516  1.00  0.00     0.010 A 
ATOM     41  C   UNL A   1      40.664  27.711  29.485  1.00  0.00    -0.014 A 
BRANCH  41  42
ATOM     42  C   UNL A   1      40.519  28.694  30.587  1.00  0.00     0.031 A 
ATOM     43  C   UNL A   1      41.389  28.594  31.809  1.00  0.00     0.074 A 
ATOM     44  C   UNL A   1      39.571  29.648  30.505  1.00  0.00     0.049 A 
ATOM     45  N   UNL A   1      41.371  29.322  32.895  1.00  0.00    -0.248 NA
ATOM     46  C   UNL A   1      42.396  27.519  31.823  1.00  0.00     0.031 C 
ATOM     47  C   UNL A   1      38.639  29.819  29.388  1.00  0.00     0.029 A 
ATOM     48  N   UNL A   1      39.229  30.650  31.377  1.00  0.00    -0.354 N 
ATOM     49  C   UNL A   1      42.355  28.794  33.721  1.00  0.00     0.074 A 
ATOM     50  C   UNL A   1      42.915  27.649  33.036  1.00  0.00     0.031 C 
ATOM     51  C   UNL A   1      37.852  30.878  29.630  1.00  0.00     0.029 A 
ATOM     52  C   UNL A   1      38.192  31.437  30.934  1.00  0.00     0.049 A 
ATOM     53  H   UNL A   1      39.683  30.793  32.239  1.00  0.00     0.167 HD
ATOM     54  C   UNL A   1      42.774  29.240  34.929  1.00  0.00     0.037 A 
ATOM     55  C   UNL A   1      37.580  32.487  31.515  1.00  0.00     0.037 A 
ATOM     56  C   UNL A   1      42.224  30.392  35.595  1.00  0.00     0.049 A 
ATOM     57  C   UNL A   1      38.056  32.961  32.859  1.00  0.00     0.074 A 
ATOM     58  C   UNL A   1      42.604  30.946  36.805  1.00  0.00     0.029 A 
ATOM     59  N   UNL A   1      41.181  31.169  35.112  1.00  0.00    -0.354 N 
ATOM     60  N   UNL A   1      39.013  32.472  33.612  1.00  0.00    -0.248 NA
ATOM     61  C   UNL A   1      37.380  34.133  33.431  1.00  0.00     0.031 C 
ATOM     62  C   UNL A   1      41.762  32.029  37.074  1.00  0.00     0.029 A 
ATOM     63  C   UNL A   1      40.895  32.188  36.005  1.00  0.00     0.049 A 
ATOM     64  H   UNL A   1      40.714  31.018  34.258  1.00  0.00     0.167 HD
ATOM     65  C   UNL A   1      39.068  33.289  34.736  1.00  0.00     0.074 A 
ATOM     66  C   UNL A   1      38.057  34.311  34.558  1.00  0.00     0.031 C 
ATOM     67  C   UNL A   1      39.885  33.201  35.815  1.00  0.00     0.037 A 
BRANCH  54  68
ATOM     68  C   UNL A   1      43.890  28.492  35.605  1.00  0.00     0.058 A 
ATOM     69  C   UNL A   1      45.236  28.820  35.377  1.00  0.00     0.135 A 
ATOM     70  C   UNL A   1      43.613  27.479  36.537  1.00  0.00     0.135 A 
ATOM     71  F   UNL A   1      45.560  29.766  34.481  1.00  0.00    -0.206 F 
ATOM     72  C   UNL A   1      46.267  28.161  36.038  1.00  0.00     0.059 A 
ATOM     73  C   UNL A   1      44.627  26.827  37.232  1.00  0.00     0.059 A 
ATOM     74  F   UNL A   1      42.343  27.123  36.789  1.00  0.00    -0.206 F 
ATOM     75  C   UNL A   1      45.953  27.171  36.969  1.00  0.00     0.060 A 
BRANCH  75  76
ATOM     76  S   UNL A   1      47.303  26.355  37.845  1.00  0.00     0.124 S 
ATOM     77  O   UNL A   1      47.000  26.697  39.232  1.00  0.00    -0.237 OA
ATOM     78  O   UNL A   1      47.109  24.956  37.481  1.00  0.00    -0.237 OA
ATOM     79  O   UNL A   1      48.498  26.984  37.293  1.00  0.00    -0.744 OA
ENDBRANCH  75  76
ENDBRANCH  54  68
BRANCH  55  80
ATOM     80  C   UNL A   1      36.470  33.174  30.801  1.00  0.00     0.058 A 
ATOM     81  C   UNL A   1      35.142  33.038  31.235  1.00  0.00     0.135 A 
ATOM     82  C   UNL A   1      36.720  34.020  29.711  1.00  0.00     0.135 A 
ATOM     83  F   UNL A   1      34.852  32.234  32.268  1.00  0.00    -0.206 F 
ATOM     84  C   UNL A   1      34.102  33.722  30.613  1.00  0.00     0.059 A 
ATOM     85  C   UNL A   1      35.699  34.732  29.089  1.00  0.00     0.059 A 
ATOM     86  F   UNL A   1      37.975  34.194  29.268  1.00  0.00    -0.206 F 
ATOM     87  C   UNL A   1      34.392  34.575  29.548  1.00  0.00     0.060 A 
BRANCH  87  88
ATOM     88  S   UNL A   1      33.044  35.525  28.810  1.00  0.00     0.124 S 
ATOM     89  O   UNL A   1      32.378  34.513  28.000  1.00  0.00    -0.237 OA
ATOM     90  O   UNL A   1      32.315  35.985  29.988  1.00  0.00    -0.237 OA
ATOM     91  O   UNL A   1      33.739  36.572  28.066  1.00  0.00    -0.744 OA
ENDBRANCH  87  88
ENDBRANCH  55  80
BRANCH  67  92
ATOM     92  C   UNL A   1      39.745  34.251  36.881  1.00  0.00     0.058 A 
ATOM     93  C   UNL A   1      38.975  34.038  38.035  1.00  0.00     0.135 A 
ATOM     94  C   UNL A   1      40.443  35.467  36.775  1.00  0.00     0.135 A 
ATOM     95  F   UNL A   1      38.285  32.896  38.185  1.00  0.00    -0.206 F 
ATOM     96  C   UNL A   1      38.883  34.999  39.036  1.00  0.00     0.059 A 
ATOM     97  C   UNL A   1      40.389  36.430  37.776  1.00  0.00     0.059 A 
ATOM     98  F   UNL A   1      41.203  35.718  35.697  1.00  0.00    -0.206 F 
ATOM     99  C   UNL A   1      39.596  36.192  38.898  1.00  0.00     0.060 A 
BRANCH  99 100
ATOM    100  S   UNL A   1      39.495  37.417  40.220  1.00  0.00     0.124 S 
ATOM    101  O   UNL A   1      40.898  37.774  40.398  1.00  0.00    -0.237 OA
ATOM    102  O   UNL A   1      38.650  38.449  39.625  1.00  0.00    -0.237 OA
ATOM    103  O   UNL A   1      38.890  36.679  41.324  1.00  0.00    -0.744 OA
ENDBRANCH  99 100
ENDBRANCH  67  92
ENDBRANCH  41  42
ENDBRANCH  33  36
ENDBRANCH  31  32
ENDBRANCH  30  31
ENDBRANCH   1  30
TORSDOF 20
ENDMDL
MODEL 2
REMARK VINA RESULT:     -11.0      1.105      2.403
REMARK SMILES COc1cccc(OC)c1[C@@H](C(=O)NCCCCNC(=O)c1ccc(-c2c3nc(c(-c4c(F)cc(S(=O)(=O)[O-])cc4F)c4ccc([nH]4)c(-c4c(F)cc(S(=O)(=O)[O-])cc4F)c4nc(c(-c5c(F)cc(S(=O)(=O)[O-])cc5F)c5ccc2[nH]5)C=C4)C=C3)cc1)[N@H+](C)Cc1c(C)n[nH]c1C
REMARK SMILES IDX 16 1 15 2 14 3 12 4 13 5 11 7 10 8 3 9 4 10 5 11 7 12 6 13
REMARK SMILES IDX 2 14 1 15 8 16 9 17 88 18 89 19 90 21 91 22 92 23 96 24
REMARK SMILES IDX 93 25 94 26 95 27 97 28 17 30 18 31 19 32 20 33 21 35 22 36
REMARK SMILES IDX 23 37 87 38 24 39 86 40 25 41 26 42 27 43 80 44 28 45 85 46
REMARK SMILES IDX 79 47 81 48 29 49 84 50 78 51 77 52 30 54 64 55 43 56 63 57
REMARK SMILES IDX 44 58 47 59 62 60 82 61 45 62 46 63 61 65 83 66 48 67 31 68
REMARK SMILES IDX 32 69 41 70 33 71 34 72 40 73 42 74 35 75 36 76 37 77 38 78
REMARK SMILES IDX 39 79 65 80 66 81 75 82 67 83 68 84 74 85 76 86 69 87 70 88
REMARK SMILES IDX 71 89 72 90 73 91 49 92 50 93 59 94 51 95 52 96 58 97 60 98
REMARK SMILES IDX 53 99 54 100 55 101 56 102 57 103
REMARK H PARENT 14 6 88 20 95 29 19 34 81 53 47 64
REMARK Flexibility Score: inf
ROOT
ATOM      1  C   UNL A   1      37.012  23.575  24.695  1.00  0.00     0.023 C 
ENDROOT
BRANCH   1   2
ATOM      2  C   UNL A   1      35.747  22.756  24.467  1.00  0.00     0.116 C 
BRANCH   2   3
ATOM      3  N   UNL A   1      35.136  23.068  23.200  1.00  0.00    -0.351 N 
ATOM      4  C   UNL A   1      34.025  23.763  22.843  1.00  0.00     0.283 C 
ATOM      5  O   UNL A   1      33.867  23.788  21.619  1.00  0.00    -0.268 OA
ATOM      6  H   UNL A   1      35.627  22.701  22.429  1.00  0.00     0.163 HD
BRANCH   4   7
ATOM      7  C   UNL A   1      33.162  24.582  23.845  1.00  0.00     0.313 C 
BRANCH   7   8
ATOM      8  C   UNL A   1      32.297  23.781  24.823  1.00  0.00     0.103 A 
ATOM      9  C   UNL A   1      32.165  22.368  24.704  1.00  0.00     0.132 A 
ATOM     10  C   UNL A   1      31.297  21.632  25.526  1.00  0.00     0.047 A 
ATOM     11  C   UNL A   1      30.560  22.261  26.518  1.00  0.00     0.008 A 
ATOM     12  C   UNL A   1      31.494  24.387  25.811  1.00  0.00     0.132 A 
ATOM     13  C   UNL A   1      30.666  23.637  26.665  1.00  0.00     0.047 A 
BRANCH   9  14
ATOM     14  O   UNL A   1      32.628  21.647  23.626  1.00  0.00    -0.496 OA
ATOM     15  C   UNL A   1      32.216  20.289  23.571  1.00  0.00     0.278 C 
ENDBRANCH   9  14
BRANCH  12  16
ATOM     16  O   UNL A   1      31.527  25.727  26.069  1.00  0.00    -0.496 OA
ATOM     17  C   UNL A   1      30.280  26.387  25.874  1.00  0.00     0.278 C 
ENDBRANCH  12  16
ENDBRANCH   7   8
BRANCH   7  18
ATOM     18  N   UNL A   1      32.576  25.791  23.200  1.00  0.00    -0.319 N 
ATOM     19  C   UNL A   1      31.422  25.608  22.347  1.00  0.00     0.333 C 
ATOM     20  H   UNL A   1      32.335  26.020  24.166  1.00  0.00     0.349 HD
BRANCH  18  21
ATOM     21  C   UNL A   1      33.269  27.057  23.009  1.00  0.00     0.303 C 
BRANCH  21  22
ATOM     22  C   UNL A   1      32.742  28.206  23.828  1.00  0.00     0.050 A 
ATOM     23  C   UNL A   1      33.100  28.641  25.149  1.00  0.00     0.068 A 
ATOM     24  C   UNL A   1      31.665  29.029  23.507  1.00  0.00     0.041 A 
ATOM     25  C   UNL A   1      34.111  28.105  26.098  1.00  0.00     0.069 C 
ATOM     26  N   UNL A   1      32.359  29.682  25.554  1.00  0.00    -0.180 NA
ATOM     27  N   UNL A   1      31.578  29.951  24.510  1.00  0.00    -0.282 N 
ATOM     28  C   UNL A   1      30.702  29.046  22.381  1.00  0.00     0.066 C 
ATOM     29  H   UNL A   1      30.991  30.740  24.467  1.00  0.00     0.190 HD
ENDBRANCH  21  22
ENDBRANCH  18  21
ENDBRANCH   7  18
ENDBRANCH   4   7
ENDBRANCH   2   3
ENDBRANCH   1   2
BRANCH   1  30
ATOM     30  C   UNL A   1      37.935  22.996  25.772  1.00  0.00     0.023 C 
BRANCH  30  31
ATOM     31  C   UNL A   1      38.788  24.031  26.496  1.00  0.00     0.116 C 
BRANCH  31  32
ATOM     32  N   UNL A   1      40.205  23.884  26.202  1.00  0.00    -0.352 N 
ATOM     33  C   UNL A   1      41.254  24.668  26.605  1.00  0.00     0.251 C 
ATOM     34  H   UNL A   1      40.443  23.115  25.636  1.00  0.00     0.163 HD
ATOM     35  O   UNL A   1      42.375  24.482  26.141  1.00  0.00    -0.269 OA
BRANCH  33  36
ATOM     36  C   UNL A   1      41.012  25.753  27.573  1.00  0.00     0.039 A 
ATOM     37  C   UNL A   1      39.964  25.615  28.485  1.00  0.00     0.014 A 
ATOM     38  C   UNL A   1      41.834  26.884  27.600  1.00  0.00     0.014 A 
ATOM     39  C   UNL A   1      39.776  26.588  29.465  1.00  0.00     0.010 A 
ATOM     40  C   UNL A   1      41.690  27.815  28.622  1.00  0.00     0.010 A 
ATOM     41  C   UNL A   1      40.659  27.678  29.562  1.00  0.00    -0.014 A 
BRANCH  41  42
ATOM     42  C   UNL A   1      40.520  28.676  30.651  1.00  0.00     0.031 A 
ATOM     43  C   UNL A   1      41.390  28.586  31.874  1.00  0.00     0.074 A 
ATOM     44  C   UNL A   1      39.577  29.634  30.557  1.00  0.00     0.049 A 
ATOM     45  N   UNL A   1      41.377  29.329  32.950  1.00  0.00    -0.248 NA
ATOM     46  C   UNL A   1      42.391  27.507  31.901  1.00  0.00     0.031 C 
ATOM     47  C   UNL A   1      38.645  29.795  29.439  1.00  0.00     0.029 A 
ATOM     48  N   UNL A   1      39.241  30.649  31.416  1.00  0.00    -0.354 N 
ATOM     49  C   UNL A   1      42.359  28.806  33.782  1.00  0.00     0.074 A 
ATOM     50  C   UNL A   1      42.911  27.649  33.112  1.00  0.00     0.031 C 
ATOM     51  C   UNL A   1      37.865  30.862  29.667  1.00  0.00     0.029 A 
ATOM     52  C   UNL A   1      38.208  31.436  30.964  1.00  0.00     0.049 A 
ATOM     53  H   UNL A   1      39.696  30.801  32.276  1.00  0.00     0.167 HD
ATOM     54  C   UNL A   1      42.781  29.266  34.984  1.00  0.00     0.037 A 
ATOM     55  C   UNL A   1      37.602  32.497  31.531  1.00  0.00     0.037 A 
ATOM     56  C   UNL A   1      42.237  30.430  35.635  1.00  0.00     0.049 A 
ATOM     57  C   UNL A   1      38.082  32.986  32.869  1.00  0.00     0.074 A 
ATOM     58  C   UNL A   1      42.621  30.998  36.838  1.00  0.00     0.029 A 
ATOM     59  N   UNL A   1      41.198  31.206  35.143  1.00  0.00    -0.354 N 
ATOM     60  N   UNL A   1      39.036  32.501  33.627  1.00  0.00    -0.248 NA
ATOM     61  C   UNL A   1      37.412  34.168  33.425  1.00  0.00     0.031 C 
ATOM     62  C   UNL A   1      41.785  32.089  37.093  1.00  0.00     0.029 A 
ATOM     63  C   UNL A   1      40.919  32.239  36.023  1.00  0.00     0.049 A 
ATOM     64  H   UNL A   1      40.730  31.046  34.291  1.00  0.00     0.167 HD
ATOM     65  C   UNL A   1      39.097  33.333  34.740  1.00  0.00     0.074 A 
ATOM     66  C   UNL A   1      38.091  34.358  34.549  1.00  0.00     0.031 C 
ATOM     67  C   UNL A   1      39.914  33.254  35.820  1.00  0.00     0.037 A 
BRANCH  54  68
ATOM     68  C   UNL A   1      43.893  28.521  35.669  1.00  0.00     0.058 A 
ATOM     69  C   UNL A   1      45.241  28.843  35.442  1.00  0.00     0.135 A 
ATOM     70  C   UNL A   1      43.610  27.516  36.609  1.00  0.00     0.135 A 
ATOM     71  F   UNL A   1      45.569  29.782  34.539  1.00  0.00    -0.206 F 
ATOM     72  C   UNL A   1      46.268  28.188  36.111  1.00  0.00     0.059 A 
ATOM     73  C   UNL A   1      44.622  26.867  37.312  1.00  0.00     0.059 A 
ATOM     74  F   UNL A   1      42.339  27.165  36.860  1.00  0.00    -0.206 F 
ATOM     75  C   UNL A   1      45.949  27.206  37.050  1.00  0.00     0.060 A 
BRANCH  75  76
ATOM     76  S   UNL A   1      47.294  26.394  37.936  1.00  0.00     0.124 S 
ATOM     77  O   UNL A   1      47.209  27.034  39.246  1.00  0.00    -0.237 OA
ATOM     78  O   UNL A   1      46.895  24.992  37.890  1.00  0.00    -0.237 OA
ATOM     79  O   UNL A   1      48.476  26.733  37.150  1.00  0.00    -0.744 OA
ENDBRANCH  75  76
ENDBRANCH  54  68
BRANCH  55  80
ATOM     80  C   UNL A   1      36.495  33.180  30.809  1.00  0.00     0.058 A 
ATOM     81  C   UNL A   1      35.161  33.002  31.202  1.00  0.00     0.135 A 
ATOM     82  C   UNL A   1      36.754  34.065  29.752  1.00  0.00     0.135 A 
ATOM     83  F   UNL A   1      34.863  32.159  32.202  1.00  0.00    -0.206 F 
ATOM     84  C   UNL A   1      34.121  33.680  30.574  1.00  0.00     0.059 A 
ATOM     85  C   UNL A   1      35.734  34.773  29.125  1.00  0.00     0.059 A 
ATOM     86  F   UNL A   1      38.016  34.281  29.348  1.00  0.00    -0.206 F 
ATOM     87  C   UNL A   1      34.419  34.573  29.543  1.00  0.00     0.060 A 
BRANCH  87  88
ATOM     88  S   UNL A   1      33.070  35.515  28.799  1.00  0.00     0.124 S 
ATOM     89  O   UNL A   1      32.376  36.019  29.978  1.00  0.00    -0.237 OA
ATOM     90  O   UNL A   1      33.791  36.507  28.008  1.00  0.00    -0.237 OA
ATOM     91  O   UNL A   1      32.347  34.511  28.022  1.00  0.00    -0.744 OA
ENDBRANCH  87  88
ENDBRANCH  55  80
BRANCH  67  92
ATOM     92  C   UNL A   1      39.781  34.319  36.872  1.00  0.00     0.058 A 
ATOM     93  C   UNL A   1      38.921  34.171  37.971  1.00  0.00     0.135 A 
ATOM     94  C   UNL A   1      40.572  35.480  36.811  1.00  0.00     0.135 A 
ATOM     95  F   UNL A   1      38.140  33.084  38.076  1.00  0.00    -0.206 F 
ATOM     96  C   UNL A   1      38.833  35.143  38.962  1.00  0.00     0.059 A 
ATOM     97  C   UNL A   1      40.522  36.451  37.805  1.00  0.00     0.059 A 
ATOM     98  F   UNL A   1      41.420  35.667  35.787  1.00  0.00    -0.206 F 
ATOM     99  C   UNL A   1      39.640  36.280  38.871  1.00  0.00     0.060 A 
BRANCH  99 100
ATOM    100  S   UNL A   1      39.540  37.517  40.181  1.00  0.00     0.124 S 
ATOM    101  O   UNL A   1      38.595  38.472  39.611  1.00  0.00    -0.237 OA
ATOM    102  O   UNL A   1      39.048  36.737  41.312  1.00  0.00    -0.237 OA
ATOM    103  O   UNL A   1      40.914  37.993  40.306  1.00  0.00    -0.744 OA
ENDBRANCH  99 100
ENDBRANCH  67  92
ENDBRANCH  41  42
ENDBRANCH  33  36
ENDBRANCH  31  32
ENDBRANCH  30  31
ENDBRANCH   1  30
TORSDOF 20
ENDMDL
MODEL 3
REMARK VINA RESULT:     -11.0      1.610      8.431
REMARK SMILES COc1cccc(OC)c1[C@@H](C(=O)NCCCCNC(=O)c1ccc(-c2c3nc(c(-c4c(F)cc(S(=O)(=O)[O-])cc4F)c4ccc([nH]4)c(-c4c(F)cc(S(=O)(=O)[O-])cc4F)c4nc(c(-c5c(F)cc(S(=O)(=O)[O-])cc5F)c5ccc2[nH]5)C=C4)C=C3)cc1)[N@H+](C)Cc1c(C)n[nH]c1C
REMARK SMILES IDX 16 1 15 2 14 3 12 4 13 5 11 7 10 8 3 9 4 10 5 11 7 12 6 13
REMARK SMILES IDX 2 14 1 15 8 16 9 17 88 18 89 19 90 21 91 22 92 23 96 24
REMARK SMILES IDX 93 25 94 26 95 27 97 28 17 30 18 31 19 32 20 33 21 35 22 36
REMARK SMILES IDX 23 37 87 38 24 39 86 40 25 41 26 42 27 43 80 44 28 45 85 46
REMARK SMILES IDX 79 47 81 48 29 49 84 50 78 51 77 52 30 54 64 55 43 56 63 57
REMARK SMILES IDX 44 58 47 59 62 60 82 61 45 62 46 63 61 65 83 66 48 67 31 68
REMARK SMILES IDX 32 69 41 70 33 71 34 72 40 73 42 74 35 75 36 76 37 77 38 78
REMARK SMILES IDX 39 79 65 80 66 81 75 82 67 83 68 84 74 85 76 86 69 87 70 88
REMARK SMILES IDX 71 89 72 90 73 91 49 92 50 93 59 94 51 95 52 96 58 97 60 98
REMARK SMILES IDX 53 99 54 100 55 101 56 102 57 103
REMARK H PARENT 14 6 88 20 95 29 19 34 81 53 47 64
REMARK Flexibility Score: inf
ROOT
ATOM      1  C   UNL A   1      38.905  23.061  26.336  1.00  0.00     0.023 C 
ENDROOT
BRANCH   1   2
ATOM      2  C   UNL A   1      37.627  23.813  25.982  1.00  0.00     0.116 C 
BRANCH   2   3
ATOM      3  N   UNL A   1      37.244  23.588  24.611  1.00  0.00    -0.351 N 
ATOM      4  C   UNL A   1      36.102  23.152  24.019  1.00  0.00     0.283 C 
ATOM      5  O   UNL A   1      36.205  23.108  22.789  1.00  0.00    -0.268 OA
ATOM      6  H   UNL A   1      37.960  23.794  23.967  1.00  0.00     0.163 HD
BRANCH   4   7
ATOM      7  C   UNL A   1      34.769  22.914  24.785  1.00  0.00     0.313 C 
BRANCH   7   8
ATOM      8  C   UNL A   1      33.927  21.714  24.343  1.00  0.00     0.103 A 
ATOM      9  C   UNL A   1      34.226  20.397  24.795  1.00  0.00     0.132 A 
ATOM     10  C   UNL A   1      33.529  19.274  24.320  1.00  0.00     0.047 A 
ATOM     11  C   UNL A   1      32.490  19.418  23.413  1.00  0.00     0.008 A 
ATOM     12  C   UNL A   1      32.896  21.811  23.385  1.00  0.00     0.132 A 
ATOM     13  C   UNL A   1      32.169  20.688  22.954  1.00  0.00     0.047 A 
BRANCH   9  14
ATOM     14  O   UNL A   1      35.370  20.069  25.486  1.00  0.00    -0.496 OA
ATOM     15  C   UNL A   1      36.335  19.320  24.761  1.00  0.00     0.278 C 
ENDBRANCH   9  14
BRANCH  12  16
ATOM     16  O   UNL A   1      32.471  23.004  22.877  1.00  0.00    -0.496 OA
ATOM     17  C   UNL A   1      32.952  23.280  21.565  1.00  0.00     0.278 C 
ENDBRANCH  12  16
ENDBRANCH   7   8
BRANCH   7  18
ATOM     18  N   UNL A   1      34.077  24.198  25.088  1.00  0.00    -0.319 N 
ATOM     19  C   UNL A   1      34.360  25.334  24.238  1.00  0.00     0.333 C 
ATOM     20  H   UNL A   1      33.256  23.666  24.797  1.00  0.00     0.349 HD
BRANCH  18  21
ATOM     21  C   UNL A   1      33.474  24.542  26.369  1.00  0.00     0.303 C 
BRANCH  21  22
ATOM     22  C   UNL A   1      32.011  24.898  26.313  1.00  0.00     0.050 A 
ATOM     23  C   UNL A   1      31.365  26.175  26.424  1.00  0.00     0.068 A 
ATOM     24  C   UNL A   1      30.941  24.007  26.274  1.00  0.00     0.041 A 
ATOM     25  C   UNL A   1      31.942  27.533  26.606  1.00  0.00     0.069 C 
ATOM     26  N   UNL A   1      30.030  26.070  26.376  1.00  0.00    -0.180 NA
ATOM     27  N   UNL A   1      29.813  24.770  26.187  1.00  0.00    -0.282 N 
ATOM     28  C   UNL A   1      30.851  22.528  26.321  1.00  0.00     0.066 C 
ATOM     29  H   UNL A   1      28.922  24.395  26.004  1.00  0.00     0.190 HD
ENDBRANCH  21  22
ENDBRANCH  18  21
ENDBRANCH   7  18
ENDBRANCH   4   7
ENDBRANCH   2   3
ENDBRANCH   1   2
BRANCH   1  30
ATOM     30  C   UNL A   1      39.970  23.937  27.004  1.00  0.00     0.023 C 
BRANCH  30  31
ATOM     31  C   UNL A   1      40.357  25.177  26.207  1.00  0.00     0.116 C 
BRANCH  31  32
ATOM     32  N   UNL A   1      41.747  25.147  25.779  1.00  0.00    -0.352 N 
ATOM     33  C   UNL A   1      42.822  25.822  26.295  1.00  0.00     0.251 C 
ATOM     34  H   UNL A   1      41.942  24.560  25.013  1.00  0.00     0.163 HD
ATOM     35  O   UNL A   1      43.904  25.792  25.715  1.00  0.00    -0.269 OA
BRANCH  33  36
ATOM     36  C   UNL A   1      42.653  26.608  27.531  1.00  0.00     0.039 A 
ATOM     37  C   UNL A   1      42.919  27.978  27.494  1.00  0.00     0.014 A 
ATOM     38  C   UNL A   1      42.206  26.002  28.708  1.00  0.00     0.014 A 
ATOM     39  C   UNL A   1      42.680  28.753  28.627  1.00  0.00     0.010 A 
ATOM     40  C   UNL A   1      41.898  26.788  29.814  1.00  0.00     0.010 A 
ATOM     41  C   UNL A   1      42.135  28.170  29.784  1.00  0.00    -0.014 A 
BRANCH  41  42
ATOM     42  C   UNL A   1      41.798  28.997  30.969  1.00  0.00     0.031 A 
ATOM     43  C   UNL A   1      40.610  29.918  30.934  1.00  0.00     0.074 A 
ATOM     44  C   UNL A   1      42.591  28.952  32.058  1.00  0.00     0.049 A 
ATOM     45  N   UNL A   1      40.192  30.758  31.845  1.00  0.00    -0.248 NA
ATOM     46  C   UNL A   1      39.799  29.913  29.705  1.00  0.00     0.031 C 
ATOM     47  C   UNL A   1      43.795  28.129  32.192  1.00  0.00     0.029 A 
ATOM     48  N   UNL A   1      42.508  29.616  33.255  1.00  0.00    -0.354 N 
ATOM     49  C   UNL A   1      39.077  31.382  31.301  1.00  0.00     0.074 A 
ATOM     50  C   UNL A   1      38.915  30.867  29.958  1.00  0.00     0.031 C 
ATOM     51  C   UNL A   1      44.320  28.315  33.412  1.00  0.00     0.029 A 
ATOM     52  C   UNL A   1      43.519  29.300  34.132  1.00  0.00     0.049 A 
ATOM     53  H   UNL A   1      41.793  30.258  33.468  1.00  0.00     0.167 HD
ATOM     54  C   UNL A   1      38.247  32.283  31.879  1.00  0.00     0.037 A 
ATOM     55  C   UNL A   1      43.776  29.755  35.373  1.00  0.00     0.037 A 
ATOM     56  C   UNL A   1      38.405  32.776  33.222  1.00  0.00     0.049 A 
ATOM     57  C   UNL A   1      42.845  30.760  35.992  1.00  0.00     0.074 A 
ATOM     58  C   UNL A   1      37.596  33.664  33.911  1.00  0.00     0.029 A 
ATOM     59  N   UNL A   1      39.435  32.427  34.082  1.00  0.00    -0.354 N 
ATOM     60  N   UNL A   1      41.774  31.315  35.477  1.00  0.00    -0.248 NA
ATOM     61  C   UNL A   1      43.149  31.195  37.361  1.00  0.00     0.031 C 
ATOM     62  C   UNL A   1      38.163  33.884  35.170  1.00  0.00     0.029 A 
ATOM     63  C   UNL A   1      39.291  33.090  35.290  1.00  0.00     0.049 A 
ATOM     64  H   UNL A   1      40.162  31.798  33.866  1.00  0.00     0.167 HD
ATOM     65  C   UNL A   1      41.263  32.148  36.466  1.00  0.00     0.074 A 
ATOM     66  C   UNL A   1      42.137  32.014  37.615  1.00  0.00     0.031 C 
ATOM     67  C   UNL A   1      40.169  32.947  36.426  1.00  0.00     0.037 A 
BRANCH  54  68
ATOM     68  C   UNL A   1      37.083  32.784  31.068  1.00  0.00     0.058 A 
ATOM     69  C   UNL A   1      37.245  33.774  30.086  1.00  0.00     0.135 A 
ATOM     70  C   UNL A   1      35.804  32.228  31.231  1.00  0.00     0.135 A 
ATOM     71  F   UNL A   1      38.442  34.354  29.901  1.00  0.00    -0.206 F 
ATOM     72  C   UNL A   1      36.180  34.203  29.303  1.00  0.00     0.059 A 
ATOM     73  C   UNL A   1      34.729  32.622  30.439  1.00  0.00     0.059 A 
ATOM     74  F   UNL A   1      35.591  31.283  32.160  1.00  0.00    -0.206 F 
ATOM     75  C   UNL A   1      34.926  33.617  29.481  1.00  0.00     0.060 A 
BRANCH  75  76
ATOM     76  S   UNL A   1      33.565  34.160  28.429  1.00  0.00     0.124 S 
ATOM     77  O   UNL A   1      34.237  35.115  27.553  1.00  0.00    -0.237 OA
ATOM     78  O   UNL A   1      33.142  32.913  27.801  1.00  0.00    -0.237 OA
ATOM     79  O   UNL A   1      32.614  34.739  29.372  1.00  0.00    -0.744 OA
ENDBRANCH  75  76
ENDBRANCH  54  68
BRANCH  55  80
ATOM     80  C   UNL A   1      44.954  29.231  36.116  1.00  0.00     0.058 A 
ATOM     81  C   UNL A   1      44.841  28.102  36.940  1.00  0.00     0.135 A 
ATOM     82  C   UNL A   1      46.221  29.815  35.974  1.00  0.00     0.135 A 
ATOM     83  F   UNL A   1      43.649  27.513  37.114  1.00  0.00    -0.206 F 
ATOM     84  C   UNL A   1      45.947  27.566  37.594  1.00  0.00     0.059 A 
ATOM     85  C   UNL A   1      47.345  29.283  36.599  1.00  0.00     0.059 A 
ATOM     86  F   UNL A   1      46.383  30.890  35.185  1.00  0.00    -0.206 F 
ATOM     87  C   UNL A   1      47.197  28.158  37.407  1.00  0.00     0.060 A 
BRANCH  87  88
ATOM     88  S   UNL A   1      48.637  27.398  38.189  1.00  0.00     0.124 S 
ATOM     89  O   UNL A   1      49.368  28.568  38.663  1.00  0.00    -0.237 OA
ATOM     90  O   UNL A   1      48.022  26.567  39.219  1.00  0.00    -0.237 OA
ATOM     91  O   UNL A   1      49.265  26.663  37.095  1.00  0.00    -0.744 OA
ENDBRANCH  87  88
ENDBRANCH  55  80
BRANCH  67  92
ATOM     92  C   UNL A   1      39.829  33.724  37.668  1.00  0.00     0.058 A 
ATOM     93  C   UNL A   1      38.935  33.229  38.630  1.00  0.00     0.135 A 
ATOM     94  C   UNL A   1      40.455  34.955  37.928  1.00  0.00     0.135 A 
ATOM     95  F   UNL A   1      38.306  32.060  38.429  1.00  0.00    -0.206 F 
ATOM     96  C   UNL A   1      38.657  33.935  39.795  1.00  0.00     0.059 A 
ATOM     97  C   UNL A   1      40.214  35.664  39.099  1.00  0.00     0.059 A 
ATOM     98  F   UNL A   1      41.327  35.470  37.046  1.00  0.00    -0.206 F 
ATOM     99  C   UNL A   1      39.304  35.151  40.023  1.00  0.00     0.060 A 
BRANCH  99 100
ATOM    100  S   UNL A   1      38.959  36.041  41.555  1.00  0.00     0.124 S 
ATOM    101  O   UNL A   1      38.955  37.426  41.096  1.00  0.00    -0.237 OA
ATOM    102  O   UNL A   1      37.660  35.500  41.944  1.00  0.00    -0.237 OA
ATOM    103  O   UNL A   1      40.072  35.670  42.423  1.00  0.00    -0.744 OA
ENDBRANCH  99 100
ENDBRANCH  67  92
ENDBRANCH  41  42
ENDBRANCH  33  36
ENDBRANCH  31  32
ENDBRANCH  30  31
ENDBRANCH   1  30
TORSDOF 20
ENDMDL
