MODEL 1
REMARK VINA RESULT:     -10.8      0.000      0.000
REMARK SMILES C[C@H](C(=O)NCCCCNC(=O)c1ccc(-c2c3nc(c(-c4c(F)cc(S(=O)(=O)[O-])cc4F)c4ccc([nH]4)c(-c4c(F)cc(S(=O)(=O)[O-])cc4F)c4nc(c(-c5c(F)cc(S(=O)(=O)[O-])cc5F)c5ccc2[nH]5)C=C4)C=C3)cc1)[C@H](C)S(=O)(=O)C1CCOCC1
REMARK SMILES IDX 7 1 6 2 5 3 3 4 4 5 2 7 1 8 79 9 80 10 81 11 82 12 83 13
REMARK SMILES IDX 84 14 85 15 89 16 86 17 88 18 87 19 8 20 9 21 10 22 11 23
REMARK SMILES IDX 12 25 13 26 14 27 78 28 15 29 77 30 16 31 17 32 18 33 71 34
REMARK SMILES IDX 19 35 76 36 70 37 72 38 20 39 75 40 69 41 68 42 21 44 55 45
REMARK SMILES IDX 34 46 54 47 35 48 38 49 53 50 73 51 36 52 37 53 52 55 74 56
REMARK SMILES IDX 39 57 22 58 23 59 32 60 24 61 25 62 31 63 33 64 26 65 27 66
REMARK SMILES IDX 28 67 29 68 30 69 56 70 57 71 66 72 58 73 59 74 65 75 67 76
REMARK SMILES IDX 60 77 61 78 62 79 63 80 64 81 40 82 41 83 50 84 42 85 43 86
REMARK SMILES IDX 49 87 51 88 44 89 45 90 46 91 47 92 48 93
REMARK H PARENT 5 6 10 24 72 43 38 54
REMARK Flexibility Score: inf
ROOT
ATOM      1  C   UNL A   1      31.841  27.472  25.630  1.00  0.00     0.023 C 
ENDROOT
BRANCH   1   2
ATOM      2  C   UNL A   1      30.595  26.636  25.333  1.00  0.00     0.116 C 
BRANCH   2   3
ATOM      3  N   UNL A   1      30.404  25.676  26.400  1.00  0.00    -0.356 N 
ATOM      4  C   UNL A   1      31.002  24.471  26.602  1.00  0.00     0.224 C 
ATOM      5  O   UNL A   1      30.432  23.673  27.347  1.00  0.00    -0.275 OA
ATOM      6  H   UNL A   1      29.741  25.933  27.080  1.00  0.00     0.163 HD
BRANCH   4   7
ATOM      7  C   UNL A   1      32.389  24.174  26.007  1.00  0.00     0.093 C 
ATOM      8  C   UNL A   1      32.981  23.034  26.865  1.00  0.00     0.019 C 
BRANCH   7   9
ATOM      9  C   UNL A   1      32.390  23.867  24.490  1.00  0.00     0.118 C 
ATOM     10  C   UNL A   1      31.918  22.455  24.101  1.00  0.00     0.026 C 
BRANCH   9  11
ATOM     11  S   UNL A   1      33.917  24.246  23.508  1.00  0.00     0.156 S 
ATOM     12  O   UNL A   1      33.692  23.719  22.169  1.00  0.00    -0.228 OA
ATOM     13  O   UNL A   1      34.113  25.678  23.614  1.00  0.00    -0.228 OA
BRANCH  11  14
ATOM     14  C   UNL A   1      35.478  23.467  24.015  1.00  0.00     0.113 C 
ATOM     15  C   UNL A   1      35.509  21.977  24.288  1.00  0.00     0.048 C 
ATOM     16  C   UNL A   1      36.047  24.218  25.238  1.00  0.00     0.048 C 
ATOM     17  C   UNL A   1      36.908  21.541  24.710  1.00  0.00     0.161 C 
ATOM     18  C   UNL A   1      37.395  23.654  25.663  1.00  0.00     0.161 C 
ATOM     19  O   UNL A   1      37.304  22.248  25.881  1.00  0.00    -0.381 OA
ENDBRANCH  11  14
ENDBRANCH   9  11
ENDBRANCH   7   9
ENDBRANCH   4   7
ENDBRANCH   2   3
ENDBRANCH   1   2
BRANCH   1  20
ATOM     20  C   UNL A   1      31.912  27.998  27.059  1.00  0.00     0.023 C 
BRANCH  20  21
ATOM     21  C   UNL A   1      33.285  28.526  27.463  1.00  0.00     0.116 C 
BRANCH  21  22
ATOM     22  N   UNL A   1      33.333  29.967  27.689  1.00  0.00    -0.352 N 
ATOM     23  C   UNL A   1      34.414  30.740  28.057  1.00  0.00     0.251 C 
ATOM     24  H   UNL A   1      32.484  30.449  27.564  1.00  0.00     0.163 HD
ATOM     25  O   UNL A   1      34.293  31.935  28.261  1.00  0.00    -0.269 OA
BRANCH  23  26
ATOM     26  C   UNL A   1      35.714  30.068  28.250  1.00  0.00     0.039 A 
ATOM     27  C   UNL A   1      36.623  30.054  27.191  1.00  0.00     0.014 A 
ATOM     28  C   UNL A   1      36.067  29.558  29.502  1.00  0.00     0.014 A 
ATOM     29  C   UNL A   1      37.927  29.613  27.417  1.00  0.00     0.010 A 
ATOM     30  C   UNL A   1      37.386  29.197  29.745  1.00  0.00     0.010 A 
ATOM     31  C   UNL A   1      38.332  29.234  28.708  1.00  0.00    -0.014 A 
BRANCH  31  32
ATOM     32  C   UNL A   1      39.748  28.905  29.003  1.00  0.00     0.031 A 
ATOM     33  C   UNL A   1      40.652  29.942  29.608  1.00  0.00     0.074 A 
ATOM     34  C   UNL A   1      40.235  27.697  28.652  1.00  0.00     0.049 A 
ATOM     35  N   UNL A   1      41.932  29.868  29.870  1.00  0.00    -0.248 NA
ATOM     36  C   UNL A   1      40.048  31.245  29.932  1.00  0.00     0.031 C 
ATOM     37  C   UNL A   1      39.472  26.633  27.991  1.00  0.00     0.029 A 
ATOM     38  N   UNL A   1      41.490  27.162  28.792  1.00  0.00    -0.354 N 
ATOM     39  C   UNL A   1      42.287  31.113  30.371  1.00  0.00     0.074 A 
ATOM     40  C   UNL A   1      41.103  31.942  30.329  1.00  0.00     0.031 C 
ATOM     41  C   UNL A   1      40.268  25.568  27.809  1.00  0.00     0.029 A 
ATOM     42  C   UNL A   1      41.602  25.879  28.310  1.00  0.00     0.049 A 
ATOM     43  H   UNL A   1      42.241  27.651  29.200  1.00  0.00     0.167 HD
ATOM     44  C   UNL A   1      43.486  31.520  30.853  1.00  0.00     0.037 A 
ATOM     45  C   UNL A   1      42.662  25.049  28.274  1.00  0.00     0.037 A 
ATOM     46  C   UNL A   1      44.650  30.677  30.931  1.00  0.00     0.049 A 
ATOM     47  C   UNL A   1      43.973  25.514  28.847  1.00  0.00     0.074 A 
ATOM     48  C   UNL A   1      45.894  30.975  31.461  1.00  0.00     0.029 A 
ATOM     49  N   UNL A   1      44.714  29.370  30.472  1.00  0.00    -0.354 N 
ATOM     50  N   UNL A   1      44.274  26.675  29.379  1.00  0.00    -0.248 NA
ATOM     51  C   UNL A   1      45.085  24.555  28.824  1.00  0.00     0.031 C 
ATOM     52  C   UNL A   1      46.717  29.856  31.298  1.00  0.00     0.029 A 
ATOM     53  C   UNL A   1      45.975  28.850  30.700  1.00  0.00     0.049 A 
ATOM     54  H   UNL A   1      43.969  28.883  30.049  1.00  0.00     0.167 HD
ATOM     55  C   UNL A   1      45.603  26.578  29.774  1.00  0.00     0.074 A 
ATOM     56  C   UNL A   1      46.043  25.240  29.434  1.00  0.00     0.031 C 
ATOM     57  C   UNL A   1      46.391  27.512  30.360  1.00  0.00     0.037 A 
BRANCH  44  58
ATOM     58  C   UNL A   1      43.589  32.931  31.357  1.00  0.00     0.058 A 
ATOM     59  C   UNL A   1      43.185  33.275  32.657  1.00  0.00     0.135 A 
ATOM     60  C   UNL A   1      44.129  33.943  30.548  1.00  0.00     0.135 A 
ATOM     61  F   UNL A   1      42.644  32.349  33.464  1.00  0.00    -0.206 F 
ATOM     62  C   UNL A   1      43.292  34.578  33.130  1.00  0.00     0.059 A 
ATOM     63  C   UNL A   1      44.269  35.249  31.011  1.00  0.00     0.059 A 
ATOM     64  F   UNL A   1      44.527  33.669  29.296  1.00  0.00    -0.206 F 
ATOM     65  C   UNL A   1      43.835  35.559  32.299  1.00  0.00     0.060 A 
BRANCH  65  66
ATOM     66  S   UNL A   1      43.983  37.241  32.935  1.00  0.00     0.124 S 
ATOM     67  O   UNL A   1      43.030  37.219  34.040  1.00  0.00    -0.237 OA
ATOM     68  O   UNL A   1      45.390  37.312  33.314  1.00  0.00    -0.237 OA
ATOM     69  O   UNL A   1      43.601  38.069  31.794  1.00  0.00    -0.744 OA
ENDBRANCH  65  66
ENDBRANCH  44  58
BRANCH  45  70
ATOM     70  C   UNL A   1      42.526  23.684  27.702  1.00  0.00     0.058 A 
ATOM     71  C   UNL A   1      42.370  22.567  28.536  1.00  0.00     0.135 A 
ATOM     72  C   UNL A   1      42.555  23.467  26.316  1.00  0.00     0.135 A 
ATOM     73  F   UNL A   1      42.341  22.724  29.868  1.00  0.00    -0.206 F 
ATOM     74  C   UNL A   1      42.275  21.279  28.020  1.00  0.00     0.059 A 
ATOM     75  C   UNL A   1      42.438  22.190  25.775  1.00  0.00     0.059 A 
ATOM     76  F   UNL A   1      42.681  24.505  25.476  1.00  0.00    -0.206 F 
ATOM     77  C   UNL A   1      42.314  21.101  26.636  1.00  0.00     0.060 A 
BRANCH  77  78
ATOM     78  S   UNL A   1      42.163  19.428  25.971  1.00  0.00     0.124 S 
ATOM     79  O   UNL A   1      42.700  18.628  27.065  1.00  0.00    -0.237 OA
ATOM     80  O   UNL A   1      40.725  19.315  25.742  1.00  0.00    -0.237 OA
ATOM     81  O   UNL A   1      42.979  19.476  24.762  1.00  0.00    -0.744 OA
ENDBRANCH  77  78
ENDBRANCH  45  70
BRANCH  57  82
ATOM     82  C   UNL A   1      47.797  27.109  30.698  1.00  0.00     0.058 A 
ATOM     83  C   UNL A   1      48.124  26.562  31.948  1.00  0.00     0.135 A 
ATOM     84  C   UNL A   1      48.822  27.237  29.746  1.00  0.00     0.135 A 
ATOM     85  F   UNL A   1      47.181  26.424  32.893  1.00  0.00    -0.206 F 
ATOM     86  C   UNL A   1      49.427  26.181  32.255  1.00  0.00     0.059 A 
ATOM     87  C   UNL A   1      50.126  26.839  30.023  1.00  0.00     0.059 A 
ATOM     88  F   UNL A   1      48.559  27.745  28.532  1.00  0.00    -0.206 F 
ATOM     89  C   UNL A   1      50.421  26.326  31.285  1.00  0.00     0.060 A 
BRANCH  89  90
ATOM     90  S   UNL A   1      52.104  25.806  31.685  1.00  0.00     0.124 S 
ATOM     91  O   UNL A   1      52.409  26.658  32.830  1.00  0.00    -0.237 OA
ATOM     92  O   UNL A   1      51.933  24.386  31.978  1.00  0.00    -0.237 OA
ATOM     93  O   UNL A   1      52.847  26.103  30.464  1.00  0.00    -0.744 OA
ENDBRANCH  89  90
ENDBRANCH  57  82
ENDBRANCH  31  32
ENDBRANCH  23  26
ENDBRANCH  21  22
ENDBRANCH  20  21
ENDBRANCH   1  20
TORSDOF 17
ENDMDL
MODEL 2
REMARK VINA RESULT:     -10.6      3.449      5.208
REMARK SMILES C[C@H](C(=O)NCCCCNC(=O)c1ccc(-c2c3nc(c(-c4c(F)cc(S(=O)(=O)[O-])cc4F)c4ccc([nH]4)c(-c4c(F)cc(S(=O)(=O)[O-])cc4F)c4nc(c(-c5c(F)cc(S(=O)(=O)[O-])cc5F)c5ccc2[nH]5)C=C4)C=C3)cc1)[C@H](C)S(=O)(=O)C1CCOCC1
REMARK SMILES IDX 7 1 6 2 5 3 3 4 4 5 2 7 1 8 79 9 80 10 81 11 82 12 83 13
REMARK SMILES IDX 84 14 85 15 89 16 86 17 88 18 87 19 8 20 9 21 10 22 11 23
REMARK SMILES IDX 12 25 13 26 14 27 78 28 15 29 77 30 16 31 17 32 18 33 71 34
REMARK SMILES IDX 19 35 76 36 70 37 72 38 20 39 75 40 69 41 68 42 21 44 55 45
REMARK SMILES IDX 34 46 54 47 35 48 38 49 53 50 73 51 36 52 37 53 52 55 74 56
REMARK SMILES IDX 39 57 22 58 23 59 32 60 24 61 25 62 31 63 33 64 26 65 27 66
REMARK SMILES IDX 28 67 29 68 30 69 56 70 57 71 66 72 58 73 59 74 65 75 67 76
REMARK SMILES IDX 60 77 61 78 62 79 63 80 64 81 40 82 41 83 50 84 42 85 43 86
REMARK SMILES IDX 49 87 51 88 44 89 45 90 46 91 47 92 48 93
REMARK H PARENT 5 6 10 24 72 43 38 54
REMARK Flexibility Score: inf
ROOT
ATOM      1  C   UNL A   1      34.605  30.671  27.843  1.00  0.00     0.023 C 
ENDROOT
BRANCH   1   2
ATOM      2  C   UNL A   1      33.174  30.621  27.306  1.00  0.00     0.116 C 
BRANCH   2   3
ATOM      3  N   UNL A   1      32.622  29.306  27.551  1.00  0.00    -0.356 N 
ATOM      4  C   UNL A   1      31.729  28.587  26.819  1.00  0.00     0.224 C 
ATOM      5  O   UNL A   1      31.129  27.676  27.391  1.00  0.00    -0.275 OA
ATOM      6  H   UNL A   1      32.940  28.865  28.372  1.00  0.00     0.163 HD
BRANCH   4   7
ATOM      7  C   UNL A   1      31.568  28.840  25.310  1.00  0.00     0.093 C 
ATOM      8  C   UNL A   1      33.002  28.966  24.749  1.00  0.00     0.019 C 
BRANCH   7   9
ATOM      9  C   UNL A   1      30.707  27.790  24.566  1.00  0.00     0.118 C 
ATOM     10  C   UNL A   1      31.429  26.481  24.202  1.00  0.00     0.026 C 
BRANCH   9  11
ATOM     11  S   UNL A   1      29.731  28.331  23.085  1.00  0.00     0.156 S 
ATOM     12  O   UNL A   1      30.483  27.904  21.913  1.00  0.00    -0.228 OA
ATOM     13  O   UNL A   1      28.410  27.757  23.249  1.00  0.00    -0.228 OA
BRANCH  11  14
ATOM     14  C   UNL A   1      29.497  30.112  22.816  1.00  0.00     0.113 C 
ATOM     15  C   UNL A   1      29.104  30.994  23.984  1.00  0.00     0.048 C 
ATOM     16  C   UNL A   1      28.494  30.325  21.662  1.00  0.00     0.048 C 
ATOM     17  C   UNL A   1      28.949  32.441  23.531  1.00  0.00     0.161 C 
ATOM     18  C   UNL A   1      28.314  31.801  21.342  1.00  0.00     0.161 C 
ATOM     19  O   UNL A   1      27.957  32.529  22.514  1.00  0.00    -0.381 OA
ENDBRANCH  11  14
ENDBRANCH   9  11
ENDBRANCH   7   9
ENDBRANCH   4   7
ENDBRANCH   2   3
ENDBRANCH   1   2
BRANCH   1  20
ATOM     20  C   UNL A   1      35.182  32.078  27.947  1.00  0.00     0.023 C 
BRANCH  20  21
ATOM     21  C   UNL A   1      35.996  32.329  29.213  1.00  0.00     0.116 C 
BRANCH  21  22
ATOM     22  N   UNL A   1      35.733  31.384  30.293  1.00  0.00    -0.352 N 
ATOM     23  C   UNL A   1      36.593  30.463  30.853  1.00  0.00     0.251 C 
ATOM     24  H   UNL A   1      34.824  31.407  30.671  1.00  0.00     0.163 HD
ATOM     25  O   UNL A   1      36.217  29.699  31.723  1.00  0.00    -0.269 OA
BRANCH  23  26
ATOM     26  C   UNL A   1      37.972  30.394  30.329  1.00  0.00     0.039 A 
ATOM     27  C   UNL A   1      39.035  30.465  31.232  1.00  0.00     0.014 A 
ATOM     28  C   UNL A   1      38.201  30.148  28.973  1.00  0.00     0.014 A 
ATOM     29  C   UNL A   1      40.327  30.192  30.786  1.00  0.00     0.010 A 
ATOM     30  C   UNL A   1      39.476  29.798  28.549  1.00  0.00     0.010 A 
ATOM     31  C   UNL A   1      40.549  29.803  29.454  1.00  0.00    -0.014 A 
BRANCH  31  32
ATOM     32  C   UNL A   1      41.891  29.364  28.995  1.00  0.00     0.031 A 
ATOM     33  C   UNL A   1      43.015  30.356  28.899  1.00  0.00     0.074 A 
ATOM     34  C   UNL A   1      42.070  28.090  28.594  1.00  0.00     0.049 A 
ATOM     35  N   UNL A   1      44.232  30.182  28.454  1.00  0.00    -0.248 NA
ATOM     36  C   UNL A   1      42.725  31.735  29.329  1.00  0.00     0.031 C 
ATOM     37  C   UNL A   1      41.033  27.052  28.571  1.00  0.00     0.029 A 
ATOM     38  N   UNL A   1      43.185  27.449  28.115  1.00  0.00    -0.354 N 
ATOM     39  C   UNL A   1      44.846  31.425  28.535  1.00  0.00     0.074 A 
ATOM     40  C   UNL A   1      43.854  32.358  29.021  1.00  0.00     0.031 C 
ATOM     41  C   UNL A   1      41.569  25.903  28.130  1.00  0.00     0.029 A 
ATOM     42  C   UNL A   1      42.974  26.126  27.809  1.00  0.00     0.049 A 
ATOM     43  H   UNL A   1      44.055  27.897  28.002  1.00  0.00     0.167 HD
ATOM     44  C   UNL A   1      46.131  31.753  28.257  1.00  0.00     0.037 A 
ATOM     45  C   UNL A   1      43.821  25.197  27.323  1.00  0.00     0.037 A 
ATOM     46  C   UNL A   1      47.124  30.812  27.812  1.00  0.00     0.049 A 
ATOM     47  C   UNL A   1      45.250  25.580  27.056  1.00  0.00     0.074 A 
ATOM     48  C   UNL A   1      48.468  31.032  27.566  1.00  0.00     0.029 A 
ATOM     49  N   UNL A   1      46.885  29.470  27.555  1.00  0.00    -0.354 N 
ATOM     50  N   UNL A   1      45.831  26.747  27.200  1.00  0.00    -0.248 NA
ATOM     51  C   UNL A   1      46.142  24.519  26.568  1.00  0.00     0.031 C 
ATOM     52  C   UNL A   1      49.036  29.829  27.133  1.00  0.00     0.029 A 
ATOM     53  C   UNL A   1      48.053  28.852  27.145  1.00  0.00     0.049 A 
ATOM     54  H   UNL A   1      46.012  29.024  27.652  1.00  0.00     0.167 HD
ATOM     55  C   UNL A   1      47.161  26.556  26.844  1.00  0.00     0.074 A 
ATOM     56  C   UNL A   1      47.302  25.158  26.492  1.00  0.00     0.031 C 
ATOM     57  C   UNL A   1      48.173  27.456  26.806  1.00  0.00     0.037 A 
BRANCH  44  58
ATOM     58  C   UNL A   1      46.538  33.186  28.452  1.00  0.00     0.058 A 
ATOM     59  C   UNL A   1      46.291  34.156  27.467  1.00  0.00     0.135 A 
ATOM     60  C   UNL A   1      47.148  33.602  29.646  1.00  0.00     0.135 A 
ATOM     61  F   UNL A   1      45.728  33.807  26.300  1.00  0.00    -0.206 F 
ATOM     62  C   UNL A   1      46.655  35.486  27.650  1.00  0.00     0.059 A 
ATOM     63  C   UNL A   1      47.498  34.933  29.859  1.00  0.00     0.059 A 
ATOM     64  F   UNL A   1      47.411  32.714  30.617  1.00  0.00    -0.206 F 
ATOM     65  C   UNL A   1      47.258  35.865  28.850  1.00  0.00     0.060 A 
BRANCH  65  66
ATOM     66  S   UNL A   1      47.708  37.597  29.079  1.00  0.00     0.124 S 
ATOM     67  O   UNL A   1      48.718  37.500  30.128  1.00  0.00    -0.237 OA
ATOM     68  O   UNL A   1      48.203  37.970  27.757  1.00  0.00    -0.237 OA
ATOM     69  O   UNL A   1      46.451  38.225  29.474  1.00  0.00    -0.744 OA
ENDBRANCH  65  66
ENDBRANCH  44  58
BRANCH  45  70
ATOM     70  C   UNL A   1      43.350  23.807  27.082  1.00  0.00     0.058 A 
ATOM     71  C   UNL A   1      43.131  23.337  25.779  1.00  0.00     0.135 A 
ATOM     72  C   UNL A   1      43.102  22.926  28.146  1.00  0.00     0.135 A 
ATOM     73  F   UNL A   1      43.351  24.145  24.730  1.00  0.00    -0.206 F 
ATOM     74  C   UNL A   1      42.659  22.052  25.537  1.00  0.00     0.059 A 
ATOM     75  C   UNL A   1      42.651  21.628  27.928  1.00  0.00     0.059 A 
ATOM     76  F   UNL A   1      43.315  23.322  29.410  1.00  0.00    -0.206 F 
ATOM     77  C   UNL A   1      42.418  21.205  26.620  1.00  0.00     0.060 A 
BRANCH  77  78
ATOM     78  S   UNL A   1      41.830  19.527  26.297  1.00  0.00     0.124 S 
ATOM     79  O   UNL A   1      40.389  19.732  26.218  1.00  0.00    -0.237 OA
ATOM     80  O   UNL A   1      42.500  19.201  25.041  1.00  0.00    -0.237 OA
ATOM     81  O   UNL A   1      42.300  18.781  27.460  1.00  0.00    -0.744 OA
ENDBRANCH  77  78
ENDBRANCH  45  70
BRANCH  57  82
ATOM     82  C   UNL A   1      49.526  26.949  26.398  1.00  0.00     0.058 A 
ATOM     83  C   UNL A   1      50.401  26.361  27.326  1.00  0.00     0.135 A 
ATOM     84  C   UNL A   1      49.938  27.019  25.057  1.00  0.00     0.135 A 
ATOM     85  F   UNL A   1      50.055  26.276  28.620  1.00  0.00    -0.206 F 
ATOM     86  C   UNL A   1      51.650  25.884  26.943  1.00  0.00     0.059 A 
ATOM     87  C   UNL A   1      51.173  26.526  24.648  1.00  0.00     0.059 A 
ATOM     88  F   UNL A   1      49.134  27.563  24.131  1.00  0.00    -0.206 F 
ATOM     89  C   UNL A   1      52.028  25.973  25.601  1.00  0.00     0.060 A 
BRANCH  89  90
ATOM     90  S   UNL A   1      53.641  25.329  25.110  1.00  0.00     0.124 S 
ATOM     91  O   UNL A   1      53.485  23.905  25.388  1.00  0.00    -0.237 OA
ATOM     92  O   UNL A   1      53.710  25.695  23.699  1.00  0.00    -0.237 OA
ATOM     93  O   UNL A   1      54.569  26.042  25.983  1.00  0.00    -0.744 OA
ENDBRANCH  89  90
ENDBRANCH  57  82
ENDBRANCH  31  32
ENDBRANCH  23  26
ENDBRANCH  21  22
ENDBRANCH  20  21
ENDBRANCH   1  20
TORSDOF 17
ENDMDL
MODEL 3
REMARK VINA RESULT:     -10.4      3.859      8.398
REMARK SMILES C[C@H](C(=O)NCCCCNC(=O)c1ccc(-c2c3nc(c(-c4c(F)cc(S(=O)(=O)[O-])cc4F)c4ccc([nH]4)c(-c4c(F)cc(S(=O)(=O)[O-])cc4F)c4nc(c(-c5c(F)cc(S(=O)(=O)[O-])cc5F)c5ccc2[nH]5)C=C4)C=C3)cc1)[C@H](C)S(=O)(=O)C1CCOCC1
REMARK SMILES IDX 7 1 6 2 5 3 3 4 4 5 2 7 1 8 79 9 80 10 81 11 82 12 83 13
REMARK SMILES IDX 84 14 85 15 89 16 86 17 88 18 87 19 8 20 9 21 10 22 11 23
REMARK SMILES IDX 12 25 13 26 14 27 78 28 15 29 77 30 16 31 17 32 18 33 71 34
REMARK SMILES IDX 19 35 76 36 70 37 72 38 20 39 75 40 69 41 68 42 21 44 55 45
REMARK SMILES IDX 34 46 54 47 35 48 38 49 53 50 73 51 36 52 37 53 52 55 74 56
REMARK SMILES IDX 39 57 22 58 23 59 32 60 24 61 25 62 31 63 33 64 26 65 27 66
REMARK SMILES IDX 28 67 29 68 30 69 56 70 57 71 66 72 58 73 59 74 65 75 67 76
REMARK SMILES IDX 60 77 61 78 62 79 63 80 64 81 40 82 41 83 50 84 42 85 43 86
REMARK SMILES IDX 49 87 51 88 44 89 45 90 46 91 47 92 48 93
REMARK H PARENT 5 6 10 24 72 43 38 54
REMARK Flexibility Score: inf
ROOT
ATOM      1  C   UNL A   1      38.993  23.068  26.375  1.00  0.00     0.023 C 
ENDROOT
BRANCH   1   2
ATOM      2  C   UNL A   1      37.540  23.467  26.114  1.00  0.00     0.116 C 
BRANCH   2   3
ATOM      3  N   UNL A   1      37.322  23.556  24.686  1.00  0.00    -0.356 N 
ATOM      4  C   UNL A   1      36.256  23.154  23.942  1.00  0.00     0.224 C 
ATOM      5  O   UNL A   1      36.438  22.988  22.735  1.00  0.00    -0.275 OA
ATOM      6  H   UNL A   1      38.056  23.968  24.176  1.00  0.00     0.163 HD
BRANCH   4   7
ATOM      7  C   UNL A   1      34.861  23.026  24.576  1.00  0.00     0.093 C 
ATOM      8  C   UNL A   1      34.239  24.439  24.516  1.00  0.00     0.019 C 
BRANCH   7   9
ATOM      9  C   UNL A   1      33.963  21.932  23.948  1.00  0.00     0.118 C 
ATOM     10  C   UNL A   1      32.887  22.439  22.973  1.00  0.00     0.026 C 
BRANCH   9  11
ATOM     11  S   UNL A   1      33.173  20.683  25.068  1.00  0.00     0.156 S 
ATOM     12  O   UNL A   1      33.702  20.927  26.403  1.00  0.00    -0.228 OA
ATOM     13  O   UNL A   1      31.743  20.847  24.900  1.00  0.00    -0.228 OA
BRANCH  11  14
ATOM     14  C   UNL A   1      33.534  18.925  24.782  1.00  0.00     0.113 C 
ATOM     15  C   UNL A   1      33.251  18.321  23.422  1.00  0.00     0.048 C 
ATOM     16  C   UNL A   1      32.833  18.079  25.868  1.00  0.00     0.048 C 
ATOM     17  C   UNL A   1      33.613  16.840  23.410  1.00  0.00     0.161 C 
ATOM     18  C   UNL A   1      33.161  16.601  25.722  1.00  0.00     0.161 C 
ATOM     19  O   UNL A   1      32.864  16.149  24.404  1.00  0.00    -0.381 OA
ENDBRANCH  11  14
ENDBRANCH   9  11
ENDBRANCH   7   9
ENDBRANCH   4   7
ENDBRANCH   2   3
ENDBRANCH   1   2
BRANCH   1  20
ATOM     20  C   UNL A   1      39.376  21.705  25.809  1.00  0.00     0.023 C 
BRANCH  20  21
ATOM     21  C   UNL A   1      39.905  20.723  26.849  1.00  0.00     0.116 C 
BRANCH  21  22
ATOM     22  N   UNL A   1      40.687  19.623  26.296  1.00  0.00    -0.352 N 
ATOM     23  C   UNL A   1      42.032  19.597  25.992  1.00  0.00     0.251 C 
ATOM     24  H   UNL A   1      40.191  18.793  26.115  1.00  0.00     0.163 HD
ATOM     25  O   UNL A   1      42.543  18.616  25.482  1.00  0.00    -0.269 OA
BRANCH  23  26
ATOM     26  C   UNL A   1      42.826  20.815  26.252  1.00  0.00     0.039 A 
ATOM     27  C   UNL A   1      43.274  21.565  25.163  1.00  0.00     0.014 A 
ATOM     28  C   UNL A   1      43.025  21.263  27.560  1.00  0.00     0.014 A 
ATOM     29  C   UNL A   1      43.840  22.820  25.387  1.00  0.00     0.010 A 
ATOM     30  C   UNL A   1      43.513  22.545  27.775  1.00  0.00     0.010 A 
ATOM     31  C   UNL A   1      43.912  23.341  26.690  1.00  0.00    -0.014 A 
BRANCH  31  32
ATOM     32  C   UNL A   1      44.371  24.731  26.937  1.00  0.00     0.031 A 
ATOM     33  C   UNL A   1      43.392  25.780  27.380  1.00  0.00     0.074 A 
ATOM     34  C   UNL A   1      45.655  25.059  26.685  1.00  0.00     0.049 A 
ATOM     35  N   UNL A   1      43.586  27.059  27.576  1.00  0.00    -0.248 NA
ATOM     36  C   UNL A   1      42.003  25.343  27.603  1.00  0.00     0.031 C 
ATOM     37  C   UNL A   1      46.683  24.142  26.180  1.00  0.00     0.029 A 
ATOM     38  N   UNL A   1      46.314  26.255  26.808  1.00  0.00    -0.354 N 
ATOM     39  C   UNL A   1      42.347  27.580  27.927  1.00  0.00     0.074 A 
ATOM     40  C   UNL A   1      41.397  26.492  27.866  1.00  0.00     0.031 C 
ATOM     41  C   UNL A   1      47.845  24.804  26.064  1.00  0.00     0.029 A 
ATOM     42  C   UNL A   1      47.642  26.195  26.454  1.00  0.00     0.049 A 
ATOM     43  H   UNL A   1      45.878  27.081  27.121  1.00  0.00     0.167 HD
ATOM     44  C   UNL A   1      42.037  28.846  28.297  1.00  0.00     0.037 A 
ATOM     45  C   UNL A   1      48.587  27.154  26.444  1.00  0.00     0.037 A 
ATOM     46  C   UNL A   1      42.995  29.914  28.394  1.00  0.00     0.049 A 
ATOM     47  C   UNL A   1      48.222  28.543  26.892  1.00  0.00     0.074 A 
ATOM     48  C   UNL A   1      42.792  31.216  28.820  1.00  0.00     0.029 A 
ATOM     49  N   UNL A   1      44.339  29.805  28.069  1.00  0.00    -0.354 N 
ATOM     50  N   UNL A   1      47.058  29.004  27.284  1.00  0.00    -0.248 NA
ATOM     51  C   UNL A   1      49.301  29.541  26.905  1.00  0.00     0.031 C 
ATOM     52  C   UNL A   1      44.009  31.900  28.727  1.00  0.00     0.029 A 
ATOM     53  C   UNL A   1      44.976  31.015  28.277  1.00  0.00     0.049 A 
ATOM     54  H   UNL A   1      44.776  28.985  27.740  1.00  0.00     0.167 HD
ATOM     55  C   UNL A   1      47.269  30.338  27.611  1.00  0.00     0.074 A 
ATOM     56  C   UNL A   1      48.675  30.606  27.387  1.00  0.00     0.031 C 
ATOM     57  C   UNL A   1      46.379  31.260  28.054  1.00  0.00     0.037 A 
BRANCH  44  58
ATOM     58  C   UNL A   1      40.605  29.134  28.646  1.00  0.00     0.058 A 
ATOM     59  C   UNL A   1      40.177  29.199  29.982  1.00  0.00     0.135 A 
ATOM     60  C   UNL A   1      39.658  29.385  27.640  1.00  0.00     0.135 A 
ATOM     61  F   UNL A   1      41.038  28.949  30.981  1.00  0.00    -0.206 F 
ATOM     62  C   UNL A   1      38.855  29.480  30.308  1.00  0.00     0.059 A 
ATOM     63  C   UNL A   1      38.335  29.692  27.946  1.00  0.00     0.059 A 
ATOM     64  F   UNL A   1      40.013  29.331  26.347  1.00  0.00    -0.206 F 
ATOM     65  C   UNL A   1      37.940  29.725  29.283  1.00  0.00     0.060 A 
BRANCH  65  66
ATOM     66  S   UNL A   1      36.232  30.105  29.725  1.00  0.00     0.124 S 
ATOM     67  O   UNL A   1      36.105  29.421  31.008  1.00  0.00    -0.237 OA
ATOM     68  O   UNL A   1      36.239  31.563  29.782  1.00  0.00    -0.237 OA
ATOM     69  O   UNL A   1      35.462  29.527  28.628  1.00  0.00    -0.744 OA
ENDBRANCH  65  66
ENDBRANCH  44  58
BRANCH  45  70
ATOM     70  C   UNL A   1      49.976  26.833  26.024  1.00  0.00     0.058 A 
ATOM     71  C   UNL A   1      50.933  26.414  26.961  1.00  0.00     0.135 A 
ATOM     72  C   UNL A   1      50.377  26.943  24.684  1.00  0.00     0.135 A 
ATOM     73  F   UNL A   1      50.597  26.298  28.255  1.00  0.00    -0.206 F 
ATOM     74  C   UNL A   1      52.245  26.142  26.591  1.00  0.00     0.059 A 
ATOM     75  C   UNL A   1      51.679  26.653  24.285  1.00  0.00     0.059 A 
ATOM     76  F   UNL A   1      49.494  27.319  23.747  1.00  0.00    -0.206 F 
ATOM     77  C   UNL A   1      52.610  26.268  25.249  1.00  0.00     0.060 A 
BRANCH  77  78
ATOM     78  S   UNL A   1      54.310  25.887  24.771  1.00  0.00     0.124 S 
ATOM     79  O   UNL A   1      54.368  24.450  25.015  1.00  0.00    -0.237 OA
ATOM     80  O   UNL A   1      54.336  26.299  23.370  1.00  0.00    -0.237 OA
ATOM     81  O   UNL A   1      55.103  26.715  25.673  1.00  0.00    -0.744 OA
ENDBRANCH  77  78
ENDBRANCH  45  70
BRANCH  57  82
ATOM     82  C   UNL A   1      46.906  32.634  28.351  1.00  0.00     0.058 A 
ATOM     83  C   UNL A   1      47.440  32.959  29.608  1.00  0.00     0.135 A 
ATOM     84  C   UNL A   1      46.911  33.625  27.356  1.00  0.00     0.135 A 
ATOM     85  F   UNL A   1      47.452  32.049  30.594  1.00  0.00    -0.206 F 
ATOM     86  C   UNL A   1      47.936  34.231  29.878  1.00  0.00     0.059 A 
ATOM     87  C   UNL A   1      47.425  34.895  27.597  1.00  0.00     0.059 A 
ATOM     88  F   UNL A   1      46.422  33.360  26.135  1.00  0.00    -0.206 F 
ATOM     89  C   UNL A   1      47.923  35.193  28.865  1.00  0.00     0.060 A 
BRANCH  89  90
ATOM     90  S   UNL A   1      48.591  36.832  29.218  1.00  0.00     0.124 S 
ATOM     91  O   UNL A   1      47.376  37.586  29.511  1.00  0.00    -0.237 OA
ATOM     92  O   UNL A   1      49.469  36.576  30.355  1.00  0.00    -0.237 OA
ATOM     93  O   UNL A   1      49.271  37.193  27.978  1.00  0.00    -0.744 OA
ENDBRANCH  89  90
ENDBRANCH  57  82
ENDBRANCH  31  32
ENDBRANCH  23  26
ENDBRANCH  21  22
ENDBRANCH  20  21
ENDBRANCH   1  20
TORSDOF 17
ENDMDL
