MODEL 1
REMARK VINA RESULT:     -13.8      0.000      0.000
REMARK SMILES Cc1ccc(NC(=O)C[C@@H]2C[NH2+]CCO2)c(C(=O)NCCCCNC(=O)c2ccc(-c3c4nc(c(-c5c(F)cc(S(=O)(=O)[O-])cc5F)c5ccc([nH]5)c(-c5c(F)cc(S(=O)(=O)[O-])cc5F)c5nc(c(-c6c(F)cc(S(=O)(=O)[O-])cc6F)c6ccc3[nH]6)C=C5)C=C4)cc2)c1
REMARK SMILES IDX 21 1 20 2 19 3 17 4 18 5 16 7 1 8 2 9 3 10 93 11 4 12 5 13
REMARK SMILES IDX 6 14 7 15 8 17 9 18 10 19 11 20 15 21 12 22 14 23 13 24
REMARK SMILES IDX 22 27 23 28 24 29 25 30 26 32 27 33 28 34 92 35 29 36 91 37
REMARK SMILES IDX 30 38 31 39 32 40 85 41 33 42 90 43 84 44 86 45 34 46 89 47
REMARK SMILES IDX 83 48 82 49 35 51 69 52 48 53 68 54 49 55 52 56 67 57 87 58
REMARK SMILES IDX 50 59 51 60 66 62 88 63 53 64 36 65 37 66 46 67 38 68 39 69
REMARK SMILES IDX 45 70 47 71 40 72 41 73 42 74 43 75 44 76 70 77 71 78 80 79
REMARK SMILES IDX 72 80 73 81 79 82 81 83 74 84 75 85 76 86 77 87 78 88 54 89
REMARK SMILES IDX 55 90 64 91 56 92 57 93 63 94 65 95 58 96 59 97 60 98 61 99
REMARK SMILES IDX 62 100
REMARK H PARENT 19 6 6 16 12 25 12 26 24 31 86 50 52 61
REMARK Flexibility Score: inf
ROOT
ATOM      1  C   UNL A   1      32.656  28.228  27.273  1.00  0.00     0.023 C 
ENDROOT
BRANCH   1   2
ATOM      2  C   UNL A   1      31.308  27.994  26.571  1.00  0.00     0.116 C 
BRANCH   2   3
ATOM      3  N   UNL A   1      30.813  26.641  26.793  1.00  0.00    -0.352 N 
ATOM      4  C   UNL A   1      31.075  25.427  26.206  1.00  0.00     0.253 C 
ATOM      5  O   UNL A   1      30.545  24.442  26.728  1.00  0.00    -0.269 OA
ATOM      6  H   UNL A   1      30.147  26.586  27.518  1.00  0.00     0.163 HD
BRANCH   4   7
ATOM      7  C   UNL A   1      32.001  25.242  25.043  1.00  0.00     0.063 A 
ATOM      8  C   UNL A   1      32.053  25.947  21.291  1.00  0.00     0.044 C 
ATOM      9  C   UNL A   1      32.512  25.562  22.666  1.00  0.00    -0.050 A 
ATOM     10  C   UNL A   1      33.797  25.081  22.884  1.00  0.00     0.005 A 
ATOM     11  C   UNL A   1      31.627  25.633  23.748  1.00  0.00     0.019 A 
ATOM     12  C   UNL A   1      34.159  24.601  24.144  1.00  0.00     0.027 A 
ATOM     13  C   UNL A   1      33.243  24.579  25.203  1.00  0.00     0.054 A 
BRANCH  13  14
ATOM     14  N   UNL A   1      33.500  23.848  26.391  1.00  0.00    -0.325 N 
ATOM     15  C   UNL A   1      33.216  22.555  26.741  1.00  0.00     0.227 C 
ATOM     16  H   UNL A   1      33.966  24.362  27.088  1.00  0.00     0.169 HD
ATOM     17  O   UNL A   1      33.495  22.177  27.887  1.00  0.00    -0.275 OA
BRANCH  15  18
ATOM     18  C   UNL A   1      32.551  21.569  25.802  1.00  0.00     0.138 C 
BRANCH  18  19
ATOM     19  C   UNL A   1      33.128  20.144  25.787  1.00  0.00     0.182 C 
ATOM     20  C   UNL A   1      34.440  20.145  24.957  1.00  0.00     0.293 C 
ATOM     21  O   UNL A   1      32.192  19.205  25.251  1.00  0.00    -0.366 OA
ATOM     22  N   UNL A   1      35.021  18.804  24.753  1.00  0.00    -0.342 N 
ATOM     23  C   UNL A   1      32.736  17.899  25.076  1.00  0.00     0.222 C 
ATOM     24  C   UNL A   1      33.973  17.941  24.175  1.00  0.00     0.289 C 
ATOM     25  H   UNL A   1      35.333  18.421  25.646  1.00  0.00     0.346 HD
ATOM     26  H   UNL A   1      35.824  18.856  24.127  1.00  0.00     0.346 HD
ENDBRANCH  18  19
ENDBRANCH  15  18
ENDBRANCH  13  14
ENDBRANCH   4   7
ENDBRANCH   2   3
ENDBRANCH   1   2
BRANCH   1  27
ATOM     27  C   UNL A   1      33.114  29.691  27.282  1.00  0.00     0.023 C 
BRANCH  27  28
ATOM     28  C   UNL A   1      34.553  29.857  26.810  1.00  0.00     0.116 C 
BRANCH  28  29
ATOM     29  N   UNL A   1      35.231  31.026  27.339  1.00  0.00    -0.352 N 
ATOM     30  C   UNL A   1      36.362  31.047  28.143  1.00  0.00     0.251 C 
ATOM     31  H   UNL A   1      34.845  31.901  27.103  1.00  0.00     0.163 HD
ATOM     32  O   UNL A   1      36.684  32.024  28.787  1.00  0.00    -0.269 OA
BRANCH  30  33
ATOM     33  C   UNL A   1      37.253  29.865  28.062  1.00  0.00     0.039 A 
ATOM     34  C   UNL A   1      37.281  29.024  29.181  1.00  0.00     0.014 A 
ATOM     35  C   UNL A   1      38.221  29.768  27.066  1.00  0.00     0.014 A 
ATOM     36  C   UNL A   1      38.389  28.209  29.397  1.00  0.00     0.010 A 
ATOM     37  C   UNL A   1      39.354  29.015  27.321  1.00  0.00     0.010 A 
ATOM     38  C   UNL A   1      39.462  28.281  28.512  1.00  0.00    -0.014 A 
BRANCH  38  39
ATOM     39  C   UNL A   1      40.778  27.713  28.788  1.00  0.00     0.031 A 
ATOM     40  C   UNL A   1      41.053  26.286  28.490  1.00  0.00     0.074 A 
ATOM     41  C   UNL A   1      41.778  28.510  29.228  1.00  0.00     0.049 A 
ATOM     42  N   UNL A   1      42.113  25.658  28.875  1.00  0.00    -0.248 NA
ATOM     43  C   UNL A   1      40.101  25.418  27.798  1.00  0.00     0.031 C 
ATOM     44  C   UNL A   1      43.212  28.238  29.174  1.00  0.00     0.029 A 
ATOM     45  N   UNL A   1      41.680  29.656  30.016  1.00  0.00    -0.354 N 
ATOM     46  C   UNL A   1      42.127  24.436  28.249  1.00  0.00     0.074 A 
ATOM     47  C   UNL A   1      40.802  24.283  27.707  1.00  0.00     0.031 C 
ATOM     48  C   UNL A   1      43.845  29.030  30.053  1.00  0.00     0.029 A 
ATOM     49  C   UNL A   1      42.828  29.721  30.824  1.00  0.00     0.049 A 
ATOM     50  H   UNL A   1      40.939  30.304  30.008  1.00  0.00     0.167 HD
ATOM     51  C   UNL A   1      43.306  23.762  28.149  1.00  0.00     0.037 A 
ATOM     52  C   UNL A   1      42.742  29.674  32.188  1.00  0.00     0.037 A 
ATOM     53  C   UNL A   1      44.290  24.298  29.092  1.00  0.00     0.049 A 
ATOM     54  C   UNL A   1      43.415  28.473  32.817  1.00  0.00     0.074 A 
ATOM     55  C   UNL A   1      45.425  25.077  28.957  1.00  0.00     0.029 A 
ATOM     56  N   UNL A   1      44.009  24.242  30.456  1.00  0.00    -0.354 N 
ATOM     57  N   UNL A   1      43.826  27.430  32.151  1.00  0.00    -0.248 NA
ATOM     58  C   UNL A   1      43.658  28.344  34.252  1.00  0.00     0.031 C 
ATOM     59  C   UNL A   1      45.749  25.593  30.243  1.00  0.00     0.029 A 
ATOM     60  C   UNL A   1      44.847  25.082  31.163  1.00  0.00     0.049 A 
ATOM     61  H   UNL A   1      43.309  23.681  30.861  1.00  0.00     0.167 HD
ATOM     62  C   UNL A   1      44.300  26.482  33.022  1.00  0.00     0.074 A 
ATOM     63  C   UNL A   1      44.219  27.124  34.322  1.00  0.00     0.031 C 
ATOM     64  C   UNL A   1      44.689  25.240  32.606  1.00  0.00     0.037 A 
BRANCH  51  65
ATOM     65  C   UNL A   1      43.641  22.741  27.073  1.00  0.00     0.058 A 
ATOM     66  C   UNL A   1      42.939  21.515  27.005  1.00  0.00     0.135 A 
ATOM     67  C   UNL A   1      44.734  22.832  26.179  1.00  0.00     0.135 A 
ATOM     68  F   UNL A   1      41.892  21.274  27.810  1.00  0.00    -0.206 F 
ATOM     69  C   UNL A   1      43.301  20.471  26.143  1.00  0.00     0.059 A 
ATOM     70  C   UNL A   1      45.081  21.826  25.275  1.00  0.00     0.059 A 
ATOM     71  F   UNL A   1      45.577  23.870  26.179  1.00  0.00    -0.206 F 
ATOM     72  C   UNL A   1      44.379  20.635  25.282  1.00  0.00     0.060 A 
BRANCH  72  73
ATOM     73  S   UNL A   1      44.886  19.282  24.202  1.00  0.00     0.124 S 
ATOM     74  O   UNL A   1      44.175  18.150  24.787  1.00  0.00    -0.237 OA
ATOM     75  O   UNL A   1      44.414  19.726  22.896  1.00  0.00    -0.237 OA
ATOM     76  O   UNL A   1      46.338  19.252  24.357  1.00  0.00    -0.744 OA
ENDBRANCH  72  73
ENDBRANCH  51  65
BRANCH  52  77
ATOM     77  C   UNL A   1      41.543  30.375  32.720  1.00  0.00     0.058 A 
ATOM     78  C   UNL A   1      40.459  29.573  33.123  1.00  0.00     0.135 A 
ATOM     79  C   UNL A   1      41.638  31.664  33.264  1.00  0.00     0.135 A 
ATOM     80  F   UNL A   1      40.308  28.340  32.610  1.00  0.00    -0.206 F 
ATOM     81  C   UNL A   1      39.622  29.951  34.165  1.00  0.00     0.059 A 
ATOM     82  C   UNL A   1      40.801  32.069  34.306  1.00  0.00     0.059 A 
ATOM     83  F   UNL A   1      42.643  32.476  32.908  1.00  0.00    -0.206 F 
ATOM     84  C   UNL A   1      39.856  31.167  34.801  1.00  0.00     0.060 A 
BRANCH  84  85
ATOM     85  S   UNL A   1      39.056  31.443  36.401  1.00  0.00     0.124 S 
ATOM     86  O   UNL A   1      40.189  31.782  37.255  1.00  0.00    -0.237 OA
ATOM     87  O   UNL A   1      38.152  32.547  36.083  1.00  0.00    -0.237 OA
ATOM     88  O   UNL A   1      38.416  30.163  36.679  1.00  0.00    -0.744 OA
ENDBRANCH  84  85
ENDBRANCH  52  77
BRANCH  64  89
ATOM     89  C   UNL A   1      45.013  24.078  33.520  1.00  0.00     0.058 A 
ATOM     90  C   UNL A   1      44.134  23.014  33.787  1.00  0.00     0.135 A 
ATOM     91  C   UNL A   1      46.312  23.943  34.067  1.00  0.00     0.135 A 
ATOM     92  F   UNL A   1      42.918  22.957  33.225  1.00  0.00    -0.206 F 
ATOM     93  C   UNL A   1      44.484  21.937  34.606  1.00  0.00     0.059 A 
ATOM     94  C   UNL A   1      46.700  22.850  34.841  1.00  0.00     0.059 A 
ATOM     95  F   UNL A   1      47.256  24.873  33.857  1.00  0.00    -0.206 F 
ATOM     96  C   UNL A   1      45.768  21.865  35.133  1.00  0.00     0.060 A 
BRANCH  96  97
ATOM     97  S   UNL A   1      46.249  20.459  36.155  1.00  0.00     0.124 S 
ATOM     98  O   UNL A   1      47.699  20.465  35.993  1.00  0.00    -0.237 OA
ATOM     99  O   UNL A   1      45.763  20.832  37.480  1.00  0.00    -0.237 OA
ATOM    100  O   UNL A   1      45.544  19.343  35.530  1.00  0.00    -0.744 OA
ENDBRANCH  96  97
ENDBRANCH  64  89
ENDBRANCH  38  39
ENDBRANCH  30  33
ENDBRANCH  28  29
ENDBRANCH  27  28
ENDBRANCH   1  27
TORSDOF 17
ENDMDL
MODEL 2
REMARK VINA RESULT:     -13.5      1.933      3.815
REMARK SMILES Cc1ccc(NC(=O)C[C@@H]2C[NH2+]CCO2)c(C(=O)NCCCCNC(=O)c2ccc(-c3c4nc(c(-c5c(F)cc(S(=O)(=O)[O-])cc5F)c5ccc([nH]5)c(-c5c(F)cc(S(=O)(=O)[O-])cc5F)c5nc(c(-c6c(F)cc(S(=O)(=O)[O-])cc6F)c6ccc3[nH]6)C=C5)C=C4)cc2)c1
REMARK SMILES IDX 21 1 20 2 19 3 17 4 18 5 16 7 1 8 2 9 3 10 93 11 4 12 5 13
REMARK SMILES IDX 6 14 7 15 8 17 9 18 10 19 11 20 15 21 12 22 14 23 13 24
REMARK SMILES IDX 22 27 23 28 24 29 25 30 26 32 27 33 28 34 92 35 29 36 91 37
REMARK SMILES IDX 30 38 31 39 32 40 85 41 33 42 90 43 84 44 86 45 34 46 89 47
REMARK SMILES IDX 83 48 82 49 35 51 69 52 48 53 68 54 49 55 52 56 67 57 87 58
REMARK SMILES IDX 50 59 51 60 66 62 88 63 53 64 36 65 37 66 46 67 38 68 39 69
REMARK SMILES IDX 45 70 47 71 40 72 41 73 42 74 43 75 44 76 70 77 71 78 80 79
REMARK SMILES IDX 72 80 73 81 79 82 81 83 74 84 75 85 76 86 77 87 78 88 54 89
REMARK SMILES IDX 55 90 64 91 56 92 57 93 63 94 65 95 58 96 59 97 60 98 61 99
REMARK SMILES IDX 62 100
REMARK H PARENT 19 6 6 16 12 25 12 26 24 31 86 50 52 61
REMARK Flexibility Score: inf
ROOT
ATOM      1  C   UNL A   1      33.471  27.674  26.218  1.00  0.00     0.023 C 
ENDROOT
BRANCH   1   2
ATOM      2  C   UNL A   1      31.941  27.689  26.370  1.00  0.00     0.116 C 
BRANCH   2   3
ATOM      3  N   UNL A   1      31.437  26.417  26.872  1.00  0.00    -0.352 N 
ATOM      4  C   UNL A   1      31.502  25.123  26.413  1.00  0.00     0.253 C 
ATOM      5  O   UNL A   1      31.049  24.254  27.162  1.00  0.00    -0.269 OA
ATOM      6  H   UNL A   1      30.944  26.503  27.720  1.00  0.00     0.163 HD
BRANCH   4   7
ATOM      7  C   UNL A   1      32.141  24.726  25.117  1.00  0.00     0.063 A 
ATOM      8  C   UNL A   1      35.537  23.519  23.857  1.00  0.00     0.044 C 
ATOM      9  C   UNL A   1      34.080  23.874  23.882  1.00  0.00    -0.050 A 
ATOM     10  C   UNL A   1      33.304  23.795  22.731  1.00  0.00     0.005 A 
ATOM     11  C   UNL A   1      33.490  24.343  25.061  1.00  0.00     0.019 A 
ATOM     12  C   UNL A   1      31.988  24.258  22.744  1.00  0.00     0.027 A 
ATOM     13  C   UNL A   1      31.427  24.820  23.897  1.00  0.00     0.054 A 
BRANCH  13  14
ATOM     14  N   UNL A   1      30.206  25.542  23.853  1.00  0.00    -0.325 N 
ATOM     15  C   UNL A   1      29.904  26.788  23.372  1.00  0.00     0.227 C 
ATOM     16  H   UNL A   1      29.438  25.060  24.236  1.00  0.00     0.169 HD
ATOM     17  O   UNL A   1      28.752  27.216  23.518  1.00  0.00    -0.275 OA
BRANCH  15  18
ATOM     18  C   UNL A   1      30.921  27.682  22.693  1.00  0.00     0.138 C 
BRANCH  18  19
ATOM     19  C   UNL A   1      30.516  29.153  22.498  1.00  0.00     0.182 C 
ATOM     20  C   UNL A   1      30.209  29.774  23.887  1.00  0.00     0.293 C 
ATOM     21  O   UNL A   1      29.386  29.274  21.630  1.00  0.00    -0.366 OA
ATOM     22  N   UNL A   1      29.675  31.148  23.824  1.00  0.00    -0.342 N 
ATOM     23  C   UNL A   1      28.879  30.604  21.540  1.00  0.00     0.222 C 
ATOM     24  C   UNL A   1      28.505  31.137  22.926  1.00  0.00     0.289 C 
ATOM     25  H   UNL A   1      30.387  31.780  23.459  1.00  0.00     0.346 HD
ATOM     26  H   UNL A   1      29.406  31.468  24.754  1.00  0.00     0.346 HD
ENDBRANCH  18  19
ENDBRANCH  15  18
ENDBRANCH  13  14
ENDBRANCH   4   7
ENDBRANCH   2   3
ENDBRANCH   1   2
BRANCH   1  27
ATOM     27  C   UNL A   1      34.122  29.061  26.280  1.00  0.00     0.023 C 
BRANCH  27  28
ATOM     28  C   UNL A   1      34.293  29.564  27.708  1.00  0.00     0.116 C 
BRANCH  28  29
ATOM     29  N   UNL A   1      35.061  30.790  27.828  1.00  0.00    -0.352 N 
ATOM     30  C   UNL A   1      36.331  30.935  28.369  1.00  0.00     0.251 C 
ATOM     31  H   UNL A   1      34.633  31.609  27.489  1.00  0.00     0.163 HD
ATOM     32  O   UNL A   1      36.773  32.012  28.710  1.00  0.00    -0.269 OA
BRANCH  30  33
ATOM     33  C   UNL A   1      37.189  29.727  28.372  1.00  0.00     0.039 A 
ATOM     34  C   UNL A   1      37.314  29.049  29.592  1.00  0.00     0.014 A 
ATOM     35  C   UNL A   1      38.054  29.462  27.313  1.00  0.00     0.014 A 
ATOM     36  C   UNL A   1      38.424  28.239  29.815  1.00  0.00     0.010 A 
ATOM     37  C   UNL A   1      39.194  28.720  27.564  1.00  0.00     0.010 A 
ATOM     38  C   UNL A   1      39.406  28.155  28.831  1.00  0.00    -0.014 A 
BRANCH  38  39
ATOM     39  C   UNL A   1      40.733  27.592  29.060  1.00  0.00     0.031 A 
ATOM     40  C   UNL A   1      41.013  26.177  28.715  1.00  0.00     0.074 A 
ATOM     41  C   UNL A   1      41.737  28.386  29.497  1.00  0.00     0.049 A 
ATOM     42  N   UNL A   1      42.087  25.547  29.057  1.00  0.00    -0.248 NA
ATOM     43  C   UNL A   1      40.052  25.319  28.022  1.00  0.00     0.031 C 
ATOM     44  C   UNL A   1      43.172  28.129  29.401  1.00  0.00     0.029 A 
ATOM     45  N   UNL A   1      41.648  29.509  30.319  1.00  0.00    -0.354 N 
ATOM     46  C   UNL A   1      42.097  24.344  28.397  1.00  0.00     0.074 A 
ATOM     47  C   UNL A   1      40.761  24.193  27.882  1.00  0.00     0.031 C 
ATOM     48  C   UNL A   1      43.819  28.902  30.286  1.00  0.00     0.029 A 
ATOM     49  C   UNL A   1      42.815  29.562  31.101  1.00  0.00     0.049 A 
ATOM     50  H   UNL A   1      40.902  30.150  30.347  1.00  0.00     0.167 HD
ATOM     51  C   UNL A   1      43.279  23.684  28.249  1.00  0.00     0.037 A 
ATOM     52  C   UNL A   1      42.763  29.476  32.464  1.00  0.00     0.037 A 
ATOM     53  C   UNL A   1      44.281  24.202  29.182  1.00  0.00     0.049 A 
ATOM     54  C   UNL A   1      43.461  28.265  33.043  1.00  0.00     0.074 A 
ATOM     55  C   UNL A   1      45.405  24.996  29.042  1.00  0.00     0.029 A 
ATOM     56  N   UNL A   1      44.034  24.106  30.551  1.00  0.00    -0.354 N 
ATOM     57  N   UNL A   1      43.865  27.244  32.338  1.00  0.00    -0.248 NA
ATOM     58  C   UNL A   1      43.741  28.098  34.468  1.00  0.00     0.031 C 
ATOM     59  C   UNL A   1      45.756  25.479  30.334  1.00  0.00     0.029 A 
ATOM     60  C   UNL A   1      44.882  24.934  31.261  1.00  0.00     0.049 A 
ATOM     61  H   UNL A   1      43.349  23.528  30.956  1.00  0.00     0.167 HD
ATOM     62  C   UNL A   1      44.368  26.277  33.170  1.00  0.00     0.074 A 
ATOM     63  C   UNL A   1      44.313  26.882  34.489  1.00  0.00     0.031 C 
ATOM     64  C   UNL A   1      44.758  25.051  32.711  1.00  0.00     0.037 A 
BRANCH  51  65
ATOM     65  C   UNL A   1      43.596  22.696  27.137  1.00  0.00     0.058 A 
ATOM     66  C   UNL A   1      42.883  21.479  27.035  1.00  0.00     0.135 A 
ATOM     67  C   UNL A   1      44.683  22.808  26.237  1.00  0.00     0.135 A 
ATOM     68  F   UNL A   1      41.840  21.221  27.840  1.00  0.00    -0.206 F 
ATOM     69  C   UNL A   1      43.229  20.461  26.136  1.00  0.00     0.059 A 
ATOM     70  C   UNL A   1      45.013  21.830  25.298  1.00  0.00     0.059 A 
ATOM     71  F   UNL A   1      45.534  23.838  26.265  1.00  0.00    -0.206 F 
ATOM     72  C   UNL A   1      44.301  20.644  25.271  1.00  0.00     0.060 A 
BRANCH  72  73
ATOM     73  S   UNL A   1      44.787  19.324  24.143  1.00  0.00     0.124 S 
ATOM     74  O   UNL A   1      43.926  18.229  24.576  1.00  0.00    -0.237 OA
ATOM     75  O   UNL A   1      44.485  19.896  22.837  1.00  0.00    -0.237 OA
ATOM     76  O   UNL A   1      46.210  19.145  24.425  1.00  0.00    -0.744 OA
ENDBRANCH  72  73
ENDBRANCH  51  65
BRANCH  52  77
ATOM     77  C   UNL A   1      41.571  30.151  33.045  1.00  0.00     0.058 A 
ATOM     78  C   UNL A   1      41.623  31.554  33.157  1.00  0.00     0.135 A 
ATOM     79  C   UNL A   1      40.308  29.545  33.018  1.00  0.00     0.135 A 
ATOM     80  F   UNL A   1      42.810  32.180  33.215  1.00  0.00    -0.206 F 
ATOM     81  C   UNL A   1      40.480  32.334  33.044  1.00  0.00     0.059 A 
ATOM     82  C   UNL A   1      39.144  30.311  32.912  1.00  0.00     0.059 A 
ATOM     83  F   UNL A   1      40.199  28.212  32.923  1.00  0.00    -0.206 F 
ATOM     84  C   UNL A   1      39.256  31.701  32.841  1.00  0.00     0.060 A 
BRANCH  84  85
ATOM     85  S   UNL A   1      37.872  32.718  32.270  1.00  0.00     0.124 S 
ATOM     86  O   UNL A   1      38.456  33.417  31.130  1.00  0.00    -0.237 OA
ATOM     87  O   UNL A   1      36.880  31.694  31.942  1.00  0.00    -0.237 OA
ATOM     88  O   UNL A   1      37.566  33.546  33.430  1.00  0.00    -0.744 OA
ENDBRANCH  84  85
ENDBRANCH  52  77
BRANCH  64  89
ATOM     89  C   UNL A   1      45.115  23.867  33.583  1.00  0.00     0.058 A 
ATOM     90  C   UNL A   1      44.210  22.855  33.950  1.00  0.00     0.135 A 
ATOM     91  C   UNL A   1      46.457  23.653  33.980  1.00  0.00     0.135 A 
ATOM     92  F   UNL A   1      42.936  22.873  33.531  1.00  0.00    -0.206 F 
ATOM     93  C   UNL A   1      44.586  21.755  34.726  1.00  0.00     0.059 A 
ATOM     94  C   UNL A   1      46.865  22.535  34.706  1.00  0.00     0.059 A 
ATOM     95  F   UNL A   1      47.424  24.527  33.663  1.00  0.00    -0.206 F 
ATOM     96  C   UNL A   1      45.915  21.605  35.104  1.00  0.00     0.060 A 
BRANCH  96  97
ATOM     97  S   UNL A   1      46.425  20.168  36.067  1.00  0.00     0.124 S 
ATOM     98  O   UNL A   1      45.646  20.344  37.288  1.00  0.00    -0.237 OA
ATOM     99  O   UNL A   1      46.023  19.047  35.222  1.00  0.00    -0.237 OA
ATOM    100  O   UNL A   1      47.866  20.355  36.200  1.00  0.00    -0.744 OA
ENDBRANCH  96  97
ENDBRANCH  64  89
ENDBRANCH  38  39
ENDBRANCH  30  33
ENDBRANCH  28  29
ENDBRANCH  27  28
ENDBRANCH   1  27
TORSDOF 17
ENDMDL
MODEL 3
REMARK VINA RESULT:     -13.4      2.504      3.633
REMARK SMILES Cc1ccc(NC(=O)C[C@@H]2C[NH2+]CCO2)c(C(=O)NCCCCNC(=O)c2ccc(-c3c4nc(c(-c5c(F)cc(S(=O)(=O)[O-])cc5F)c5ccc([nH]5)c(-c5c(F)cc(S(=O)(=O)[O-])cc5F)c5nc(c(-c6c(F)cc(S(=O)(=O)[O-])cc6F)c6ccc3[nH]6)C=C5)C=C4)cc2)c1
REMARK SMILES IDX 21 1 20 2 19 3 17 4 18 5 16 7 1 8 2 9 3 10 93 11 4 12 5 13
REMARK SMILES IDX 6 14 7 15 8 17 9 18 10 19 11 20 15 21 12 22 14 23 13 24
REMARK SMILES IDX 22 27 23 28 24 29 25 30 26 32 27 33 28 34 92 35 29 36 91 37
REMARK SMILES IDX 30 38 31 39 32 40 85 41 33 42 90 43 84 44 86 45 34 46 89 47
REMARK SMILES IDX 83 48 82 49 35 51 69 52 48 53 68 54 49 55 52 56 67 57 87 58
REMARK SMILES IDX 50 59 51 60 66 62 88 63 53 64 36 65 37 66 46 67 38 68 39 69
REMARK SMILES IDX 45 70 47 71 40 72 41 73 42 74 43 75 44 76 70 77 71 78 80 79
REMARK SMILES IDX 72 80 73 81 79 82 81 83 74 84 75 85 76 86 77 87 78 88 54 89
REMARK SMILES IDX 55 90 64 91 56 92 57 93 63 94 65 95 58 96 59 97 60 98 61 99
REMARK SMILES IDX 62 100
REMARK H PARENT 19 6 6 16 12 25 12 26 24 31 86 50 52 61
REMARK Flexibility Score: inf
ROOT
ATOM      1  C   UNL A   1      34.102  27.630  25.341  1.00  0.00     0.023 C 
ENDROOT
BRANCH   1   2
ATOM      2  C   UNL A   1      33.493  26.535  24.449  1.00  0.00     0.116 C 
BRANCH   2   3
ATOM      3  N   UNL A   1      32.849  25.492  25.239  1.00  0.00    -0.352 N 
ATOM      4  C   UNL A   1      33.247  24.251  25.675  1.00  0.00     0.253 C 
ATOM      5  O   UNL A   1      32.471  23.664  26.434  1.00  0.00    -0.269 OA
ATOM      6  H   UNL A   1      31.935  25.728  25.519  1.00  0.00     0.163 HD
BRANCH   4   7
ATOM      7  C   UNL A   1      34.567  23.629  25.337  1.00  0.00     0.063 A 
ATOM      8  C   UNL A   1      38.249  24.065  26.247  1.00  0.00     0.044 C 
ATOM      9  C   UNL A   1      36.992  23.486  25.670  1.00  0.00    -0.050 A 
ATOM     10  C   UNL A   1      37.029  22.353  24.866  1.00  0.00     0.005 A 
ATOM     11  C   UNL A   1      35.761  24.113  25.893  1.00  0.00     0.019 A 
ATOM     12  C   UNL A   1      35.869  21.910  24.229  1.00  0.00     0.027 A 
ATOM     13  C   UNL A   1      34.656  22.596  24.371  1.00  0.00     0.054 A 
BRANCH  13  14
ATOM     14  N   UNL A   1      33.550  22.331  23.524  1.00  0.00    -0.325 N 
ATOM     15  C   UNL A   1      32.604  21.341  23.546  1.00  0.00     0.227 C 
ATOM     16  H   UNL A   1      33.442  22.975  22.787  1.00  0.00     0.169 HD
ATOM     17  O   UNL A   1      31.769  21.299  22.634  1.00  0.00    -0.275 OA
BRANCH  15  18
ATOM     18  C   UNL A   1      32.546  20.276  24.622  1.00  0.00     0.138 C 
BRANCH  18  19
ATOM     19  C   UNL A   1      33.006  18.866  24.213  1.00  0.00     0.182 C 
ATOM     20  C   UNL A   1      32.153  17.821  24.981  1.00  0.00     0.293 C 
ATOM     21  O   UNL A   1      34.398  18.673  24.474  1.00  0.00    -0.366 OA
ATOM     22  N   UNL A   1      32.590  16.426  24.777  1.00  0.00    -0.342 N 
ATOM     23  C   UNL A   1      34.836  17.334  24.253  1.00  0.00     0.222 C 
ATOM     24  C   UNL A   1      34.027  16.351  25.103  1.00  0.00     0.289 C 
ATOM     25  H   UNL A   1      32.439  16.154  23.806  1.00  0.00     0.346 HD
ATOM     26  H   UNL A   1      32.056  15.795  25.375  1.00  0.00     0.346 HD
ENDBRANCH  18  19
ENDBRANCH  15  18
ENDBRANCH  13  14
ENDBRANCH   4   7
ENDBRANCH   2   3
ENDBRANCH   1   2
BRANCH   1  27
ATOM     27  C   UNL A   1      33.270  28.916  25.413  1.00  0.00     0.023 C 
BRANCH  27  28
ATOM     28  C   UNL A   1      33.038  29.383  26.845  1.00  0.00     0.116 C 
BRANCH  28  29
ATOM     29  N   UNL A   1      33.416  30.761  27.099  1.00  0.00    -0.352 N 
ATOM     30  C   UNL A   1      34.446  31.212  27.913  1.00  0.00     0.251 C 
ATOM     31  H   UNL A   1      32.883  31.452  26.643  1.00  0.00     0.163 HD
ATOM     32  O   UNL A   1      34.506  32.356  28.313  1.00  0.00    -0.269 OA
BRANCH  30  33
ATOM     33  C   UNL A   1      35.561  30.265  28.154  1.00  0.00     0.039 A 
ATOM     34  C   UNL A   1      35.694  29.772  29.459  1.00  0.00     0.014 A 
ATOM     35  C   UNL A   1      36.585  30.116  27.222  1.00  0.00     0.014 A 
ATOM     36  C   UNL A   1      36.929  29.294  29.887  1.00  0.00     0.010 A 
ATOM     37  C   UNL A   1      37.829  29.713  27.672  1.00  0.00     0.010 A 
ATOM     38  C   UNL A   1      38.015  29.356  29.017  1.00  0.00    -0.014 A 
BRANCH  38  39
ATOM     39  C   UNL A   1      39.400  29.171  29.438  1.00  0.00     0.031 A 
ATOM     40  C   UNL A   1      40.090  27.882  29.189  1.00  0.00     0.074 A 
ATOM     41  C   UNL A   1      40.088  30.208  29.970  1.00  0.00     0.049 A 
ATOM     42  N   UNL A   1      41.237  27.566  29.692  1.00  0.00    -0.248 NA
ATOM     43  C   UNL A   1      39.495  26.795  28.413  1.00  0.00     0.031 C 
ATOM     44  C   UNL A   1      41.539  30.345  30.071  1.00  0.00     0.029 A 
ATOM     45  N   UNL A   1      39.593  31.268  30.727  1.00  0.00    -0.354 N 
ATOM     46  C   UNL A   1      41.656  26.407  29.088  1.00  0.00     0.074 A 
ATOM     47  C   UNL A   1      40.490  25.901  28.411  1.00  0.00     0.031 C 
ATOM     48  C   UNL A   1      41.831  31.267  31.001  1.00  0.00     0.029 A 
ATOM     49  C   UNL A   1      40.587  31.636  31.652  1.00  0.00     0.049 A 
ATOM     50  H   UNL A   1      38.707  31.685  30.633  1.00  0.00     0.167 HD
ATOM     51  C   UNL A   1      42.979  26.089  29.122  1.00  0.00     0.037 A 
ATOM     52  C   UNL A   1      40.375  31.544  32.999  1.00  0.00     0.037 A 
ATOM     53  C   UNL A   1      43.670  26.861  30.155  1.00  0.00     0.049 A 
ATOM     54  C   UNL A   1      41.285  30.568  33.711  1.00  0.00     0.074 A 
ATOM     55  C   UNL A   1      44.552  27.926  30.130  1.00  0.00     0.029 A 
ATOM     56  N   UNL A   1      43.275  26.707  31.483  1.00  0.00    -0.354 N 
ATOM     57  N   UNL A   1      42.037  29.690  33.106  1.00  0.00    -0.248 NA
ATOM     58  C   UNL A   1      41.402  30.487  35.166  1.00  0.00     0.031 C 
ATOM     59  C   UNL A   1      44.583  28.491  31.436  1.00  0.00     0.029 A 
ATOM     60  C   UNL A   1      43.768  27.734  32.263  1.00  0.00     0.049 A 
ATOM     61  H   UNL A   1      42.720  25.967  31.819  1.00  0.00     0.167 HD
ATOM     62  C   UNL A   1      42.661  28.897  34.035  1.00  0.00     0.074 A 
ATOM     63  C   UNL A   1      42.269  29.470  35.310  1.00  0.00     0.031 C 
ATOM     64  C   UNL A   1      43.421  27.819  33.679  1.00  0.00     0.037 A 
BRANCH  51  65
ATOM     65  C   UNL A   1      43.695  25.218  28.101  1.00  0.00     0.058 A 
ATOM     66  C   UNL A   1      44.278  25.796  26.950  1.00  0.00     0.135 A 
ATOM     67  C   UNL A   1      43.712  23.803  28.111  1.00  0.00     0.135 A 
ATOM     68  F   UNL A   1      44.315  27.128  26.789  1.00  0.00    -0.206 F 
ATOM     69  C   UNL A   1      44.812  25.038  25.898  1.00  0.00     0.059 A 
ATOM     70  C   UNL A   1      44.284  23.029  27.100  1.00  0.00     0.059 A 
ATOM     71  F   UNL A   1      43.109  23.084  29.063  1.00  0.00    -0.206 F 
ATOM     72  C   UNL A   1      44.807  23.651  25.980  1.00  0.00     0.060 A 
BRANCH  72  73
ATOM     73  S   UNL A   1      45.446  22.663  24.614  1.00  0.00     0.124 S 
ATOM     74  O   UNL A   1      46.230  23.647  23.875  1.00  0.00    -0.237 OA
ATOM     75  O   UNL A   1      46.207  21.626  25.301  1.00  0.00    -0.237 OA
ATOM     76  O   UNL A   1      44.237  22.197  23.938  1.00  0.00    -0.744 OA
ENDBRANCH  72  73
ENDBRANCH  51  65
BRANCH  52  77
ATOM     77  C   UNL A   1      38.979  31.877  33.393  1.00  0.00     0.058 A 
ATOM     78  C   UNL A   1      38.666  33.241  33.544  1.00  0.00     0.135 A 
ATOM     79  C   UNL A   1      37.924  30.988  33.145  1.00  0.00     0.135 A 
ATOM     80  F   UNL A   1      39.639  34.128  33.811  1.00  0.00    -0.206 F 
ATOM     81  C   UNL A   1      37.397  33.730  33.265  1.00  0.00     0.059 A 
ATOM     82  C   UNL A   1      36.638  31.458  32.869  1.00  0.00     0.059 A 
ATOM     83  F   UNL A   1      38.162  29.676  33.003  1.00  0.00    -0.206 F 
ATOM     84  C   UNL A   1      36.413  32.836  32.849  1.00  0.00     0.060 A 
BRANCH  84  85
ATOM     85  S   UNL A   1      34.925  33.525  32.084  1.00  0.00     0.124 S 
ATOM     86  O   UNL A   1      34.147  32.326  31.794  1.00  0.00    -0.237 OA
ATOM     87  O   UNL A   1      34.410  34.366  33.164  1.00  0.00    -0.237 OA
ATOM     88  O   UNL A   1      35.446  34.237  30.923  1.00  0.00    -0.744 OA
ENDBRANCH  84  85
ENDBRANCH  52  77
BRANCH  64  89
ATOM     89  C   UNL A   1      43.958  26.778  34.637  1.00  0.00     0.058 A 
ATOM     90  C   UNL A   1      43.197  25.716  35.157  1.00  0.00     0.135 A 
ATOM     91  C   UNL A   1      45.335  26.754  34.965  1.00  0.00     0.135 A 
ATOM     92  F   UNL A   1      41.909  25.551  34.821  1.00  0.00    -0.206 F 
ATOM     93  C   UNL A   1      43.738  24.750  36.010  1.00  0.00     0.059 A 
ATOM     94  C   UNL A   1      45.907  25.768  35.769  1.00  0.00     0.059 A 
ATOM     95  F   UNL A   1      46.177  27.691  34.504  1.00  0.00    -0.206 F 
ATOM     96  C   UNL A   1      45.094  24.786  36.315  1.00  0.00     0.060 A 
BRANCH  96  97
ATOM     97  S   UNL A   1      45.816  23.520  37.377  1.00  0.00     0.124 S 
ATOM     98  O   UNL A   1      45.287  23.900  38.683  1.00  0.00    -0.237 OA
ATOM     99  O   UNL A   1      45.283  22.280  36.820  1.00  0.00    -0.237 OA
ATOM    100  O   UNL A   1      47.251  23.714  37.191  1.00  0.00    -0.744 OA
ENDBRANCH  96  97
ENDBRANCH  64  89
ENDBRANCH  38  39
ENDBRANCH  30  33
ENDBRANCH  28  29
ENDBRANCH  27  28
ENDBRANCH   1  27
TORSDOF 17
ENDMDL
