MODEL 1
REMARK VINA RESULT:     -12.5      0.000      0.000
REMARK SMILES CC1=C(C)C[C@@H](C(=O)NCCCCNC(=O)c2ccc(-c3c4nc(c(-c5c(F)cc(S(=O)(=O)[O-])cc5F)c5ccc([nH]5)c(-c5c(F)cc(S(=O)(=O)[O-])cc5F)c5nc(c(-c6c(F)cc(S(=O)(=O)[O-])cc6F)c6ccc3[nH]6)C=C5)C=C4)cc2)[C@@H](C(=O)N2CCN(c3cccc(C(F)(F)F)c3)CC2)C1
REMARK SMILES IDX 11 1 10 2 9 3 7 4 8 5 6 7 1 8 2 9 3 10 102 11 4 12 5 13
REMARK SMILES IDX 83 14 84 15 85 16 86 17 87 18 101 19 88 20 100 21 89 22
REMARK SMILES IDX 90 23 91 24 99 25 92 26 94 27 93 28 95 29 96 30 97 31 98 32
REMARK SMILES IDX 12 33 13 34 14 35 15 36 16 38 17 39 18 40 82 41 19 42 81 43
REMARK SMILES IDX 20 44 21 45 22 46 75 47 23 48 80 49 74 50 76 51 24 52 79 53
REMARK SMILES IDX 73 54 72 55 25 57 59 58 38 59 58 60 39 61 42 62 57 63 77 64
REMARK SMILES IDX 40 65 41 66 56 68 78 69 43 70 26 71 27 72 36 73 28 74 29 75
REMARK SMILES IDX 35 76 37 77 30 78 31 79 32 80 33 81 34 82 60 83 61 84 70 85
REMARK SMILES IDX 62 86 63 87 69 88 71 89 64 90 65 91 66 92 67 93 68 94 44 95
REMARK SMILES IDX 45 96 54 97 46 98 47 99 53 100 55 101 48 102 49 103 50 104
REMARK SMILES IDX 51 105 52 106
REMARK H PARENT 9 6 14 37 76 56 42 67
REMARK Flexibility Score: inf
ROOT
ATOM      1  C   UNL A   1      31.400  31.370  26.317  1.00  0.00     0.023 C 
ENDROOT
BRANCH   1   2
ATOM      2  C   UNL A   1      31.106  30.406  25.170  1.00  0.00     0.116 C 
BRANCH   2   3
ATOM      3  N   UNL A   1      32.266  29.734  24.626  1.00  0.00    -0.356 N 
ATOM      4  C   UNL A   1      32.454  28.957  23.533  1.00  0.00     0.224 C 
ATOM      5  O   UNL A   1      33.609  28.567  23.314  1.00  0.00    -0.275 OA
ATOM      6  H   UNL A   1      33.084  29.868  25.157  1.00  0.00     0.163 HD
BRANCH   4   7
ATOM      7  C   UNL A   1      31.350  28.540  22.559  1.00  0.00     0.095 C 
ATOM      8  C   UNL A   1      27.257  29.863  23.562  1.00  0.00     0.039 C 
ATOM      9  C   UNL A   1      28.575  29.408  22.977  1.00  0.00    -0.074 C 
ATOM     10  C   UNL A   1      29.384  30.185  22.228  1.00  0.00    -0.074 C 
ATOM     11  C   UNL A   1      28.938  27.986  23.360  1.00  0.00     0.045 C 
ATOM     12  C   UNL A   1      29.099  31.609  21.812  1.00  0.00     0.039 C 
ATOM     13  C   UNL A   1      30.741  29.704  21.773  1.00  0.00     0.045 C 
ATOM     14  C   UNL A   1      30.355  27.472  23.023  1.00  0.00     0.095 C 
BRANCH  14  15
ATOM     15  C   UNL A   1      30.859  26.632  24.205  1.00  0.00     0.226 C 
ATOM     16  O   UNL A   1      30.743  26.971  25.379  1.00  0.00    -0.275 OA
ATOM     17  N   UNL A   1      31.287  25.353  23.900  1.00  0.00    -0.339 N 
ATOM     18  C   UNL A   1      31.007  24.328  24.910  1.00  0.00     0.141 C 
ATOM     19  C   UNL A   1      32.582  25.195  23.233  1.00  0.00     0.141 C 
ATOM     20  C   UNL A   1      31.100  22.920  24.317  1.00  0.00     0.138 C 
ATOM     21  C   UNL A   1      32.818  23.770  22.700  1.00  0.00     0.138 C 
ATOM     22  N   UNL A   1      32.404  22.750  23.669  1.00  0.00    -0.368 N 
BRANCH  22  23
ATOM     23  C   UNL A   1      33.205  21.697  24.042  1.00  0.00     0.037 A 
ATOM     24  C   UNL A   1      32.645  20.445  24.329  1.00  0.00     0.026 A 
ATOM     25  C   UNL A   1      34.584  21.855  24.211  1.00  0.00     0.039 A 
ATOM     26  C   UNL A   1      33.431  19.380  24.767  1.00  0.00     0.003 A 
ATOM     27  C   UNL A   1      35.389  20.802  24.682  1.00  0.00     0.058 A 
ATOM     28  C   UNL A   1      34.798  19.559  24.949  1.00  0.00     0.013 A 
BRANCH  27  29
ATOM     29  C   UNL A   1      36.864  20.998  24.922  1.00  0.00     0.416 C 
ATOM     30  F   UNL A   1      37.550  19.823  24.959  1.00  0.00    -0.166 F 
ATOM     31  F   UNL A   1      37.450  21.738  23.938  1.00  0.00    -0.166 F 
ATOM     32  F   UNL A   1      37.151  21.641  26.088  1.00  0.00    -0.166 F 
ENDBRANCH  27  29
ENDBRANCH  22  23
ENDBRANCH  14  15
ENDBRANCH   4   7
ENDBRANCH   2   3
ENDBRANCH   1   2
BRANCH   1  33
ATOM     33  C   UNL A   1      32.534  30.931  27.242  1.00  0.00     0.023 C 
BRANCH  33  34
ATOM     34  C   UNL A   1      33.625  31.976  27.391  1.00  0.00     0.116 C 
BRANCH  34  35
ATOM     35  N   UNL A   1      33.096  33.277  27.781  1.00  0.00    -0.352 N 
ATOM     36  C   UNL A   1      33.485  34.073  28.828  1.00  0.00     0.251 C 
ATOM     37  H   UNL A   1      32.366  33.630  27.221  1.00  0.00     0.163 HD
ATOM     38  O   UNL A   1      32.851  35.075  29.124  1.00  0.00    -0.269 OA
BRANCH  36  39
ATOM     39  C   UNL A   1      34.670  33.665  29.602  1.00  0.00     0.039 A 
ATOM     40  C   UNL A   1      34.511  32.764  30.654  1.00  0.00     0.014 A 
ATOM     41  C   UNL A   1      35.935  34.127  29.230  1.00  0.00     0.014 A 
ATOM     42  C   UNL A   1      35.642  32.283  31.309  1.00  0.00     0.010 A 
ATOM     43  C   UNL A   1      37.061  33.584  29.829  1.00  0.00     0.010 A 
ATOM     44  C   UNL A   1      36.923  32.669  30.882  1.00  0.00    -0.014 A 
BRANCH  44  45
ATOM     45  C   UNL A   1      38.142  32.150  31.542  1.00  0.00     0.031 A 
ATOM     46  C   UNL A   1      38.558  32.716  32.870  1.00  0.00     0.074 A 
ATOM     47  C   UNL A   1      38.899  31.232  30.912  1.00  0.00     0.049 A 
ATOM     48  N   UNL A   1      39.628  32.463  33.576  1.00  0.00    -0.248 NA
ATOM     49  C   UNL A   1      37.670  33.730  33.467  1.00  0.00     0.031 C 
ATOM     50  C   UNL A   1      38.618  30.661  29.592  1.00  0.00     0.029 A 
ATOM     51  N   UNL A   1      40.066  30.624  31.294  1.00  0.00    -0.354 N 
ATOM     52  C   UNL A   1      39.552  33.297  34.684  1.00  0.00     0.074 A 
ATOM     53  C   UNL A   1      38.364  34.105  34.530  1.00  0.00     0.031 C 
ATOM     54  C   UNL A   1      39.574  29.769  29.285  1.00  0.00     0.029 A 
ATOM     55  C   UNL A   1      40.549  29.729  30.370  1.00  0.00     0.049 A 
ATOM     56  H   UNL A   1      40.516  30.811  32.149  1.00  0.00     0.167 HD
ATOM     57  C   UNL A   1      40.385  33.362  35.749  1.00  0.00     0.037 A 
ATOM     58  C   UNL A   1      41.657  28.964  30.399  1.00  0.00     0.037 A 
ATOM     59  C   UNL A   1      41.542  32.522  35.906  1.00  0.00     0.049 A 
ATOM     60  C   UNL A   1      42.550  29.029  31.607  1.00  0.00     0.074 A 
ATOM     61  C   UNL A   1      42.421  32.457  36.973  1.00  0.00     0.029 A 
ATOM     62  N   UNL A   1      41.977  31.596  34.969  1.00  0.00    -0.354 N 
ATOM     63  N   UNL A   1      42.432  29.778  32.679  1.00  0.00    -0.248 NA
ATOM     64  C   UNL A   1      43.721  28.144  31.617  1.00  0.00     0.031 C 
ATOM     65  C   UNL A   1      43.406  31.511  36.667  1.00  0.00     0.029 A 
ATOM     66  C   UNL A   1      43.118  30.959  35.427  1.00  0.00     0.049 A 
ATOM     67  H   UNL A   1      41.540  31.418  34.106  1.00  0.00     0.167 HD
ATOM     68  C   UNL A   1      43.500  29.436  33.501  1.00  0.00     0.074 A 
ATOM     69  C   UNL A   1      44.245  28.405  32.806  1.00  0.00     0.031 C 
ATOM     70  C   UNL A   1      43.834  29.929  34.719  1.00  0.00     0.037 A 
BRANCH  57  71
ATOM     71  C   UNL A   1      40.061  34.361  36.823  1.00  0.00     0.058 A 
ATOM     72  C   UNL A   1      40.579  35.666  36.794  1.00  0.00     0.135 A 
ATOM     73  C   UNL A   1      39.213  34.019  37.888  1.00  0.00     0.135 A 
ATOM     74  F   UNL A   1      41.412  36.042  35.809  1.00  0.00    -0.206 F 
ATOM     75  C   UNL A   1      40.296  36.586  37.798  1.00  0.00     0.059 A 
ATOM     76  C   UNL A   1      38.893  34.932  38.890  1.00  0.00     0.059 A 
ATOM     77  F   UNL A   1      38.692  32.784  37.968  1.00  0.00    -0.206 F 
ATOM     78  C   UNL A   1      39.453  36.208  38.844  1.00  0.00     0.060 A 
BRANCH  78  79
ATOM     79  S   UNL A   1      39.093  37.413  40.139  1.00  0.00     0.124 S 
ATOM     80  O   UNL A   1      38.507  36.564  41.171  1.00  0.00    -0.237 OA
ATOM     81  O   UNL A   1      40.414  37.955  40.439  1.00  0.00    -0.237 OA
ATOM     82  O   UNL A   1      38.171  38.341  39.491  1.00  0.00    -0.744 OA
ENDBRANCH  78  79
ENDBRANCH  57  71
BRANCH  58  83
ATOM     83  C   UNL A   1      41.956  28.046  29.269  1.00  0.00     0.058 A 
ATOM     84  C   UNL A   1      41.195  26.886  29.064  1.00  0.00     0.135 A 
ATOM     85  C   UNL A   1      42.988  28.318  28.359  1.00  0.00     0.135 A 
ATOM     86  F   UNL A   1      40.197  26.582  29.908  1.00  0.00    -0.206 F 
ATOM     87  C   UNL A   1      41.456  26.019  28.009  1.00  0.00     0.059 A 
ATOM     88  C   UNL A   1      43.255  27.479  27.282  1.00  0.00     0.059 A 
ATOM     89  F   UNL A   1      43.733  29.427  28.499  1.00  0.00    -0.206 F 
ATOM     90  C   UNL A   1      42.489  26.325  27.121  1.00  0.00     0.060 A 
BRANCH  90  91
ATOM     91  S   UNL A   1      42.787  25.217  25.725  1.00  0.00     0.124 S 
ATOM     92  O   UNL A   1      41.928  24.087  26.060  1.00  0.00    -0.237 OA
ATOM     93  O   UNL A   1      42.360  26.029  24.590  1.00  0.00    -0.237 OA
ATOM     94  O   UNL A   1      44.222  24.964  25.799  1.00  0.00    -0.744 OA
ENDBRANCH  90  91
ENDBRANCH  58  83
BRANCH  70  95
ATOM     95  C   UNL A   1      45.039  29.337  35.391  1.00  0.00     0.058 A 
ATOM     96  C   UNL A   1      46.318  29.890  35.225  1.00  0.00     0.135 A 
ATOM     97  C   UNL A   1      44.901  28.241  36.258  1.00  0.00     0.135 A 
ATOM     98  F   UNL A   1      46.502  30.934  34.403  1.00  0.00    -0.206 F 
ATOM     99  C   UNL A   1      47.425  29.362  35.881  1.00  0.00     0.059 A 
ATOM    100  C   UNL A   1      45.989  27.713  36.942  1.00  0.00     0.059 A 
ATOM    101  F   UNL A   1      43.695  27.685  36.458  1.00  0.00    -0.206 F 
ATOM    102  C   UNL A   1      47.250  28.273  36.739  1.00  0.00     0.060 A 
BRANCH 102 103
ATOM    103  S   UNL A   1      48.687  27.620  37.613  1.00  0.00     0.124 S 
ATOM    104  O   UNL A   1      49.287  28.840  38.143  1.00  0.00    -0.237 OA
ATOM    105  O   UNL A   1      48.079  26.732  38.600  1.00  0.00    -0.237 OA
ATOM    106  O   UNL A   1      49.448  26.950  36.562  1.00  0.00    -0.744 OA
ENDBRANCH 102 103
ENDBRANCH  70  95
ENDBRANCH  44  45
ENDBRANCH  36  39
ENDBRANCH  34  35
ENDBRANCH  33  34
ENDBRANCH   1  33
TORSDOF 17
ENDMDL
MODEL 2
REMARK VINA RESULT:     -12.5      3.242      9.363
REMARK SMILES CC1=C(C)C[C@@H](C(=O)NCCCCNC(=O)c2ccc(-c3c4nc(c(-c5c(F)cc(S(=O)(=O)[O-])cc5F)c5ccc([nH]5)c(-c5c(F)cc(S(=O)(=O)[O-])cc5F)c5nc(c(-c6c(F)cc(S(=O)(=O)[O-])cc6F)c6ccc3[nH]6)C=C5)C=C4)cc2)[C@@H](C(=O)N2CCN(c3cccc(C(F)(F)F)c3)CC2)C1
REMARK SMILES IDX 11 1 10 2 9 3 7 4 8 5 6 7 1 8 2 9 3 10 102 11 4 12 5 13
REMARK SMILES IDX 83 14 84 15 85 16 86 17 87 18 101 19 88 20 100 21 89 22
REMARK SMILES IDX 90 23 91 24 99 25 92 26 94 27 93 28 95 29 96 30 97 31 98 32
REMARK SMILES IDX 12 33 13 34 14 35 15 36 16 38 17 39 18 40 82 41 19 42 81 43
REMARK SMILES IDX 20 44 21 45 22 46 75 47 23 48 80 49 74 50 76 51 24 52 79 53
REMARK SMILES IDX 73 54 72 55 25 57 59 58 38 59 58 60 39 61 42 62 57 63 77 64
REMARK SMILES IDX 40 65 41 66 56 68 78 69 43 70 26 71 27 72 36 73 28 74 29 75
REMARK SMILES IDX 35 76 37 77 30 78 31 79 32 80 33 81 34 82 60 83 61 84 70 85
REMARK SMILES IDX 62 86 63 87 69 88 71 89 64 90 65 91 66 92 67 93 68 94 44 95
REMARK SMILES IDX 45 96 54 97 46 98 47 99 53 100 55 101 48 102 49 103 50 104
REMARK SMILES IDX 51 105 52 106
REMARK H PARENT 9 6 14 37 76 56 42 67
REMARK Flexibility Score: inf
ROOT
ATOM      1  C   UNL A   1      38.080  24.083  26.258  1.00  0.00     0.023 C 
ENDROOT
BRANCH   1   2
ATOM      2  C   UNL A   1      36.635  23.672  25.985  1.00  0.00     0.116 C 
BRANCH   2   3
ATOM      3  N   UNL A   1      36.344  23.346  24.606  1.00  0.00    -0.356 N 
ATOM      4  C   UNL A   1      35.367  22.616  24.017  1.00  0.00     0.224 C 
ATOM      5  O   UNL A   1      35.371  22.571  22.779  1.00  0.00    -0.275 OA
ATOM      6  H   UNL A   1      36.985  23.731  23.967  1.00  0.00     0.163 HD
BRANCH   4   7
ATOM      7  C   UNL A   1      34.269  21.860  24.769  1.00  0.00     0.095 C 
ATOM      8  C   UNL A   1      32.517  18.380  22.689  1.00  0.00     0.039 C 
ATOM      9  C   UNL A   1      33.048  19.451  23.615  1.00  0.00    -0.074 C 
ATOM     10  C   UNL A   1      34.132  19.305  24.405  1.00  0.00    -0.074 C 
ATOM     11  C   UNL A   1      32.266  20.748  23.537  1.00  0.00     0.045 C 
ATOM     12  C   UNL A   1      34.965  18.053  24.534  1.00  0.00     0.039 C 
ATOM     13  C   UNL A   1      34.676  20.456  25.219  1.00  0.00     0.045 C 
ATOM     14  C   UNL A   1      32.833  21.993  24.254  1.00  0.00     0.095 C 
BRANCH  14  15
ATOM     15  C   UNL A   1      32.611  23.215  23.352  1.00  0.00     0.226 C 
ATOM     16  O   UNL A   1      32.725  23.188  22.130  1.00  0.00    -0.275 OA
ATOM     17  N   UNL A   1      32.074  24.331  23.965  1.00  0.00    -0.339 N 
ATOM     18  C   UNL A   1      31.153  25.128  23.148  1.00  0.00     0.141 C 
ATOM     19  C   UNL A   1      32.940  25.130  24.836  1.00  0.00     0.141 C 
ATOM     20  C   UNL A   1      30.288  26.045  24.016  1.00  0.00     0.138 C 
ATOM     21  C   UNL A   1      32.168  26.168  25.671  1.00  0.00     0.138 C 
ATOM     22  N   UNL A   1      31.152  26.862  24.873  1.00  0.00    -0.368 N 
BRANCH  22  23
ATOM     23  C   UNL A   1      31.026  28.231  24.841  1.00  0.00     0.037 A 
ATOM     24  C   UNL A   1      31.728  29.030  25.752  1.00  0.00     0.026 A 
ATOM     25  C   UNL A   1      30.151  28.861  23.950  1.00  0.00     0.039 A 
ATOM     26  C   UNL A   1      31.568  30.416  25.778  1.00  0.00     0.003 A 
ATOM     27  C   UNL A   1      29.952  30.252  23.981  1.00  0.00     0.058 A 
ATOM     28  C   UNL A   1      30.678  31.025  24.899  1.00  0.00     0.013 A 
BRANCH  27  29
ATOM     29  C   UNL A   1      28.960  30.917  23.062  1.00  0.00     0.416 C 
ATOM     30  F   UNL A   1      29.155  32.261  22.963  1.00  0.00    -0.166 F 
ATOM     31  F   UNL A   1      29.040  30.437  21.788  1.00  0.00    -0.166 F 
ATOM     32  F   UNL A   1      27.662  30.751  23.439  1.00  0.00    -0.166 F 
ENDBRANCH  27  29
ENDBRANCH  22  23
ENDBRANCH  14  15
ENDBRANCH   4   7
ENDBRANCH   2   3
ENDBRANCH   1   2
BRANCH   1  33
ATOM     33  C   UNL A   1      39.028  22.920  26.543  1.00  0.00     0.023 C 
BRANCH  33  34
ATOM     34  C   UNL A   1      40.388  23.365  27.052  1.00  0.00     0.116 C 
BRANCH  34  35
ATOM     35  N   UNL A   1      41.201  23.967  26.003  1.00  0.00    -0.352 N 
ATOM     36  C   UNL A   1      41.757  25.220  25.973  1.00  0.00     0.251 C 
ATOM     37  H   UNL A   1      41.375  23.401  25.215  1.00  0.00     0.163 HD
ATOM     38  O   UNL A   1      42.294  25.645  24.961  1.00  0.00    -0.269 OA
BRANCH  36  39
ATOM     39  C   UNL A   1      41.657  26.049  27.187  1.00  0.00     0.039 A 
ATOM     40  C   UNL A   1      42.557  27.098  27.364  1.00  0.00     0.014 A 
ATOM     41  C   UNL A   1      40.626  25.818  28.102  1.00  0.00     0.014 A 
ATOM     42  C   UNL A   1      42.390  27.957  28.447  1.00  0.00     0.010 A 
ATOM     43  C   UNL A   1      40.415  26.722  29.131  1.00  0.00     0.010 A 
ATOM     44  C   UNL A   1      41.303  27.790  29.320  1.00  0.00    -0.014 A 
BRANCH  44  45
ATOM     45  C   UNL A   1      41.086  28.705  30.462  1.00  0.00     0.031 A 
ATOM     46  C   UNL A   1      41.944  28.569  31.689  1.00  0.00     0.074 A 
ATOM     47  C   UNL A   1      40.079  29.599  30.417  1.00  0.00     0.049 A 
ATOM     48  N   UNL A   1      41.868  29.211  32.824  1.00  0.00    -0.248 NA
ATOM     49  C   UNL A   1      43.007  27.550  31.645  1.00  0.00     0.031 C 
ATOM     50  C   UNL A   1      39.148  29.771  29.298  1.00  0.00     0.029 A 
ATOM     51  N   UNL A   1      39.664  30.523  31.339  1.00  0.00    -0.354 N 
ATOM     52  C   UNL A   1      42.853  28.660  33.633  1.00  0.00     0.074 A 
ATOM     53  C   UNL A   1      43.476  27.594  32.881  1.00  0.00     0.031 C 
ATOM     54  C   UNL A   1      38.286  30.758  29.591  1.00  0.00     0.029 A 
ATOM     55  C   UNL A   1      38.583  31.265  30.928  1.00  0.00     0.049 A 
ATOM     56  H   UNL A   1      40.099  30.644  32.214  1.00  0.00     0.167 HD
ATOM     57  C   UNL A   1      43.225  29.031  34.881  1.00  0.00     0.037 A 
ATOM     58  C   UNL A   1      37.909  32.243  31.561  1.00  0.00     0.037 A 
ATOM     59  C   UNL A   1      42.621  30.121  35.600  1.00  0.00     0.049 A 
ATOM     60  C   UNL A   1      38.360  32.660  32.934  1.00  0.00     0.074 A 
ATOM     61  C   UNL A   1      42.959  30.626  36.843  1.00  0.00     0.029 A 
ATOM     62  N   UNL A   1      41.555  30.878  35.134  1.00  0.00    -0.354 N 
ATOM     63  N   UNL A   1      39.337  32.172  33.664  1.00  0.00    -0.248 NA
ATOM     64  C   UNL A   1      37.627  33.762  33.570  1.00  0.00     0.031 C 
ATOM     65  C   UNL A   1      42.077  31.670  37.142  1.00  0.00     0.029 A 
ATOM     66  C   UNL A   1      41.216  31.842  36.068  1.00  0.00     0.049 A 
ATOM     67  H   UNL A   1      41.108  30.750  34.267  1.00  0.00     0.167 HD
ATOM     68  C   UNL A   1      39.350  32.924  34.833  1.00  0.00     0.074 A 
ATOM     69  C   UNL A   1      38.291  33.906  34.707  1.00  0.00     0.031 C 
ATOM     70  C   UNL A   1      40.163  32.814  35.912  1.00  0.00     0.037 A 
BRANCH  57  71
ATOM     71  C   UNL A   1      44.339  28.261  35.531  1.00  0.00     0.058 A 
ATOM     72  C   UNL A   1      45.684  28.632  35.364  1.00  0.00     0.135 A 
ATOM     73  C   UNL A   1      44.063  27.148  36.340  1.00  0.00     0.135 A 
ATOM     74  F   UNL A   1      46.006  29.676  34.584  1.00  0.00    -0.206 F 
ATOM     75  C   UNL A   1      46.717  27.908  35.949  1.00  0.00     0.059 A 
ATOM     76  C   UNL A   1      45.080  26.424  36.958  1.00  0.00     0.059 A 
ATOM     77  F   UNL A   1      42.797  26.748  36.531  1.00  0.00    -0.206 F 
ATOM     78  C   UNL A   1      46.405  26.803  36.743  1.00  0.00     0.060 A 
BRANCH  78  79
ATOM     79  S   UNL A   1      47.757  25.874  37.496  1.00  0.00     0.124 S 
ATOM     80  O   UNL A   1      47.027  24.857  38.247  1.00  0.00    -0.237 OA
ATOM     81  O   UNL A   1      48.495  25.395  36.333  1.00  0.00    -0.237 OA
ATOM     82  O   UNL A   1      48.447  26.875  38.304  1.00  0.00    -0.744 OA
ENDBRANCH  78  79
ENDBRANCH  57  71
BRANCH  58  83
ATOM     83  C   UNL A   1      36.769  32.918  30.888  1.00  0.00     0.058 A 
ATOM     84  C   UNL A   1      35.450  32.680  31.299  1.00  0.00     0.135 A 
ATOM     85  C   UNL A   1      36.973  33.828  29.839  1.00  0.00     0.135 A 
ATOM     86  F   UNL A   1      35.203  31.818  32.297  1.00  0.00    -0.206 F 
ATOM     87  C   UNL A   1      34.370  33.307  30.685  1.00  0.00     0.059 A 
ATOM     88  C   UNL A   1      35.912  34.484  29.224  1.00  0.00     0.059 A 
ATOM     89  F   UNL A   1      38.219  34.104  29.422  1.00  0.00    -0.206 F 
ATOM     90  C   UNL A   1      34.612  34.210  29.648  1.00  0.00     0.060 A 
BRANCH  90  91
ATOM     91  S   UNL A   1      33.207  35.056  28.891  1.00  0.00     0.124 S 
ATOM     92  O   UNL A   1      32.380  35.348  30.056  1.00  0.00    -0.237 OA
ATOM     93  O   UNL A   1      33.844  36.204  28.255  1.00  0.00    -0.237 OA
ATOM     94  O   UNL A   1      32.671  34.057  27.970  1.00  0.00    -0.744 OA
ENDBRANCH  90  91
ENDBRANCH  58  83
BRANCH  70  95
ATOM     95  C   UNL A   1      39.960  33.798  37.028  1.00  0.00     0.058 A 
ATOM     96  C   UNL A   1      40.579  35.058  37.018  1.00  0.00     0.135 A 
ATOM     97  C   UNL A   1      39.090  33.499  38.088  1.00  0.00     0.135 A 
ATOM     98  F   UNL A   1      41.424  35.388  36.029  1.00  0.00    -0.206 F 
ATOM     99  C   UNL A   1      40.358  35.980  38.034  1.00  0.00     0.059 A 
ATOM    100  C   UNL A   1      38.835  34.416  39.101  1.00  0.00     0.059 A 
ATOM    101  F   UNL A   1      38.466  32.311  38.135  1.00  0.00    -0.206 F 
ATOM    102  C   UNL A   1      39.482  35.650  39.071  1.00  0.00     0.060 A 
BRANCH 102 103
ATOM    103  S   UNL A   1      39.173  36.870  40.364  1.00  0.00     0.124 S 
ATOM    104  O   UNL A   1      38.292  36.130  41.262  1.00  0.00    -0.237 OA
ATOM    105  O   UNL A   1      40.516  37.138  40.872  1.00  0.00    -0.237 OA
ATOM    106  O   UNL A   1      38.550  37.978  39.644  1.00  0.00    -0.744 OA
ENDBRANCH 102 103
ENDBRANCH  70  95
ENDBRANCH  44  45
ENDBRANCH  36  39
ENDBRANCH  34  35
ENDBRANCH  33  34
ENDBRANCH   1  33
TORSDOF 17
ENDMDL
MODEL 3
REMARK VINA RESULT:     -12.3      1.100      8.044
REMARK SMILES CC1=C(C)C[C@@H](C(=O)NCCCCNC(=O)c2ccc(-c3c4nc(c(-c5c(F)cc(S(=O)(=O)[O-])cc5F)c5ccc([nH]5)c(-c5c(F)cc(S(=O)(=O)[O-])cc5F)c5nc(c(-c6c(F)cc(S(=O)(=O)[O-])cc6F)c6ccc3[nH]6)C=C5)C=C4)cc2)[C@@H](C(=O)N2CCN(c3cccc(C(F)(F)F)c3)CC2)C1
REMARK SMILES IDX 11 1 10 2 9 3 7 4 8 5 6 7 1 8 2 9 3 10 102 11 4 12 5 13
REMARK SMILES IDX 83 14 84 15 85 16 86 17 87 18 101 19 88 20 100 21 89 22
REMARK SMILES IDX 90 23 91 24 99 25 92 26 94 27 93 28 95 29 96 30 97 31 98 32
REMARK SMILES IDX 12 33 13 34 14 35 15 36 16 38 17 39 18 40 82 41 19 42 81 43
REMARK SMILES IDX 20 44 21 45 22 46 75 47 23 48 80 49 74 50 76 51 24 52 79 53
REMARK SMILES IDX 73 54 72 55 25 57 59 58 38 59 58 60 39 61 42 62 57 63 77 64
REMARK SMILES IDX 40 65 41 66 56 68 78 69 43 70 26 71 27 72 36 73 28 74 29 75
REMARK SMILES IDX 35 76 37 77 30 78 31 79 32 80 33 81 34 82 60 83 61 84 70 85
REMARK SMILES IDX 62 86 63 87 69 88 71 89 64 90 65 91 66 92 67 93 68 94 44 95
REMARK SMILES IDX 45 96 54 97 46 98 47 99 53 100 55 101 48 102 49 103 50 104
REMARK SMILES IDX 51 105 52 106
REMARK H PARENT 9 6 14 37 76 56 42 67
REMARK Flexibility Score: inf
ROOT
ATOM      1  C   UNL A   1      31.256  31.416  26.224  1.00  0.00     0.023 C 
ENDROOT
BRANCH   1   2
ATOM      2  C   UNL A   1      31.011  30.342  25.167  1.00  0.00     0.116 C 
BRANCH   2   3
ATOM      3  N   UNL A   1      32.205  29.699  24.663  1.00  0.00    -0.356 N 
ATOM      4  C   UNL A   1      32.445  28.910  23.588  1.00  0.00     0.224 C 
ATOM      5  O   UNL A   1      33.617  28.555  23.405  1.00  0.00    -0.275 OA
ATOM      6  H   UNL A   1      33.005  29.867  25.212  1.00  0.00     0.163 HD
BRANCH   4   7
ATOM      7  C   UNL A   1      31.379  28.444  22.594  1.00  0.00     0.095 C 
ATOM      8  C   UNL A   1      27.217  29.606  23.501  1.00  0.00     0.039 C 
ATOM      9  C   UNL A   1      28.563  29.201  22.947  1.00  0.00    -0.074 C 
ATOM     10  C   UNL A   1      29.357  30.006  22.210  1.00  0.00    -0.074 C 
ATOM     11  C   UNL A   1      28.975  27.797  23.347  1.00  0.00     0.045 C 
ATOM     12  C   UNL A   1      29.024  31.414  21.778  1.00  0.00     0.039 C 
ATOM     13  C   UNL A   1      30.742  29.577  21.787  1.00  0.00     0.045 C 
ATOM     14  C   UNL A   1      30.419  27.339  23.045  1.00  0.00     0.095 C 
BRANCH  14  15
ATOM     15  C   UNL A   1      30.931  26.528  24.243  1.00  0.00     0.226 C 
ATOM     16  O   UNL A   1      30.817  26.891  25.410  1.00  0.00    -0.275 OA
ATOM     17  N   UNL A   1      31.363  25.244  23.964  1.00  0.00    -0.339 N 
ATOM     18  C   UNL A   1      31.092  24.240  24.998  1.00  0.00     0.141 C 
ATOM     19  C   UNL A   1      32.657  25.077  23.297  1.00  0.00     0.141 C 
ATOM     20  C   UNL A   1      31.189  22.820  24.435  1.00  0.00     0.138 C 
ATOM     21  C   UNL A   1      32.898  23.642  22.794  1.00  0.00     0.138 C 
ATOM     22  N   UNL A   1      32.492  22.641  23.787  1.00  0.00    -0.368 N 
BRANCH  22  23
ATOM     23  C   UNL A   1      33.299  21.600  24.179  1.00  0.00     0.037 A 
ATOM     24  C   UNL A   1      34.625  21.836  24.566  1.00  0.00     0.026 A 
ATOM     25  C   UNL A   1      32.849  20.277  24.143  1.00  0.00     0.039 A 
ATOM     26  C   UNL A   1      35.479  20.788  24.909  1.00  0.00     0.003 A 
ATOM     27  C   UNL A   1      33.703  19.205  24.455  1.00  0.00     0.058 A 
ATOM     28  C   UNL A   1      35.022  19.476  24.848  1.00  0.00     0.013 A 
BRANCH  27  29
ATOM     29  C   UNL A   1      33.231  17.777  24.352  1.00  0.00     0.416 C 
ATOM     30  F   UNL A   1      34.016  16.913  25.052  1.00  0.00    -0.166 F 
ATOM     31  F   UNL A   1      31.970  17.617  24.848  1.00  0.00    -0.166 F 
ATOM     32  F   UNL A   1      33.189  17.302  23.077  1.00  0.00    -0.166 F 
ENDBRANCH  27  29
ENDBRANCH  22  23
ENDBRANCH  14  15
ENDBRANCH   4   7
ENDBRANCH   2   3
ENDBRANCH   1   2
BRANCH   1  33
ATOM     33  C   UNL A   1      32.385  31.099  27.203  1.00  0.00     0.023 C 
BRANCH  33  34
ATOM     34  C   UNL A   1      33.446  32.183  27.267  1.00  0.00     0.116 C 
BRANCH  34  35
ATOM     35  N   UNL A   1      32.948  33.409  27.879  1.00  0.00    -0.352 N 
ATOM     36  C   UNL A   1      33.446  34.077  28.968  1.00  0.00     0.251 C 
ATOM     37  H   UNL A   1      32.153  33.808  27.456  1.00  0.00     0.163 HD
ATOM     38  O   UNL A   1      32.837  35.015  29.461  1.00  0.00    -0.269 OA
BRANCH  36  39
ATOM     39  C   UNL A   1      34.719  33.609  29.542  1.00  0.00     0.039 A 
ATOM     40  C   UNL A   1      35.906  34.218  29.139  1.00  0.00     0.014 A 
ATOM     41  C   UNL A   1      34.714  32.618  30.528  1.00  0.00     0.014 A 
ATOM     42  C   UNL A   1      37.097  33.862  29.767  1.00  0.00     0.010 A 
ATOM     43  C   UNL A   1      35.886  32.327  31.207  1.00  0.00     0.010 A 
ATOM     44  C   UNL A   1      37.089  32.936  30.822  1.00  0.00    -0.014 A 
BRANCH  44  45
ATOM     45  C   UNL A   1      38.335  32.562  31.526  1.00  0.00     0.031 A 
ATOM     46  C   UNL A   1      39.241  31.527  30.921  1.00  0.00     0.074 A 
ATOM     47  C   UNL A   1      38.605  33.099  32.732  1.00  0.00     0.049 A 
ATOM     48  N   UNL A   1      40.332  30.999  31.409  1.00  0.00    -0.248 NA
ATOM     49  C   UNL A   1      38.847  30.987  29.608  1.00  0.00     0.031 C 
ATOM     50  C   UNL A   1      37.761  34.067  33.437  1.00  0.00     0.029 A 
ATOM     51  N   UNL A   1      39.662  32.900  33.581  1.00  0.00    -0.354 N 
ATOM     52  C   UNL A   1      40.741  30.054  30.476  1.00  0.00     0.074 A 
ATOM     53  C   UNL A   1      39.752  30.039  29.422  1.00  0.00     0.031 C 
ATOM     54  C   UNL A   1      38.345  34.394  34.601  1.00  0.00     0.029 A 
ATOM     55  C   UNL A   1      39.586  33.638  34.738  1.00  0.00     0.049 A 
ATOM     56  H   UNL A   1      40.405  32.286  33.381  1.00  0.00     0.167 HD
ATOM     57  C   UNL A   1      41.858  29.289  30.484  1.00  0.00     0.037 A 
ATOM     58  C   UNL A   1      40.425  33.693  35.789  1.00  0.00     0.037 A 
ATOM     59  C   UNL A   1      42.853  29.346  31.521  1.00  0.00     0.049 A 
ATOM     60  C   UNL A   1      41.675  32.858  35.761  1.00  0.00     0.074 A 
ATOM     61  C   UNL A   1      44.054  28.664  31.601  1.00  0.00     0.029 A 
ATOM     62  N   UNL A   1      42.763  30.137  32.658  1.00  0.00    -0.354 N 
ATOM     63  N   UNL A   1      42.083  32.014  34.841  1.00  0.00    -0.248 NA
ATOM     64  C   UNL A   1      42.585  32.984  36.907  1.00  0.00     0.031 C 
ATOM     65  C   UNL A   1      44.676  29.020  32.803  1.00  0.00     0.029 A 
ATOM     66  C   UNL A   1      43.883  29.953  33.451  1.00  0.00     0.049 A 
ATOM     67  H   UNL A   1      42.014  30.739  32.869  1.00  0.00     0.167 HD
ATOM     68  C   UNL A   1      43.307  31.529  35.286  1.00  0.00     0.074 A 
ATOM     69  C   UNL A   1      43.578  32.181  36.551  1.00  0.00     0.031 C 
ATOM     70  C   UNL A   1      44.132  30.625  34.702  1.00  0.00     0.037 A 
BRANCH  57  71
ATOM     71  C   UNL A   1      42.060  28.345  29.333  1.00  0.00     0.058 A 
ATOM     72  C   UNL A   1      41.319  27.158  29.217  1.00  0.00     0.135 A 
ATOM     73  C   UNL A   1      42.995  28.633  28.327  1.00  0.00     0.135 A 
ATOM     74  F   UNL A   1      40.426  26.822  30.162  1.00  0.00    -0.206 F 
ATOM     75  C   UNL A   1      41.519  26.273  28.163  1.00  0.00     0.059 A 
ATOM     76  C   UNL A   1      43.193  27.776  27.247  1.00  0.00     0.059 A 
ATOM     77  F   UNL A   1      43.733  29.752  28.389  1.00  0.00    -0.206 F 
ATOM     78  C   UNL A   1      42.462  26.590  27.183  1.00  0.00     0.060 A 
BRANCH  78  79
ATOM     79  S   UNL A   1      42.709  25.434  25.820  1.00  0.00     0.124 S 
ATOM     80  O   UNL A   1      42.392  26.271  24.667  1.00  0.00    -0.237 OA
ATOM     81  O   UNL A   1      44.114  25.069  25.970  1.00  0.00    -0.237 OA
ATOM     82  O   UNL A   1      41.754  24.366  26.102  1.00  0.00    -0.744 OA
ENDBRANCH  78  79
ENDBRANCH  57  71
BRANCH  58  83
ATOM     83  C   UNL A   1      40.129  34.598  36.930  1.00  0.00     0.058 A 
ATOM     84  C   UNL A   1      40.662  35.895  36.975  1.00  0.00     0.135 A 
ATOM     85  C   UNL A   1      39.292  34.199  37.983  1.00  0.00     0.135 A 
ATOM     86  F   UNL A   1      41.468  36.322  35.992  1.00  0.00    -0.206 F 
ATOM     87  C   UNL A   1      40.390  36.758  38.031  1.00  0.00     0.059 A 
ATOM     88  C   UNL A   1      38.987  35.052  39.039  1.00  0.00     0.059 A 
ATOM     89  F   UNL A   1      38.741  32.975  37.976  1.00  0.00    -0.206 F 
ATOM     90  C   UNL A   1      39.550  36.328  39.059  1.00  0.00     0.060 A 
BRANCH  90  91
ATOM     91  S   UNL A   1      39.164  37.475  40.401  1.00  0.00     0.124 S 
ATOM     92  O   UNL A   1      40.450  38.133  40.601  1.00  0.00    -0.237 OA
ATOM     93  O   UNL A   1      38.112  38.295  39.812  1.00  0.00    -0.237 OA
ATOM     94  O   UNL A   1      38.731  36.593  41.481  1.00  0.00    -0.744 OA
ENDBRANCH  90  91
ENDBRANCH  58  83
BRANCH  70  95
ATOM     95  C   UNL A   1      45.420  30.314  35.409  1.00  0.00     0.058 A 
ATOM     96  C   UNL A   1      45.519  29.253  36.322  1.00  0.00     0.135 A 
ATOM     97  C   UNL A   1      46.580  31.051  35.124  1.00  0.00     0.135 A 
ATOM     98  F   UNL A   1      44.436  28.524  36.631  1.00  0.00    -0.206 F 
ATOM     99  C   UNL A   1      46.723  28.945  36.945  1.00  0.00     0.059 A 
ATOM    100  C   UNL A   1      47.800  30.745  35.716  1.00  0.00     0.059 A 
ATOM    101  F   UNL A   1      46.538  32.068  34.249  1.00  0.00    -0.206 F 
ATOM    102  C   UNL A   1      47.859  29.697  36.634  1.00  0.00     0.060 A 
BRANCH 102 103
ATOM    103  S   UNL A   1      49.425  29.264  37.420  1.00  0.00     0.124 S 
ATOM    104  O   UNL A   1      49.008  28.218  38.349  1.00  0.00    -0.237 OA
ATOM    105  O   UNL A   1      50.234  28.821  36.289  1.00  0.00    -0.237 OA
ATOM    106  O   UNL A   1      49.853  30.517  38.036  1.00  0.00    -0.744 OA
ENDBRANCH 102 103
ENDBRANCH  70  95
ENDBRANCH  44  45
ENDBRANCH  36  39
ENDBRANCH  34  35
ENDBRANCH  33  34
ENDBRANCH   1  33
TORSDOF 17
ENDMDL
