MODEL 1
REMARK VINA RESULT:     -11.2      0.000      0.000
REMARK SMILES O=C(NCCCCNC(=O)[C@@H](Cc1ccccc1)NS(=O)(=O)c1ccccc1C(F)(F)F)c1ccc(-c2c3nc(c(-c4c(F)cc(S(=O)(=O)[O-])cc4F)c4ccc([nH]4)c(-c4c(F)cc(S(=O)(=O)[O-])cc4F)c4nc(c(-c5c(F)cc(S(=O)(=O)[O-])cc5F)c5ccc2[nH]5)C=C4)C=C3)cc1
REMARK SMILES IDX 6 1 5 2 4 3 3 4 1 5 2 6 33 8 34 9 98 10 35 11 97 12 36 13
REMARK SMILES IDX 37 14 38 15 91 16 39 17 96 18 90 19 92 20 40 21 95 22 89 23
REMARK SMILES IDX 88 24 41 26 75 27 54 28 74 29 55 30 58 31 73 32 93 33 56 34
REMARK SMILES IDX 57 35 72 37 94 38 59 39 42 40 43 41 52 42 44 43 45 44 51 45
REMARK SMILES IDX 53 46 46 47 47 48 48 49 49 50 50 51 76 52 77 53 86 54 78 55
REMARK SMILES IDX 79 56 85 57 87 58 80 59 81 60 82 61 83 62 84 63 60 64 61 65
REMARK SMILES IDX 70 66 62 67 63 68 69 69 71 70 64 71 65 72 66 73 67 74 68 75
REMARK SMILES IDX 7 76 8 77 9 78 10 80 11 81 12 82 13 83 14 84 18 85 15 86
REMARK SMILES IDX 17 87 16 88 19 89 20 91 21 92 22 93 23 94 24 95 28 96 25 97
REMARK SMILES IDX 27 98 26 99 29 100 30 101 31 102 32 103
REMARK H PARENT 3 7 92 25 58 36 8 79 19 90
REMARK Flexibility Score: inf
ROOT
ATOM      1  C   UNL A   1      35.497  21.923  26.292  1.00  0.00     0.023 C 
ENDROOT
BRANCH   1   2
ATOM      2  C   UNL A   1      35.906  23.363  26.015  1.00  0.00     0.023 C 
BRANCH   2   3
ATOM      3  C   UNL A   1      37.063  23.531  25.042  1.00  0.00     0.116 C 
BRANCH   3   4
ATOM      4  N   UNL A   1      38.228  22.693  25.301  1.00  0.00    -0.352 N 
ATOM      5  O   UNL A   1      40.238  22.195  26.242  1.00  0.00    -0.269 OA
ATOM      6  C   UNL A   1      39.309  22.986  26.114  1.00  0.00     0.251 C 
ATOM      7  H   UNL A   1      38.249  21.821  24.844  1.00  0.00     0.163 HD
BRANCH   6   8
ATOM      8  C   UNL A   1      39.352  24.313  26.772  1.00  0.00     0.039 A 
ATOM      9  C   UNL A   1      40.114  25.339  26.213  1.00  0.00     0.014 A 
ATOM     10  C   UNL A   1      38.778  24.467  28.036  1.00  0.00     0.014 A 
ATOM     11  C   UNL A   1      40.504  26.404  27.014  1.00  0.00     0.010 A 
ATOM     12  C   UNL A   1      39.076  25.605  28.794  1.00  0.00     0.010 A 
ATOM     13  C   UNL A   1      40.002  26.548  28.320  1.00  0.00    -0.014 A 
BRANCH  13  14
ATOM     14  C   UNL A   1      40.467  27.688  29.160  1.00  0.00     0.031 A 
ATOM     15  C   UNL A   1      39.582  28.882  29.427  1.00  0.00     0.074 A 
ATOM     16  C   UNL A   1      41.684  27.616  29.733  1.00  0.00     0.049 A 
ATOM     17  N   UNL A   1      39.833  29.950  30.145  1.00  0.00    -0.248 NA
ATOM     18  C   UNL A   1      38.249  28.886  28.806  1.00  0.00     0.031 C 
ATOM     19  C   UNL A   1      42.632  26.512  29.557  1.00  0.00     0.029 A 
ATOM     20  N   UNL A   1      42.325  28.465  30.598  1.00  0.00    -0.354 N 
ATOM     21  C   UNL A   1      38.714  30.769  30.027  1.00  0.00     0.074 A 
ATOM     22  C   UNL A   1      37.784  30.078  29.158  1.00  0.00     0.031 C 
ATOM     23  C   UNL A   1      43.697  26.715  30.343  1.00  0.00     0.029 A 
ATOM     24  C   UNL A   1      43.551  28.002  31.013  1.00  0.00     0.049 A 
ATOM     25  H   UNL A   1      41.944  29.323  30.895  1.00  0.00     0.167 HD
ATOM     26  C   UNL A   1      38.482  31.981  30.590  1.00  0.00     0.037 A 
ATOM     27  C   UNL A   1      44.470  28.554  31.827  1.00  0.00     0.037 A 
ATOM     28  C   UNL A   1      39.401  32.647  31.481  1.00  0.00     0.049 A 
ATOM     29  C   UNL A   1      44.193  29.897  32.433  1.00  0.00     0.074 A 
ATOM     30  C   UNL A   1      39.244  33.859  32.134  1.00  0.00     0.029 A 
ATOM     31  N   UNL A   1      40.648  32.160  31.847  1.00  0.00    -0.354 N 
ATOM     32  N   UNL A   1      43.129  30.652  32.310  1.00  0.00    -0.248 NA
ATOM     33  C   UNL A   1      45.247  30.469  33.280  1.00  0.00     0.031 C 
ATOM     34  C   UNL A   1      40.413  34.124  32.856  1.00  0.00     0.029 A 
ATOM     35  C   UNL A   1      41.279  33.054  32.698  1.00  0.00     0.049 A 
ATOM     36  H   UNL A   1      41.030  31.303  31.545  1.00  0.00     0.167 HD
ATOM     37  C   UNL A   1      43.374  31.780  33.083  1.00  0.00     0.074 A 
ATOM     38  C   UNL A   1      44.684  31.601  33.677  1.00  0.00     0.031 C 
ATOM     39  C   UNL A   1      42.584  32.864  33.283  1.00  0.00     0.037 A 
BRANCH  26  40
ATOM     40  C   UNL A   1      37.200  32.690  30.231  1.00  0.00     0.058 A 
ATOM     41  C   UNL A   1      36.011  32.499  30.952  1.00  0.00     0.135 A 
ATOM     42  C   UNL A   1      37.171  33.600  29.159  1.00  0.00     0.135 A 
ATOM     43  F   UNL A   1      35.976  31.637  31.982  1.00  0.00    -0.206 F 
ATOM     44  C   UNL A   1      34.831  33.150  30.599  1.00  0.00     0.059 A 
ATOM     45  C   UNL A   1      36.009  34.282  28.805  1.00  0.00     0.059 A 
ATOM     46  F   UNL A   1      38.280  33.830  28.438  1.00  0.00    -0.206 F 
ATOM     47  C   UNL A   1      34.839  34.034  29.519  1.00  0.00     0.060 A 
BRANCH  47  48
ATOM     48  S   UNL A   1      33.295  34.849  29.054  1.00  0.00     0.124 S 
ATOM     49  O   UNL A   1      33.787  36.105  28.496  1.00  0.00    -0.237 OA
ATOM     50  O   UNL A   1      32.723  33.912  28.093  1.00  0.00    -0.237 OA
ATOM     51  O   UNL A   1      32.575  34.962  30.319  1.00  0.00    -0.744 OA
ENDBRANCH  47  48
ENDBRANCH  26  40
BRANCH  27  52
ATOM     52  C   UNL A   1      45.729  27.817  32.111  1.00  0.00     0.058 A 
ATOM     53  C   UNL A   1      45.816  26.932  33.193  1.00  0.00     0.135 A 
ATOM     54  C   UNL A   1      46.846  27.938  31.269  1.00  0.00     0.135 A 
ATOM     55  F   UNL A   1      44.775  26.787  34.027  1.00  0.00    -0.206 F 
ATOM     56  C   UNL A   1      46.967  26.189  33.433  1.00  0.00     0.059 A 
ATOM     57  C   UNL A   1      47.996  27.185  31.471  1.00  0.00     0.059 A 
ATOM     58  F   UNL A   1      46.804  28.759  30.207  1.00  0.00    -0.206 F 
ATOM     59  C   UNL A   1      48.049  26.316  32.560  1.00  0.00     0.060 A 
BRANCH  59  60
ATOM     60  S   UNL A   1      49.507  25.287  32.833  1.00  0.00     0.124 S 
ATOM     61  O   UNL A   1      48.932  24.144  33.531  1.00  0.00    -0.237 OA
ATOM     62  O   UNL A   1      49.967  25.040  31.470  1.00  0.00    -0.237 OA
ATOM     63  O   UNL A   1      50.377  26.145  33.633  1.00  0.00    -0.744 OA
ENDBRANCH  59  60
ENDBRANCH  27  52
BRANCH  39  64
ATOM     64  C   UNL A   1      43.100  33.921  34.218  1.00  0.00     0.058 A 
ATOM     65  C   UNL A   1      43.824  35.031  33.754  1.00  0.00     0.135 A 
ATOM     66  C   UNL A   1      42.846  33.832  35.596  1.00  0.00     0.135 A 
ATOM     67  F   UNL A   1      44.101  35.159  32.446  1.00  0.00    -0.206 F 
ATOM     68  C   UNL A   1      44.307  36.000  34.629  1.00  0.00     0.059 A 
ATOM     69  C   UNL A   1      43.297  34.802  36.486  1.00  0.00     0.059 A 
ATOM     70  F   UNL A   1      42.152  32.795  36.090  1.00  0.00    -0.206 F 
ATOM     71  C   UNL A   1      44.040  35.875  35.993  1.00  0.00     0.060 A 
BRANCH  71  72
ATOM     72  S   UNL A   1      44.658  37.144  37.119  1.00  0.00     0.124 S 
ATOM     73  O   UNL A   1      43.420  37.798  37.531  1.00  0.00    -0.237 OA
ATOM     74  O   UNL A   1      45.330  36.352  38.146  1.00  0.00    -0.237 OA
ATOM     75  O   UNL A   1      45.541  37.944  36.276  1.00  0.00    -0.744 OA
ENDBRANCH  71  72
ENDBRANCH  39  64
ENDBRANCH  13  14
ENDBRANCH   6   8
ENDBRANCH   3   4
ENDBRANCH   2   3
ENDBRANCH   1   2
BRANCH   1  76
ATOM     76  C   UNL A   1      34.243  21.744  27.151  1.00  0.00     0.116 C 
BRANCH  76  77
ATOM     77  N   UNL A   1      33.147  21.198  26.376  1.00  0.00    -0.355 N 
ATOM     78  C   UNL A   1      32.204  21.787  25.597  1.00  0.00     0.238 C 
ATOM     79  H   UNL A   1      33.073  20.218  26.422  1.00  0.00     0.163 HD
ATOM     80  O   UNL A   1      31.309  21.045  25.171  1.00  0.00    -0.273 OA
BRANCH  78  81
ATOM     81  C   UNL A   1      32.206  23.272  25.198  1.00  0.00     0.163 C 
BRANCH  81  82
ATOM     82  C   UNL A   1      33.061  23.619  23.965  1.00  0.00     0.065 C 
BRANCH  82  83
ATOM     83  C   UNL A   1      33.315  25.016  23.437  1.00  0.00    -0.046 A 
ATOM     84  C   UNL A   1      33.886  26.068  24.164  1.00  0.00     0.004 A 
ATOM     85  C   UNL A   1      32.981  25.262  22.091  1.00  0.00     0.004 A 
ATOM     86  C   UNL A   1      34.021  27.344  23.604  1.00  0.00     0.000 A 
ATOM     87  C   UNL A   1      33.136  26.528  21.523  1.00  0.00     0.000 A 
ATOM     88  C   UNL A   1      33.634  27.577  22.288  1.00  0.00     0.000 A 
ENDBRANCH  82  83
ENDBRANCH  81  82
BRANCH  81  89
ATOM     89  N   UNL A   1      30.877  23.897  25.283  1.00  0.00    -0.198 NA
ATOM     90  H   UNL A   1      30.234  23.167  25.590  1.00  0.00     0.142 HD
BRANCH  89  91
ATOM     91  S   UNL A   1      30.594  25.217  26.267  1.00  0.00     0.241 S 
ATOM     92  O   UNL A   1      29.277  25.050  26.848  1.00  0.00    -0.207 OA
ATOM     93  O   UNL A   1      31.750  25.415  27.102  1.00  0.00    -0.207 OA
BRANCH  91  94
ATOM     94  C   UNL A   1      30.497  26.613  25.160  1.00  0.00     0.094 A 
ATOM     95  C   UNL A   1      29.929  26.378  23.894  1.00  0.00     0.022 A 
ATOM     96  C   UNL A   1      30.959  27.894  25.506  1.00  0.00     0.076 A 
ATOM     97  C   UNL A   1      29.835  27.402  22.955  1.00  0.00     0.001 A 
ATOM     98  C   UNL A   1      30.874  28.908  24.526  1.00  0.00     0.014 A 
ATOM     99  C   UNL A   1      30.316  28.667  23.269  1.00  0.00     0.001 A 
BRANCH  96 100
ATOM    100  C   UNL A   1      31.595  28.258  26.826  1.00  0.00     0.417 C 
ATOM    101  F   UNL A   1      32.816  27.679  26.971  1.00  0.00    -0.166 F 
ATOM    102  F   UNL A   1      31.810  29.600  26.942  1.00  0.00    -0.166 F 
ATOM    103  F   UNL A   1      30.899  27.913  27.935  1.00  0.00    -0.166 F 
ENDBRANCH  96 100
ENDBRANCH  91  94
ENDBRANCH  89  91
ENDBRANCH  81  89
ENDBRANCH  78  81
ENDBRANCH  76  77
ENDBRANCH   1  76
TORSDOF 20
ENDMDL
MODEL 2
REMARK VINA RESULT:     -10.9      3.478      8.259
REMARK SMILES O=C(NCCCCNC(=O)[C@@H](Cc1ccccc1)NS(=O)(=O)c1ccccc1C(F)(F)F)c1ccc(-c2c3nc(c(-c4c(F)cc(S(=O)(=O)[O-])cc4F)c4ccc([nH]4)c(-c4c(F)cc(S(=O)(=O)[O-])cc4F)c4nc(c(-c5c(F)cc(S(=O)(=O)[O-])cc5F)c5ccc2[nH]5)C=C4)C=C3)cc1
REMARK SMILES IDX 6 1 5 2 4 3 3 4 1 5 2 6 33 8 34 9 98 10 35 11 97 12 36 13
REMARK SMILES IDX 37 14 38 15 91 16 39 17 96 18 90 19 92 20 40 21 95 22 89 23
REMARK SMILES IDX 88 24 41 26 75 27 54 28 74 29 55 30 58 31 73 32 93 33 56 34
REMARK SMILES IDX 57 35 72 37 94 38 59 39 42 40 43 41 52 42 44 43 45 44 51 45
REMARK SMILES IDX 53 46 46 47 47 48 48 49 49 50 50 51 76 52 77 53 86 54 78 55
REMARK SMILES IDX 79 56 85 57 87 58 80 59 81 60 82 61 83 62 84 63 60 64 61 65
REMARK SMILES IDX 70 66 62 67 63 68 69 69 71 70 64 71 65 72 66 73 67 74 68 75
REMARK SMILES IDX 7 76 8 77 9 78 10 80 11 81 12 82 13 83 14 84 18 85 15 86
REMARK SMILES IDX 17 87 16 88 19 89 20 91 21 92 22 93 23 94 24 95 28 96 25 97
REMARK SMILES IDX 27 98 26 99 29 100 30 101 31 102 32 103
REMARK H PARENT 3 7 92 25 58 36 8 79 19 90
REMARK Flexibility Score: inf
ROOT
ATOM      1  C   UNL A   1      31.319  27.932  25.835  1.00  0.00     0.023 C 
ENDROOT
BRANCH   1   2
ATOM      2  C   UNL A   1      32.787  28.314  25.948  1.00  0.00     0.023 C 
BRANCH   2   3
ATOM      3  C   UNL A   1      33.284  28.557  27.366  1.00  0.00     0.116 C 
BRANCH   3   4
ATOM      4  N   UNL A   1      33.341  29.954  27.781  1.00  0.00    -0.352 N 
ATOM      5  O   UNL A   1      34.371  31.843  28.517  1.00  0.00    -0.269 OA
ATOM      6  C   UNL A   1      34.458  30.667  28.181  1.00  0.00     0.251 C 
ATOM      7  H   UNL A   1      32.488  30.445  27.778  1.00  0.00     0.163 HD
BRANCH   6   8
ATOM      8  C   UNL A   1      35.753  29.952  28.261  1.00  0.00     0.039 A 
ATOM      9  C   UNL A   1      36.159  29.387  29.471  1.00  0.00     0.014 A 
ATOM     10  C   UNL A   1      36.633  30.008  27.178  1.00  0.00     0.014 A 
ATOM     11  C   UNL A   1      37.505  29.112  29.670  1.00  0.00     0.010 A 
ATOM     12  C   UNL A   1      37.964  29.612  27.349  1.00  0.00     0.010 A 
ATOM     13  C   UNL A   1      38.431  29.231  28.617  1.00  0.00    -0.014 A 
BRANCH  13  14
ATOM     14  C   UNL A   1      39.872  28.956  28.878  1.00  0.00     0.031 A 
ATOM     15  C   UNL A   1      40.752  29.960  29.582  1.00  0.00     0.074 A 
ATOM     16  C   UNL A   1      40.377  27.758  28.521  1.00  0.00     0.049 A 
ATOM     17  N   UNL A   1      42.021  29.869  29.894  1.00  0.00    -0.248 NA
ATOM     18  C   UNL A   1      40.134  31.234  29.982  1.00  0.00     0.031 C 
ATOM     19  C   UNL A   1      39.628  26.700  27.839  1.00  0.00     0.029 A 
ATOM     20  N   UNL A   1      41.622  27.215  28.704  1.00  0.00    -0.354 N 
ATOM     21  C   UNL A   1      42.364  31.082  30.485  1.00  0.00     0.074 A 
ATOM     22  C   UNL A   1      41.170  31.900  30.477  1.00  0.00     0.031 C 
ATOM     23  C   UNL A   1      40.403  25.614  27.725  1.00  0.00     0.029 A 
ATOM     24  C   UNL A   1      41.729  25.923  28.247  1.00  0.00     0.049 A 
ATOM     25  H   UNL A   1      42.368  27.702  29.124  1.00  0.00     0.167 HD
ATOM     26  C   UNL A   1      43.562  31.477  30.985  1.00  0.00     0.037 A 
ATOM     27  C   UNL A   1      42.779  25.080  28.228  1.00  0.00     0.037 A 
ATOM     28  C   UNL A   1      44.739  30.643  31.018  1.00  0.00     0.049 A 
ATOM     29  C   UNL A   1      44.093  25.542  28.782  1.00  0.00     0.074 A 
ATOM     30  C   UNL A   1      45.989  30.936  31.538  1.00  0.00     0.029 A 
ATOM     31  N   UNL A   1      44.814  29.352  30.511  1.00  0.00    -0.354 N 
ATOM     32  N   UNL A   1      44.395  26.690  29.337  1.00  0.00    -0.248 NA
ATOM     33  C   UNL A   1      45.213  24.596  28.700  1.00  0.00     0.031 C 
ATOM     34  C   UNL A   1      46.830  29.842  31.305  1.00  0.00     0.029 A 
ATOM     35  C   UNL A   1      46.092  28.844  30.687  1.00  0.00     0.049 A 
ATOM     36  H   UNL A   1      44.067  28.869  30.088  1.00  0.00     0.167 HD
ATOM     37  C   UNL A   1      45.735  26.600  29.691  1.00  0.00     0.074 A 
ATOM     38  C   UNL A   1      46.181  25.278  29.296  1.00  0.00     0.031 C 
ATOM     39  C   UNL A   1      46.523  27.526  30.290  1.00  0.00     0.037 A 
BRANCH  26  40
ATOM     40  C   UNL A   1      43.676  32.887  31.506  1.00  0.00     0.058 A 
ATOM     41  C   UNL A   1      43.398  33.217  32.842  1.00  0.00     0.135 A 
ATOM     42  C   UNL A   1      44.097  33.924  30.655  1.00  0.00     0.135 A 
ATOM     43  F   UNL A   1      42.985  32.271  33.701  1.00  0.00    -0.206 F 
ATOM     44  C   UNL A   1      43.494  34.528  33.305  1.00  0.00     0.059 A 
ATOM     45  C   UNL A   1      44.225  35.237  31.102  1.00  0.00     0.059 A 
ATOM     46  F   UNL A   1      44.384  33.667  29.369  1.00  0.00    -0.206 F 
ATOM     47  C   UNL A   1      43.902  35.532  32.425  1.00  0.00     0.060 A 
BRANCH  47  48
ATOM     48  S   UNL A   1      43.992  37.232  33.030  1.00  0.00     0.124 S 
ATOM     49  O   UNL A   1      42.838  37.283  33.921  1.00  0.00    -0.237 OA
ATOM     50  O   UNL A   1      45.297  37.264  33.683  1.00  0.00    -0.237 OA
ATOM     51  O   UNL A   1      43.883  38.033  31.814  1.00  0.00    -0.744 OA
ENDBRANCH  47  48
ENDBRANCH  26  40
BRANCH  27  52
ATOM     52  C   UNL A   1      42.608  23.715  27.667  1.00  0.00     0.058 A 
ATOM     53  C   UNL A   1      42.735  23.481  26.292  1.00  0.00     0.135 A 
ATOM     54  C   UNL A   1      42.376  22.611  28.503  1.00  0.00     0.135 A 
ATOM     55  F   UNL A   1      42.953  24.506  25.454  1.00  0.00    -0.206 F 
ATOM     56  C   UNL A   1      42.639  22.200  25.761  1.00  0.00     0.059 A 
ATOM     57  C   UNL A   1      42.306  21.317  28.000  1.00  0.00     0.059 A 
ATOM     58  F   UNL A   1      42.267  22.782  29.830  1.00  0.00    -0.206 F 
ATOM     59  C   UNL A   1      42.433  21.122  26.626  1.00  0.00     0.060 A 
BRANCH  59  60
ATOM     60  S   UNL A   1      42.393  19.454  25.936  1.00  0.00     0.124 S 
ATOM     61  O   UNL A   1      40.967  19.274  25.690  1.00  0.00    -0.237 OA
ATOM     62  O   UNL A   1      43.234  19.591  24.752  1.00  0.00    -0.237 OA
ATOM     63  O   UNL A   1      42.958  18.636  27.006  1.00  0.00    -0.744 OA
ENDBRANCH  59  60
ENDBRANCH  27  52
BRANCH  39  64
ATOM     64  C   UNL A   1      47.939  27.125  30.594  1.00  0.00     0.058 A 
ATOM     65  C   UNL A   1      48.995  27.412  29.715  1.00  0.00     0.135 A 
ATOM     66  C   UNL A   1      48.244  26.461  31.794  1.00  0.00     0.135 A 
ATOM     67  F   UNL A   1      48.756  28.036  28.551  1.00  0.00    -0.206 F 
ATOM     68  C   UNL A   1      50.301  27.026  30.001  1.00  0.00     0.059 A 
ATOM     69  C   UNL A   1      49.547  26.090  32.112  1.00  0.00     0.059 A 
ATOM     70  F   UNL A   1      47.271  26.170  32.671  1.00  0.00    -0.206 F 
ATOM     71  C   UNL A   1      50.566  26.364  31.201  1.00  0.00     0.060 A 
BRANCH  71  72
ATOM     72  S   UNL A   1      52.267  25.880  31.570  1.00  0.00     0.124 S 
ATOM     73  O   UNL A   1      52.095  24.488  31.968  1.00  0.00    -0.237 OA
ATOM     74  O   UNL A   1      52.938  26.097  30.291  1.00  0.00    -0.237 OA
ATOM     75  O   UNL A   1      52.656  26.797  32.637  1.00  0.00    -0.744 OA
ENDBRANCH  71  72
ENDBRANCH  39  64
ENDBRANCH  13  14
ENDBRANCH   6   8
ENDBRANCH   3   4
ENDBRANCH   2   3
ENDBRANCH   1   2
BRANCH   1  76
ATOM     76  C   UNL A   1      31.038  26.544  25.251  1.00  0.00     0.116 C 
BRANCH  76  77
ATOM     77  N   UNL A   1      30.874  25.556  26.297  1.00  0.00    -0.355 N 
ATOM     78  C   UNL A   1      31.397  24.315  26.463  1.00  0.00     0.238 C 
ATOM     79  H   UNL A   1      30.270  25.836  27.022  1.00  0.00     0.163 HD
ATOM     80  O   UNL A   1      30.948  23.657  27.412  1.00  0.00    -0.273 OA
BRANCH  78  81
ATOM     81  C   UNL A   1      32.508  23.712  25.588  1.00  0.00     0.163 C 
BRANCH  81  82
ATOM     82  C   UNL A   1      33.719  24.632  25.340  1.00  0.00     0.065 C 
BRANCH  82  83
ATOM     83  C   UNL A   1      35.109  24.169  24.953  1.00  0.00    -0.046 A 
ATOM     84  C   UNL A   1      35.503  23.763  23.671  1.00  0.00     0.004 A 
ATOM     85  C   UNL A   1      36.093  24.183  25.961  1.00  0.00     0.004 A 
ATOM     86  C   UNL A   1      36.798  23.291  23.430  1.00  0.00     0.000 A 
ATOM     87  C   UNL A   1      37.392  23.734  25.717  1.00  0.00     0.000 A 
ATOM     88  C   UNL A   1      37.739  23.265  24.455  1.00  0.00     0.000 A 
ENDBRANCH  82  83
ENDBRANCH  81  82
BRANCH  81  89
ATOM     89  N   UNL A   1      32.797  22.304  25.902  1.00  0.00    -0.198 NA
ATOM     90  H   UNL A   1      32.275  22.087  26.751  1.00  0.00     0.142 HD
BRANCH  89  91
ATOM     91  S   UNL A   1      32.459  21.080  24.817  1.00  0.00     0.241 S 
ATOM     92  O   UNL A   1      31.407  20.268  25.393  1.00  0.00    -0.207 OA
ATOM     93  O   UNL A   1      32.308  21.664  23.510  1.00  0.00    -0.207 OA
BRANCH  91  94
ATOM     94  C   UNL A   1      33.930  20.071  24.778  1.00  0.00     0.094 A 
ATOM     95  C   UNL A   1      35.122  20.673  25.222  1.00  0.00     0.022 A 
ATOM     96  C   UNL A   1      33.929  18.740  24.329  1.00  0.00     0.076 A 
ATOM     97  C   UNL A   1      36.324  19.970  25.204  1.00  0.00     0.001 A 
ATOM     98  C   UNL A   1      35.166  18.058  24.298  1.00  0.00     0.014 A 
ATOM     99  C   UNL A   1      36.347  18.663  24.733  1.00  0.00     0.001 A 
BRANCH  96 100
ATOM    100  C   UNL A   1      32.717  17.998  23.820  1.00  0.00     0.417 C 
ATOM    101  F   UNL A   1      33.057  16.816  23.241  1.00  0.00    -0.166 F 
ATOM    102  F   UNL A   1      31.850  17.678  24.823  1.00  0.00    -0.166 F 
ATOM    103  F   UNL A   1      31.968  18.648  22.898  1.00  0.00    -0.166 F 
ENDBRANCH  96 100
ENDBRANCH  91  94
ENDBRANCH  89  91
ENDBRANCH  81  89
ENDBRANCH  78  81
ENDBRANCH  76  77
ENDBRANCH   1  76
TORSDOF 20
ENDMDL
MODEL 3
REMARK VINA RESULT:     -10.9      3.658      9.392
REMARK SMILES O=C(NCCCCNC(=O)[C@@H](Cc1ccccc1)NS(=O)(=O)c1ccccc1C(F)(F)F)c1ccc(-c2c3nc(c(-c4c(F)cc(S(=O)(=O)[O-])cc4F)c4ccc([nH]4)c(-c4c(F)cc(S(=O)(=O)[O-])cc4F)c4nc(c(-c5c(F)cc(S(=O)(=O)[O-])cc5F)c5ccc2[nH]5)C=C4)C=C3)cc1
REMARK SMILES IDX 6 1 5 2 4 3 3 4 1 5 2 6 33 8 34 9 98 10 35 11 97 12 36 13
REMARK SMILES IDX 37 14 38 15 91 16 39 17 96 18 90 19 92 20 40 21 95 22 89 23
REMARK SMILES IDX 88 24 41 26 75 27 54 28 74 29 55 30 58 31 73 32 93 33 56 34
REMARK SMILES IDX 57 35 72 37 94 38 59 39 42 40 43 41 52 42 44 43 45 44 51 45
REMARK SMILES IDX 53 46 46 47 47 48 48 49 49 50 50 51 76 52 77 53 86 54 78 55
REMARK SMILES IDX 79 56 85 57 87 58 80 59 81 60 82 61 83 62 84 63 60 64 61 65
REMARK SMILES IDX 70 66 62 67 63 68 69 69 71 70 64 71 65 72 66 73 67 74 68 75
REMARK SMILES IDX 7 76 8 77 9 78 10 80 11 81 12 82 13 83 14 84 18 85 15 86
REMARK SMILES IDX 17 87 16 88 19 89 20 91 21 92 22 93 23 94 24 95 28 96 25 97
REMARK SMILES IDX 27 98 26 99 29 100 30 101 31 102 32 103
REMARK H PARENT 3 7 92 25 58 36 8 79 19 90
REMARK Flexibility Score: inf
ROOT
ATOM      1  C   UNL A   1      31.502  28.029  25.988  1.00  0.00     0.023 C 
ENDROOT
BRANCH   1   2
ATOM      2  C   UNL A   1      32.959  28.465  25.939  1.00  0.00     0.023 C 
BRANCH   2   3
ATOM      3  C   UNL A   1      33.636  28.611  27.294  1.00  0.00     0.116 C 
BRANCH   3   4
ATOM      4  N   UNL A   1      33.683  29.966  27.830  1.00  0.00    -0.352 N 
ATOM      5  O   UNL A   1      34.696  31.779  28.759  1.00  0.00    -0.269 OA
ATOM      6  C   UNL A   1      34.789  30.636  28.325  1.00  0.00     0.251 C 
ATOM      7  H   UNL A   1      32.832  30.462  27.843  1.00  0.00     0.163 HD
BRANCH   6   8
ATOM      8  C   UNL A   1      36.079  29.909  28.384  1.00  0.00     0.039 A 
ATOM      9  C   UNL A   1      36.505  29.349  29.589  1.00  0.00     0.014 A 
ATOM     10  C   UNL A   1      36.936  29.949  27.282  1.00  0.00     0.014 A 
ATOM     11  C   UNL A   1      37.853  29.063  29.762  1.00  0.00     0.010 A 
ATOM     12  C   UNL A   1      38.267  29.541  27.429  1.00  0.00     0.010 A 
ATOM     13  C   UNL A   1      38.757  29.166  28.690  1.00  0.00    -0.014 A 
BRANCH  13  14
ATOM     14  C   UNL A   1      40.200  28.878  28.922  1.00  0.00     0.031 A 
ATOM     15  C   UNL A   1      40.818  27.563  28.511  1.00  0.00     0.074 A 
ATOM     16  C   UNL A   1      40.974  29.841  29.461  1.00  0.00     0.049 A 
ATOM     17  N   UNL A   1      42.060  27.161  28.633  1.00  0.00    -0.248 NA
ATOM     18  C   UNL A   1      39.932  26.566  27.893  1.00  0.00     0.031 C 
ATOM     19  C   UNL A   1      40.498  31.157  29.895  1.00  0.00     0.029 A 
ATOM     20  N   UNL A   1      42.322  29.880  29.710  1.00  0.00    -0.354 N 
ATOM     21  C   UNL A   1      42.096  25.857  28.150  1.00  0.00     0.074 A 
ATOM     22  C   UNL A   1      40.745  25.529  27.742  1.00  0.00     0.031 C 
ATOM     23  C   UNL A   1      41.542  31.897  30.288  1.00  0.00     0.029 A 
ATOM     24  C   UNL A   1      42.751  31.083  30.218  1.00  0.00     0.049 A 
ATOM     25  H   UNL A   1      42.924  29.120  29.542  1.00  0.00     0.167 HD
ATOM     26  C   UNL A   1      43.153  25.012  28.054  1.00  0.00     0.037 A 
ATOM     27  C   UNL A   1      43.974  31.489  30.604  1.00  0.00     0.037 A 
ATOM     28  C   UNL A   1      44.501  25.360  28.433  1.00  0.00     0.049 A 
ATOM     29  C   UNL A   1      45.126  30.536  30.494  1.00  0.00     0.074 A 
ATOM     30  C   UNL A   1      45.649  24.589  28.340  1.00  0.00     0.029 A 
ATOM     31  N   UNL A   1      44.886  26.578  28.976  1.00  0.00    -0.354 N 
ATOM     32  N   UNL A   1      45.138  29.310  30.032  1.00  0.00    -0.248 NA
ATOM     33  C   UNL A   1      46.429  31.019  30.966  1.00  0.00     0.031 C 
ATOM     34  C   UNL A   1      46.716  25.324  28.868  1.00  0.00     0.029 A 
ATOM     35  C   UNL A   1      46.247  26.573  29.242  1.00  0.00     0.049 A 
ATOM     36  H   UNL A   1      44.280  27.335  29.148  1.00  0.00     0.167 HD
ATOM     37  C   UNL A   1      46.454  28.878  30.137  1.00  0.00     0.074 A 
ATOM     38  C   UNL A   1      47.210  29.982  30.697  1.00  0.00     0.031 C 
ATOM     39  C   UNL A   1      46.988  27.678  29.799  1.00  0.00     0.037 A 
BRANCH  26  40
ATOM     40  C   UNL A   1      42.893  23.613  27.555  1.00  0.00     0.058 A 
ATOM     41  C   UNL A   1      42.428  22.591  28.397  1.00  0.00     0.135 A 
ATOM     42  C   UNL A   1      43.090  23.299  26.198  1.00  0.00     0.135 A 
ATOM     43  F   UNL A   1      42.229  22.830  29.703  1.00  0.00    -0.206 F 
ATOM     44  C   UNL A   1      42.207  21.300  27.924  1.00  0.00     0.059 A 
ATOM     45  C   UNL A   1      42.849  22.021  25.698  1.00  0.00     0.059 A 
ATOM     46  F   UNL A   1      43.525  24.237  25.344  1.00  0.00    -0.206 F 
ATOM     47  C   UNL A   1      42.428  21.023  26.573  1.00  0.00     0.060 A 
BRANCH  47  48
ATOM     48  S   UNL A   1      42.166  19.338  25.979  1.00  0.00     0.124 S 
ATOM     49  O   UNL A   1      42.701  18.554  27.088  1.00  0.00    -0.237 OA
ATOM     50  O   UNL A   1      40.717  19.285  25.810  1.00  0.00    -0.237 OA
ATOM     51  O   UNL A   1      42.941  19.288  24.743  1.00  0.00    -0.744 OA
ENDBRANCH  47  48
ENDBRANCH  26  40
BRANCH  27  52
ATOM     52  C   UNL A   1      44.155  32.871  31.120  1.00  0.00     0.058 A 
ATOM     53  C   UNL A   1      44.462  33.928  30.255  1.00  0.00     0.135 A 
ATOM     54  C   UNL A   1      43.962  33.169  32.479  1.00  0.00     0.135 A 
ATOM     55  F   UNL A   1      44.658  33.692  28.949  1.00  0.00    -0.206 F 
ATOM     56  C   UNL A   1      44.572  35.236  30.715  1.00  0.00     0.059 A 
ATOM     57  C   UNL A   1      44.038  34.471  32.958  1.00  0.00     0.059 A 
ATOM     58  F   UNL A   1      43.647  32.192  33.345  1.00  0.00    -0.206 F 
ATOM     59  C   UNL A   1      44.349  35.498  32.069  1.00  0.00     0.060 A 
BRANCH  59  60
ATOM     60  S   UNL A   1      44.413  37.209  32.642  1.00  0.00     0.124 S 
ATOM     61  O   UNL A   1      45.753  37.276  33.213  1.00  0.00    -0.237 OA
ATOM     62  O   UNL A   1      44.208  37.954  31.404  1.00  0.00    -0.237 OA
ATOM     63  O   UNL A   1      43.312  37.283  33.598  1.00  0.00    -0.744 OA
ENDBRANCH  59  60
ENDBRANCH  27  52
BRANCH  39  64
ATOM     64  C   UNL A   1      48.469  27.513  29.986  1.00  0.00     0.058 A 
ATOM     65  C   UNL A   1      49.387  27.876  28.987  1.00  0.00     0.135 A 
ATOM     66  C   UNL A   1      48.978  27.004  31.192  1.00  0.00     0.135 A 
ATOM     67  F   UNL A   1      48.952  28.358  27.813  1.00  0.00    -0.206 F 
ATOM     68  C   UNL A   1      50.757  27.709  29.166  1.00  0.00     0.059 A 
ATOM     69  C   UNL A   1      50.345  26.854  31.402  1.00  0.00     0.059 A 
ATOM     70  F   UNL A   1      48.144  26.650  32.181  1.00  0.00    -0.206 F 
ATOM     71  C   UNL A   1      51.226  27.195  30.376  1.00  0.00     0.060 A 
BRANCH  71  72
ATOM     72  S   UNL A   1      53.006  26.997  30.604  1.00  0.00     0.124 S 
ATOM     73  O   UNL A   1      53.392  26.352  29.354  1.00  0.00    -0.237 OA
ATOM     74  O   UNL A   1      53.456  28.376  30.772  1.00  0.00    -0.237 OA
ATOM     75  O   UNL A   1      53.104  26.163  31.798  1.00  0.00    -0.744 OA
ENDBRANCH  71  72
ENDBRANCH  39  64
ENDBRANCH  13  14
ENDBRANCH   6   8
ENDBRANCH   3   4
ENDBRANCH   2   3
ENDBRANCH   1   2
BRANCH   1  76
ATOM     76  C   UNL A   1      31.208  26.635  25.426  1.00  0.00     0.116 C 
BRANCH  76  77
ATOM     77  N   UNL A   1      31.143  25.644  26.480  1.00  0.00    -0.355 N 
ATOM     78  C   UNL A   1      31.579  24.361  26.546  1.00  0.00     0.238 C 
ATOM     79  H   UNL A   1      30.702  25.960  27.300  1.00  0.00     0.163 HD
ATOM     80  O   UNL A   1      31.247  23.725  27.556  1.00  0.00    -0.273 OA
BRANCH  78  81
ATOM     81  C   UNL A   1      32.465  23.684  25.488  1.00  0.00     0.163 C 
BRANCH  81  82
ATOM     82  C   UNL A   1      33.595  24.563  24.919  1.00  0.00     0.065 C 
BRANCH  82  83
ATOM     83  C   UNL A   1      35.033  24.127  24.724  1.00  0.00    -0.046 A 
ATOM     84  C   UNL A   1      35.587  23.666  23.522  1.00  0.00     0.004 A 
ATOM     85  C   UNL A   1      35.890  24.228  25.837  1.00  0.00     0.004 A 
ATOM     86  C   UNL A   1      36.913  23.226  23.460  1.00  0.00     0.000 A 
ATOM     87  C   UNL A   1      37.221  23.811  25.771  1.00  0.00     0.000 A 
ATOM     88  C   UNL A   1      37.727  23.286  24.588  1.00  0.00     0.000 A 
ENDBRANCH  82  83
ENDBRANCH  81  82
BRANCH  81  89
ATOM     89  N   UNL A   1      32.808  22.292  25.820  1.00  0.00    -0.198 NA
ATOM     90  H   UNL A   1      32.310  22.072  26.682  1.00  0.00     0.142 HD
BRANCH  89  91
ATOM     91  S   UNL A   1      32.495  21.039  24.762  1.00  0.00     0.241 S 
ATOM     92  O   UNL A   1      31.452  20.224  25.351  1.00  0.00    -0.207 OA
ATOM     93  O   UNL A   1      32.343  21.589  23.441  1.00  0.00    -0.207 OA
BRANCH  91  94
ATOM     94  C   UNL A   1      33.980  20.050  24.755  1.00  0.00     0.094 A 
ATOM     95  C   UNL A   1      35.161  20.679  25.194  1.00  0.00     0.022 A 
ATOM     96  C   UNL A   1      34.002  18.709  24.336  1.00  0.00     0.076 A 
ATOM     97  C   UNL A   1      36.373  19.994  25.198  1.00  0.00     0.001 A 
ATOM     98  C   UNL A   1      35.249  18.045  24.328  1.00  0.00     0.014 A 
ATOM     99  C   UNL A   1      36.418  18.677  24.757  1.00  0.00     0.001 A 
BRANCH  96 100
ATOM    100  C   UNL A   1      32.804  17.939  23.836  1.00  0.00     0.417 C 
ATOM    101  F   UNL A   1      33.168  16.767  23.250  1.00  0.00    -0.166 F 
ATOM    102  F   UNL A   1      31.955  17.594  24.846  1.00  0.00    -0.166 F 
ATOM    103  F   UNL A   1      32.031  18.572  22.922  1.00  0.00    -0.166 F 
ENDBRANCH  96 100
ENDBRANCH  91  94
ENDBRANCH  89  91
ENDBRANCH  81  89
ENDBRANCH  78  81
ENDBRANCH  76  77
ENDBRANCH   1  76
TORSDOF 20
ENDMDL
