MODEL 1
REMARK VINA RESULT:     -10.7      0.000      0.000
REMARK SMILES O=C(NCCCCNC(=O)[C@@]1(CC2CCC2)CCOC1)c1ccc(-c2c3nc(c(-c4c(F)cc(S(=O)(=O)[O-])cc4F)c4ccc([nH]4)c(-c4c(F)cc(S(=O)(=O)[O-])cc4F)c4nc(c(-c5c(F)cc(S(=O)(=O)[O-])cc5F)c5ccc2[nH]5)C=C4)C=C3)cc1
REMARK SMILES IDX 5 1 4 2 3 3 1 4 2 5 21 7 22 8 86 9 23 10 85 11 24 12 25 13
REMARK SMILES IDX 26 14 79 15 27 16 84 17 78 18 80 19 28 20 83 21 77 22 76 23
REMARK SMILES IDX 29 25 63 26 42 27 62 28 43 29 46 30 61 31 81 32 44 33 45 34
REMARK SMILES IDX 60 36 82 37 47 38 30 39 31 40 40 41 32 42 33 43 39 44 41 45
REMARK SMILES IDX 34 46 35 47 36 48 37 49 38 50 64 51 65 52 74 53 66 54 67 55
REMARK SMILES IDX 73 56 75 57 68 58 69 59 70 60 71 61 72 62 48 63 49 64 58 65
REMARK SMILES IDX 50 66 51 67 57 68 59 69 52 70 53 71 54 72 55 73 56 74 6 75
REMARK SMILES IDX 7 76 8 77 9 78 10 80 11 81 17 82 20 83 18 84 19 85 12 86
REMARK SMILES IDX 13 87 14 88 16 89 15 90
REMARK H PARENT 3 6 80 24 46 35 8 79
REMARK Flexibility Score: inf
ROOT
ATOM      1  C   UNL A   1      34.696  30.564  27.404  1.00  0.00     0.023 C 
ENDROOT
BRANCH   1   2
ATOM      2  C   UNL A   1      35.423  29.802  28.498  1.00  0.00     0.116 C 
BRANCH   2   3
ATOM      3  N   UNL A   1      35.545  30.577  29.725  1.00  0.00    -0.352 N 
ATOM      4  O   UNL A   1      36.557  31.270  31.622  1.00  0.00    -0.269 OA
ATOM      5  C   UNL A   1      36.648  30.725  30.529  1.00  0.00     0.251 C 
ATOM      6  H   UNL A   1      34.735  31.056  30.014  1.00  0.00     0.163 HD
BRANCH   5   7
ATOM      7  C   UNL A   1      37.928  30.172  30.052  1.00  0.00     0.039 A 
ATOM      8  C   UNL A   1      38.857  29.687  30.976  1.00  0.00     0.014 A 
ATOM      9  C   UNL A   1      38.235  30.242  28.695  1.00  0.00     0.014 A 
ATOM     10  C   UNL A   1      40.157  29.451  30.567  1.00  0.00     0.010 A 
ATOM     11  C   UNL A   1      39.507  29.865  28.269  1.00  0.00     0.010 A 
ATOM     12  C   UNL A   1      40.490  29.501  29.205  1.00  0.00    -0.014 A 
BRANCH  12  13
ATOM     13  C   UNL A   1      41.852  29.099  28.781  1.00  0.00     0.031 A 
ATOM     14  C   UNL A   1      42.988  30.081  28.768  1.00  0.00     0.074 A 
ATOM     15  C   UNL A   1      42.054  27.821  28.405  1.00  0.00     0.049 A 
ATOM     16  N   UNL A   1      44.234  29.888  28.418  1.00  0.00    -0.248 NA
ATOM     17  C   UNL A   1      42.689  31.458  29.189  1.00  0.00     0.031 C 
ATOM     18  C   UNL A   1      41.022  26.779  28.381  1.00  0.00     0.029 A 
ATOM     19  N   UNL A   1      43.186  27.173  27.985  1.00  0.00    -0.354 N 
ATOM     20  C   UNL A   1      44.864  31.118  28.554  1.00  0.00     0.074 A 
ATOM     21  C   UNL A   1      43.850  32.061  28.977  1.00  0.00     0.031 C 
ATOM     22  C   UNL A   1      41.579  25.615  28.020  1.00  0.00     0.029 A 
ATOM     23  C   UNL A   1      42.981  25.844  27.701  1.00  0.00     0.049 A 
ATOM     24  H   UNL A   1      44.059  27.617  27.896  1.00  0.00     0.167 HD
ATOM     25  C   UNL A   1      46.168  31.426  28.349  1.00  0.00     0.037 A 
ATOM     26  C   UNL A   1      43.820  24.912  27.212  1.00  0.00     0.037 A 
ATOM     27  C   UNL A   1      47.157  30.475  27.905  1.00  0.00     0.049 A 
ATOM     28  C   UNL A   1      45.239  25.300  26.920  1.00  0.00     0.074 A 
ATOM     29  C   UNL A   1      48.509  30.678  27.695  1.00  0.00     0.029 A 
ATOM     30  N   UNL A   1      46.900  29.149  27.574  1.00  0.00    -0.354 N 
ATOM     31  N   UNL A   1      45.830  26.458  27.090  1.00  0.00    -0.248 NA
ATOM     32  C   UNL A   1      46.107  24.252  26.372  1.00  0.00     0.031 C 
ATOM     33  C   UNL A   1      49.047  29.512  27.143  1.00  0.00     0.029 A 
ATOM     34  C   UNL A   1      48.060  28.540  27.116  1.00  0.00     0.049 A 
ATOM     35  H   UNL A   1      46.024  28.708  27.651  1.00  0.00     0.167 HD
ATOM     36  C   UNL A   1      47.154  26.267  26.711  1.00  0.00     0.074 A 
ATOM     37  C   UNL A   1      47.273  24.880  26.309  1.00  0.00     0.031 C 
ATOM     38  C   UNL A   1      48.176  27.158  26.713  1.00  0.00     0.037 A 
BRANCH  25  39
ATOM     39  C   UNL A   1      46.585  32.862  28.544  1.00  0.00     0.058 A 
ATOM     40  C   UNL A   1      47.043  33.352  29.779  1.00  0.00     0.135 A 
ATOM     41  C   UNL A   1      46.529  33.767  27.469  1.00  0.00     0.135 A 
ATOM     42  F   UNL A   1      47.116  32.541  30.847  1.00  0.00    -0.206 F 
ATOM     43  C   UNL A   1      47.370  34.694  29.956  1.00  0.00     0.059 A 
ATOM     44  C   UNL A   1      46.900  35.100  27.610  1.00  0.00     0.059 A 
ATOM     45  F   UNL A   1      46.108  33.359  26.261  1.00  0.00    -0.206 F 
ATOM     46  C   UNL A   1      47.294  35.560  28.864  1.00  0.00     0.060 A 
BRANCH  46  47
ATOM     47  S   UNL A   1      47.703  37.298  29.117  1.00  0.00     0.124 S 
ATOM     48  O   UNL A   1      46.643  37.960  28.363  1.00  0.00    -0.237 OA
ATOM     49  O   UNL A   1      47.623  37.426  30.569  1.00  0.00    -0.237 OA
ATOM     50  O   UNL A   1      49.043  37.421  28.551  1.00  0.00    -0.744 OA
ENDBRANCH  46  47
ENDBRANCH  25  39
BRANCH  26  51
ATOM     51  C   UNL A   1      43.332  23.527  26.983  1.00  0.00     0.058 A 
ATOM     52  C   UNL A   1      43.032  23.074  25.691  1.00  0.00     0.135 A 
ATOM     53  C   UNL A   1      43.187  22.619  28.046  1.00  0.00     0.135 A 
ATOM     54  F   UNL A   1      43.150  23.904  24.644  1.00  0.00    -0.206 F 
ATOM     55  C   UNL A   1      42.598  21.774  25.460  1.00  0.00     0.059 A 
ATOM     56  C   UNL A   1      42.792  21.303  27.835  1.00  0.00     0.059 A 
ATOM     57  F   UNL A   1      43.477  22.998  29.300  1.00  0.00    -0.206 F 
ATOM     58  C   UNL A   1      42.495  20.892  26.537  1.00  0.00     0.060 A 
BRANCH  58  59
ATOM     59  S   UNL A   1      42.015  19.184  26.206  1.00  0.00     0.124 S 
ATOM     60  O   UNL A   1      42.940  18.817  25.139  1.00  0.00    -0.237 OA
ATOM     61  O   UNL A   1      42.248  18.552  27.500  1.00  0.00    -0.237 OA
ATOM     62  O   UNL A   1      40.614  19.297  25.813  1.00  0.00    -0.744 OA
ENDBRANCH  58  59
ENDBRANCH  26  51
BRANCH  38  63
ATOM     63  C   UNL A   1      49.543  26.650  26.328  1.00  0.00     0.058 A 
ATOM     64  C   UNL A   1      50.100  26.864  25.058  1.00  0.00     0.135 A 
ATOM     65  C   UNL A   1      50.326  25.965  27.275  1.00  0.00     0.135 A 
ATOM     66  F   UNL A   1      49.401  27.508  24.110  1.00  0.00    -0.206 F 
ATOM     67  C   UNL A   1      51.366  26.386  24.729  1.00  0.00     0.059 A 
ATOM     68  C   UNL A   1      51.610  25.523  26.983  1.00  0.00     0.059 A 
ATOM     69  F   UNL A   1      49.850  25.738  28.510  1.00  0.00    -0.206 F 
ATOM     70  C   UNL A   1      52.116  25.724  25.702  1.00  0.00     0.060 A 
BRANCH  70  71
ATOM     71  S   UNL A   1      53.770  25.144  25.271  1.00  0.00     0.124 S 
ATOM     72  O   UNL A   1      53.626  23.700  25.419  1.00  0.00    -0.237 OA
ATOM     73  O   UNL A   1      53.919  25.630  23.903  1.00  0.00    -0.237 OA
ATOM     74  O   UNL A   1      54.628  25.793  26.259  1.00  0.00    -0.744 OA
ENDBRANCH  70  71
ENDBRANCH  38  63
ENDBRANCH  12  13
ENDBRANCH   5   7
ENDBRANCH   2   3
ENDBRANCH   1   2
BRANCH   1  75
ATOM     75  C   UNL A   1      33.179  30.569  27.564  1.00  0.00     0.023 C 
BRANCH  75  76
ATOM     76  C   UNL A   1      32.426  30.311  26.264  1.00  0.00     0.116 C 
BRANCH  76  77
ATOM     77  N   UNL A   1      33.314  29.846  25.233  1.00  0.00    -0.356 N 
ATOM     78  C   UNL A   1      33.061  29.122  24.129  1.00  0.00     0.228 C 
ATOM     79  H   UNL A   1      34.257  30.099  25.354  1.00  0.00     0.163 HD
ATOM     80  O   UNL A   1      34.044  28.785  23.463  1.00  0.00    -0.274 OA
BRANCH  78  81
ATOM     81  C   UNL A   1      31.673  28.663  23.762  1.00  0.00     0.075 C 
ATOM     82  C   UNL A   1      30.274  29.747  23.648  1.00  0.00     0.048 C 
ATOM     83  C   UNL A   1      31.856  27.611  22.543  1.00  0.00     0.177 C 
ATOM     84  C   UNL A   1      28.910  28.704  22.793  1.00  0.00     0.161 C 
ATOM     85  O   UNL A   1      30.219  27.196  22.080  1.00  0.00    -0.380 OA
BRANCH  81  86
ATOM     86  C   UNL A   1      31.084  27.648  24.666  1.00  0.00     0.023 C 
BRANCH  86  87
ATOM     87  C   UNL A   1      32.382  26.910  24.421  1.00  0.00    -0.010 C 
ATOM     88  C   UNL A   1      33.821  26.527  26.174  1.00  0.00     0.003 C 
ATOM     89  C   UNL A   1      33.277  25.357  23.512  1.00  0.00     0.003 C 
ATOM     90  C   UNL A   1      34.600  25.107  24.933  1.00  0.00     0.001 C 
ENDBRANCH  86  87
ENDBRANCH  81  86
ENDBRANCH  78  81
ENDBRANCH  76  77
ENDBRANCH  75  76
ENDBRANCH   1  75
TORSDOF 16
ENDMDL
MODEL 2
REMARK VINA RESULT:     -10.6      7.040     11.955
REMARK SMILES O=C(NCCCCNC(=O)[C@@]1(CC2CCC2)CCOC1)c1ccc(-c2c3nc(c(-c4c(F)cc(S(=O)(=O)[O-])cc4F)c4ccc([nH]4)c(-c4c(F)cc(S(=O)(=O)[O-])cc4F)c4nc(c(-c5c(F)cc(S(=O)(=O)[O-])cc5F)c5ccc2[nH]5)C=C4)C=C3)cc1
REMARK SMILES IDX 5 1 4 2 3 3 1 4 2 5 21 7 22 8 86 9 23 10 85 11 24 12 25 13
REMARK SMILES IDX 26 14 79 15 27 16 84 17 78 18 80 19 28 20 83 21 77 22 76 23
REMARK SMILES IDX 29 25 63 26 42 27 62 28 43 29 46 30 61 31 81 32 44 33 45 34
REMARK SMILES IDX 60 36 82 37 47 38 30 39 31 40 40 41 32 42 33 43 39 44 41 45
REMARK SMILES IDX 34 46 35 47 36 48 37 49 38 50 64 51 65 52 74 53 66 54 67 55
REMARK SMILES IDX 73 56 75 57 68 58 69 59 70 60 71 61 72 62 48 63 49 64 58 65
REMARK SMILES IDX 50 66 51 67 57 68 59 69 52 70 53 71 54 72 55 73 56 74 6 75
REMARK SMILES IDX 7 76 8 77 9 78 10 80 11 81 17 82 20 83 18 84 19 85 12 86
REMARK SMILES IDX 13 87 14 88 16 89 15 90
REMARK H PARENT 3 6 80 24 46 35 8 79
REMARK Flexibility Score: inf
ROOT
ATOM      1  C   UNL A   1      37.480  23.697  25.536  1.00  0.00     0.023 C 
ENDROOT
BRANCH   1   2
ATOM      2  C   UNL A   1      38.439  24.226  26.587  1.00  0.00     0.116 C 
BRANCH   2   3
ATOM      3  N   UNL A   1      39.823  24.209  26.132  1.00  0.00    -0.352 N 
ATOM      4  O   UNL A   1      41.907  25.038  25.871  1.00  0.00    -0.269 OA
ATOM      5  C   UNL A   1      40.835  25.074  26.463  1.00  0.00     0.251 C 
ATOM      6  H   UNL A   1      40.061  23.484  25.510  1.00  0.00     0.163 HD
BRANCH   5   7
ATOM      7  C   UNL A   1      40.575  26.069  27.518  1.00  0.00     0.039 A 
ATOM      8  C   UNL A   1      41.289  27.270  27.527  1.00  0.00     0.014 A 
ATOM      9  C   UNL A   1      39.699  25.749  28.554  1.00  0.00     0.014 A 
ATOM     10  C   UNL A   1      41.270  28.061  28.662  1.00  0.00     0.010 A 
ATOM     11  C   UNL A   1      39.576  26.623  29.632  1.00  0.00     0.010 A 
ATOM     12  C   UNL A   1      40.387  27.768  29.712  1.00  0.00    -0.014 A 
BRANCH  12  13
ATOM     13  C   UNL A   1      40.280  28.714  30.848  1.00  0.00     0.031 A 
ATOM     14  C   UNL A   1      39.269  29.823  30.849  1.00  0.00     0.074 A 
ATOM     15  C   UNL A   1      41.118  28.556  31.892  1.00  0.00     0.049 A 
ATOM     16  N   UNL A   1      39.054  30.735  31.762  1.00  0.00    -0.248 NA
ATOM     17  C   UNL A   1      38.392  29.932  29.673  1.00  0.00     0.031 C 
ATOM     18  C   UNL A   1      42.141  27.510  31.999  1.00  0.00     0.029 A 
ATOM     19  N   UNL A   1      41.240  29.257  33.063  1.00  0.00    -0.354 N 
ATOM     20  C   UNL A   1      38.037  31.540  31.267  1.00  0.00     0.074 A 
ATOM     21  C   UNL A   1      37.707  31.033  29.952  1.00  0.00     0.031 C 
ATOM     22  C   UNL A   1      42.747  27.606  33.189  1.00  0.00     0.029 A 
ATOM     23  C   UNL A   1      42.222  28.769  33.892  1.00  0.00     0.049 A 
ATOM     24  H   UNL A   1      40.680  30.033  33.287  1.00  0.00     0.167 HD
ATOM     25  C   UNL A   1      37.434  32.600  31.859  1.00  0.00     0.037 A 
ATOM     26  C   UNL A   1      42.674  29.219  35.076  1.00  0.00     0.037 A 
ATOM     27  C   UNL A   1      37.795  33.103  33.162  1.00  0.00     0.049 A 
ATOM     28  C   UNL A   1      42.041  30.441  35.674  1.00  0.00     0.074 A 
ATOM     29  C   UNL A   1      37.227  34.151  33.864  1.00  0.00     0.029 A 
ATOM     30  N   UNL A   1      38.833  32.617  33.948  1.00  0.00    -0.354 N 
ATOM     31  N   UNL A   1      41.053  31.169  35.211  1.00  0.00    -0.248 NA
ATOM     32  C   UNL A   1      42.582  30.901  36.957  1.00  0.00     0.031 C 
ATOM     33  C   UNL A   1      37.982  34.364  35.022  1.00  0.00     0.029 A 
ATOM     34  C   UNL A   1      38.950  33.376  35.104  1.00  0.00     0.049 A 
ATOM     35  H   UNL A   1      39.402  31.848  33.719  1.00  0.00     0.167 HD
ATOM     36  C   UNL A   1      40.824  32.149  36.169  1.00  0.00     0.074 A 
ATOM     37  C   UNL A   1      41.774  31.913  37.237  1.00  0.00     0.031 C 
ATOM     38  C   UNL A   1      39.899  33.142  36.166  1.00  0.00     0.037 A 
BRANCH  25  39
ATOM     39  C   UNL A   1      36.365  33.321  31.078  1.00  0.00     0.058 A 
ATOM     40  C   UNL A   1      36.657  34.101  29.946  1.00  0.00     0.135 A 
ATOM     41  C   UNL A   1      35.018  33.224  31.467  1.00  0.00     0.135 A 
ATOM     42  F   UNL A   1      37.925  34.238  29.523  1.00  0.00    -0.206 F 
ATOM     43  C   UNL A   1      35.665  34.805  29.269  1.00  0.00     0.059 A 
ATOM     44  C   UNL A   1      34.003  33.879  30.776  1.00  0.00     0.059 A 
ATOM     45  F   UNL A   1      34.672  32.489  32.535  1.00  0.00    -0.206 F 
ATOM     46  C   UNL A   1      34.341  34.688  29.693  1.00  0.00     0.060 A 
BRANCH  46  47
ATOM     47  S   UNL A   1      33.072  35.623  28.816  1.00  0.00     0.124 S 
ATOM     48  O   UNL A   1      33.881  36.570  28.055  1.00  0.00    -0.237 OA
ATOM     49  O   UNL A   1      32.409  34.584  28.034  1.00  0.00    -0.237 OA
ATOM     50  O   UNL A   1      32.272  36.205  29.889  1.00  0.00    -0.744 OA
ENDBRANCH  46  47
ENDBRANCH  25  39
BRANCH  26  51
ATOM     51  C   UNL A   1      43.774  28.499  35.769  1.00  0.00     0.058 A 
ATOM     52  C   UNL A   1      43.498  27.479  36.691  1.00  0.00     0.135 A 
ATOM     53  C   UNL A   1      45.122  28.789  35.500  1.00  0.00     0.135 A 
ATOM     54  F   UNL A   1      42.227  27.167  36.986  1.00  0.00    -0.206 F 
ATOM     55  C   UNL A   1      44.516  26.780  37.328  1.00  0.00     0.059 A 
ATOM     56  C   UNL A   1      46.157  28.079  36.095  1.00  0.00     0.059 A 
ATOM     57  F   UNL A   1      45.440  29.746  34.612  1.00  0.00    -0.206 F 
ATOM     58  C   UNL A   1      45.843  27.078  37.013  1.00  0.00     0.060 A 
BRANCH  58  59
ATOM     59  S   UNL A   1      47.149  26.100  37.783  1.00  0.00     0.124 S 
ATOM     60  O   UNL A   1      48.279  26.368  36.900  1.00  0.00    -0.237 OA
ATOM     61  O   UNL A   1      47.222  26.695  39.113  1.00  0.00    -0.237 OA
ATOM     62  O   UNL A   1      46.623  24.739  37.738  1.00  0.00    -0.744 OA
ENDBRANCH  58  59
ENDBRANCH  26  51
BRANCH  38  63
ATOM     63  C   UNL A   1      39.817  34.019  37.390  1.00  0.00     0.058 A 
ATOM     64  C   UNL A   1      40.519  35.230  37.502  1.00  0.00     0.135 A 
ATOM     65  C   UNL A   1      38.981  33.651  38.459  1.00  0.00     0.135 A 
ATOM     66  F   UNL A   1      41.336  35.633  36.516  1.00  0.00    -0.206 F 
ATOM     67  C   UNL A   1      40.424  36.023  38.642  1.00  0.00     0.059 A 
ATOM     68  C   UNL A   1      38.834  34.452  39.585  1.00  0.00     0.059 A 
ATOM     69  F   UNL A   1      38.277  32.509  38.407  1.00  0.00    -0.206 F 
ATOM     70  C   UNL A   1      39.571  35.630  39.675  1.00  0.00     0.060 A 
BRANCH  70  71
ATOM     71  S   UNL A   1      39.430  36.688  41.130  1.00  0.00     0.124 S 
ATOM     72  O   UNL A   1      38.818  37.886  40.566  1.00  0.00    -0.237 OA
ATOM     73  O   UNL A   1      38.577  35.891  42.006  1.00  0.00    -0.237 OA
ATOM     74  O   UNL A   1      40.812  36.840  41.577  1.00  0.00    -0.744 OA
ENDBRANCH  70  71
ENDBRANCH  38  63
ENDBRANCH  12  13
ENDBRANCH   5   7
ENDBRANCH   2   3
ENDBRANCH   1   2
BRANCH   1  75
ATOM     75  C   UNL A   1      36.012  23.956  25.858  1.00  0.00     0.023 C 
BRANCH  75  76
ATOM     76  C   UNL A   1      35.281  22.737  26.407  1.00  0.00     0.116 C 
BRANCH  76  77
ATOM     77  N   UNL A   1      34.050  23.113  27.047  1.00  0.00    -0.356 N 
ATOM     78  C   UNL A   1      32.819  23.285  26.533  1.00  0.00     0.228 C 
ATOM     79  H   UNL A   1      34.119  23.271  28.016  1.00  0.00     0.163 HD
ATOM     80  O   UNL A   1      31.959  23.706  27.312  1.00  0.00    -0.274 OA
BRANCH  78  81
ATOM     81  C   UNL A   1      32.514  23.066  25.074  1.00  0.00     0.075 C 
ATOM     82  C   UNL A   1      33.038  21.640  24.159  1.00  0.00     0.048 C 
ATOM     83  C   UNL A   1      30.970  23.514  24.866  1.00  0.00     0.177 C 
ATOM     84  C   UNL A   1      32.058  21.723  22.511  1.00  0.00     0.161 C 
ATOM     85  O   UNL A   1      30.631  23.137  23.191  1.00  0.00    -0.380 OA
BRANCH  81  86
ATOM     86  C   UNL A   1      33.031  24.110  24.157  1.00  0.00     0.023 C 
BRANCH  86  87
ATOM     87  C   UNL A   1      32.298  25.058  25.082  1.00  0.00    -0.010 C 
ATOM     88  C   UNL A   1      33.465  26.714  26.170  1.00  0.00     0.003 C 
ATOM     89  C   UNL A   1      30.668  26.201  25.356  1.00  0.00     0.003 C 
ATOM     90  C   UNL A   1      31.619  27.552  26.404  1.00  0.00     0.001 C 
ENDBRANCH  86  87
ENDBRANCH  81  86
ENDBRANCH  78  81
ENDBRANCH  76  77
ENDBRANCH  75  76
ENDBRANCH   1  75
TORSDOF 16
ENDMDL
MODEL 3
REMARK VINA RESULT:     -10.6      3.130      9.222
REMARK SMILES O=C(NCCCCNC(=O)[C@@]1(CC2CCC2)CCOC1)c1ccc(-c2c3nc(c(-c4c(F)cc(S(=O)(=O)[O-])cc4F)c4ccc([nH]4)c(-c4c(F)cc(S(=O)(=O)[O-])cc4F)c4nc(c(-c5c(F)cc(S(=O)(=O)[O-])cc5F)c5ccc2[nH]5)C=C4)C=C3)cc1
REMARK SMILES IDX 5 1 4 2 3 3 1 4 2 5 21 7 22 8 86 9 23 10 85 11 24 12 25 13
REMARK SMILES IDX 26 14 79 15 27 16 84 17 78 18 80 19 28 20 83 21 77 22 76 23
REMARK SMILES IDX 29 25 63 26 42 27 62 28 43 29 46 30 61 31 81 32 44 33 45 34
REMARK SMILES IDX 60 36 82 37 47 38 30 39 31 40 40 41 32 42 33 43 39 44 41 45
REMARK SMILES IDX 34 46 35 47 36 48 37 49 38 50 64 51 65 52 74 53 66 54 67 55
REMARK SMILES IDX 73 56 75 57 68 58 69 59 70 60 71 61 72 62 48 63 49 64 58 65
REMARK SMILES IDX 50 66 51 67 57 68 59 69 52 70 53 71 54 72 55 73 56 74 6 75
REMARK SMILES IDX 7 76 8 77 9 78 10 80 11 81 17 82 20 83 18 84 19 85 12 86
REMARK SMILES IDX 13 87 14 88 16 89 15 90
REMARK H PARENT 3 6 80 24 46 35 8 79
REMARK Flexibility Score: inf
ROOT
ATOM      1  C   UNL A   1      33.788  28.043  25.663  1.00  0.00     0.023 C 
ENDROOT
BRANCH   1   2
ATOM      2  C   UNL A   1      33.791  28.219  27.171  1.00  0.00     0.116 C 
BRANCH   2   3
ATOM      3  N   UNL A   1      33.603  29.608  27.567  1.00  0.00    -0.352 N 
ATOM      4  O   UNL A   1      34.148  31.536  28.609  1.00  0.00    -0.269 OA
ATOM      5  C   UNL A   1      34.501  30.444  28.182  1.00  0.00     0.251 C 
ATOM      6  H   UNL A   1      32.720  29.996  27.367  1.00  0.00     0.163 HD
BRANCH   5   7
ATOM      7  C   UNL A   1      35.885  29.967  28.347  1.00  0.00     0.039 A 
ATOM      8  C   UNL A   1      36.316  29.516  29.597  1.00  0.00     0.014 A 
ATOM      9  C   UNL A   1      36.774  30.076  27.279  1.00  0.00     0.014 A 
ATOM     10  C   UNL A   1      37.671  29.357  29.829  1.00  0.00     0.010 A 
ATOM     11  C   UNL A   1      38.119  29.775  27.484  1.00  0.00     0.010 A 
ATOM     12  C   UNL A   1      38.584  29.447  28.768  1.00  0.00    -0.014 A 
BRANCH  12  13
ATOM     13  C   UNL A   1      40.010  29.125  29.016  1.00  0.00     0.031 A 
ATOM     14  C   UNL A   1      40.584  27.787  28.652  1.00  0.00     0.074 A 
ATOM     15  C   UNL A   1      40.790  30.069  29.580  1.00  0.00     0.049 A 
ATOM     16  N   UNL A   1      41.807  27.349  28.810  1.00  0.00    -0.248 NA
ATOM     17  C   UNL A   1      39.670  26.808  28.044  1.00  0.00     0.031 C 
ATOM     18  C   UNL A   1      40.339  31.408  29.973  1.00  0.00     0.029 A 
ATOM     19  N   UNL A   1      42.120  30.060  29.909  1.00  0.00    -0.354 N 
ATOM     20  C   UNL A   1      41.808  26.041  28.344  1.00  0.00     0.074 A 
ATOM     21  C   UNL A   1      40.451  25.743  27.936  1.00  0.00     0.031 C 
ATOM     22  C   UNL A   1      41.382  32.105  30.440  1.00  0.00     0.029 A 
ATOM     23  C   UNL A   1      42.554  31.240  30.464  1.00  0.00     0.049 A 
ATOM     24  H   UNL A   1      42.706  29.283  29.764  1.00  0.00     0.167 HD
ATOM     25  C   UNL A   1      42.847  25.174  28.260  1.00  0.00     0.037 A 
ATOM     26  C   UNL A   1      43.754  31.586  30.963  1.00  0.00     0.037 A 
ATOM     27  C   UNL A   1      44.187  25.485  28.694  1.00  0.00     0.049 A 
ATOM     28  C   UNL A   1      44.867  30.581  30.929  1.00  0.00     0.074 A 
ATOM     29  C   UNL A   1      45.317  24.690  28.625  1.00  0.00     0.029 A 
ATOM     30  N   UNL A   1      44.576  26.673  29.302  1.00  0.00    -0.354 N 
ATOM     31  N   UNL A   1      44.863  29.361  30.449  1.00  0.00    -0.248 NA
ATOM     32  C   UNL A   1      46.151  31.002  31.502  1.00  0.00     0.031 C 
ATOM     33  C   UNL A   1      46.360  25.352  29.281  1.00  0.00     0.029 A 
ATOM     34  C   UNL A   1      45.916  26.610  29.656  1.00  0.00     0.049 A 
ATOM     35  H   UNL A   1      43.987  27.445  29.459  1.00  0.00     0.167 HD
ATOM     36  C   UNL A   1      46.156  28.882  30.622  1.00  0.00     0.074 A 
ATOM     37  C   UNL A   1      46.913  29.949  31.245  1.00  0.00     0.031 C 
ATOM     38  C   UNL A   1      46.668  27.673  30.280  1.00  0.00     0.037 A 
BRANCH  25  39
ATOM     39  C   UNL A   1      42.561  23.790  27.736  1.00  0.00     0.058 A 
ATOM     40  C   UNL A   1      42.342  22.693  28.586  1.00  0.00     0.135 A 
ATOM     41  C   UNL A   1      42.499  23.558  26.350  1.00  0.00     0.135 A 
ATOM     42  F   UNL A   1      42.390  22.846  29.919  1.00  0.00    -0.206 F 
ATOM     43  C   UNL A   1      42.134  21.411  28.084  1.00  0.00     0.059 A 
ATOM     44  C   UNL A   1      42.243  22.295  25.827  1.00  0.00     0.059 A 
ATOM     45  F   UNL A   1      42.692  24.566  25.485  1.00  0.00    -0.206 F 
ATOM     46  C   UNL A   1      42.088  21.223  26.702  1.00  0.00     0.060 A 
BRANCH  46  47
ATOM     47  S   UNL A   1      41.838  19.552  26.071  1.00  0.00     0.124 S 
ATOM     48  O   UNL A   1      42.722  19.543  24.909  1.00  0.00    -0.237 OA
ATOM     49  O   UNL A   1      42.264  18.729  27.198  1.00  0.00    -0.237 OA
ATOM     50  O   UNL A   1      40.410  19.509  25.770  1.00  0.00    -0.744 OA
ENDBRANCH  46  47
ENDBRANCH  25  39
BRANCH  26  51
ATOM     51  C   UNL A   1      43.956  32.948  31.523  1.00  0.00     0.058 A 
ATOM     52  C   UNL A   1      44.311  34.022  30.695  1.00  0.00     0.135 A 
ATOM     53  C   UNL A   1      43.766  33.211  32.891  1.00  0.00     0.135 A 
ATOM     54  F   UNL A   1      44.509  33.821  29.383  1.00  0.00    -0.206 F 
ATOM     55  C   UNL A   1      44.479  35.305  31.201  1.00  0.00     0.059 A 
ATOM     56  C   UNL A   1      43.891  34.493  33.413  1.00  0.00     0.059 A 
ATOM     57  F   UNL A   1      43.409  32.221  33.724  1.00  0.00    -0.206 F 
ATOM     58  C   UNL A   1      44.253  35.533  32.560  1.00  0.00     0.060 A 
BRANCH  58  59
ATOM     59  S   UNL A   1      44.390  37.221  33.182  1.00  0.00     0.124 S 
ATOM     60  O   UNL A   1      43.139  37.368  33.918  1.00  0.00    -0.237 OA
ATOM     61  O   UNL A   1      45.602  37.145  33.990  1.00  0.00    -0.237 OA
ATOM     62  O   UNL A   1      44.502  38.021  31.966  1.00  0.00    -0.744 OA
ENDBRANCH  58  59
ENDBRANCH  26  51
BRANCH  38  63
ATOM     63  C   UNL A   1      48.142  27.452  30.509  1.00  0.00     0.058 A 
ATOM     64  C   UNL A   1      49.116  27.799  29.560  1.00  0.00     0.135 A 
ATOM     65  C   UNL A   1      48.587  26.915  31.731  1.00  0.00     0.135 A 
ATOM     66  F   UNL A   1      48.754  28.312  28.373  1.00  0.00    -0.206 F 
ATOM     67  C   UNL A   1      50.472  27.586  29.797  1.00  0.00     0.059 A 
ATOM     68  C   UNL A   1      49.938  26.740  32.007  1.00  0.00     0.059 A 
ATOM     69  F   UNL A   1      47.703  26.572  32.682  1.00  0.00    -0.206 F 
ATOM     70  C   UNL A   1      50.873  27.064  31.028  1.00  0.00     0.060 A 
BRANCH  70  71
ATOM     71  S   UNL A   1      52.635  26.830  31.335  1.00  0.00     0.124 S 
ATOM     72  O   UNL A   1      53.015  28.127  31.885  1.00  0.00    -0.237 OA
ATOM     73  O   UNL A   1      52.637  25.716  32.278  1.00  0.00    -0.237 OA
ATOM     74  O   UNL A   1      53.175  26.528  30.013  1.00  0.00    -0.744 OA
ENDBRANCH  70  71
ENDBRANCH  38  63
ENDBRANCH  12  13
ENDBRANCH   5   7
ENDBRANCH   2   3
ENDBRANCH   1   2
BRANCH   1  75
ATOM     75  C   UNL A   1      34.035  26.607  25.211  1.00  0.00     0.023 C 
BRANCH  75  76
ATOM     76  C   UNL A   1      33.273  26.224  23.948  1.00  0.00     0.116 C 
BRANCH  76  77
ATOM     77  N   UNL A   1      33.953  25.181  23.228  1.00  0.00    -0.356 N 
ATOM     78  C   UNL A   1      33.902  23.846  23.377  1.00  0.00     0.228 C 
ATOM     79  H   UNL A   1      34.550  25.495  22.512  1.00  0.00     0.163 HD
ATOM     80  O   UNL A   1      34.674  23.191  22.670  1.00  0.00    -0.274 OA
BRANCH  78  81
ATOM     81  C   UNL A   1      33.025  23.179  24.405  1.00  0.00     0.075 C 
ATOM     82  C   UNL A   1      31.347  23.653  24.727  1.00  0.00     0.048 C 
ATOM     83  C   UNL A   1      33.299  21.588  24.264  1.00  0.00     0.177 C 
ATOM     84  C   UNL A   1      30.638  22.245  25.821  1.00  0.00     0.161 C 
ATOM     85  O   UNL A   1      32.181  20.853  25.393  1.00  0.00    -0.380 OA
BRANCH  81  86
ATOM     86  C   UNL A   1      33.533  23.230  25.797  1.00  0.00     0.023 C 
BRANCH  86  87
ATOM     87  C   UNL A   1      34.777  22.613  25.195  1.00  0.00    -0.010 C 
ATOM     88  C   UNL A   1      36.779  23.739  25.319  1.00  0.00     0.003 C 
ATOM     89  C   UNL A   1      35.874  20.945  24.968  1.00  0.00     0.003 C 
ATOM     90  C   UNL A   1      37.580  21.903  24.931  1.00  0.00     0.001 C 
ENDBRANCH  86  87
ENDBRANCH  81  86
ENDBRANCH  78  81
ENDBRANCH  76  77
ENDBRANCH  75  76
ENDBRANCH   1  75
TORSDOF 16
ENDMDL
