MODEL 1
REMARK VINA RESULT:     -12.4      0.000      0.000
REMARK SMILES CCN1C(=O)C[C@@H](C(=O)Nc2cccc(C(=O)NCCCCNC(=O)c3ccc(-c4c5nc(c(-c6c(F)cc(S(=O)(=O)[O-])cc6F)c6ccc([nH]6)c(-c6c(F)cc(S(=O)(=O)[O-])cc6F)c6nc(c(-c7c(F)cc(S(=O)(=O)[O-])cc7F)c7ccc4[nH]7)C=C6)C=C5)cc3)c2)S/C1=[NH+]/c1ccccc1
REMARK SMILES IDX 20 1 19 2 18 3 16 4 17 5 15 7 11 8 12 9 92 10 13 11 14 12
REMARK SMILES IDX 10 13 8 14 9 15 7 17 3 18 4 19 94 20 5 21 6 22 93 23 95 24
REMARK SMILES IDX 2 26 1 27 96 28 97 29 101 30 98 31 100 32 99 33 21 34 22 35
REMARK SMILES IDX 23 36 24 37 25 39 26 40 27 41 91 42 28 43 90 44 29 45 30 46
REMARK SMILES IDX 31 47 84 48 32 49 89 50 83 51 85 52 33 53 88 54 82 55 81 56
REMARK SMILES IDX 34 58 68 59 47 60 67 61 48 62 51 63 66 64 86 65 49 66 50 67
REMARK SMILES IDX 65 69 87 70 52 71 35 72 36 73 45 74 37 75 38 76 44 77 46 78
REMARK SMILES IDX 39 79 40 80 41 81 42 82 43 83 69 84 70 85 79 86 71 87 72 88
REMARK SMILES IDX 78 89 80 90 73 91 74 92 75 93 76 94 77 95 53 96 54 97 63 98
REMARK SMILES IDX 55 99 56 100 62 101 64 102 57 103 58 104 59 105 60 106
REMARK SMILES IDX 61 107
REMARK H PARENT 18 6 10 16 95 25 23 38 85 57 51 68
REMARK Flexibility Score: inf
ROOT
ATOM      1  C   UNL A   1      40.171  21.451  26.117  1.00  0.00     0.023 C 
ENDROOT
BRANCH   1   2
ATOM      2  C   UNL A   1      38.665  21.666  26.051  1.00  0.00     0.116 C 
BRANCH   2   3
ATOM      3  N   UNL A   1      38.207  23.037  25.902  1.00  0.00    -0.352 N 
ATOM      4  C   UNL A   1      36.925  23.551  25.934  1.00  0.00     0.251 C 
ATOM      5  O   UNL A   1      36.761  24.767  25.851  1.00  0.00    -0.269 OA
ATOM      6  H   UNL A   1      38.918  23.700  25.754  1.00  0.00     0.163 HD
BRANCH   4   7
ATOM      7  C   UNL A   1      35.720  22.676  26.022  1.00  0.00     0.041 A 
ATOM      8  C   UNL A   1      34.021  21.285  24.978  1.00  0.00     0.041 A 
ATOM      9  C   UNL A   1      33.300  21.297  26.175  1.00  0.00     0.026 A 
ATOM     10  C   UNL A   1      35.252  21.930  24.936  1.00  0.00     0.040 A 
ATOM     11  C   UNL A   1      33.821  21.919  27.313  1.00  0.00     0.003 A 
ATOM     12  C   UNL A   1      35.026  22.618  27.234  1.00  0.00     0.014 A 
BRANCH   8  13
ATOM     13  N   UNL A   1      33.402  20.732  23.844  1.00  0.00    -0.325 N 
ATOM     14  C   UNL A   1      32.408  21.142  22.997  1.00  0.00     0.238 C 
ATOM     15  O   UNL A   1      31.833  20.245  22.365  1.00  0.00    -0.273 OA
ATOM     16  H   UNL A   1      33.765  19.849  23.605  1.00  0.00     0.169 HD
BRANCH  14  17
ATOM     17  C   UNL A   1      32.083  22.611  22.693  1.00  0.00     0.160 C 
ATOM     18  N   UNL A   1      32.761  25.344  23.538  1.00  0.00    -0.191 N 
ATOM     19  C   UNL A   1      33.077  24.861  22.288  1.00  0.00     0.311 C 
ATOM     20  C   UNL A   1      31.578  24.979  24.153  1.00  0.00     0.319 C 
ATOM     21  O   UNL A   1      33.282  25.572  21.308  1.00  0.00    -0.247 OA
ATOM     22  C   UNL A   1      33.288  23.386  22.226  1.00  0.00     0.153 C 
ATOM     23  S   UNL A   1      31.008  23.329  23.944  1.00  0.00    -0.024 SA
ATOM     24  N   UNL A   1      30.827  25.694  24.927  1.00  0.00    -0.235 N 
ATOM     25  H   UNL A   1      30.176  25.231  25.501  1.00  0.00     0.313 HD
BRANCH  18  26
ATOM     26  C   UNL A   1      33.766  26.135  24.260  1.00  0.00     0.243 C 
ATOM     27  C   UNL A   1      34.139  27.488  23.676  1.00  0.00     0.054 C 
ENDBRANCH  18  26
BRANCH  24  28
ATOM     28  C   UNL A   1      30.891  27.093  24.993  1.00  0.00     0.125 A 
ATOM     29  C   UNL A   1      30.503  27.870  23.897  1.00  0.00     0.051 A 
ATOM     30  C   UNL A   1      31.467  27.734  26.096  1.00  0.00     0.051 A 
ATOM     31  C   UNL A   1      30.685  29.255  23.898  1.00  0.00     0.004 A 
ATOM     32  C   UNL A   1      31.639  29.121  26.108  1.00  0.00     0.004 A 
ATOM     33  C   UNL A   1      31.255  29.880  25.004  1.00  0.00     0.000 A 
ENDBRANCH  24  28
ENDBRANCH  14  17
ENDBRANCH   8  13
ENDBRANCH   4   7
ENDBRANCH   2   3
ENDBRANCH   1   2
BRANCH   1  34
ATOM     34  C   UNL A   1      40.877  21.866  27.404  1.00  0.00     0.023 C 
BRANCH  34  35
ATOM     35  C   UNL A   1      41.860  23.029  27.314  1.00  0.00     0.116 C 
BRANCH  35  36
ATOM     36  N   UNL A   1      41.662  23.924  26.187  1.00  0.00    -0.352 N 
ATOM     37  C   UNL A   1      41.491  25.295  26.173  1.00  0.00     0.251 C 
ATOM     38  H   UNL A   1      41.649  23.490  25.304  1.00  0.00     0.163 HD
ATOM     39  O   UNL A   1      41.325  25.882  25.112  1.00  0.00    -0.269 OA
BRANCH  37  40
ATOM     40  C   UNL A   1      41.442  26.051  27.448  1.00  0.00     0.039 A 
ATOM     41  C   UNL A   1      42.438  26.998  27.704  1.00  0.00     0.014 A 
ATOM     42  C   UNL A   1      40.412  25.860  28.371  1.00  0.00     0.014 A 
ATOM     43  C   UNL A   1      42.339  27.824  28.829  1.00  0.00     0.010 A 
ATOM     44  C   UNL A   1      40.273  26.733  29.450  1.00  0.00     0.010 A 
ATOM     45  C   UNL A   1      41.226  27.737  29.682  1.00  0.00    -0.014 A 
BRANCH  45  46
ATOM     46  C   UNL A   1      41.030  28.714  30.789  1.00  0.00     0.031 A 
ATOM     47  C   UNL A   1      41.870  28.644  32.035  1.00  0.00     0.074 A 
ATOM     48  C   UNL A   1      40.046  29.634  30.699  1.00  0.00     0.049 A 
ATOM     49  N   UNL A   1      41.813  29.385  33.112  1.00  0.00    -0.248 NA
ATOM     50  C   UNL A   1      42.892  27.587  32.089  1.00  0.00     0.031 C 
ATOM     51  C   UNL A   1      39.118  29.773  29.573  1.00  0.00     0.029 A 
ATOM     52  N   UNL A   1      39.656  30.623  31.569  1.00  0.00    -0.354 N 
ATOM     53  C   UNL A   1      42.778  28.880  33.974  1.00  0.00     0.074 A 
ATOM     54  C   UNL A   1      43.371  27.735  33.316  1.00  0.00     0.031 C 
ATOM     55  C   UNL A   1      38.288  30.801  29.809  1.00  0.00     0.029 A 
ATOM     56  C   UNL A   1      38.600  31.377  31.113  1.00  0.00     0.049 A 
ATOM     57  H   UNL A   1      40.093  30.778  32.438  1.00  0.00     0.167 HD
ATOM     58  C   UNL A   1      43.155  29.340  35.193  1.00  0.00     0.037 A 
ATOM     59  C   UNL A   1      37.952  32.415  31.680  1.00  0.00     0.037 A 
ATOM     60  C   UNL A   1      42.584  30.494  35.837  1.00  0.00     0.049 A 
ATOM     61  C   UNL A   1      38.400  32.919  33.025  1.00  0.00     0.074 A 
ATOM     62  C   UNL A   1      42.943  31.072  37.043  1.00  0.00     0.029 A 
ATOM     63  N   UNL A   1      41.535  31.249  35.331  1.00  0.00    -0.354 N 
ATOM     64  N   UNL A   1      39.363  32.470  33.795  1.00  0.00    -0.248 NA
ATOM     65  C   UNL A   1      37.679  34.075  33.577  1.00  0.00     0.031 C 
ATOM     66  C   UNL A   1      42.087  32.154  37.283  1.00  0.00     0.029 A 
ATOM     67  C   UNL A   1      41.224  32.276  36.207  1.00  0.00     0.049 A 
ATOM     68  H   UNL A   1      41.080  31.078  34.474  1.00  0.00     0.167 HD
ATOM     69  C   UNL A   1      39.381  33.305  34.907  1.00  0.00     0.074 A 
ATOM     70  C   UNL A   1      38.340  34.292  34.706  1.00  0.00     0.031 C 
ATOM     71  C   UNL A   1      40.190  33.259  35.994  1.00  0.00     0.037 A 
BRANCH  58  72
ATOM     72  C   UNL A   1      44.250  28.594  35.906  1.00  0.00     0.058 A 
ATOM     73  C   UNL A   1      45.597  28.974  35.786  1.00  0.00     0.135 A 
ATOM     74  C   UNL A   1      43.949  27.505  36.740  1.00  0.00     0.135 A 
ATOM     75  F   UNL A   1      45.942  30.001  34.993  1.00  0.00    -0.206 F 
ATOM     76  C   UNL A   1      46.609  28.278  36.437  1.00  0.00     0.059 A 
ATOM     77  C   UNL A   1      44.944  26.812  37.423  1.00  0.00     0.059 A 
ATOM     78  F   UNL A   1      42.678  27.102  36.894  1.00  0.00    -0.206 F 
ATOM     79  C   UNL A   1      46.274  27.195  37.251  1.00  0.00     0.060 A 
BRANCH  79  80
ATOM     80  S   UNL A   1      47.600  26.296  38.083  1.00  0.00     0.124 S 
ATOM     81  O   UNL A   1      46.844  25.317  38.859  1.00  0.00    -0.237 OA
ATOM     82  O   UNL A   1      48.366  25.760  36.962  1.00  0.00    -0.237 OA
ATOM     83  O   UNL A   1      48.274  27.328  38.862  1.00  0.00    -0.744 OA
ENDBRANCH  79  80
ENDBRANCH  58  72
BRANCH  59  84
ATOM     84  C   UNL A   1      36.830  33.073  30.959  1.00  0.00     0.058 A 
ATOM     85  C   UNL A   1      35.496  32.785  31.286  1.00  0.00     0.135 A 
ATOM     86  C   UNL A   1      37.065  34.008  29.939  1.00  0.00     0.135 A 
ATOM     87  F   UNL A   1      35.221  31.892  32.249  1.00  0.00    -0.206 F 
ATOM     88  C   UNL A   1      34.435  33.388  30.619  1.00  0.00     0.059 A 
ATOM     89  C   UNL A   1      36.020  34.641  29.272  1.00  0.00     0.059 A 
ATOM     90  F   UNL A   1      38.323  34.329  29.599  1.00  0.00    -0.206 F 
ATOM     91  C   UNL A   1      34.708  34.316  29.613  1.00  0.00     0.060 A 
BRANCH  91  92
ATOM     92  S   UNL A   1      33.324  35.132  28.787  1.00  0.00     0.124 S 
ATOM     93  O   UNL A   1      32.741  34.028  28.033  1.00  0.00    -0.237 OA
ATOM     94  O   UNL A   1      32.537  35.621  29.915  1.00  0.00    -0.237 OA
ATOM     95  O   UNL A   1      33.974  36.168  27.990  1.00  0.00    -0.744 OA
ENDBRANCH  91  92
ENDBRANCH  59  84
BRANCH  71  96
ATOM     96  C   UNL A   1      40.008  34.323  37.039  1.00  0.00     0.058 A 
ATOM     97  C   UNL A   1      40.714  35.535  36.990  1.00  0.00     0.135 A 
ATOM     98  C   UNL A   1      39.075  34.149  38.075  1.00  0.00     0.135 A 
ATOM     99  F   UNL A   1      41.621  35.750  36.024  1.00  0.00    -0.206 F 
ATOM    100  C   UNL A   1      40.519  36.528  37.945  1.00  0.00     0.059 A 
ATOM    101  C   UNL A   1      38.846  35.138  39.026  1.00  0.00     0.059 A 
ATOM    102  F   UNL A   1      38.367  33.012  38.162  1.00  0.00    -0.206 F 
ATOM    103  C   UNL A   1      39.582  36.321  38.960  1.00  0.00     0.060 A 
BRANCH 103 104
ATOM    104  S   UNL A   1      39.312  37.631  40.173  1.00  0.00     0.124 S 
ATOM    105  O   UNL A   1      38.194  38.356  39.578  1.00  0.00    -0.237 OA
ATOM    106  O   UNL A   1      39.005  36.878  41.385  1.00  0.00    -0.237 OA
ATOM    107  O   UNL A   1      40.586  38.344  40.190  1.00  0.00    -0.744 OA
ENDBRANCH 103 104
ENDBRANCH  71  96
ENDBRANCH  45  46
ENDBRANCH  37  40
ENDBRANCH  35  36
ENDBRANCH  34  35
ENDBRANCH   1  34
TORSDOF 18
ENDMDL
MODEL 2
REMARK VINA RESULT:     -12.0      0.506      7.894
REMARK SMILES CCN1C(=O)C[C@@H](C(=O)Nc2cccc(C(=O)NCCCCNC(=O)c3ccc(-c4c5nc(c(-c6c(F)cc(S(=O)(=O)[O-])cc6F)c6ccc([nH]6)c(-c6c(F)cc(S(=O)(=O)[O-])cc6F)c6nc(c(-c7c(F)cc(S(=O)(=O)[O-])cc7F)c7ccc4[nH]7)C=C6)C=C5)cc3)c2)S/C1=[NH+]/c1ccccc1
REMARK SMILES IDX 20 1 19 2 18 3 16 4 17 5 15 7 11 8 12 9 92 10 13 11 14 12
REMARK SMILES IDX 10 13 8 14 9 15 7 17 3 18 4 19 94 20 5 21 6 22 93 23 95 24
REMARK SMILES IDX 2 26 1 27 96 28 97 29 101 30 98 31 100 32 99 33 21 34 22 35
REMARK SMILES IDX 23 36 24 37 25 39 26 40 27 41 91 42 28 43 90 44 29 45 30 46
REMARK SMILES IDX 31 47 84 48 32 49 89 50 83 51 85 52 33 53 88 54 82 55 81 56
REMARK SMILES IDX 34 58 68 59 47 60 67 61 48 62 51 63 66 64 86 65 49 66 50 67
REMARK SMILES IDX 65 69 87 70 52 71 35 72 36 73 45 74 37 75 38 76 44 77 46 78
REMARK SMILES IDX 39 79 40 80 41 81 42 82 43 83 69 84 70 85 79 86 71 87 72 88
REMARK SMILES IDX 78 89 80 90 73 91 74 92 75 93 76 94 77 95 53 96 54 97 63 98
REMARK SMILES IDX 55 99 56 100 62 101 64 102 57 103 58 104 59 105 60 106
REMARK SMILES IDX 61 107
REMARK H PARENT 18 6 10 16 95 25 23 38 85 57 51 68
REMARK Flexibility Score: inf
ROOT
ATOM      1  C   UNL A   1      40.137  21.375  25.906  1.00  0.00     0.023 C 
ENDROOT
BRANCH   1   2
ATOM      2  C   UNL A   1      38.629  21.581  25.864  1.00  0.00     0.116 C 
BRANCH   2   3
ATOM      3  N   UNL A   1      38.158  22.955  25.838  1.00  0.00    -0.352 N 
ATOM      4  C   UNL A   1      36.873  23.454  25.935  1.00  0.00     0.251 C 
ATOM      5  O   UNL A   1      36.698  24.671  25.957  1.00  0.00    -0.269 OA
ATOM      6  H   UNL A   1      38.862  23.635  25.734  1.00  0.00     0.163 HD
BRANCH   4   7
ATOM      7  C   UNL A   1      35.676  22.564  25.970  1.00  0.00     0.041 A 
ATOM      8  C   UNL A   1      33.977  21.240  24.842  1.00  0.00     0.041 A 
ATOM      9  C   UNL A   1      33.269  21.155  26.045  1.00  0.00     0.026 A 
ATOM     10  C   UNL A   1      35.202  21.898  24.836  1.00  0.00     0.040 A 
ATOM     11  C   UNL A   1      33.798  21.694  27.222  1.00  0.00     0.003 A 
ATOM     12  C   UNL A   1      34.997  22.408  27.182  1.00  0.00     0.014 A 
BRANCH   8  13
ATOM     13  N   UNL A   1      33.348  20.769  23.678  1.00  0.00    -0.325 N 
ATOM     14  C   UNL A   1      32.371  21.252  22.851  1.00  0.00     0.238 C 
ATOM     15  O   UNL A   1      31.775  20.409  22.167  1.00  0.00    -0.273 OA
ATOM     16  H   UNL A   1      33.688  19.891  23.391  1.00  0.00     0.169 HD
BRANCH  14  17
ATOM     17  C   UNL A   1      32.088  22.745  22.628  1.00  0.00     0.160 C 
ATOM     18  N   UNL A   1      32.833  25.406  23.630  1.00  0.00    -0.191 N 
ATOM     19  C   UNL A   1      33.146  24.986  22.358  1.00  0.00     0.311 C 
ATOM     20  C   UNL A   1      31.635  25.040  24.215  1.00  0.00     0.319 C 
ATOM     21  O   UNL A   1      33.379  25.745  21.421  1.00  0.00    -0.247 OA
ATOM     22  C   UNL A   1      33.318  23.512  22.214  1.00  0.00     0.153 C 
ATOM     23  S   UNL A   1      31.023  23.420  23.910  1.00  0.00    -0.024 SA
ATOM     24  N   UNL A   1      30.897  25.731  25.024  1.00  0.00    -0.235 N 
ATOM     25  H   UNL A   1      30.228  25.254  25.565  1.00  0.00     0.313 HD
BRANCH  18  26
ATOM     26  C   UNL A   1      33.851  26.127  24.404  1.00  0.00     0.243 C 
ATOM     27  C   UNL A   1      34.199  27.537  23.954  1.00  0.00     0.054 C 
ENDBRANCH  18  26
BRANCH  24  28
ATOM     28  C   UNL A   1      30.998  27.121  25.169  1.00  0.00     0.125 A 
ATOM     29  C   UNL A   1      30.691  27.967  24.098  1.00  0.00     0.051 A 
ATOM     30  C   UNL A   1      31.533  27.684  26.333  1.00  0.00     0.051 A 
ATOM     31  C   UNL A   1      30.913  29.344  24.184  1.00  0.00     0.004 A 
ATOM     32  C   UNL A   1      31.743  29.063  26.430  1.00  0.00     0.004 A 
ATOM     33  C   UNL A   1      31.441  29.891  25.351  1.00  0.00     0.000 A 
ENDBRANCH  24  28
ENDBRANCH  14  17
ENDBRANCH   8  13
ENDBRANCH   4   7
ENDBRANCH   2   3
ENDBRANCH   1   2
BRANCH   1  34
ATOM     34  C   UNL A   1      40.837  21.632  27.236  1.00  0.00     0.023 C 
BRANCH  34  35
ATOM     35  C   UNL A   1      41.619  22.935  27.369  1.00  0.00     0.116 C 
BRANCH  35  36
ATOM     36  N   UNL A   1      41.477  23.863  26.260  1.00  0.00    -0.352 N 
ATOM     37  C   UNL A   1      41.328  25.235  26.276  1.00  0.00     0.251 C 
ATOM     38  H   UNL A   1      41.488  23.451  25.366  1.00  0.00     0.163 HD
ATOM     39  O   UNL A   1      41.210  25.852  25.225  1.00  0.00    -0.269 OA
BRANCH  37  40
ATOM     40  C   UNL A   1      41.245  25.960  27.567  1.00  0.00     0.039 A 
ATOM     41  C   UNL A   1      42.307  26.788  27.940  1.00  0.00     0.014 A 
ATOM     42  C   UNL A   1      40.124  25.856  28.392  1.00  0.00     0.014 A 
ATOM     43  C   UNL A   1      42.195  27.591  29.081  1.00  0.00     0.010 A 
ATOM     44  C   UNL A   1      39.981  26.711  29.485  1.00  0.00     0.010 A 
ATOM     45  C   UNL A   1      41.008  27.601  29.832  1.00  0.00    -0.014 A 
BRANCH  45  46
ATOM     46  C   UNL A   1      40.817  28.565  30.952  1.00  0.00     0.031 A 
ATOM     47  C   UNL A   1      39.758  29.631  30.878  1.00  0.00     0.074 A 
ATOM     48  C   UNL A   1      41.644  28.518  32.017  1.00  0.00     0.049 A 
ATOM     49  N   UNL A   1      39.476  30.575  31.739  1.00  0.00    -0.248 NA
ATOM     50  C   UNL A   1      38.923  29.655  29.667  1.00  0.00     0.031 C 
ATOM     51  C   UNL A   1      42.752  27.575  32.189  1.00  0.00     0.029 A 
ATOM     52  N   UNL A   1      41.688  29.285  33.156  1.00  0.00    -0.354 N 
ATOM     53  C   UNL A   1      38.442  31.311  31.172  1.00  0.00     0.074 A 
ATOM     54  C   UNL A   1      38.183  30.736  29.870  1.00  0.00     0.031 C 
ATOM     55  C   UNL A   1      43.347  27.801  33.371  1.00  0.00     0.029 A 
ATOM     56  C   UNL A   1      42.687  28.923  34.031  1.00  0.00     0.049 A 
ATOM     57  H   UNL A   1      41.062  30.026  33.331  1.00  0.00     0.167 HD
ATOM     58  C   UNL A   1      37.755  32.355  31.697  1.00  0.00     0.037 A 
ATOM     59  C   UNL A   1      43.035  29.436  35.229  1.00  0.00     0.037 A 
ATOM     60  C   UNL A   1      37.995  32.911  33.004  1.00  0.00     0.049 A 
ATOM     61  C   UNL A   1      42.246  30.583  35.798  1.00  0.00     0.074 A 
ATOM     62  C   UNL A   1      37.310  33.929  33.645  1.00  0.00     0.029 A 
ATOM     63  N   UNL A   1      38.997  32.498  33.871  1.00  0.00    -0.354 N 
ATOM     64  N   UNL A   1      41.225  31.221  35.276  1.00  0.00    -0.248 NA
ATOM     65  C   UNL A   1      42.650  31.077  37.122  1.00  0.00     0.031 C 
ATOM     66  C   UNL A   1      37.920  34.156  34.884  1.00  0.00     0.029 A 
ATOM     67  C   UNL A   1      38.958  33.251  35.033  1.00  0.00     0.049 A 
ATOM     68  H   UNL A   1      39.641  31.776  33.685  1.00  0.00     0.167 HD
ATOM     69  C   UNL A   1      40.848  32.172  36.218  1.00  0.00     0.074 A 
ATOM     70  C   UNL A   1      41.743  32.019  37.347  1.00  0.00     0.031 C 
ATOM     71  C   UNL A   1      39.849  33.085  36.155  1.00  0.00     0.037 A 
BRANCH  58  72
ATOM     72  C   UNL A   1      36.664  32.960  30.855  1.00  0.00     0.058 A 
ATOM     73  C   UNL A   1      35.317  32.608  31.035  1.00  0.00     0.135 A 
ATOM     74  C   UNL A   1      36.965  33.920  29.875  1.00  0.00     0.135 A 
ATOM     75  F   UNL A   1      34.974  31.688  31.950  1.00  0.00    -0.206 F 
ATOM     76  C   UNL A   1      34.310  33.160  30.249  1.00  0.00     0.059 A 
ATOM     77  C   UNL A   1      35.970  34.504  29.096  1.00  0.00     0.059 A 
ATOM     78  F   UNL A   1      38.237  34.295  29.663  1.00  0.00    -0.206 F 
ATOM     79  C   UNL A   1      34.647  34.104  29.279  1.00  0.00     0.060 A 
BRANCH  79  80
ATOM     80  S   UNL A   1      33.332  34.804  28.260  1.00  0.00     0.124 S 
ATOM     81  O   UNL A   1      32.611  35.617  29.236  1.00  0.00    -0.237 OA
ATOM     82  O   UNL A   1      34.078  35.544  27.248  1.00  0.00    -0.237 OA
ATOM     83  O   UNL A   1      32.617  33.628  27.774  1.00  0.00    -0.744 OA
ENDBRANCH  79  80
ENDBRANCH  58  72
BRANCH  59  84
ATOM     84  C   UNL A   1      44.167  28.842  35.989  1.00  0.00     0.058 A 
ATOM     85  C   UNL A   1      43.964  27.750  36.847  1.00  0.00     0.135 A 
ATOM     86  C   UNL A   1      45.472  29.343  35.866  1.00  0.00     0.135 A 
ATOM     87  F   UNL A   1      42.732  27.241  37.003  1.00  0.00    -0.206 F 
ATOM     88  C   UNL A   1      45.010  27.186  37.569  1.00  0.00     0.059 A 
ATOM     89  C   UNL A   1      46.539  28.780  36.560  1.00  0.00     0.059 A 
ATOM     90  F   UNL A   1      45.721  30.375  35.046  1.00  0.00    -0.206 F 
ATOM     91  C   UNL A   1      46.296  27.708  37.417  1.00  0.00     0.060 A 
BRANCH  91  92
ATOM     92  S   UNL A   1      47.657  26.936  38.319  1.00  0.00     0.124 S 
ATOM     93  O   UNL A   1      47.658  27.700  39.560  1.00  0.00    -0.237 OA
ATOM     94  O   UNL A   1      47.211  25.549  38.423  1.00  0.00    -0.237 OA
ATOM     95  O   UNL A   1      48.804  27.152  37.442  1.00  0.00    -0.744 OA
ENDBRANCH  91  92
ENDBRANCH  59  84
BRANCH  71  96
ATOM     96  C   UNL A   1      39.644  33.973  37.351  1.00  0.00     0.058 A 
ATOM     97  C   UNL A   1      38.873  33.565  38.449  1.00  0.00     0.135 A 
ATOM     98  C   UNL A   1      40.271  35.228  37.419  1.00  0.00     0.135 A 
ATOM     99  F   UNL A   1      38.247  32.377  38.432  1.00  0.00    -0.206 F 
ATOM    100  C   UNL A   1      38.711  34.380  39.566  1.00  0.00     0.059 A 
ATOM    101  C   UNL A   1      40.144  36.048  38.536  1.00  0.00     0.059 A 
ATOM    102  F   UNL A   1      41.029  35.662  36.399  1.00  0.00    -0.206 F 
ATOM    103  C   UNL A   1      39.351  35.621  39.600  1.00  0.00     0.060 A 
BRANCH 103 104
ATOM    104  S   UNL A   1      39.163  36.654  41.068  1.00  0.00     0.124 S 
ATOM    105  O   UNL A   1      40.513  36.627  41.622  1.00  0.00    -0.237 OA
ATOM    106  O   UNL A   1      38.737  37.930  40.501  1.00  0.00    -0.237 OA
ATOM    107  O   UNL A   1      38.149  35.952  41.849  1.00  0.00    -0.744 OA
ENDBRANCH 103 104
ENDBRANCH  71  96
ENDBRANCH  45  46
ENDBRANCH  37  40
ENDBRANCH  35  36
ENDBRANCH  34  35
ENDBRANCH   1  34
TORSDOF 18
ENDMDL
MODEL 3
REMARK VINA RESULT:     -12.0      2.574      8.968
REMARK SMILES CCN1C(=O)C[C@@H](C(=O)Nc2cccc(C(=O)NCCCCNC(=O)c3ccc(-c4c5nc(c(-c6c(F)cc(S(=O)(=O)[O-])cc6F)c6ccc([nH]6)c(-c6c(F)cc(S(=O)(=O)[O-])cc6F)c6nc(c(-c7c(F)cc(S(=O)(=O)[O-])cc7F)c7ccc4[nH]7)C=C6)C=C5)cc3)c2)S/C1=[NH+]/c1ccccc1
REMARK SMILES IDX 20 1 19 2 18 3 16 4 17 5 15 7 11 8 12 9 92 10 13 11 14 12
REMARK SMILES IDX 10 13 8 14 9 15 7 17 3 18 4 19 94 20 5 21 6 22 93 23 95 24
REMARK SMILES IDX 2 26 1 27 96 28 97 29 101 30 98 31 100 32 99 33 21 34 22 35
REMARK SMILES IDX 23 36 24 37 25 39 26 40 27 41 91 42 28 43 90 44 29 45 30 46
REMARK SMILES IDX 31 47 84 48 32 49 89 50 83 51 85 52 33 53 88 54 82 55 81 56
REMARK SMILES IDX 34 58 68 59 47 60 67 61 48 62 51 63 66 64 86 65 49 66 50 67
REMARK SMILES IDX 65 69 87 70 52 71 35 72 36 73 45 74 37 75 38 76 44 77 46 78
REMARK SMILES IDX 39 79 40 80 41 81 42 82 43 83 69 84 70 85 79 86 71 87 72 88
REMARK SMILES IDX 78 89 80 90 73 91 74 92 75 93 76 94 77 95 53 96 54 97 63 98
REMARK SMILES IDX 55 99 56 100 62 101 64 102 57 103 58 104 59 105 60 106
REMARK SMILES IDX 61 107
REMARK H PARENT 18 6 10 16 95 25 23 38 85 57 51 68
REMARK Flexibility Score: inf
ROOT
ATOM      1  C   UNL A   1      33.612  33.010  28.112  1.00  0.00     0.023 C 
ENDROOT
BRANCH   1   2
ATOM      2  C   UNL A   1      33.184  31.779  27.325  1.00  0.00     0.116 C 
BRANCH   2   3
ATOM      3  N   UNL A   1      33.809  30.519  27.691  1.00  0.00    -0.352 N 
ATOM      4  C   UNL A   1      33.929  29.347  26.971  1.00  0.00     0.251 C 
ATOM      5  O   UNL A   1      34.562  28.407  27.448  1.00  0.00    -0.269 OA
ATOM      6  H   UNL A   1      34.207  30.498  28.591  1.00  0.00     0.163 HD
BRANCH   4   7
ATOM      7  C   UNL A   1      33.276  29.161  25.643  1.00  0.00     0.041 A 
ATOM      8  C   UNL A   1      31.324  28.656  24.284  1.00  0.00     0.041 A 
ATOM      9  C   UNL A   1      32.156  28.523  23.168  1.00  0.00     0.026 A 
ATOM     10  C   UNL A   1      31.892  29.029  25.497  1.00  0.00     0.040 A 
ATOM     11  C   UNL A   1      33.525  28.791  23.265  1.00  0.00     0.003 A 
ATOM     12  C   UNL A   1      34.087  29.099  24.504  1.00  0.00     0.014 A 
BRANCH   8  13
ATOM     13  N   UNL A   1      29.978  28.277  24.147  1.00  0.00    -0.325 N 
ATOM     14  C   UNL A   1      29.330  27.087  23.954  1.00  0.00     0.238 C 
ATOM     15  O   UNL A   1      28.193  27.163  23.470  1.00  0.00    -0.273 OA
ATOM     16  H   UNL A   1      29.360  29.041  24.202  1.00  0.00     0.169 HD
BRANCH  14  17
ATOM     17  C   UNL A   1      29.863  25.727  24.426  1.00  0.00     0.160 C 
ATOM     18  N   UNL A   1      32.313  24.421  25.392  1.00  0.00    -0.191 N 
ATOM     19  C   UNL A   1      31.202  24.580  26.189  1.00  0.00     0.311 C 
ATOM     20  C   UNL A   1      32.177  24.148  24.044  1.00  0.00     0.319 C 
ATOM     21  O   UNL A   1      30.957  23.887  27.173  1.00  0.00    -0.247 OA
ATOM     22  C   UNL A   1      30.357  25.761  25.850  1.00  0.00     0.153 C 
ATOM     23  S   UNL A   1      30.870  24.932  23.166  1.00  0.00    -0.024 SA
ATOM     24  N   UNL A   1      32.932  23.406  23.299  1.00  0.00    -0.235 N 
ATOM     25  H   UNL A   1      32.877  23.519  22.322  1.00  0.00     0.313 HD
BRANCH  18  26
ATOM     26  C   UNL A   1      33.636  24.687  25.970  1.00  0.00     0.243 C 
ATOM     27  C   UNL A   1      34.480  25.767  25.313  1.00  0.00     0.054 C 
ENDBRANCH  18  26
BRANCH  24  28
ATOM     28  C   UNL A   1      33.823  22.451  23.806  1.00  0.00     0.125 A 
ATOM     29  C   UNL A   1      33.340  21.320  24.473  1.00  0.00     0.051 A 
ATOM     30  C   UNL A   1      35.205  22.671  23.778  1.00  0.00     0.051 A 
ATOM     31  C   UNL A   1      34.215  20.428  25.100  1.00  0.00     0.004 A 
ATOM     32  C   UNL A   1      36.085  21.774  24.390  1.00  0.00     0.004 A 
ATOM     33  C   UNL A   1      35.588  20.657  25.058  1.00  0.00     0.000 A 
ENDBRANCH  24  28
ENDBRANCH  14  17
ENDBRANCH   8  13
ENDBRANCH   4   7
ENDBRANCH   2   3
ENDBRANCH   1   2
BRANCH   1  34
ATOM     34  C   UNL A   1      32.721  34.244  28.015  1.00  0.00     0.023 C 
BRANCH  34  35
ATOM     35  C   UNL A   1      33.261  35.541  28.610  1.00  0.00     0.116 C 
BRANCH  35  36
ATOM     36  N   UNL A   1      32.594  35.995  29.818  1.00  0.00    -0.352 N 
ATOM     37  C   UNL A   1      32.885  35.718  31.139  1.00  0.00     0.251 C 
ATOM     38  H   UNL A   1      31.822  36.588  29.673  1.00  0.00     0.163 HD
ATOM     39  O   UNL A   1      32.193  36.190  32.032  1.00  0.00    -0.269 OA
BRANCH  37  40
ATOM     40  C   UNL A   1      33.995  34.795  31.479  1.00  0.00     0.039 A 
ATOM     41  C   UNL A   1      35.217  34.947  30.819  1.00  0.00     0.014 A 
ATOM     42  C   UNL A   1      33.852  33.811  32.458  1.00  0.00     0.014 A 
ATOM     43  C   UNL A   1      36.322  34.185  31.218  1.00  0.00     0.010 A 
ATOM     44  C   UNL A   1      34.970  33.107  32.907  1.00  0.00     0.010 A 
ATOM     45  C   UNL A   1      36.222  33.299  32.303  1.00  0.00    -0.014 A 
BRANCH  45  46
ATOM     46  C   UNL A   1      37.426  32.603  32.837  1.00  0.00     0.031 A 
ATOM     47  C   UNL A   1      38.049  33.031  34.138  1.00  0.00     0.074 A 
ATOM     48  C   UNL A   1      37.999  31.617  32.116  1.00  0.00     0.049 A 
ATOM     49  N   UNL A   1      39.117  32.566  34.735  1.00  0.00    -0.248 NA
ATOM     50  C   UNL A   1      37.401  34.144  34.850  1.00  0.00     0.031 C 
ATOM     51  C   UNL A   1      37.535  31.144  30.809  1.00  0.00     0.029 A 
ATOM     52  N   UNL A   1      39.101  30.838  32.373  1.00  0.00    -0.354 N 
ATOM     53  C   UNL A   1      39.277  33.334  35.882  1.00  0.00     0.074 A 
ATOM     54  C   UNL A   1      38.226  34.329  35.871  1.00  0.00     0.031 C 
ATOM     55  C   UNL A   1      38.326  30.142  30.395  1.00  0.00     0.029 A 
ATOM     56  C   UNL A   1      39.374  29.919  31.386  1.00  0.00     0.049 A 
ATOM     57  H   UNL A   1      39.645  30.928  33.189  1.00  0.00     0.167 HD
ATOM     58  C   UNL A   1      40.199  33.207  36.868  1.00  0.00     0.037 A 
ATOM     59  C   UNL A   1      40.356  29.000  31.287  1.00  0.00     0.037 A 
ATOM     60  C   UNL A   1      41.229  32.200  36.893  1.00  0.00     0.049 A 
ATOM     61  C   UNL A   1      41.357  28.868  32.401  1.00  0.00     0.074 A 
ATOM     62  C   UNL A   1      42.170  31.956  37.878  1.00  0.00     0.029 A 
ATOM     63  N   UNL A   1      41.454  31.271  35.888  1.00  0.00    -0.354 N 
ATOM     64  N   UNL A   1      41.450  29.558  33.513  1.00  0.00    -0.248 NA
ATOM     65  C   UNL A   1      42.384  27.826  32.253  1.00  0.00     0.031 C 
ATOM     66  C   UNL A   1      42.987  30.902  37.453  1.00  0.00     0.029 A 
ATOM     67  C   UNL A   1      42.529  30.462  36.222  1.00  0.00     0.049 A 
ATOM     68  H   UNL A   1      40.928  31.197  35.059  1.00  0.00     0.167 HD
ATOM     69  C   UNL A   1      42.526  29.017  34.208  1.00  0.00     0.074 A 
ATOM     70  C   UNL A   1      43.046  27.935  33.398  1.00  0.00     0.031 C 
ATOM     71  C   UNL A   1      43.034  29.382  35.411  1.00  0.00     0.037 A 
BRANCH  58  72
ATOM     72  C   UNL A   1      40.128  34.182  38.012  1.00  0.00     0.058 A 
ATOM     73  C   UNL A   1      39.302  33.950  39.124  1.00  0.00     0.135 A 
ATOM     74  C   UNL A   1      40.912  35.346  38.011  1.00  0.00     0.135 A 
ATOM     75  F   UNL A   1      38.523  32.858  39.172  1.00  0.00    -0.206 F 
ATOM     76  C   UNL A   1      39.228  34.856  40.176  1.00  0.00     0.059 A 
ATOM     77  C   UNL A   1      40.875  36.253  39.066  1.00  0.00     0.059 A 
ATOM     78  F   UNL A   1      41.723  35.616  36.975  1.00  0.00    -0.206 F 
ATOM     79  C   UNL A   1      40.016  36.008  40.137  1.00  0.00     0.060 A 
BRANCH  79  80
ATOM     80  S   UNL A   1      39.903  37.179  41.506  1.00  0.00     0.124 S 
ATOM     81  O   UNL A   1      39.259  36.365  42.532  1.00  0.00    -0.237 OA
ATOM     82  O   UNL A   1      41.303  37.514  41.749  1.00  0.00    -0.237 OA
ATOM     83  O   UNL A   1      39.089  38.261  40.961  1.00  0.00    -0.744 OA
ENDBRANCH  79  80
ENDBRANCH  58  72
BRANCH  59  84
ATOM     84  C   UNL A   1      40.419  28.107  30.099  1.00  0.00     0.058 A 
ATOM     85  C   UNL A   1      41.356  28.332  29.079  1.00  0.00     0.135 A 
ATOM     86  C   UNL A   1      39.557  27.008  29.965  1.00  0.00     0.135 A 
ATOM     87  F   UNL A   1      42.196  29.375  29.159  1.00  0.00    -0.206 F 
ATOM     88  C   UNL A   1      41.426  27.509  27.959  1.00  0.00     0.059 A 
ATOM     89  C   UNL A   1      39.624  26.157  28.866  1.00  0.00     0.059 A 
ATOM     90  F   UNL A   1      38.655  26.741  30.921  1.00  0.00    -0.206 F 
ATOM     91  C   UNL A   1      40.555  26.422  27.863  1.00  0.00     0.060 A 
BRANCH  91  92
ATOM     92  S   UNL A   1      40.687  25.330  26.431  1.00  0.00     0.124 S 
ATOM     93  O   UNL A   1      39.334  24.795  26.343  1.00  0.00    -0.237 OA
ATOM     94  O   UNL A   1      41.078  26.256  25.372  1.00  0.00    -0.237 OA
ATOM     95  O   UNL A   1      41.719  24.377  26.831  1.00  0.00    -0.744 OA
ENDBRANCH  91  92
ENDBRANCH  59  84
BRANCH  71  96
ATOM     96  C   UNL A   1      44.193  28.587  35.944  1.00  0.00     0.058 A 
ATOM     97  C   UNL A   1      45.522  28.955  35.685  1.00  0.00     0.135 A 
ATOM     98  C   UNL A   1      43.970  27.471  36.767  1.00  0.00     0.135 A 
ATOM     99  F   UNL A   1      45.790  30.010  34.899  1.00  0.00    -0.206 F 
ATOM    100  C   UNL A   1      46.591  28.232  36.205  1.00  0.00     0.059 A 
ATOM    101  C   UNL A   1      45.023  26.748  37.319  1.00  0.00     0.059 A 
ATOM    102  F   UNL A   1      42.718  27.082  37.054  1.00  0.00    -0.206 F 
ATOM    103  C   UNL A   1      46.331  27.129  37.022  1.00  0.00     0.060 A 
BRANCH 103 104
ATOM    104  S   UNL A   1      47.725  26.218  37.720  1.00  0.00     0.124 S 
ATOM    105  O   UNL A   1      48.797  26.563  36.790  1.00  0.00    -0.237 OA
ATOM    106  O   UNL A   1      47.838  26.793  39.057  1.00  0.00    -0.237 OA
ATOM    107  O   UNL A   1      47.279  24.829  37.677  1.00  0.00    -0.744 OA
ENDBRANCH 103 104
ENDBRANCH  71  96
ENDBRANCH  45  46
ENDBRANCH  37  40
ENDBRANCH  35  36
ENDBRANCH  34  35
ENDBRANCH   1  34
TORSDOF 18
ENDMDL
