MODEL 1
REMARK VINA RESULT:     -11.9      0.000      0.000
REMARK SMILES CC1(C)O[C@](C)(C(C)(C)O)CC[C@H]1C(=O)NCCCCNC(=O)c1ccc(-c2c3nc(c(-c4c(F)cc(S(=O)(=O)[O-])cc4F)c4ccc([nH]4)c(-c4c(F)cc(S(=O)(=O)[O-])cc4F)c4nc(c(-c5c(F)cc(S(=O)(=O)[O-])cc5F)c5ccc2[nH]5)C=C4)C=C3)cc1
REMARK SMILES IDX 19 1 18 2 17 3 16 4 14 5 15 6 13 8 1 9 2 10 3 11 4 12 5 13
REMARK SMILES IDX 12 14 6 15 11 16 7 17 8 18 9 19 10 20 20 22 21 23 22 24
REMARK SMILES IDX 23 26 24 27 25 28 89 29 26 30 88 31 27 32 28 33 29 34 82 35
REMARK SMILES IDX 30 36 87 37 81 38 83 39 31 40 86 41 80 42 79 43 32 45 66 46
REMARK SMILES IDX 45 47 65 48 46 49 49 50 64 51 84 52 47 53 48 54 63 56 85 57
REMARK SMILES IDX 50 58 33 59 34 60 43 61 35 62 36 63 42 64 44 65 37 66 38 67
REMARK SMILES IDX 39 68 40 69 41 70 67 71 68 72 77 73 69 74 70 75 76 76 78 77
REMARK SMILES IDX 71 78 72 79 73 80 74 81 75 82 51 83 52 84 61 85 53 86 54 87
REMARK SMILES IDX 60 88 62 89 55 90 56 91 57 92 58 93 59 94
REMARK H PARENT 16 7 10 21 21 25 83 44 49 55
REMARK Flexibility Score: inf
ROOT
ATOM      1  C   UNL A   1      35.614  32.078  27.932  1.00  0.00     0.023 C 
ENDROOT
BRANCH   1   2
ATOM      2  C   UNL A   1      34.275  31.361  27.857  1.00  0.00     0.023 C 
BRANCH   2   3
ATOM      3  C   UNL A   1      34.356  29.885  27.469  1.00  0.00     0.116 C 
BRANCH   3   4
ATOM      4  N   UNL A   1      34.185  29.679  26.045  1.00  0.00    -0.356 N 
ATOM      5  C   UNL A   1      33.792  28.596  25.326  1.00  0.00     0.226 C 
ATOM      6  O   UNL A   1      33.778  28.727  24.097  1.00  0.00    -0.275 OA
ATOM      7  H   UNL A   1      34.392  30.470  25.499  1.00  0.00     0.163 HD
BRANCH   5   8
ATOM      8  C   UNL A   1      33.386  27.254  25.944  1.00  0.00     0.110 C 
ATOM      9  C   UNL A   1      30.944  27.457  24.955  1.00  0.00     0.043 C 
ATOM     10  C   UNL A   1      31.855  27.029  26.105  1.00  0.00     0.075 C 
ATOM     11  C   UNL A   1      31.376  27.863  27.320  1.00  0.00     0.043 C 
ATOM     12  O   UNL A   1      31.508  25.679  26.452  1.00  0.00    -0.366 OA
ATOM     13  C   UNL A   1      32.196  24.568  25.856  1.00  0.00     0.094 C 
ATOM     14  C   UNL A   1      34.217  26.064  25.454  1.00  0.00     0.019 C 
ATOM     15  C   UNL A   1      31.880  24.419  24.351  1.00  0.00     0.045 C 
ATOM     16  C   UNL A   1      33.713  24.756  26.059  1.00  0.00     0.039 C 
BRANCH  13  17
ATOM     17  C   UNL A   1      31.664  23.276  26.606  1.00  0.00     0.088 C 
ATOM     18  C   UNL A   1      31.138  22.204  25.637  1.00  0.00     0.045 C 
ATOM     19  C   UNL A   1      32.765  22.630  27.473  1.00  0.00     0.045 C 
BRANCH  17  20
ATOM     20  O   UNL A   1      30.580  23.633  27.479  1.00  0.00    -0.387 OA
ATOM     21  H   UNL A   1      30.106  22.831  27.751  1.00  0.00     0.211 HD
ENDBRANCH  17  20
ENDBRANCH  13  17
ENDBRANCH   5   8
ENDBRANCH   3   4
ENDBRANCH   2   3
ENDBRANCH   1   2
BRANCH   1  22
ATOM     22  C   UNL A   1      36.039  32.482  29.334  1.00  0.00     0.116 C 
BRANCH  22  23
ATOM     23  N   UNL A   1      35.725  31.481  30.346  1.00  0.00    -0.352 N 
ATOM     24  C   UNL A   1      36.509  30.442  30.808  1.00  0.00     0.251 C 
ATOM     25  H   UNL A   1      34.834  31.554  30.756  1.00  0.00     0.163 HD
ATOM     26  O   UNL A   1      36.063  29.618  31.581  1.00  0.00    -0.269 OA
BRANCH  24  27
ATOM     27  C   UNL A   1      37.895  30.339  30.302  1.00  0.00     0.039 A 
ATOM     28  C   UNL A   1      38.955  30.532  31.189  1.00  0.00     0.014 A 
ATOM     29  C   UNL A   1      38.126  29.948  28.982  1.00  0.00     0.014 A 
ATOM     30  C   UNL A   1      40.253  30.235  30.771  1.00  0.00     0.010 A 
ATOM     31  C   UNL A   1      39.404  29.565  28.601  1.00  0.00     0.010 A 
ATOM     32  C   UNL A   1      40.479  29.700  29.492  1.00  0.00    -0.014 A 
BRANCH  32  33
ATOM     33  C   UNL A   1      41.829  29.262  29.060  1.00  0.00     0.031 A 
ATOM     34  C   UNL A   1      42.942  30.269  28.965  1.00  0.00     0.074 A 
ATOM     35  C   UNL A   1      42.023  27.992  28.652  1.00  0.00     0.049 A 
ATOM     36  N   UNL A   1      44.153  30.119  28.496  1.00  0.00    -0.248 NA
ATOM     37  C   UNL A   1      42.638  31.637  29.417  1.00  0.00     0.031 C 
ATOM     38  C   UNL A   1      40.998  26.944  28.620  1.00  0.00     0.029 A 
ATOM     39  N   UNL A   1      43.145  27.369  28.168  1.00  0.00    -0.354 N 
ATOM     40  C   UNL A   1      44.739  31.377  28.561  1.00  0.00     0.074 A 
ATOM     41  C   UNL A   1      43.738  32.288  29.069  1.00  0.00     0.031 C 
ATOM     42  C   UNL A   1      41.545  25.807  28.163  1.00  0.00     0.029 A 
ATOM     43  C   UNL A   1      42.947  26.049  27.840  1.00  0.00     0.049 A 
ATOM     44  H   UNL A   1      44.012  27.825  28.066  1.00  0.00     0.167 HD
ATOM     45  C   UNL A   1      46.006  31.736  28.249  1.00  0.00     0.037 A 
ATOM     46  C   UNL A   1      43.800  25.138  27.332  1.00  0.00     0.037 A 
ATOM     47  C   UNL A   1      47.015  30.812  27.805  1.00  0.00     0.049 A 
ATOM     48  C   UNL A   1      45.222  25.542  27.058  1.00  0.00     0.074 A 
ATOM     49  C   UNL A   1      48.355  31.051  27.562  1.00  0.00     0.029 A 
ATOM     50  N   UNL A   1      46.793  29.468  27.544  1.00  0.00    -0.354 N 
ATOM     51  N   UNL A   1      45.784  26.720  27.201  1.00  0.00    -0.248 NA
ATOM     52  C   UNL A   1      46.128  24.498  26.561  1.00  0.00     0.031 C 
ATOM     53  C   UNL A   1      48.940  29.855  27.131  1.00  0.00     0.029 A 
ATOM     54  C   UNL A   1      47.969  28.866  27.131  1.00  0.00     0.049 A 
ATOM     55  H   UNL A   1      45.927  29.010  27.639  1.00  0.00     0.167 HD
ATOM     56  C   UNL A   1      47.110  26.556  26.822  1.00  0.00     0.074 A 
ATOM     57  C   UNL A   1      47.272  25.162  26.462  1.00  0.00     0.031 C 
ATOM     58  C   UNL A   1      48.105  27.476  26.777  1.00  0.00     0.037 A 
BRANCH  45  59
ATOM     59  C   UNL A   1      46.369  33.185  28.397  1.00  0.00     0.058 A 
ATOM     60  C   UNL A   1      46.294  34.077  27.316  1.00  0.00     0.135 A 
ATOM     61  C   UNL A   1      46.798  33.691  29.635  1.00  0.00     0.135 A 
ATOM     62  F   UNL A   1      45.909  33.641  26.106  1.00  0.00    -0.206 F 
ATOM     63  C   UNL A   1      46.667  35.410  27.445  1.00  0.00     0.059 A 
ATOM     64  C   UNL A   1      47.151  35.028  29.794  1.00  0.00     0.059 A 
ATOM     65  F   UNL A   1      46.890  32.881  30.702  1.00  0.00    -0.206 F 
ATOM     66  C   UNL A   1      47.101  35.874  28.687  1.00  0.00     0.060 A 
BRANCH  66  67
ATOM     67  S   UNL A   1      47.597  37.604  28.839  1.00  0.00     0.124 S 
ATOM     68  O   UNL A   1      46.300  38.271  28.903  1.00  0.00    -0.237 OA
ATOM     69  O   UNL A   1      48.369  37.603  30.077  1.00  0.00    -0.237 OA
ATOM     70  O   UNL A   1      48.368  37.843  27.624  1.00  0.00    -0.744 OA
ENDBRANCH  66  67
ENDBRANCH  45  59
BRANCH  46  71
ATOM     71  C   UNL A   1      43.336  23.749  27.083  1.00  0.00     0.058 A 
ATOM     72  C   UNL A   1      43.232  22.829  28.138  1.00  0.00     0.135 A 
ATOM     73  C   UNL A   1      42.958  23.323  25.802  1.00  0.00     0.135 A 
ATOM     74  F   UNL A   1      43.587  23.190  29.380  1.00  0.00    -0.206 F 
ATOM     75  C   UNL A   1      42.775  21.532  27.929  1.00  0.00     0.059 A 
ATOM     76  C   UNL A   1      42.480  22.036  25.572  1.00  0.00     0.059 A 
ATOM     77  F   UNL A   1      43.024  24.172  24.764  1.00  0.00    -0.206 F 
ATOM     78  C   UNL A   1      42.398  21.146  26.642  1.00  0.00     0.060 A 
BRANCH  78  79
ATOM     79  S   UNL A   1      41.740  19.481  26.392  1.00  0.00     0.124 S 
ATOM     80  O   UNL A   1      42.189  18.804  27.603  1.00  0.00    -0.237 OA
ATOM     81  O   UNL A   1      40.305  19.727  26.295  1.00  0.00    -0.237 OA
ATOM     82  O   UNL A   1      42.379  19.053  25.151  1.00  0.00    -0.744 OA
ENDBRANCH  78  79
ENDBRANCH  46  71
BRANCH  58  83
ATOM     83  C   UNL A   1      49.457  27.003  26.330  1.00  0.00     0.058 A 
ATOM     84  C   UNL A   1      50.353  26.404  27.228  1.00  0.00     0.135 A 
ATOM     85  C   UNL A   1      49.836  27.096  24.982  1.00  0.00     0.135 A 
ATOM     86  F   UNL A   1      50.038  26.299  28.529  1.00  0.00    -0.206 F 
ATOM     87  C   UNL A   1      51.588  25.923  26.806  1.00  0.00     0.059 A 
ATOM     88  C   UNL A   1      51.058  26.604  24.534  1.00  0.00     0.059 A 
ATOM     89  F   UNL A   1      49.009  27.654  24.084  1.00  0.00    -0.206 F 
ATOM     90  C   UNL A   1      51.930  26.026  25.456  1.00  0.00     0.060 A 
BRANCH  90  91
ATOM     91  S   UNL A   1      53.517  25.361  24.910  1.00  0.00     0.124 S 
ATOM     92  O   UNL A   1      53.346  23.937  25.180  1.00  0.00    -0.237 OA
ATOM     93  O   UNL A   1      53.548  25.739  23.500  1.00  0.00    -0.237 OA
ATOM     94  O   UNL A   1      54.483  26.051  25.758  1.00  0.00    -0.744 OA
ENDBRANCH  90  91
ENDBRANCH  58  83
ENDBRANCH  32  33
ENDBRANCH  24  27
ENDBRANCH  22  23
ENDBRANCH   1  22
TORSDOF 16
ENDMDL
MODEL 2
REMARK VINA RESULT:     -11.8      6.662     12.140
REMARK SMILES CC1(C)O[C@](C)(C(C)(C)O)CC[C@H]1C(=O)NCCCCNC(=O)c1ccc(-c2c3nc(c(-c4c(F)cc(S(=O)(=O)[O-])cc4F)c4ccc([nH]4)c(-c4c(F)cc(S(=O)(=O)[O-])cc4F)c4nc(c(-c5c(F)cc(S(=O)(=O)[O-])cc5F)c5ccc2[nH]5)C=C4)C=C3)cc1
REMARK SMILES IDX 19 1 18 2 17 3 16 4 14 5 15 6 13 8 1 9 2 10 3 11 4 12 5 13
REMARK SMILES IDX 12 14 6 15 11 16 7 17 8 18 9 19 10 20 20 22 21 23 22 24
REMARK SMILES IDX 23 26 24 27 25 28 89 29 26 30 88 31 27 32 28 33 29 34 82 35
REMARK SMILES IDX 30 36 87 37 81 38 83 39 31 40 86 41 80 42 79 43 32 45 66 46
REMARK SMILES IDX 45 47 65 48 46 49 49 50 64 51 84 52 47 53 48 54 63 56 85 57
REMARK SMILES IDX 50 58 33 59 34 60 43 61 35 62 36 63 42 64 44 65 37 66 38 67
REMARK SMILES IDX 39 68 40 69 41 70 67 71 68 72 77 73 69 74 70 75 76 76 78 77
REMARK SMILES IDX 71 78 72 79 73 80 74 81 75 82 51 83 52 84 61 85 53 86 54 87
REMARK SMILES IDX 60 88 62 89 55 90 56 91 57 92 58 93 59 94
REMARK H PARENT 16 7 10 21 21 25 83 44 49 55
REMARK Flexibility Score: inf
ROOT
ATOM      1  C   UNL A   1      40.114  22.323  27.387  1.00  0.00     0.023 C 
ENDROOT
BRANCH   1   2
ATOM      2  C   UNL A   1      39.463  21.926  26.072  1.00  0.00     0.023 C 
BRANCH   2   3
ATOM      3  C   UNL A   1      38.279  22.794  25.650  1.00  0.00     0.116 C 
BRANCH   3   4
ATOM      4  N   UNL A   1      37.031  22.344  26.232  1.00  0.00    -0.356 N 
ATOM      5  C   UNL A   1      35.750  22.763  26.068  1.00  0.00     0.226 C 
ATOM      6  O   UNL A   1      34.890  22.187  26.744  1.00  0.00    -0.275 OA
ATOM      7  H   UNL A   1      37.130  21.595  26.863  1.00  0.00     0.163 HD
BRANCH   5   8
ATOM      8  C   UNL A   1      35.329  23.890  25.119  1.00  0.00     0.110 C 
ATOM      9  C   UNL A   1      33.937  22.210  23.627  1.00  0.00     0.043 C 
ATOM     10  C   UNL A   1      34.850  23.433  23.711  1.00  0.00     0.075 C 
ATOM     11  C   UNL A   1      36.102  23.049  22.882  1.00  0.00     0.043 C 
ATOM     12  O   UNL A   1      34.236  24.483  22.945  1.00  0.00    -0.366 OA
ATOM     13  C   UNL A   1      33.361  25.433  23.574  1.00  0.00     0.094 C 
ATOM     14  C   UNL A   1      34.534  25.011  25.794  1.00  0.00     0.019 C 
ATOM     15  C   UNL A   1      32.034  24.794  24.038  1.00  0.00     0.045 C 
ATOM     16  C   UNL A   1      34.092  26.061  24.778  1.00  0.00     0.039 C 
BRANCH  13  17
ATOM     17  C   UNL A   1      33.031  26.517  22.464  1.00  0.00     0.088 C 
ATOM     18  C   UNL A   1      31.519  26.713  22.261  1.00  0.00     0.045 C 
ATOM     19  C   UNL A   1      33.643  27.889  22.812  1.00  0.00     0.045 C 
BRANCH  17  20
ATOM     20  O   UNL A   1      33.582  26.104  21.203  1.00  0.00    -0.387 OA
ATOM     21  H   UNL A   1      34.268  26.733  20.929  1.00  0.00     0.211 HD
ENDBRANCH  17  20
ENDBRANCH  13  17
ENDBRANCH   5   8
ENDBRANCH   3   4
ENDBRANCH   2   3
ENDBRANCH   1   2
BRANCH   1  22
ATOM     22  C   UNL A   1      41.451  23.032  27.244  1.00  0.00     0.116 C 
BRANCH  22  23
ATOM     23  N   UNL A   1      41.515  23.923  26.092  1.00  0.00    -0.352 N 
ATOM     24  C   UNL A   1      41.462  25.302  26.059  1.00  0.00     0.251 C 
ATOM     25  H   UNL A   1      41.608  23.481  25.218  1.00  0.00     0.163 HD
ATOM     26  O   UNL A   1      41.416  25.901  25.004  1.00  0.00    -0.269 OA
BRANCH  24  27
ATOM     27  C   UNL A   1      41.422  26.026  27.349  1.00  0.00     0.039 A 
ATOM     28  C   UNL A   1      42.509  26.822  27.712  1.00  0.00     0.014 A 
ATOM     29  C   UNL A   1      40.265  25.992  28.130  1.00  0.00     0.014 A 
ATOM     30  C   UNL A   1      42.394  27.666  28.818  1.00  0.00     0.010 A 
ATOM     31  C   UNL A   1      40.122  26.899  29.170  1.00  0.00     0.010 A 
ATOM     32  C   UNL A   1      41.182  27.747  29.522  1.00  0.00    -0.014 A 
BRANCH  32  33
ATOM     33  C   UNL A   1      40.987  28.719  30.626  1.00  0.00     0.031 A 
ATOM     34  C   UNL A   1      41.816  28.600  31.875  1.00  0.00     0.074 A 
ATOM     35  C   UNL A   1      39.999  29.632  30.549  1.00  0.00     0.049 A 
ATOM     36  N   UNL A   1      41.720  29.265  32.996  1.00  0.00    -0.248 NA
ATOM     37  C   UNL A   1      42.863  27.564  31.879  1.00  0.00     0.031 C 
ATOM     38  C   UNL A   1      39.075  29.791  29.421  1.00  0.00     0.029 A 
ATOM     39  N   UNL A   1      39.593  30.590  31.444  1.00  0.00    -0.354 N 
ATOM     40  C   UNL A   1      42.664  28.705  33.848  1.00  0.00     0.074 A 
ATOM     41  C   UNL A   1      43.289  27.615  33.132  1.00  0.00     0.031 C 
ATOM     42  C   UNL A   1      38.228  30.799  29.686  1.00  0.00     0.029 A 
ATOM     43  C   UNL A   1      38.525  31.336  31.009  1.00  0.00     0.049 A 
ATOM     44  H   UNL A   1      40.028  30.728  32.317  1.00  0.00     0.167 HD
ATOM     45  C   UNL A   1      42.997  29.081  35.104  1.00  0.00     0.037 A 
ATOM     46  C   UNL A   1      37.857  32.338  31.613  1.00  0.00     0.037 A 
ATOM     47  C   UNL A   1      42.415  30.206  35.785  1.00  0.00     0.049 A 
ATOM     48  C   UNL A   1      38.290  32.785  32.981  1.00  0.00     0.074 A 
ATOM     49  C   UNL A   1      42.754  30.736  37.017  1.00  0.00     0.029 A 
ATOM     50  N   UNL A   1      41.377  30.978  35.287  1.00  0.00    -0.354 N 
ATOM     51  N   UNL A   1      39.240  32.295  33.743  1.00  0.00    -0.248 NA
ATOM     52  C   UNL A   1      37.569  33.921  33.571  1.00  0.00     0.031 C 
ATOM     53  C   UNL A   1      41.903  31.817  37.275  1.00  0.00     0.029 A 
ATOM     54  C   UNL A   1      41.054  31.975  36.191  1.00  0.00     0.049 A 
ATOM     55  H   UNL A   1      40.936  30.839  34.418  1.00  0.00     0.167 HD
ATOM     56  C   UNL A   1      39.238  33.069  34.896  1.00  0.00     0.074 A 
ATOM     57  C   UNL A   1      38.205  34.071  34.725  1.00  0.00     0.031 C 
ATOM     58  C   UNL A   1      40.020  32.961  35.999  1.00  0.00     0.037 A 
BRANCH  45  59
ATOM     59  C   UNL A   1      44.051  28.275  35.809  1.00  0.00     0.058 A 
ATOM     60  C   UNL A   1      45.418  28.555  35.654  1.00  0.00     0.135 A 
ATOM     61  C   UNL A   1      43.692  27.209  36.649  1.00  0.00     0.135 A 
ATOM     62  F   UNL A   1      45.816  29.551  34.846  1.00  0.00    -0.206 F 
ATOM     63  C   UNL A   1      46.394  27.784  36.275  1.00  0.00     0.059 A 
ATOM     64  C   UNL A   1      44.651  26.441  37.302  1.00  0.00     0.059 A 
ATOM     65  F   UNL A   1      42.399  26.897  36.831  1.00  0.00    -0.206 F 
ATOM     66  C   UNL A   1      46.000  26.724  37.092  1.00  0.00     0.060 A 
BRANCH  66  67
ATOM     67  S   UNL A   1      47.276  25.721  37.883  1.00  0.00     0.124 S 
ATOM     68  O   UNL A   1      48.492  26.338  37.363  1.00  0.00    -0.237 OA
ATOM     69  O   UNL A   1      47.015  25.939  39.302  1.00  0.00    -0.237 OA
ATOM     70  O   UNL A   1      46.997  24.374  37.397  1.00  0.00    -0.744 OA
ENDBRANCH  66  67
ENDBRANCH  45  59
BRANCH  46  71
ATOM     71  C   UNL A   1      36.732  33.006  30.908  1.00  0.00     0.058 A 
ATOM     72  C   UNL A   1      35.404  32.769  31.292  1.00  0.00     0.135 A 
ATOM     73  C   UNL A   1      36.961  33.915  29.865  1.00  0.00     0.135 A 
ATOM     74  F   UNL A   1      35.137  31.904  32.282  1.00  0.00    -0.206 F 
ATOM     75  C   UNL A   1      34.340  33.405  30.662  1.00  0.00     0.059 A 
ATOM     76  C   UNL A   1      35.913  34.578  29.232  1.00  0.00     0.059 A 
ATOM     77  F   UNL A   1      38.215  34.188  29.473  1.00  0.00    -0.206 F 
ATOM     78  C   UNL A   1      34.605  34.311  29.633  1.00  0.00     0.060 A 
BRANCH  78  79
ATOM     79  S   UNL A   1      33.221  35.184  28.867  1.00  0.00     0.124 S 
ATOM     80  O   UNL A   1      32.452  35.597  30.035  1.00  0.00    -0.237 OA
ATOM     81  O   UNL A   1      33.896  36.253  28.137  1.00  0.00    -0.237 OA
ATOM     82  O   UNL A   1      32.603  34.160  28.030  1.00  0.00    -0.744 OA
ENDBRANCH  78  79
ENDBRANCH  46  71
BRANCH  58  83
ATOM     83  C   UNL A   1      39.796  33.955  37.100  1.00  0.00     0.058 A 
ATOM     84  C   UNL A   1      38.976  33.654  38.198  1.00  0.00     0.135 A 
ATOM     85  C   UNL A   1      40.453  35.194  37.086  1.00  0.00     0.135 A 
ATOM     86  F   UNL A   1      38.322  32.483  38.252  1.00  0.00    -0.206 F 
ATOM     87  C   UNL A   1      38.805  34.556  39.242  1.00  0.00     0.059 A 
ATOM     88  C   UNL A   1      40.312  36.104  38.129  1.00  0.00     0.059 A 
ATOM     89  F   UNL A   1      41.254  35.525  36.060  1.00  0.00    -0.206 F 
ATOM     90  C   UNL A   1      39.479  35.778  39.199  1.00  0.00     0.060 A 
BRANCH  90  91
ATOM     91  S   UNL A   1      39.284  36.926  40.579  1.00  0.00     0.124 S 
ATOM     92  O   UNL A   1      40.669  37.123  40.994  1.00  0.00    -0.237 OA
ATOM     93  O   UNL A   1      38.642  38.074  39.946  1.00  0.00    -0.237 OA
ATOM     94  O   UNL A   1      38.445  36.187  41.517  1.00  0.00    -0.744 OA
ENDBRANCH  90  91
ENDBRANCH  58  83
ENDBRANCH  32  33
ENDBRANCH  24  27
ENDBRANCH  22  23
ENDBRANCH   1  22
TORSDOF 16
ENDMDL
MODEL 3
REMARK VINA RESULT:     -11.8      2.752      3.788
REMARK SMILES CC1(C)O[C@](C)(C(C)(C)O)CC[C@H]1C(=O)NCCCCNC(=O)c1ccc(-c2c3nc(c(-c4c(F)cc(S(=O)(=O)[O-])cc4F)c4ccc([nH]4)c(-c4c(F)cc(S(=O)(=O)[O-])cc4F)c4nc(c(-c5c(F)cc(S(=O)(=O)[O-])cc5F)c5ccc2[nH]5)C=C4)C=C3)cc1
REMARK SMILES IDX 19 1 18 2 17 3 16 4 14 5 15 6 13 8 1 9 2 10 3 11 4 12 5 13
REMARK SMILES IDX 12 14 6 15 11 16 7 17 8 18 9 19 10 20 20 22 21 23 22 24
REMARK SMILES IDX 23 26 24 27 25 28 89 29 26 30 88 31 27 32 28 33 29 34 82 35
REMARK SMILES IDX 30 36 87 37 81 38 83 39 31 40 86 41 80 42 79 43 32 45 66 46
REMARK SMILES IDX 45 47 65 48 46 49 49 50 64 51 84 52 47 53 48 54 63 56 85 57
REMARK SMILES IDX 50 58 33 59 34 60 43 61 35 62 36 63 42 64 44 65 37 66 38 67
REMARK SMILES IDX 39 68 40 69 41 70 67 71 68 72 77 73 69 74 70 75 76 76 78 77
REMARK SMILES IDX 71 78 72 79 73 80 74 81 75 82 51 83 52 84 61 85 53 86 54 87
REMARK SMILES IDX 60 88 62 89 55 90 56 91 57 92 58 93 59 94
REMARK H PARENT 16 7 10 21 21 25 83 44 49 55
REMARK Flexibility Score: inf
ROOT
ATOM      1  C   UNL A   1      32.163  28.256  26.613  1.00  0.00     0.023 C 
ENDROOT
BRANCH   1   2
ATOM      2  C   UNL A   1      31.743  29.147  25.455  1.00  0.00     0.023 C 
BRANCH   2   3
ATOM      3  C   UNL A   1      31.183  28.406  24.242  1.00  0.00     0.116 C 
BRANCH   3   4
ATOM      4  N   UNL A   1      32.208  28.091  23.267  1.00  0.00    -0.356 N 
ATOM      5  C   UNL A   1      33.007  27.004  23.109  1.00  0.00     0.226 C 
ATOM      6  O   UNL A   1      33.822  27.049  22.181  1.00  0.00    -0.275 OA
ATOM      7  H   UNL A   1      32.352  28.796  22.596  1.00  0.00     0.163 HD
BRANCH   5   8
ATOM      8  C   UNL A   1      32.956  25.762  24.004  1.00  0.00     0.110 C 
ATOM      9  C   UNL A   1      32.896  24.161  21.901  1.00  0.00     0.043 C 
ATOM     10  C   UNL A   1      32.423  24.469  23.322  1.00  0.00     0.075 C 
ATOM     11  C   UNL A   1      30.882  24.590  23.208  1.00  0.00     0.043 C 
ATOM     12  O   UNL A   1      32.621  23.282  24.109  1.00  0.00    -0.366 OA
ATOM     13  C   UNL A   1      33.836  23.088  24.849  1.00  0.00     0.094 C 
ATOM     14  C   UNL A   1      34.164  25.612  24.933  1.00  0.00     0.019 C 
ATOM     15  C   UNL A   1      35.056  22.858  23.929  1.00  0.00     0.045 C 
ATOM     16  C   UNL A   1      34.077  24.320  25.744  1.00  0.00     0.039 C 
BRANCH  13  17
ATOM     17  C   UNL A   1      33.611  21.777  25.713  1.00  0.00     0.088 C 
ATOM     18  C   UNL A   1      33.680  20.493  24.868  1.00  0.00     0.045 C 
ATOM     19  C   UNL A   1      34.656  21.656  26.842  1.00  0.00     0.045 C 
BRANCH  17  20
ATOM     20  O   UNL A   1      32.313  21.817  26.327  1.00  0.00    -0.387 OA
ATOM     21  H   UNL A   1      31.780  21.073  26.003  1.00  0.00     0.211 HD
ENDBRANCH  17  20
ENDBRANCH  13  17
ENDBRANCH   5   8
ENDBRANCH   3   4
ENDBRANCH   2   3
ENDBRANCH   1   2
BRANCH   1  22
ATOM     22  C   UNL A   1      33.464  28.664  27.287  1.00  0.00     0.116 C 
BRANCH  22  23
ATOM     23  N   UNL A   1      33.474  30.050  27.737  1.00  0.00    -0.352 N 
ATOM     24  C   UNL A   1      34.501  30.761  28.325  1.00  0.00     0.251 C 
ATOM     25  H   UNL A   1      32.636  30.547  27.604  1.00  0.00     0.163 HD
ATOM     26  O   UNL A   1      34.320  31.885  28.748  1.00  0.00    -0.269 OA
BRANCH  24  27
ATOM     27  C   UNL A   1      35.817  30.098  28.461  1.00  0.00     0.039 A 
ATOM     28  C   UNL A   1      36.701  30.121  27.381  1.00  0.00     0.014 A 
ATOM     29  C   UNL A   1      36.199  29.558  29.690  1.00  0.00     0.014 A 
ATOM     30  C   UNL A   1      38.013  29.683  27.568  1.00  0.00     0.010 A 
ATOM     31  C   UNL A   1      37.527  29.213  29.896  1.00  0.00     0.010 A 
ATOM     32  C   UNL A   1      38.448  29.276  28.840  1.00  0.00    -0.014 A 
BRANCH  32  33
ATOM     33  C   UNL A   1      39.864  28.920  29.100  1.00  0.00     0.031 A 
ATOM     34  C   UNL A   1      40.805  29.960  29.643  1.00  0.00     0.074 A 
ATOM     35  C   UNL A   1      40.325  27.703  28.746  1.00  0.00     0.049 A 
ATOM     36  N   UNL A   1      42.096  29.890  29.824  1.00  0.00    -0.248 NA
ATOM     37  C   UNL A   1      40.219  31.266  29.988  1.00  0.00     0.031 C 
ATOM     38  C   UNL A   1      39.526  26.637  28.133  1.00  0.00     0.029 A 
ATOM     39  N   UNL A   1      41.583  27.162  28.835  1.00  0.00    -0.354 N 
ATOM     40  C   UNL A   1      42.483  31.150  30.265  1.00  0.00     0.074 A 
ATOM     41  C   UNL A   1      41.297  31.978  30.279  1.00  0.00     0.031 C 
ATOM     42  C   UNL A   1      40.309  25.567  27.922  1.00  0.00     0.029 A 
ATOM     43  C   UNL A   1      41.668  25.878  28.353  1.00  0.00     0.049 A 
ATOM     44  H   UNL A   1      42.352  27.650  29.209  1.00  0.00     0.167 HD
ATOM     45  C   UNL A   1      43.711  31.572  30.648  1.00  0.00     0.037 A 
ATOM     46  C   UNL A   1      42.724  25.046  28.266  1.00  0.00     0.037 A 
ATOM     47  C   UNL A   1      44.872  30.725  30.691  1.00  0.00     0.049 A 
ATOM     48  C   UNL A   1      44.063  25.513  28.762  1.00  0.00     0.074 A 
ATOM     49  C   UNL A   1      46.138  31.023  31.162  1.00  0.00     0.029 A 
ATOM     50  N   UNL A   1      44.905  29.409  30.254  1.00  0.00    -0.354 N 
ATOM     51  N   UNL A   1      44.396  26.684  29.252  1.00  0.00    -0.248 NA
ATOM     52  C   UNL A   1      45.170  24.549  28.700  1.00  0.00     0.031 C 
ATOM     53  C   UNL A   1      46.945  29.893  30.987  1.00  0.00     0.029 A 
ATOM     54  C   UNL A   1      46.173  28.883  30.433  1.00  0.00     0.049 A 
ATOM     55  H   UNL A   1      44.139  28.921  29.874  1.00  0.00     0.167 HD
ATOM     56  C   UNL A   1      45.746  26.595  29.567  1.00  0.00     0.074 A 
ATOM     57  C   UNL A   1      46.165  25.249  29.229  1.00  0.00     0.031 C 
ATOM     58  C   UNL A   1      46.566  27.541  30.088  1.00  0.00     0.037 A 
BRANCH  45  59
ATOM     59  C   UNL A   1      43.847  33.008  31.065  1.00  0.00     0.058 A 
ATOM     60  C   UNL A   1      44.049  34.032  30.125  1.00  0.00     0.135 A 
ATOM     61  C   UNL A   1      43.777  33.368  32.420  1.00  0.00     0.135 A 
ATOM     62  F   UNL A   1      44.143  33.739  28.818  1.00  0.00    -0.206 F 
ATOM     63  C   UNL A   1      44.214  35.356  30.515  1.00  0.00     0.059 A 
ATOM     64  C   UNL A   1      43.913  34.691  32.831  1.00  0.00     0.059 A 
ATOM     65  F   UNL A   1      43.588  32.429  33.360  1.00  0.00    -0.206 F 
ATOM     66  C   UNL A   1      44.152  35.674  31.872  1.00  0.00     0.060 A 
BRANCH  66  67
ATOM     67  S   UNL A   1      44.382  37.395  32.369  1.00  0.00     0.124 S 
ATOM     68  O   UNL A   1      43.869  38.104  31.200  1.00  0.00    -0.237 OA
ATOM     69  O   UNL A   1      43.565  37.488  33.573  1.00  0.00    -0.237 OA
ATOM     70  O   UNL A   1      45.822  37.495  32.583  1.00  0.00    -0.744 OA
ENDBRANCH  66  67
ENDBRANCH  45  59
BRANCH  46  71
ATOM     71  C   UNL A   1      42.543  23.678  27.717  1.00  0.00     0.058 A 
ATOM     72  C   UNL A   1      42.560  23.453  26.332  1.00  0.00     0.135 A 
ATOM     73  C   UNL A   1      42.384  22.568  28.559  1.00  0.00     0.135 A 
ATOM     74  F   UNL A   1      42.705  24.485  25.487  1.00  0.00    -0.206 F 
ATOM     75  C   UNL A   1      42.419  22.176  25.800  1.00  0.00     0.059 A 
ATOM     76  C   UNL A   1      42.261  21.278  28.051  1.00  0.00     0.059 A 
ATOM     77  F   UNL A   1      42.379  22.730  29.891  1.00  0.00    -0.206 F 
ATOM     78  C   UNL A   1      42.273  21.093  26.669  1.00  0.00     0.060 A 
BRANCH  78  79
ATOM     79  S   UNL A   1      42.159  19.429  25.972  1.00  0.00     0.124 S 
ATOM     80  O   UNL A   1      42.699  18.620  27.057  1.00  0.00    -0.237 OA
ATOM     81  O   UNL A   1      40.727  19.294  25.727  1.00  0.00    -0.237 OA
ATOM     82  O   UNL A   1      42.986  19.514  24.772  1.00  0.00    -0.744 OA
ENDBRANCH  78  79
ENDBRANCH  46  71
BRANCH  58  83
ATOM     83  C   UNL A   1      47.994  27.152  30.334  1.00  0.00     0.058 A 
ATOM     84  C   UNL A   1      48.982  27.350  29.358  1.00  0.00     0.135 A 
ATOM     85  C   UNL A   1      48.387  26.631  31.576  1.00  0.00     0.135 A 
ATOM     86  F   UNL A   1      48.652  27.839  28.152  1.00  0.00    -0.206 F 
ATOM     87  C   UNL A   1      50.314  27.033  29.602  1.00  0.00     0.059 A 
ATOM     88  C   UNL A   1      49.717  26.326  31.849  1.00  0.00     0.059 A 
ATOM     89  F   UNL A   1      47.479  26.431  32.545  1.00  0.00    -0.206 F 
ATOM     90  C   UNL A   1      50.672  26.523  30.851  1.00  0.00     0.060 A 
BRANCH  90  91
ATOM     91  S   UNL A   1      52.409  26.154  31.174  1.00  0.00     0.124 S 
ATOM     92  O   UNL A   1      52.782  27.251  32.060  1.00  0.00    -0.237 OA
ATOM     93  O   UNL A   1      52.342  24.834  31.793  1.00  0.00    -0.237 OA
ATOM     94  O   UNL A   1      53.013  26.185  29.845  1.00  0.00    -0.744 OA
ENDBRANCH  90  91
ENDBRANCH  58  83
ENDBRANCH  32  33
ENDBRANCH  24  27
ENDBRANCH  22  23
ENDBRANCH   1  22
TORSDOF 16
ENDMDL
