MODEL 1
REMARK VINA RESULT:     -12.2      0.000      0.000
REMARK SMILES O=C(NCCCCNC(=O)[C@@H]1[C@@H](C(=O)Nc2cccc([N+](=O)[O-])c2)[C@@H]2C=C[C@H]1O2)c1ccc(-c2c3nc(c(-c4c(F)cc(S(=O)(=O)[O-])cc4F)c4ccc([nH]4)c(-c4c(F)cc(S(=O)(=O)[O-])cc4F)c4nc(c(-c5c(F)cc(S(=O)(=O)[O-])cc5F)c5ccc2[nH]5)C=C4)C=C3)cc1
REMARK SMILES IDX 5 1 4 2 3 3 1 4 2 5 30 7 31 8 95 9 32 10 94 11 33 12 34 13
REMARK SMILES IDX 35 14 88 15 36 16 93 17 87 18 89 19 37 20 92 21 86 22 85 23
REMARK SMILES IDX 38 25 72 26 51 27 71 28 52 29 55 30 70 31 90 32 53 33 54 34
REMARK SMILES IDX 69 36 91 37 56 38 39 39 40 40 49 41 41 42 42 43 48 44 50 45
REMARK SMILES IDX 43 46 44 47 45 48 46 49 47 50 73 51 74 52 83 53 75 54 76 55
REMARK SMILES IDX 82 56 84 57 77 58 78 59 79 60 80 61 81 62 57 63 58 64 67 65
REMARK SMILES IDX 59 66 60 67 66 68 68 69 61 70 62 71 63 72 64 73 65 74 6 75
REMARK SMILES IDX 7 76 8 77 9 78 10 80 11 81 12 82 28 83 25 84 27 85 29 86
REMARK SMILES IDX 26 87 13 88 14 89 15 90 16 92 17 93 24 94 18 95 20 96 19 97
REMARK SMILES IDX 21 98 22 99 23 100
REMARK H PARENT 3 6 89 24 55 35 8 79 15 91
REMARK Flexibility Score: inf
ROOT
ATOM      1  C   UNL A   1      42.004  21.988  27.299  1.00  0.00     0.023 C 
ENDROOT
BRANCH   1   2
ATOM      2  C   UNL A   1      42.807  23.254  27.001  1.00  0.00     0.116 C 
BRANCH   2   3
ATOM      3  N   UNL A   1      42.314  24.082  25.911  1.00  0.00    -0.352 N 
ATOM      4  O   UNL A   1      41.504  26.007  25.005  1.00  0.00    -0.269 OA
ATOM      5  C   UNL A   1      41.899  25.400  25.995  1.00  0.00     0.251 C 
ATOM      6  H   UNL A   1      42.271  23.662  25.022  1.00  0.00     0.163 HD
BRANCH   5   7
ATOM      7  C   UNL A   1      41.889  26.042  27.328  1.00  0.00     0.039 A 
ATOM      8  C   UNL A   1      40.815  25.820  28.192  1.00  0.00     0.014 A 
ATOM      9  C   UNL A   1      42.862  26.997  27.629  1.00  0.00     0.014 A 
ATOM     10  C   UNL A   1      40.616  26.688  29.260  1.00  0.00     0.010 A 
ATOM     11  C   UNL A   1      42.706  27.806  28.759  1.00  0.00     0.010 A 
ATOM     12  C   UNL A   1      41.555  27.694  29.554  1.00  0.00    -0.014 A 
BRANCH  12  13
ATOM     13  C   UNL A   1      41.323  28.593  30.718  1.00  0.00     0.031 A 
ATOM     14  C   UNL A   1      40.196  29.593  30.732  1.00  0.00     0.074 A 
ATOM     15  C   UNL A   1      42.134  28.474  31.788  1.00  0.00     0.049 A 
ATOM     16  N   UNL A   1      39.872  30.454  31.665  1.00  0.00    -0.248 NA
ATOM     17  C   UNL A   1      39.323  29.642  29.549  1.00  0.00     0.031 C 
ATOM     18  C   UNL A   1      43.262  27.543  31.886  1.00  0.00     0.029 A 
ATOM     19  N   UNL A   1      42.130  29.117  32.998  1.00  0.00    -0.354 N 
ATOM     20  C   UNL A   1      38.779  31.162  31.175  1.00  0.00     0.074 A 
ATOM     21  C   UNL A   1      38.503  30.641  29.853  1.00  0.00     0.031 C 
ATOM     22  C   UNL A   1      43.810  27.643  33.104  1.00  0.00     0.029 A 
ATOM     23  C   UNL A   1      43.125  28.693  33.846  1.00  0.00     0.049 A 
ATOM     24  H   UNL A   1      41.477  29.815  33.236  1.00  0.00     0.167 HD
ATOM     25  C   UNL A   1      38.072  32.152  31.778  1.00  0.00     0.037 A 
ATOM     26  C   UNL A   1      43.470  29.119  35.075  1.00  0.00     0.037 A 
ATOM     27  C   UNL A   1      38.345  32.648  33.104  1.00  0.00     0.049 A 
ATOM     28  C   UNL A   1      42.684  30.227  35.709  1.00  0.00     0.074 A 
ATOM     29  C   UNL A   1      37.666  33.625  33.815  1.00  0.00     0.029 A 
ATOM     30  N   UNL A   1      39.379  32.211  33.920  1.00  0.00    -0.354 N 
ATOM     31  N   UNL A   1      41.646  30.873  35.235  1.00  0.00    -0.248 NA
ATOM     32  C   UNL A   1      43.117  30.669  37.039  1.00  0.00     0.031 C 
ATOM     33  C   UNL A   1      38.316  33.807  35.040  1.00  0.00     0.029 A 
ATOM     34  C   UNL A   1      39.369  32.912  35.116  1.00  0.00     0.049 A 
ATOM     35  H   UNL A   1      40.024  31.507  33.684  1.00  0.00     0.167 HD
ATOM     36  C   UNL A   1      41.295  31.794  36.214  1.00  0.00     0.074 A 
ATOM     37  C   UNL A   1      42.218  31.604  37.315  1.00  0.00     0.031 C 
ATOM     38  C   UNL A   1      40.301  32.715  36.200  1.00  0.00     0.037 A 
BRANCH  25  39
ATOM     39  C   UNL A   1      36.944  32.786  31.005  1.00  0.00     0.058 A 
ATOM     40  C   UNL A   1      35.598  32.525  31.306  1.00  0.00     0.135 A 
ATOM     41  C   UNL A   1      37.214  33.715  29.986  1.00  0.00     0.135 A 
ATOM     42  F   UNL A   1      35.280  31.638  32.262  1.00  0.00    -0.206 F 
ATOM     43  C   UNL A   1      34.562  33.142  30.609  1.00  0.00     0.059 A 
ATOM     44  C   UNL A   1      36.194  34.363  29.292  1.00  0.00     0.059 A 
ATOM     45  F   UNL A   1      38.482  34.008  29.658  1.00  0.00    -0.206 F 
ATOM     46  C   UNL A   1      34.870  34.059  29.602  1.00  0.00     0.060 A 
BRANCH  46  47
ATOM     47  S   UNL A   1      33.515  34.850  28.708  1.00  0.00     0.124 S 
ATOM     48  O   UNL A   1      33.224  33.853  27.682  1.00  0.00    -0.237 OA
ATOM     49  O   UNL A   1      32.501  35.002  29.747  1.00  0.00    -0.237 OA
ATOM     50  O   UNL A   1      34.106  36.094  28.224  1.00  0.00    -0.744 OA
ENDBRANCH  46  47
ENDBRANCH  25  39
BRANCH  26  51
ATOM     51  C   UNL A   1      44.629  28.496  35.764  1.00  0.00     0.058 A 
ATOM     52  C   UNL A   1      44.471  27.356  36.562  1.00  0.00     0.135 A 
ATOM     53  C   UNL A   1      45.928  29.004  35.595  1.00  0.00     0.135 A 
ATOM     54  F   UNL A   1      43.249  26.837  36.755  1.00  0.00    -0.206 F 
ATOM     55  C   UNL A   1      45.558  26.743  37.176  1.00  0.00     0.059 A 
ATOM     56  C   UNL A   1      47.033  28.392  36.174  1.00  0.00     0.059 A 
ATOM     57  F   UNL A   1      46.134  30.082  34.822  1.00  0.00    -0.206 F 
ATOM     58  C   UNL A   1      46.835  27.266  36.971  1.00  0.00     0.060 A 
BRANCH  58  59
ATOM     59  S   UNL A   1      48.248  26.427  37.720  1.00  0.00     0.124 S 
ATOM     60  O   UNL A   1      49.323  27.376  37.458  1.00  0.00    -0.237 OA
ATOM     61  O   UNL A   1      47.830  26.302  39.113  1.00  0.00    -0.237 OA
ATOM     62  O   UNL A   1      48.320  25.169  36.980  1.00  0.00    -0.744 OA
ENDBRANCH  58  59
ENDBRANCH  26  51
BRANCH  38  63
ATOM     63  C   UNL A   1      40.150  33.574  37.424  1.00  0.00     0.058 A 
ATOM     64  C   UNL A   1      40.930  34.725  37.614  1.00  0.00     0.135 A 
ATOM     65  C   UNL A   1      39.197  33.255  38.404  1.00  0.00     0.135 A 
ATOM     66  F   UNL A   1      41.863  35.066  36.712  1.00  0.00    -0.206 F 
ATOM     67  C   UNL A   1      40.787  35.519  38.748  1.00  0.00     0.059 A 
ATOM     68  C   UNL A   1      39.019  34.048  39.533  1.00  0.00     0.059 A 
ATOM     69  F   UNL A   1      38.421  32.167  38.265  1.00  0.00    -0.206 F 
ATOM     70  C   UNL A   1      39.828  35.171  39.702  1.00  0.00     0.060 A 
BRANCH  70  71
ATOM     71  S   UNL A   1      39.636  36.221  41.158  1.00  0.00     0.124 S 
ATOM     72  O   UNL A   1      39.206  35.254  42.162  1.00  0.00    -0.237 OA
ATOM     73  O   UNL A   1      40.980  36.763  41.333  1.00  0.00    -0.237 OA
ATOM     74  O   UNL A   1      38.625  37.191  40.744  1.00  0.00    -0.744 OA
ENDBRANCH  70  71
ENDBRANCH  38  63
ENDBRANCH  12  13
ENDBRANCH   5   7
ENDBRANCH   2   3
ENDBRANCH   1   2
BRANCH   1  75
ATOM     75  C   UNL A   1      40.515  22.120  27.621  1.00  0.00     0.023 C 
BRANCH  75  76
ATOM     76  C   UNL A   1      39.618  22.225  26.400  1.00  0.00     0.116 C 
BRANCH  76  77
ATOM     77  N   UNL A   1      38.856  21.048  26.034  1.00  0.00    -0.356 N 
ATOM     78  C   UNL A   1      37.650  21.014  25.374  1.00  0.00     0.227 C 
ATOM     79  H   UNL A   1      39.244  20.178  26.284  1.00  0.00     0.163 HD
ATOM     80  O   UNL A   1      37.466  20.072  24.597  1.00  0.00    -0.275 OA
BRANCH  78  81
ATOM     81  C   UNL A   1      36.511  21.976  25.713  1.00  0.00     0.127 C 
ATOM     82  C   UNL A   1      35.075  21.450  25.259  1.00  0.00     0.127 C 
ATOM     83  C   UNL A   1      36.529  23.376  25.077  1.00  0.00     0.155 C 
ATOM     84  C   UNL A   1      34.639  22.635  24.386  1.00  0.00     0.155 C 
ATOM     85  C   UNL A   1      36.630  23.303  23.578  1.00  0.00     0.004 C 
ATOM     86  O   UNL A   1      35.137  23.737  25.178  1.00  0.00    -0.365 OA
ATOM     87  C   UNL A   1      35.483  22.768  23.160  1.00  0.00     0.004 C 
BRANCH  82  88
ATOM     88  C   UNL A   1      34.157  21.225  26.476  1.00  0.00     0.231 C 
ATOM     89  O   UNL A   1      34.260  21.918  27.494  1.00  0.00    -0.274 OA
ATOM     90  N   UNL A   1      33.179  20.253  26.495  1.00  0.00    -0.325 N 
ATOM     91  H   UNL A   1      32.614  20.230  27.301  1.00  0.00     0.169 HD
BRANCH  90  92
ATOM     92  C   UNL A   1      32.887  19.298  25.517  1.00  0.00     0.048 A 
ATOM     93  C   UNL A   1      32.511  19.759  24.249  1.00  0.00     0.026 A 
ATOM     94  C   UNL A   1      33.171  17.946  25.726  1.00  0.00     0.111 A 
ATOM     95  C   UNL A   1      32.572  18.895  23.151  1.00  0.00     0.009 A 
ATOM     96  C   UNL A   1      33.208  17.082  24.622  1.00  0.00     0.271 A 
ATOM     97  C   UNL A   1      32.939  17.558  23.330  1.00  0.00     0.086 A 
BRANCH  96  98
ATOM     98  N   UNL A   1      33.640  15.693  24.810  1.00  0.00     0.062 N 
ATOM     99  O   UNL A   1      32.793  14.873  25.188  1.00  0.00    -0.258 OA
ATOM    100  O   UNL A   1      34.824  15.424  24.568  1.00  0.00    -0.258 OA
ENDBRANCH  96  98
ENDBRANCH  90  92
ENDBRANCH  82  88
ENDBRANCH  78  81
ENDBRANCH  76  77
ENDBRANCH  75  76
ENDBRANCH   1  75
TORSDOF 17
ENDMDL
MODEL 2
REMARK VINA RESULT:     -12.2      5.812     12.913
REMARK SMILES O=C(NCCCCNC(=O)[C@@H]1[C@@H](C(=O)Nc2cccc([N+](=O)[O-])c2)[C@@H]2C=C[C@H]1O2)c1ccc(-c2c3nc(c(-c4c(F)cc(S(=O)(=O)[O-])cc4F)c4ccc([nH]4)c(-c4c(F)cc(S(=O)(=O)[O-])cc4F)c4nc(c(-c5c(F)cc(S(=O)(=O)[O-])cc5F)c5ccc2[nH]5)C=C4)C=C3)cc1
REMARK SMILES IDX 5 1 4 2 3 3 1 4 2 5 30 7 31 8 95 9 32 10 94 11 33 12 34 13
REMARK SMILES IDX 35 14 88 15 36 16 93 17 87 18 89 19 37 20 92 21 86 22 85 23
REMARK SMILES IDX 38 25 72 26 51 27 71 28 52 29 55 30 70 31 90 32 53 33 54 34
REMARK SMILES IDX 69 36 91 37 56 38 39 39 40 40 49 41 41 42 42 43 48 44 50 45
REMARK SMILES IDX 43 46 44 47 45 48 46 49 47 50 73 51 74 52 83 53 75 54 76 55
REMARK SMILES IDX 82 56 84 57 77 58 78 59 79 60 80 61 81 62 57 63 58 64 67 65
REMARK SMILES IDX 59 66 60 67 66 68 68 69 61 70 62 71 63 72 64 73 65 74 6 75
REMARK SMILES IDX 7 76 8 77 9 78 10 80 11 81 12 82 28 83 25 84 27 85 29 86
REMARK SMILES IDX 26 87 13 88 14 89 15 90 16 92 17 93 24 94 18 95 20 96 19 97
REMARK SMILES IDX 21 98 22 99 23 100
REMARK H PARENT 3 6 89 24 55 35 8 79 15 91
REMARK Flexibility Score: inf
ROOT
ATOM      1  C   UNL A   1      34.883  33.160  27.863  1.00  0.00     0.023 C 
ENDROOT
BRANCH   1   2
ATOM      2  C   UNL A   1      34.413  32.066  28.821  1.00  0.00     0.116 C 
BRANCH   2   3
ATOM      3  N   UNL A   1      33.954  30.831  28.205  1.00  0.00    -0.352 N 
ATOM      4  O   UNL A   1      34.212  28.702  27.443  1.00  0.00    -0.269 OA
ATOM      5  C   UNL A   1      34.706  29.694  27.968  1.00  0.00     0.251 C 
ATOM      6  H   UNL A   1      33.009  30.800  27.927  1.00  0.00     0.163 HD
BRANCH   5   7
ATOM      7  C   UNL A   1      36.144  29.729  28.313  1.00  0.00     0.039 A 
ATOM      8  C   UNL A   1      37.085  30.014  27.321  1.00  0.00     0.014 A 
ATOM      9  C   UNL A   1      36.549  29.303  29.580  1.00  0.00     0.014 A 
ATOM     10  C   UNL A   1      38.419  29.688  27.541  1.00  0.00     0.010 A 
ATOM     11  C   UNL A   1      37.906  29.066  29.825  1.00  0.00     0.010 A 
ATOM     12  C   UNL A   1      38.846  29.206  28.792  1.00  0.00    -0.014 A 
BRANCH  12  13
ATOM     13  C   UNL A   1      40.284  28.887  29.002  1.00  0.00     0.031 A 
ATOM     14  C   UNL A   1      40.866  27.557  28.596  1.00  0.00     0.074 A 
ATOM     15  C   UNL A   1      41.076  29.834  29.541  1.00  0.00     0.049 A 
ATOM     16  N   UNL A   1      42.096  27.124  28.725  1.00  0.00    -0.248 NA
ATOM     17  C   UNL A   1      39.955  26.583  27.975  1.00  0.00     0.031 C 
ATOM     18  C   UNL A   1      40.623  31.159  29.976  1.00  0.00     0.029 A 
ATOM     19  N   UNL A   1      42.422  29.844  29.799  1.00  0.00    -0.354 N 
ATOM     20  C   UNL A   1      42.103  25.825  28.226  1.00  0.00     0.074 A 
ATOM     21  C   UNL A   1      40.749  25.532  27.807  1.00  0.00     0.031 C 
ATOM     22  C   UNL A   1      41.677  31.866  30.403  1.00  0.00     0.029 A 
ATOM     23  C   UNL A   1      42.866  31.025  30.344  1.00  0.00     0.049 A 
ATOM     24  H   UNL A   1      43.013  29.079  29.613  1.00  0.00     0.167 HD
ATOM     25  C   UNL A   1      43.145  24.961  28.126  1.00  0.00     0.037 A 
ATOM     26  C   UNL A   1      44.087  31.388  30.777  1.00  0.00     0.037 A 
ATOM     27  C   UNL A   1      44.494  25.273  28.530  1.00  0.00     0.049 A 
ATOM     28  C   UNL A   1      45.217  30.408  30.672  1.00  0.00     0.074 A 
ATOM     29  C   UNL A   1      45.626  24.478  28.438  1.00  0.00     0.029 A 
ATOM     30  N   UNL A   1      44.897  26.471  29.102  1.00  0.00    -0.354 N 
ATOM     31  N   UNL A   1      45.205  29.190  30.185  1.00  0.00    -0.248 NA
ATOM     32  C   UNL A   1      46.522  30.844  31.180  1.00  0.00     0.031 C 
ATOM     33  C   UNL A   1      46.701  25.179  28.995  1.00  0.00     0.029 A 
ATOM     34  C   UNL A   1      46.253  26.429  29.388  1.00  0.00     0.049 A 
ATOM     35  H   UNL A   1      44.307  27.238  29.278  1.00  0.00     0.167 HD
ATOM     36  C   UNL A   1      46.504  28.717  30.319  1.00  0.00     0.074 A 
ATOM     37  C   UNL A   1      47.279  29.788  30.913  1.00  0.00     0.031 C 
ATOM     38  C   UNL A   1      47.008  27.503  29.985  1.00  0.00     0.037 A 
BRANCH  25  39
ATOM     39  C   UNL A   1      42.872  23.584  27.578  1.00  0.00     0.058 A 
ATOM     40  C   UNL A   1      43.032  23.280  26.218  1.00  0.00     0.135 A 
ATOM     41  C   UNL A   1      42.503  22.537  28.439  1.00  0.00     0.135 A 
ATOM     42  F   UNL A   1      43.373  24.243  25.346  1.00  0.00    -0.206 F 
ATOM     43  C   UNL A   1      42.811  21.996  25.726  1.00  0.00     0.059 A 
ATOM     44  C   UNL A   1      42.300  21.239  27.974  1.00  0.00     0.059 A 
ATOM     45  F   UNL A   1      42.340  22.767  29.752  1.00  0.00    -0.206 F 
ATOM     46  C   UNL A   1      42.443  20.982  26.613  1.00  0.00     0.060 A 
BRANCH  46  47
ATOM     47  S   UNL A   1      42.160  19.322  25.958  1.00  0.00     0.124 S 
ATOM     48  O   UNL A   1      42.628  18.492  27.064  1.00  0.00    -0.237 OA
ATOM     49  O   UNL A   1      40.719  19.317  25.730  1.00  0.00    -0.237 OA
ATOM     50  O   UNL A   1      42.984  19.285  24.754  1.00  0.00    -0.744 OA
ENDBRANCH  46  47
ENDBRANCH  25  39
BRANCH  26  51
ATOM     51  C   UNL A   1      44.284  32.738  31.363  1.00  0.00     0.058 A 
ATOM     52  C   UNL A   1      44.584  33.842  30.554  1.00  0.00     0.135 A 
ATOM     53  C   UNL A   1      44.124  32.958  32.742  1.00  0.00     0.135 A 
ATOM     54  F   UNL A   1      44.748  33.681  29.233  1.00  0.00    -0.206 F 
ATOM     55  C   UNL A   1      44.727  35.118  31.091  1.00  0.00     0.059 A 
ATOM     56  C   UNL A   1      44.233  34.227  33.296  1.00  0.00     0.059 A 
ATOM     57  F   UNL A   1      43.814  31.935  33.554  1.00  0.00    -0.206 F 
ATOM     58  C   UNL A   1      44.544  35.300  32.462  1.00  0.00     0.060 A 
BRANCH  58  59
ATOM     59  S   UNL A   1      44.669  36.968  33.141  1.00  0.00     0.124 S 
ATOM     60  O   UNL A   1      43.910  37.738  32.163  1.00  0.00    -0.237 OA
ATOM     61  O   UNL A   1      44.049  36.814  34.454  1.00  0.00    -0.237 OA
ATOM     62  O   UNL A   1      46.108  37.214  33.162  1.00  0.00    -0.744 OA
ENDBRANCH  58  59
ENDBRANCH  26  51
BRANCH  38  63
ATOM     63  C   UNL A   1      48.473  27.281  30.236  1.00  0.00     0.058 A 
ATOM     64  C   UNL A   1      49.437  27.553  29.252  1.00  0.00     0.135 A 
ATOM     65  C   UNL A   1      48.919  26.816  31.484  1.00  0.00     0.135 A 
ATOM     66  F   UNL A   1      49.060  27.987  28.040  1.00  0.00    -0.206 F 
ATOM     67  C   UNL A   1      50.792  27.347  29.489  1.00  0.00     0.059 A 
ATOM     68  C   UNL A   1      50.271  26.629  31.751  1.00  0.00     0.059 A 
ATOM     69  F   UNL A   1      48.037  26.549  32.460  1.00  0.00    -0.206 F 
ATOM     70  C   UNL A   1      51.199  26.884  30.742  1.00  0.00     0.060 A 
BRANCH  70  71
ATOM     71  S   UNL A   1      52.962  26.644  31.045  1.00  0.00     0.124 S 
ATOM     72  O   UNL A   1      52.984  25.292  31.592  1.00  0.00    -0.237 OA
ATOM     73  O   UNL A   1      53.533  26.797  29.710  1.00  0.00    -0.237 OA
ATOM     74  O   UNL A   1      53.292  27.709  31.987  1.00  0.00    -0.744 OA
ENDBRANCH  70  71
ENDBRANCH  38  63
ENDBRANCH  12  13
ENDBRANCH   5   7
ENDBRANCH   2   3
ENDBRANCH   1   2
BRANCH   1  75
ATOM     75  C   UNL A   1      36.170  33.920  28.189  1.00  0.00     0.023 C 
BRANCH  75  76
ATOM     76  C   UNL A   1      36.804  33.535  29.514  1.00  0.00     0.116 C 
BRANCH  76  77
ATOM     77  N   UNL A   1      37.779  34.449  30.073  1.00  0.00    -0.356 N 
ATOM     78  C   UNL A   1      38.764  34.153  30.987  1.00  0.00     0.227 C 
ATOM     79  H   UNL A   1      37.731  35.384  29.766  1.00  0.00     0.163 HD
ATOM     80  O   UNL A   1      39.831  34.762  30.872  1.00  0.00    -0.275 OA
BRANCH  78  81
ATOM     81  C   UNL A   1      38.503  33.261  32.202  1.00  0.00     0.127 C 
ATOM     82  C   UNL A   1      37.262  33.734  33.085  1.00  0.00     0.127 C 
ATOM     83  C   UNL A   1      39.604  33.150  33.271  1.00  0.00     0.155 C 
ATOM     84  C   UNL A   1      37.962  33.877  34.444  1.00  0.00     0.155 C 
ATOM     85  C   UNL A   1      40.019  34.502  33.781  1.00  0.00     0.004 C 
ATOM     86  O   UNL A   1      38.831  32.722  34.410  1.00  0.00    -0.365 OA
ATOM     87  C   UNL A   1      38.966  34.983  34.443  1.00  0.00     0.004 C 
BRANCH  82  88
ATOM     88  C   UNL A   1      36.147  32.669  33.087  1.00  0.00     0.231 C 
ATOM     89  O   UNL A   1      36.406  31.470  33.224  1.00  0.00    -0.274 OA
ATOM     90  N   UNL A   1      34.815  32.994  32.944  1.00  0.00    -0.325 N 
ATOM     91  H   UNL A   1      34.181  32.243  33.013  1.00  0.00     0.169 HD
BRANCH  90  92
ATOM     92  C   UNL A   1      34.249  34.251  32.712  1.00  0.00     0.048 A 
ATOM     93  C   UNL A   1      34.418  35.232  33.697  1.00  0.00     0.026 A 
ATOM     94  C   UNL A   1      33.729  34.586  31.459  1.00  0.00     0.111 A 
ATOM     95  C   UNL A   1      34.215  36.579  33.378  1.00  0.00     0.009 A 
ATOM     96  C   UNL A   1      33.508  35.936  31.155  1.00  0.00     0.271 A 
ATOM     97  C   UNL A   1      33.777  36.938  32.100  1.00  0.00     0.086 A 
BRANCH  96  98
ATOM     98  N   UNL A   1      33.094  36.309  29.798  1.00  0.00     0.062 N 
ATOM     99  O   UNL A   1      32.576  35.434  29.092  1.00  0.00    -0.258 OA
ATOM    100  O   UNL A   1      33.280  37.482  29.445  1.00  0.00    -0.258 OA
ENDBRANCH  96  98
ENDBRANCH  90  92
ENDBRANCH  82  88
ENDBRANCH  78  81
ENDBRANCH  76  77
ENDBRANCH  75  76
ENDBRANCH   1  75
TORSDOF 17
ENDMDL
MODEL 3
REMARK VINA RESULT:     -12.2      7.049     12.030
REMARK SMILES O=C(NCCCCNC(=O)[C@@H]1[C@@H](C(=O)Nc2cccc([N+](=O)[O-])c2)[C@@H]2C=C[C@H]1O2)c1ccc(-c2c3nc(c(-c4c(F)cc(S(=O)(=O)[O-])cc4F)c4ccc([nH]4)c(-c4c(F)cc(S(=O)(=O)[O-])cc4F)c4nc(c(-c5c(F)cc(S(=O)(=O)[O-])cc5F)c5ccc2[nH]5)C=C4)C=C3)cc1
REMARK SMILES IDX 5 1 4 2 3 3 1 4 2 5 30 7 31 8 95 9 32 10 94 11 33 12 34 13
REMARK SMILES IDX 35 14 88 15 36 16 93 17 87 18 89 19 37 20 92 21 86 22 85 23
REMARK SMILES IDX 38 25 72 26 51 27 71 28 52 29 55 30 70 31 90 32 53 33 54 34
REMARK SMILES IDX 69 36 91 37 56 38 39 39 40 40 49 41 41 42 42 43 48 44 50 45
REMARK SMILES IDX 43 46 44 47 45 48 46 49 47 50 73 51 74 52 83 53 75 54 76 55
REMARK SMILES IDX 82 56 84 57 77 58 78 59 79 60 80 61 81 62 57 63 58 64 67 65
REMARK SMILES IDX 59 66 60 67 66 68 68 69 61 70 62 71 63 72 64 73 65 74 6 75
REMARK SMILES IDX 7 76 8 77 9 78 10 80 11 81 12 82 28 83 25 84 27 85 29 86
REMARK SMILES IDX 26 87 13 88 14 89 15 90 16 92 17 93 24 94 18 95 20 96 19 97
REMARK SMILES IDX 21 98 22 99 23 100
REMARK H PARENT 3 6 89 24 55 35 8 79 15 91
REMARK Flexibility Score: inf
ROOT
ATOM      1  C   UNL A   1      34.321  28.584  27.212  1.00  0.00     0.023 C 
ENDROOT
BRANCH   1   2
ATOM      2  C   UNL A   1      35.160  29.842  27.437  1.00  0.00     0.116 C 
BRANCH   2   3
ATOM      3  N   UNL A   1      35.154  30.380  28.789  1.00  0.00    -0.352 N 
ATOM      4  O   UNL A   1      36.092  30.863  30.806  1.00  0.00    -0.269 OA
ATOM      5  C   UNL A   1      36.207  30.373  29.688  1.00  0.00     0.251 C 
ATOM      6  H   UNL A   1      34.315  30.793  29.097  1.00  0.00     0.163 HD
BRANCH   5   7
ATOM      7  C   UNL A   1      37.462  29.703  29.282  1.00  0.00     0.039 A 
ATOM      8  C   UNL A   1      38.298  29.156  30.258  1.00  0.00     0.014 A 
ATOM      9  C   UNL A   1      37.876  29.785  27.951  1.00  0.00     0.014 A 
ATOM     10  C   UNL A   1      39.619  28.868  29.932  1.00  0.00     0.010 A 
ATOM     11  C   UNL A   1      39.178  29.405  27.611  1.00  0.00     0.010 A 
ATOM     12  C   UNL A   1      40.077  28.993  28.608  1.00  0.00    -0.014 A 
BRANCH  12  13
ATOM     13  C   UNL A   1      41.491  28.656  28.288  1.00  0.00     0.031 A 
ATOM     14  C   UNL A   1      42.583  29.694  28.342  1.00  0.00     0.074 A 
ATOM     15  C   UNL A   1      41.788  27.380  27.975  1.00  0.00     0.049 A 
ATOM     16  N   UNL A   1      43.859  29.560  28.079  1.00  0.00    -0.248 NA
ATOM     17  C   UNL A   1      42.196  31.059  28.732  1.00  0.00     0.031 C 
ATOM     18  C   UNL A   1      40.813  26.288  27.888  1.00  0.00     0.029 A 
ATOM     19  N   UNL A   1      42.985  26.777  27.691  1.00  0.00    -0.354 N 
ATOM     20  C   UNL A   1      44.423  30.820  28.246  1.00  0.00     0.074 A 
ATOM     21  C   UNL A   1      43.346  31.713  28.617  1.00  0.00     0.031 C 
ATOM     22  C   UNL A   1      41.456  25.145  27.617  1.00  0.00     0.029 A 
ATOM     23  C   UNL A   1      42.873  25.430  27.438  1.00  0.00     0.049 A 
ATOM     24  H   UNL A   1      43.842  27.261  27.669  1.00  0.00     0.167 HD
ATOM     25  C   UNL A   1      45.721  31.194  28.104  1.00  0.00     0.037 A 
ATOM     26  C   UNL A   1      43.801  24.525  27.074  1.00  0.00     0.037 A 
ATOM     27  C   UNL A   1      46.788  30.289  27.753  1.00  0.00     0.049 A 
ATOM     28  C   UNL A   1      45.223  24.968  26.907  1.00  0.00     0.074 A 
ATOM     29  C   UNL A   1      48.140  30.564  27.618  1.00  0.00     0.029 A 
ATOM     30  N   UNL A   1      46.629  28.938  27.479  1.00  0.00    -0.354 N 
ATOM     31  N   UNL A   1      45.738  26.162  27.082  1.00  0.00    -0.248 NA
ATOM     32  C   UNL A   1      46.190  23.948  26.485  1.00  0.00     0.031 C 
ATOM     33  C   UNL A   1      48.788  29.389  27.220  1.00  0.00     0.029 A 
ATOM     34  C   UNL A   1      47.851  28.372  27.155  1.00  0.00     0.049 A 
ATOM     35  H   UNL A   1      45.773  28.454  27.511  1.00  0.00     0.167 HD
ATOM     36  C   UNL A   1      47.092  26.034  26.802  1.00  0.00     0.074 A 
ATOM     37  C   UNL A   1      47.319  24.642  26.467  1.00  0.00     0.031 C 
ATOM     38  C   UNL A   1      48.059  26.985  26.817  1.00  0.00     0.037 A 
BRANCH  25  39
ATOM     39  C   UNL A   1      46.065  32.647  28.308  1.00  0.00     0.058 A 
ATOM     40  C   UNL A   1      46.023  33.575  27.256  1.00  0.00     0.135 A 
ATOM     41  C   UNL A   1      46.385  33.129  29.588  1.00  0.00     0.135 A 
ATOM     42  F   UNL A   1      45.733  33.170  26.009  1.00  0.00    -0.206 F 
ATOM     43  C   UNL A   1      46.308  34.922  27.461  1.00  0.00     0.059 A 
ATOM     44  C   UNL A   1      46.651  34.477  29.821  1.00  0.00     0.059 A 
ATOM     45  F   UNL A   1      46.436  32.288  30.633  1.00  0.00    -0.206 F 
ATOM     46  C   UNL A   1      46.623  35.364  28.747  1.00  0.00     0.060 A 
BRANCH  46  47
ATOM     47  S   UNL A   1      46.993  37.115  28.995  1.00  0.00     0.124 S 
ATOM     48  O   UNL A   1      45.652  37.677  29.130  1.00  0.00    -0.237 OA
ATOM     49  O   UNL A   1      47.796  37.096  30.213  1.00  0.00    -0.237 OA
ATOM     50  O   UNL A   1      47.709  37.487  27.779  1.00  0.00    -0.744 OA
ENDBRANCH  46  47
ENDBRANCH  25  39
BRANCH  26  51
ATOM     51  C   UNL A   1      43.392  23.118  26.829  1.00  0.00     0.058 A 
ATOM     52  C   UNL A   1      43.352  22.591  25.532  1.00  0.00     0.135 A 
ATOM     53  C   UNL A   1      43.082  22.261  27.898  1.00  0.00     0.135 A 
ATOM     54  F   UNL A   1      43.638  23.373  24.480  1.00  0.00    -0.206 F 
ATOM     55  C   UNL A   1      43.012  21.262  25.299  1.00  0.00     0.059 A 
ATOM     56  C   UNL A   1      42.768  20.923  27.692  1.00  0.00     0.059 A 
ATOM     57  F   UNL A   1      43.127  22.714  29.160  1.00  0.00    -0.206 F 
ATOM     58  C   UNL A   1      42.726  20.436  26.387  1.00  0.00     0.060 A 
BRANCH  58  59
ATOM     59  S   UNL A   1      42.347  18.697  26.081  1.00  0.00     0.124 S 
ATOM     60  O   UNL A   1      42.630  18.104  27.382  1.00  0.00    -0.237 OA
ATOM     61  O   UNL A   1      40.941  18.751  25.694  1.00  0.00    -0.237 OA
ATOM     62  O   UNL A   1      43.270  18.338  25.007  1.00  0.00    -0.744 OA
ENDBRANCH  58  59
ENDBRANCH  26  51
BRANCH  38  63
ATOM     63  C   UNL A   1      49.455  26.542  26.480  1.00  0.00     0.058 A 
ATOM     64  C   UNL A   1      50.282  25.929  27.434  1.00  0.00     0.135 A 
ATOM     65  C   UNL A   1      49.961  26.709  25.181  1.00  0.00     0.135 A 
ATOM     66  F   UNL A   1      49.849  25.757  28.693  1.00  0.00    -0.206 F 
ATOM     67  C   UNL A   1      51.573  25.519  27.119  1.00  0.00     0.059 A 
ATOM     68  C   UNL A   1      51.239  26.284  24.836  1.00  0.00     0.059 A 
ATOM     69  F   UNL A   1      49.206  27.284  24.230  1.00  0.00    -0.206 F 
ATOM     70  C   UNL A   1      52.043  25.702  25.816  1.00  0.00     0.060 A 
BRANCH  70  71
ATOM     71  S   UNL A   1      53.712  25.145  25.412  1.00  0.00     0.124 S 
ATOM     72  O   UNL A   1      54.488  25.732  26.498  1.00  0.00    -0.237 OA
ATOM     73  O   UNL A   1      53.573  23.692  25.445  1.00  0.00    -0.237 OA
ATOM     74  O   UNL A   1      53.948  25.715  24.089  1.00  0.00    -0.744 OA
ENDBRANCH  70  71
ENDBRANCH  38  63
ENDBRANCH  12  13
ENDBRANCH   5   7
ENDBRANCH   2   3
ENDBRANCH   1   2
BRANCH   1  75
ATOM     75  C   UNL A   1      32.809  28.659  27.437  1.00  0.00     0.023 C 
BRANCH  75  76
ATOM     76  C   UNL A   1      32.111  27.310  27.440  1.00  0.00     0.116 C 
BRANCH  76  77
ATOM     77  N   UNL A   1      31.071  27.099  26.454  1.00  0.00    -0.356 N 
ATOM     78  C   UNL A   1      31.004  26.089  25.523  1.00  0.00     0.227 C 
ATOM     79  H   UNL A   1      30.331  27.749  26.451  1.00  0.00     0.163 HD
ATOM     80  O   UNL A   1      29.881  25.660  25.246  1.00  0.00    -0.275 OA
BRANCH  78  81
ATOM     81  C   UNL A   1      32.228  25.641  24.722  1.00  0.00     0.127 C 
ATOM     82  C   UNL A   1      31.931  25.428  23.169  1.00  0.00     0.127 C 
ATOM     83  C   UNL A   1      32.882  24.297  25.086  1.00  0.00     0.155 C 
ATOM     84  C   UNL A   1      32.397  23.973  23.023  1.00  0.00     0.155 C 
ATOM     85  C   UNL A   1      31.885  23.171  25.061  1.00  0.00     0.004 C 
ATOM     86  O   UNL A   1      33.575  23.993  23.860  1.00  0.00    -0.365 OA
ATOM     87  C   UNL A   1      31.528  23.027  23.785  1.00  0.00     0.004 C 
BRANCH  82  88
ATOM     88  C   UNL A   1      32.746  26.415  22.310  1.00  0.00     0.231 C 
ATOM     89  O   UNL A   1      33.716  26.036  21.646  1.00  0.00    -0.274 OA
ATOM     90  N   UNL A   1      32.437  27.756  22.231  1.00  0.00    -0.325 N 
ATOM     91  H   UNL A   1      32.989  28.287  21.612  1.00  0.00     0.169 HD
BRANCH  90  92
ATOM     92  C   UNL A   1      31.443  28.458  22.918  1.00  0.00     0.048 A 
ATOM     93  C   UNL A   1      31.828  29.197  24.044  1.00  0.00     0.026 A 
ATOM     94  C   UNL A   1      30.161  28.600  22.381  1.00  0.00     0.111 A 
ATOM     95  C   UNL A   1      30.985  30.196  24.540  1.00  0.00     0.009 A 
ATOM     96  C   UNL A   1      29.314  29.589  22.899  1.00  0.00     0.271 A 
ATOM     97  C   UNL A   1      29.732  30.410  23.958  1.00  0.00     0.086 A 
BRANCH  96  98
ATOM     98  N   UNL A   1      28.021  29.839  22.253  1.00  0.00     0.062 N 
ATOM     99  O   UNL A   1      27.016  29.889  22.975  1.00  0.00    -0.258 OA
ATOM    100  O   UNL A   1      28.015  29.997  21.024  1.00  0.00    -0.258 OA
ENDBRANCH  96  98
ENDBRANCH  90  92
ENDBRANCH  82  88
ENDBRANCH  78  81
ENDBRANCH  76  77
ENDBRANCH  75  76
ENDBRANCH   1  75
TORSDOF 17
ENDMDL
