MODEL 1
REMARK VINA RESULT:     -10.7      0.000      0.000
REMARK SMILES CCC[C@@]1(C(=O)NCCCCNC(=O)c2ccc(-c3c4nc(c(-c5c(F)cc(S(=O)(=O)[O-])cc5F)c5ccc([nH]5)c(-c5c(F)cc(S(=O)(=O)[O-])cc5F)c5nc(c(-c6c(F)cc(S(=O)(=O)[O-])cc6F)c6ccc3[nH]6)C=C5)C=C4)cc2)CCCN(C(=O)CCn2cncn2)C1
REMARK SMILES IDX 9 1 8 2 7 3 5 4 6 5 4 7 81 8 94 9 82 10 84 11 83 12 3 13
REMARK SMILES IDX 2 14 1 15 85 16 86 17 87 18 88 19 89 20 90 21 93 22 91 23
REMARK SMILES IDX 92 24 10 25 11 26 12 27 13 28 14 30 15 31 16 32 80 33 17 34
REMARK SMILES IDX 79 35 18 36 19 37 20 38 73 39 21 40 78 41 72 42 74 43 22 44
REMARK SMILES IDX 77 45 71 46 70 47 23 49 57 50 36 51 56 52 37 53 40 54 55 55
REMARK SMILES IDX 75 56 38 57 39 58 54 60 76 61 41 62 24 63 25 64 34 65 26 66
REMARK SMILES IDX 27 67 33 68 35 69 28 70 29 71 30 72 31 73 32 74 58 75 59 76
REMARK SMILES IDX 68 77 60 78 61 79 67 80 69 81 62 82 63 83 64 84 65 85 66 86
REMARK SMILES IDX 42 87 43 88 52 89 44 90 45 91 51 92 53 93 46 94 47 95 48 96
REMARK SMILES IDX 49 97 50 98
REMARK H PARENT 7 6 12 29 74 48 40 59
REMARK Flexibility Score: inf
ROOT
ATOM      1  C   UNL A   1      33.877  27.589  24.328  1.00  0.00     0.023 C 
ENDROOT
BRANCH   1   2
ATOM      2  C   UNL A   1      33.559  26.645  23.037  1.00  0.00     0.116 C 
BRANCH   2   3
ATOM      3  N   UNL A   1      33.957  25.236  22.685  1.00  0.00    -0.356 N 
ATOM      4  C   UNL A   1      34.004  23.946  23.163  1.00  0.00     0.228 C 
ATOM      5  O   UNL A   1      34.086  23.055  22.307  1.00  0.00    -0.274 OA
ATOM      6  H   UNL A   1      34.320  25.239  21.770  1.00  0.00     0.163 HD
BRANCH   4   7
ATOM      7  C   UNL A   1      34.142  23.554  24.638  1.00  0.00     0.067 C 
ATOM      8  C   UNL A   1      34.181  22.024  24.688  1.00  0.00     0.020 C 
ATOM      9  C   UNL A   1      32.938  24.217  25.283  1.00  0.00     0.136 C 
ATOM     10  C   UNL A   1      32.886  21.340  25.155  1.00  0.00     0.023 C 
ATOM     11  N   UNL A   1      31.754  23.573  24.804  1.00  0.00    -0.342 N 
ATOM     12  C   UNL A   1      31.619  22.219  25.358  1.00  0.00     0.119 C 
BRANCH   7  13
ATOM     13  C   UNL A   1      35.424  24.182  25.301  1.00  0.00     0.018 C 
BRANCH  13  14
ATOM     14  C   UNL A   1      36.583  23.240  25.720  1.00  0.00    -0.002 C 
ATOM     15  C   UNL A   1      37.927  23.894  25.997  1.00  0.00     0.004 C 
ENDBRANCH  13  14
ENDBRANCH   7  13
BRANCH  11  16
ATOM     16  C   UNL A   1      30.777  24.256  24.080  1.00  0.00     0.224 C 
ATOM     17  O   UNL A   1      30.351  23.713  23.055  1.00  0.00    -0.275 OA
BRANCH  16  18
ATOM     18  C   UNL A   1      30.151  25.659  24.603  1.00  0.00     0.124 C 
BRANCH  18  19
ATOM     19  C   UNL A   1      29.026  26.616  23.929  1.00  0.00     0.156 C 
BRANCH  19  20
ATOM     20  N   UNL A   1      29.225  27.822  23.113  1.00  0.00    -0.252 N 
ATOM     21  C   UNL A   1      30.276  28.227  22.334  1.00  0.00     0.219 A 
ATOM     22  N   UNL A   1      28.259  28.774  23.017  1.00  0.00    -0.160 NA
ATOM     23  N   UNL A   1      30.072  29.413  21.810  1.00  0.00    -0.224 NA
ATOM     24  C   UNL A   1      28.819  29.703  22.228  1.00  0.00     0.246 A 
ENDBRANCH  19  20
ENDBRANCH  18  19
ENDBRANCH  16  18
ENDBRANCH  11  16
ENDBRANCH   4   7
ENDBRANCH   2   3
ENDBRANCH   1   2
BRANCH   1  25
ATOM     25  C   UNL A   1      33.270  27.928  25.748  1.00  0.00     0.023 C 
BRANCH  25  26
ATOM     26  C   UNL A   1      33.967  28.399  27.043  1.00  0.00     0.116 C 
BRANCH  26  27
ATOM     27  N   UNL A   1      33.713  29.750  27.462  1.00  0.00    -0.352 N 
ATOM     28  C   UNL A   1      34.567  30.563  28.194  1.00  0.00     0.251 C 
ATOM     29  H   UNL A   1      32.846  30.138  27.201  1.00  0.00     0.163 HD
ATOM     30  O   UNL A   1      34.160  31.593  28.690  1.00  0.00    -0.269 OA
BRANCH  28  31
ATOM     31  C   UNL A   1      35.976  30.133  28.408  1.00  0.00     0.039 A 
ATOM     32  C   UNL A   1      36.887  30.224  27.353  1.00  0.00     0.014 A 
ATOM     33  C   UNL A   1      36.391  29.615  29.636  1.00  0.00     0.014 A 
ATOM     34  C   UNL A   1      38.223  29.849  27.550  1.00  0.00     0.010 A 
ATOM     35  C   UNL A   1      37.737  29.308  29.853  1.00  0.00     0.010 A 
ATOM     36  C   UNL A   1      38.670  29.413  28.810  1.00  0.00    -0.014 A 
BRANCH  36  37
ATOM     37  C   UNL A   1      40.091  29.025  29.038  1.00  0.00     0.031 A 
ATOM     38  C   UNL A   1      41.068  30.030  29.592  1.00  0.00     0.074 A 
ATOM     39  C   UNL A   1      40.519  27.787  28.711  1.00  0.00     0.049 A 
ATOM     40  N   UNL A   1      42.355  29.908  29.801  1.00  0.00    -0.248 NA
ATOM     41  C   UNL A   1      40.531  31.356  29.938  1.00  0.00     0.031 C 
ATOM     42  C   UNL A   1      39.685  26.729  28.137  1.00  0.00     0.029 A 
ATOM     43  N   UNL A   1      41.763  27.210  28.805  1.00  0.00    -0.354 N 
ATOM     44  C   UNL A   1      42.781  31.142  30.282  1.00  0.00     0.074 A 
ATOM     45  C   UNL A   1      41.626  32.012  30.290  1.00  0.00     0.031 C 
ATOM     46  C   UNL A   1      40.435  25.629  27.949  1.00  0.00     0.029 A 
ATOM     47  C   UNL A   1      41.809  25.910  28.354  1.00  0.00     0.049 A 
ATOM     48  H   UNL A   1      42.550  27.683  29.163  1.00  0.00     0.167 HD
ATOM     49  C   UNL A   1      44.016  31.511  30.704  1.00  0.00     0.037 A 
ATOM     50  C   UNL A   1      42.841  25.045  28.270  1.00  0.00     0.037 A 
ATOM     51  C   UNL A   1      45.155  30.632  30.728  1.00  0.00     0.049 A 
ATOM     52  C   UNL A   1      44.205  25.476  28.743  1.00  0.00     0.074 A 
ATOM     53  C   UNL A   1      46.436  30.897  31.181  1.00  0.00     0.029 A 
ATOM     54  N   UNL A   1      45.150  29.318  30.286  1.00  0.00    -0.354 N 
ATOM     55  N   UNL A   1      44.575  26.632  29.244  1.00  0.00    -0.248 NA
ATOM     56  C   UNL A   1      45.292  24.489  28.648  1.00  0.00     0.031 C 
ATOM     57  C   UNL A   1      47.216  29.755  30.976  1.00  0.00     0.029 A 
ATOM     58  C   UNL A   1      46.410  28.763  30.442  1.00  0.00     0.049 A 
ATOM     59  H   UNL A   1      44.368  28.848  29.916  1.00  0.00     0.167 HD
ATOM     60  C   UNL A   1      45.925  26.498  29.556  1.00  0.00     0.074 A 
ATOM     61  C   UNL A   1      46.307  25.152  29.188  1.00  0.00     0.031 C 
ATOM     62  C   UNL A   1      46.768  27.409  30.099  1.00  0.00     0.037 A 
BRANCH  49  63
ATOM     63  C   UNL A   1      44.197  32.928  31.176  1.00  0.00     0.058 A 
ATOM     64  C   UNL A   1      44.484  33.972  30.280  1.00  0.00     0.135 A 
ATOM     65  C   UNL A   1      44.054  33.255  32.535  1.00  0.00     0.135 A 
ATOM     66  F   UNL A   1      44.642  33.716  28.972  1.00  0.00    -0.206 F 
ATOM     67  C   UNL A   1      44.660  35.280  30.719  1.00  0.00     0.059 A 
ATOM     68  C   UNL A   1      44.196  34.561  32.992  1.00  0.00     0.059 A 
ATOM     69  F   UNL A   1      43.775  32.298  33.434  1.00  0.00    -0.206 F 
ATOM     70  C   UNL A   1      44.517  35.564  32.078  1.00  0.00     0.060 A 
BRANCH  70  71
ATOM     71  S   UNL A   1      44.755  37.266  32.632  1.00  0.00     0.124 S 
ATOM     72  O   UNL A   1      43.414  37.611  33.096  1.00  0.00    -0.237 OA
ATOM     73  O   UNL A   1      45.766  37.119  33.675  1.00  0.00    -0.237 OA
ATOM     74  O   UNL A   1      45.199  37.959  31.426  1.00  0.00    -0.744 OA
ENDBRANCH  70  71
ENDBRANCH  49  63
BRANCH  50  75
ATOM     75  C   UNL A   1      42.624  23.673  27.731  1.00  0.00     0.058 A 
ATOM     76  C   UNL A   1      42.553  23.441  26.349  1.00  0.00     0.135 A 
ATOM     77  C   UNL A   1      42.486  22.568  28.585  1.00  0.00     0.135 A 
ATOM     78  F   UNL A   1      42.671  24.466  25.490  1.00  0.00    -0.206 F 
ATOM     79  C   UNL A   1      42.336  22.167  25.831  1.00  0.00     0.059 A 
ATOM     80  C   UNL A   1      42.293  21.280  28.090  1.00  0.00     0.059 A 
ATOM     81  F   UNL A   1      42.561  22.730  29.914  1.00  0.00    -0.206 F 
ATOM     82  C   UNL A   1      42.208  21.092  26.712  1.00  0.00     0.060 A 
BRANCH  82  83
ATOM     83  S   UNL A   1      41.969  19.436  26.029  1.00  0.00     0.124 S 
ATOM     84  O   UNL A   1      40.536  19.432  25.761  1.00  0.00    -0.237 OA
ATOM     85  O   UNL A   1      42.839  19.460  24.856  1.00  0.00    -0.237 OA
ATOM     86  O   UNL A   1      42.413  18.561  27.111  1.00  0.00    -0.744 OA
ENDBRANCH  82  83
ENDBRANCH  50  75
BRANCH  62  87
ATOM     87  C   UNL A   1      48.180  26.980  30.386  1.00  0.00     0.058 A 
ATOM     88  C   UNL A   1      49.230  27.254  29.498  1.00  0.00     0.135 A 
ATOM     89  C   UNL A   1      48.499  26.385  31.619  1.00  0.00     0.135 A 
ATOM     90  F   UNL A   1      48.978  27.814  28.305  1.00  0.00    -0.206 F 
ATOM     91  C   UNL A   1      50.549  26.954  29.822  1.00  0.00     0.059 A 
ATOM     92  C   UNL A   1      49.813  26.099  31.973  1.00  0.00     0.059 A 
ATOM     93  F   UNL A   1      47.530  26.110  32.507  1.00  0.00    -0.206 F 
ATOM     94  C   UNL A   1      50.832  26.386  31.066  1.00  0.00     0.060 A 
BRANCH  94  95
ATOM     95  S   UNL A   1      52.556  26.079  31.507  1.00  0.00     0.124 S 
ATOM     96  O   UNL A   1      53.214  26.174  30.208  1.00  0.00    -0.237 OA
ATOM     97  O   UNL A   1      52.838  27.164  32.441  1.00  0.00    -0.237 OA
ATOM     98  O   UNL A   1      52.524  24.744  32.098  1.00  0.00    -0.744 OA
ENDBRANCH  94  95
ENDBRANCH  62  87
ENDBRANCH  36  37
ENDBRANCH  28  31
ENDBRANCH  26  27
ENDBRANCH  25  26
ENDBRANCH   1  25
TORSDOF 20
ENDMDL
MODEL 2
REMARK VINA RESULT:     -10.6      4.956     10.451
REMARK SMILES CCC[C@@]1(C(=O)NCCCCNC(=O)c2ccc(-c3c4nc(c(-c5c(F)cc(S(=O)(=O)[O-])cc5F)c5ccc([nH]5)c(-c5c(F)cc(S(=O)(=O)[O-])cc5F)c5nc(c(-c6c(F)cc(S(=O)(=O)[O-])cc6F)c6ccc3[nH]6)C=C5)C=C4)cc2)CCCN(C(=O)CCn2cncn2)C1
REMARK SMILES IDX 9 1 8 2 7 3 5 4 6 5 4 7 81 8 94 9 82 10 84 11 83 12 3 13
REMARK SMILES IDX 2 14 1 15 85 16 86 17 87 18 88 19 89 20 90 21 93 22 91 23
REMARK SMILES IDX 92 24 10 25 11 26 12 27 13 28 14 30 15 31 16 32 80 33 17 34
REMARK SMILES IDX 79 35 18 36 19 37 20 38 73 39 21 40 78 41 72 42 74 43 22 44
REMARK SMILES IDX 77 45 71 46 70 47 23 49 57 50 36 51 56 52 37 53 40 54 55 55
REMARK SMILES IDX 75 56 38 57 39 58 54 60 76 61 41 62 24 63 25 64 34 65 26 66
REMARK SMILES IDX 27 67 33 68 35 69 28 70 29 71 30 72 31 73 32 74 58 75 59 76
REMARK SMILES IDX 68 77 60 78 61 79 67 80 69 81 62 82 63 83 64 84 65 85 66 86
REMARK SMILES IDX 42 87 43 88 52 89 44 90 45 91 51 92 53 93 46 94 47 95 48 96
REMARK SMILES IDX 49 97 50 98
REMARK H PARENT 7 6 12 29 74 48 40 59
REMARK Flexibility Score: inf
ROOT
ATOM      1  C   UNL A   1      35.819  23.279  25.910  1.00  0.00     0.023 C 
ENDROOT
BRANCH   1   2
ATOM      2  C   UNL A   1      34.433  23.624  26.696  1.00  0.00     0.116 C 
BRANCH   2   3
ATOM      3  N   UNL A   1      33.032  23.899  26.214  1.00  0.00    -0.356 N 
ATOM      4  C   UNL A   1      32.290  24.671  25.350  1.00  0.00     0.228 C 
ATOM      5  O   UNL A   1      31.167  24.234  25.063  1.00  0.00    -0.274 OA
ATOM      6  H   UNL A   1      32.418  23.303  26.701  1.00  0.00     0.163 HD
BRANCH   4   7
ATOM      7  C   UNL A   1      32.665  26.079  24.876  1.00  0.00     0.067 C 
ATOM      8  C   UNL A   1      31.428  26.659  24.186  1.00  0.00     0.020 C 
ATOM      9  C   UNL A   1      33.875  25.831  23.990  1.00  0.00     0.136 C 
ATOM     10  C   UNL A   1      31.472  26.682  22.649  1.00  0.00     0.023 C 
ATOM     11  N   UNL A   1      33.447  25.114  22.829  1.00  0.00    -0.342 N 
ATOM     12  C   UNL A   1      32.654  25.968  21.934  1.00  0.00     0.119 C 
BRANCH   7  13
ATOM     13  C   UNL A   1      33.145  26.996  26.061  1.00  0.00     0.018 C 
BRANCH  13  14
ATOM     14  C   UNL A   1      32.098  27.479  27.099  1.00  0.00    -0.002 C 
ATOM     15  C   UNL A   1      31.810  28.971  27.135  1.00  0.00     0.004 C 
ENDBRANCH  13  14
ENDBRANCH   7  13
BRANCH  11  16
ATOM     16  C   UNL A   1      33.923  23.839  22.524  1.00  0.00     0.224 C 
ATOM     17  O   UNL A   1      35.121  23.618  22.734  1.00  0.00    -0.275 OA
BRANCH  16  18
ATOM     18  C   UNL A   1      32.935  22.660  22.007  1.00  0.00     0.124 C 
BRANCH  18  19
ATOM     19  C   UNL A   1      31.987  21.647  22.851  1.00  0.00     0.156 C 
BRANCH  19  20
ATOM     20  N   UNL A   1      32.389  20.622  23.825  1.00  0.00    -0.252 N 
ATOM     21  C   UNL A   1      32.515  19.263  23.713  1.00  0.00     0.219 A 
ATOM     22  N   UNL A   1      32.739  20.958  25.096  1.00  0.00    -0.160 NA
ATOM     23  N   UNL A   1      32.848  18.704  24.852  1.00  0.00    -0.224 NA
ATOM     24  C   UNL A   1      33.003  19.772  25.666  1.00  0.00     0.246 A 
ENDBRANCH  19  20
ENDBRANCH  18  19
ENDBRANCH  16  18
ENDBRANCH  11  16
ENDBRANCH   4   7
ENDBRANCH   2   3
ENDBRANCH   1   2
BRANCH   1  25
ATOM     25  C   UNL A   1      37.256  23.899  25.679  1.00  0.00     0.023 C 
BRANCH  25  26
ATOM     26  C   UNL A   1      38.422  24.108  26.671  1.00  0.00     0.116 C 
BRANCH  26  27
ATOM     27  N   UNL A   1      39.752  24.013  26.136  1.00  0.00    -0.352 N 
ATOM     28  C   UNL A   1      40.809  24.876  26.390  1.00  0.00     0.251 C 
ATOM     29  H   UNL A   1      39.932  23.258  25.530  1.00  0.00     0.163 HD
ATOM     30  O   UNL A   1      41.811  24.838  25.707  1.00  0.00    -0.269 OA
BRANCH  28  31
ATOM     31  C   UNL A   1      40.679  25.886  27.476  1.00  0.00     0.039 A 
ATOM     32  C   UNL A   1      39.743  25.681  28.492  1.00  0.00     0.014 A 
ATOM     33  C   UNL A   1      41.457  27.045  27.478  1.00  0.00     0.014 A 
ATOM     34  C   UNL A   1      39.631  26.609  29.536  1.00  0.00     0.010 A 
ATOM     35  C   UNL A   1      41.395  27.934  28.554  1.00  0.00     0.010 A 
ATOM     36  C   UNL A   1      40.475  27.732  29.594  1.00  0.00    -0.014 A 
BRANCH  36  37
ATOM     37  C   UNL A   1      40.376  28.721  30.706  1.00  0.00     0.031 A 
ATOM     38  C   UNL A   1      41.270  28.589  31.913  1.00  0.00     0.074 A 
ATOM     39  C   UNL A   1      39.461  29.711  30.657  1.00  0.00     0.049 A 
ATOM     40  N   UNL A   1      41.294  29.305  33.009  1.00  0.00    -0.248 NA
ATOM     41  C   UNL A   1      42.252  27.494  31.895  1.00  0.00     0.031 C 
ATOM     42  C   UNL A   1      38.515  29.933  29.561  1.00  0.00     0.029 A 
ATOM     43  N   UNL A   1      39.169  30.713  31.552  1.00  0.00    -0.354 N 
ATOM     44  C   UNL A   1      42.275  28.737  33.814  1.00  0.00     0.074 A 
ATOM     45  C   UNL A   1      42.791  27.589  33.101  1.00  0.00     0.031 C 
ATOM     46  C   UNL A   1      37.762  31.012  29.840  1.00  0.00     0.029 A 
ATOM     47  C   UNL A   1      38.144  31.540  31.146  1.00  0.00     0.049 A 
ATOM     48  H   UNL A   1      39.648  30.829  32.404  1.00  0.00     0.167 HD
ATOM     49  C   UNL A   1      42.725  29.147  35.025  1.00  0.00     0.037 A 
ATOM     50  C   UNL A   1      37.574  32.597  31.759  1.00  0.00     0.037 A 
ATOM     51  C   UNL A   1      42.235  30.310  35.717  1.00  0.00     0.049 A 
ATOM     52  C   UNL A   1      38.090  33.036  33.106  1.00  0.00     0.074 A 
ATOM     53  C   UNL A   1      42.658  30.834  36.926  1.00  0.00     0.029 A 
ATOM     54  N   UNL A   1      41.216  31.131  35.259  1.00  0.00    -0.354 N 
ATOM     55  N   UNL A   1      39.056  32.515  33.826  1.00  0.00    -0.248 NA
ATOM     56  C   UNL A   1      37.446  34.205  33.723  1.00  0.00     0.031 C 
ATOM     57  C   UNL A   1      41.869  31.951  37.217  1.00  0.00     0.029 A 
ATOM     58  C   UNL A   1      40.987  32.150  36.168  1.00  0.00     0.049 A 
ATOM     59  H   UNL A   1      40.726  31.008  34.413  1.00  0.00     0.167 HD
ATOM     60  C   UNL A   1      39.158  33.313  34.961  1.00  0.00     0.074 A 
ATOM     61  C   UNL A   1      38.158  34.352  34.834  1.00  0.00     0.031 C 
ATOM     62  C   UNL A   1      40.007  33.197  36.011  1.00  0.00     0.037 A 
BRANCH  49  63
ATOM     63  C   UNL A   1      43.807  28.330  35.680  1.00  0.00     0.058 A 
ATOM     64  C   UNL A   1      45.167  28.563  35.416  1.00  0.00     0.135 A 
ATOM     65  C   UNL A   1      43.485  27.323  36.605  1.00  0.00     0.135 A 
ATOM     66  F   UNL A   1      45.533  29.505  34.533  1.00  0.00    -0.206 F 
ATOM     67  C   UNL A   1      46.165  27.802  36.015  1.00  0.00     0.059 A 
ATOM     68  C   UNL A   1      44.467  26.569  37.238  1.00  0.00     0.059 A 
ATOM     69  F   UNL A   1      42.201  27.062  36.898  1.00  0.00    -0.206 F 
ATOM     70  C   UNL A   1      45.805  26.804  36.923  1.00  0.00     0.060 A 
BRANCH  70  71
ATOM     71  S   UNL A   1      47.113  25.822  37.687  1.00  0.00     0.124 S 
ATOM     72  O   UNL A   1      48.309  26.514  37.217  1.00  0.00    -0.237 OA
ATOM     73  O   UNL A   1      46.819  25.961  39.110  1.00  0.00    -0.237 OA
ATOM     74  O   UNL A   1      46.903  24.487  37.136  1.00  0.00    -0.744 OA
ENDBRANCH  70  71
ENDBRANCH  49  63
BRANCH  50  75
ATOM     75  C   UNL A   1      36.459  33.333  31.099  1.00  0.00     0.058 A 
ATOM     76  C   UNL A   1      36.690  34.136  29.972  1.00  0.00     0.135 A 
ATOM     77  C   UNL A   1      35.144  33.247  31.579  1.00  0.00     0.135 A 
ATOM     78  F   UNL A   1      37.932  34.258  29.478  1.00  0.00    -0.206 F 
ATOM     79  C   UNL A   1      35.661  34.841  29.354  1.00  0.00     0.059 A 
ATOM     80  C   UNL A   1      34.094  33.924  30.964  1.00  0.00     0.059 A 
ATOM     81  F   UNL A   1      34.865  32.482  32.646  1.00  0.00    -0.206 F 
ATOM     82  C   UNL A   1      34.365  34.728  29.858  1.00  0.00     0.060 A 
BRANCH  82  83
ATOM     83  S   UNL A   1      33.029  35.612  29.023  1.00  0.00     0.124 S 
ATOM     84  O   UNL A   1      32.245  36.095  30.154  1.00  0.00    -0.237 OA
ATOM     85  O   UNL A   1      33.758  36.629  28.270  1.00  0.00    -0.237 OA
ATOM     86  O   UNL A   1      32.397  34.577  28.211  1.00  0.00    -0.744 OA
ENDBRANCH  82  83
ENDBRANCH  50  75
BRANCH  62  87
ATOM     87  C   UNL A   1      39.941  34.241  37.091  1.00  0.00     0.058 A 
ATOM     88  C   UNL A   1      40.519  35.509  36.929  1.00  0.00     0.135 A 
ATOM     89  C   UNL A   1      39.195  34.001  38.258  1.00  0.00     0.135 A 
ATOM     90  F   UNL A   1      41.248  35.785  35.837  1.00  0.00    -0.206 F 
ATOM     91  C   UNL A   1      40.358  36.505  37.887  1.00  0.00     0.059 A 
ATOM     92  C   UNL A   1      39.001  34.991  39.216  1.00  0.00     0.059 A 
ATOM     93  F   UNL A   1      38.616  32.807  38.456  1.00  0.00    -0.206 F 
ATOM     94  C   UNL A   1      39.589  36.240  39.022  1.00  0.00     0.060 A 
BRANCH  94  95
ATOM     95  S   UNL A   1      39.320  37.568  40.215  1.00  0.00     0.124 S 
ATOM     96  O   UNL A   1      38.728  36.843  41.335  1.00  0.00    -0.237 OA
ATOM     97  O   UNL A   1      40.672  38.073  40.430  1.00  0.00    -0.237 OA
ATOM     98  O   UNL A   1      38.421  38.481  39.513  1.00  0.00    -0.744 OA
ENDBRANCH  94  95
ENDBRANCH  62  87
ENDBRANCH  36  37
ENDBRANCH  28  31
ENDBRANCH  26  27
ENDBRANCH  25  26
ENDBRANCH   1  25
TORSDOF 20
ENDMDL
MODEL 3
REMARK VINA RESULT:     -10.4      2.879      4.629
REMARK SMILES CCC[C@@]1(C(=O)NCCCCNC(=O)c2ccc(-c3c4nc(c(-c5c(F)cc(S(=O)(=O)[O-])cc5F)c5ccc([nH]5)c(-c5c(F)cc(S(=O)(=O)[O-])cc5F)c5nc(c(-c6c(F)cc(S(=O)(=O)[O-])cc6F)c6ccc3[nH]6)C=C5)C=C4)cc2)CCCN(C(=O)CCn2cncn2)C1
REMARK SMILES IDX 9 1 8 2 7 3 5 4 6 5 4 7 81 8 94 9 82 10 84 11 83 12 3 13
REMARK SMILES IDX 2 14 1 15 85 16 86 17 87 18 88 19 89 20 90 21 93 22 91 23
REMARK SMILES IDX 92 24 10 25 11 26 12 27 13 28 14 30 15 31 16 32 80 33 17 34
REMARK SMILES IDX 79 35 18 36 19 37 20 38 73 39 21 40 78 41 72 42 74 43 22 44
REMARK SMILES IDX 77 45 71 46 70 47 23 49 57 50 36 51 56 52 37 53 40 54 55 55
REMARK SMILES IDX 75 56 38 57 39 58 54 60 76 61 41 62 24 63 25 64 34 65 26 66
REMARK SMILES IDX 27 67 33 68 35 69 28 70 29 71 30 72 31 73 32 74 58 75 59 76
REMARK SMILES IDX 68 77 60 78 61 79 67 80 69 81 62 82 63 83 64 84 65 85 66 86
REMARK SMILES IDX 42 87 43 88 52 89 44 90 45 91 51 92 53 93 46 94 47 95 48 96
REMARK SMILES IDX 49 97 50 98
REMARK H PARENT 7 6 12 29 74 48 40 59
REMARK Flexibility Score: inf
ROOT
ATOM      1  C   UNL A   1      32.893  29.186  27.348  1.00  0.00     0.023 C 
ENDROOT
BRANCH   1   2
ATOM      2  C   UNL A   1      32.162  27.753  27.617  1.00  0.00     0.116 C 
BRANCH   2   3
ATOM      3  N   UNL A   1      30.977  27.080  26.975  1.00  0.00    -0.356 N 
ATOM      4  C   UNL A   1      30.599  26.253  25.942  1.00  0.00     0.228 C 
ATOM      5  O   UNL A   1      29.507  25.685  26.076  1.00  0.00    -0.274 OA
ATOM      6  H   UNL A   1      30.172  27.323  27.487  1.00  0.00     0.163 HD
BRANCH   4   7
ATOM      7  C   UNL A   1      31.322  26.130  24.597  1.00  0.00     0.067 C 
ATOM      8  C   UNL A   1      30.312  25.556  23.600  1.00  0.00     0.020 C 
ATOM      9  C   UNL A   1      32.514  25.248  24.929  1.00  0.00     0.136 C 
ATOM     10  C   UNL A   1      30.489  24.068  23.254  1.00  0.00     0.023 C 
ATOM     11  N   UNL A   1      32.036  23.940  25.250  1.00  0.00    -0.342 N 
ATOM     12  C   UNL A   1      31.535  23.244  24.057  1.00  0.00     0.119 C 
BRANCH   7  13
ATOM     13  C   UNL A   1      31.895  27.510  24.102  1.00  0.00     0.018 C 
BRANCH  13  14
ATOM     14  C   UNL A   1      33.426  27.650  23.895  1.00  0.00    -0.002 C 
ATOM     15  C   UNL A   1      33.881  28.541  22.752  1.00  0.00     0.004 C 
ENDBRANCH  13  14
ENDBRANCH   7  13
BRANCH  11  16
ATOM     16  C   UNL A   1      32.234  23.363  26.504  1.00  0.00     0.224 C 
ATOM     17  O   UNL A   1      31.655  23.884  27.465  1.00  0.00    -0.275 OA
BRANCH  16  18
ATOM     18  C   UNL A   1      33.108  22.008  26.691  1.00  0.00     0.124 C 
BRANCH  18  19
ATOM     19  C   UNL A   1      33.865  21.093  25.584  1.00  0.00     0.156 C 
BRANCH  19  20
ATOM     20  N   UNL A   1      33.539  19.726  25.154  1.00  0.00    -0.252 N 
ATOM     21  C   UNL A   1      34.305  18.749  24.576  1.00  0.00     0.219 A 
ATOM     22  N   UNL A   1      32.290  19.215  25.322  1.00  0.00    -0.160 NA
ATOM     23  N   UNL A   1      33.604  17.676  24.294  1.00  0.00    -0.224 NA
ATOM     24  C   UNL A   1      32.385  17.987  24.788  1.00  0.00     0.246 A 
ENDBRANCH  19  20
ENDBRANCH  18  19
ENDBRANCH  16  18
ENDBRANCH  11  16
ENDBRANCH   4   7
ENDBRANCH   2   3
ENDBRANCH   1   2
BRANCH   1  25
ATOM     25  C   UNL A   1      34.282  29.751  26.845  1.00  0.00     0.023 C 
BRANCH  25  26
ATOM     26  C   UNL A   1      35.532  30.178  27.645  1.00  0.00     0.116 C 
BRANCH  26  27
ATOM     27  N   UNL A   1      35.356  30.398  29.053  1.00  0.00    -0.352 N 
ATOM     28  C   UNL A   1      36.280  30.129  30.054  1.00  0.00     0.251 C 
ATOM     29  H   UNL A   1      34.494  30.780  29.337  1.00  0.00     0.163 HD
ATOM     30  O   UNL A   1      35.942  30.132  31.219  1.00  0.00    -0.269 OA
BRANCH  28  31
ATOM     31  C   UNL A   1      37.679  29.785  29.679  1.00  0.00     0.039 A 
ATOM     32  C   UNL A   1      38.582  29.413  30.677  1.00  0.00     0.014 A 
ATOM     33  C   UNL A   1      38.107  29.856  28.352  1.00  0.00     0.014 A 
ATOM     34  C   UNL A   1      39.895  29.058  30.335  1.00  0.00     0.010 A 
ATOM     35  C   UNL A   1      39.393  29.435  28.003  1.00  0.00     0.010 A 
ATOM     36  C   UNL A   1      40.307  29.038  28.991  1.00  0.00    -0.014 A 
BRANCH  36  37
ATOM     37  C   UNL A   1      41.696  28.650  28.611  1.00  0.00     0.031 A 
ATOM     38  C   UNL A   1      42.786  29.690  28.576  1.00  0.00     0.074 A 
ATOM     39  C   UNL A   1      41.974  27.378  28.257  1.00  0.00     0.049 A 
ATOM     40  N   UNL A   1      44.038  29.568  28.212  1.00  0.00    -0.248 NA
ATOM     41  C   UNL A   1      42.415  31.054  28.985  1.00  0.00     0.031 C 
ATOM     42  C   UNL A   1      41.004  26.280  28.218  1.00  0.00     0.029 A 
ATOM     43  N   UNL A   1      43.150  26.791  27.855  1.00  0.00    -0.354 N 
ATOM     44  C   UNL A   1      44.595  30.836  28.329  1.00  0.00     0.074 A 
ATOM     45  C   UNL A   1      43.534  31.724  28.753  1.00  0.00     0.031 C 
ATOM     46  C   UNL A   1      41.629  25.154  27.834  1.00  0.00     0.029 A 
ATOM     47  C   UNL A   1      43.033  25.450  27.565  1.00  0.00     0.049 A 
ATOM     48  H   UNL A   1      43.999  27.285  27.782  1.00  0.00     0.167 HD
ATOM     49  C   UNL A   1      45.878  31.225  28.127  1.00  0.00     0.037 A 
ATOM     50  C   UNL A   1      43.948  24.563  27.126  1.00  0.00     0.037 A 
ATOM     51  C   UNL A   1      46.939  30.333  27.739  1.00  0.00     0.049 A 
ATOM     52  C   UNL A   1      45.369  25.016  26.907  1.00  0.00     0.074 A 
ATOM     53  C   UNL A   1      48.280  30.621  27.555  1.00  0.00     0.029 A 
ATOM     54  N   UNL A   1      46.780  28.980  27.480  1.00  0.00    -0.354 N 
ATOM     55  N   UNL A   1      45.886  26.211  27.075  1.00  0.00    -0.248 NA
ATOM     56  C   UNL A   1      46.333  24.006  26.446  1.00  0.00     0.031 C 
ATOM     57  C   UNL A   1      48.925  29.450  27.147  1.00  0.00     0.029 A 
ATOM     58  C   UNL A   1      47.996  28.422  27.124  1.00  0.00     0.049 A 
ATOM     59  H   UNL A   1      45.929  28.489  27.539  1.00  0.00     0.167 HD
ATOM     60  C   UNL A   1      47.240  26.086  26.775  1.00  0.00     0.074 A 
ATOM     61  C   UNL A   1      47.463  24.702  26.416  1.00  0.00     0.031 C 
ATOM     62  C   UNL A   1      48.208  27.033  26.799  1.00  0.00     0.037 A 
BRANCH  49  63
ATOM     63  C   UNL A   1      46.205  32.681  28.325  1.00  0.00     0.058 A 
ATOM     64  C   UNL A   1      46.638  33.176  29.567  1.00  0.00     0.135 A 
ATOM     65  C   UNL A   1      46.114  33.588  27.257  1.00  0.00     0.135 A 
ATOM     66  F   UNL A   1      46.734  32.356  30.626  1.00  0.00    -0.206 F 
ATOM     67  C   UNL A   1      46.932  34.523  29.751  1.00  0.00     0.059 A 
ATOM     68  C   UNL A   1      46.431  34.934  27.410  1.00  0.00     0.059 A 
ATOM     69  F   UNL A   1      45.710  33.168  26.047  1.00  0.00    -0.206 F 
ATOM     70  C   UNL A   1      46.822  35.395  28.667  1.00  0.00     0.060 A 
BRANCH  70  71
ATOM     71  S   UNL A   1      47.201  37.142  28.924  1.00  0.00     0.124 S 
ATOM     72  O   UNL A   1      47.705  37.130  30.294  1.00  0.00    -0.237 OA
ATOM     73  O   UNL A   1      48.194  37.403  27.887  1.00  0.00    -0.237 OA
ATOM     74  O   UNL A   1      45.913  37.802  28.735  1.00  0.00    -0.744 OA
ENDBRANCH  70  71
ENDBRANCH  49  63
BRANCH  50  75
ATOM     75  C   UNL A   1      43.559  23.146  26.879  1.00  0.00     0.058 A 
ATOM     76  C   UNL A   1      43.462  22.639  25.574  1.00  0.00     0.135 A 
ATOM     77  C   UNL A   1      43.278  22.272  27.940  1.00  0.00     0.135 A 
ATOM     78  F   UNL A   1      43.713  23.437  24.524  1.00  0.00    -0.206 F 
ATOM     79  C   UNL A   1      43.085  21.322  25.327  1.00  0.00     0.059 A 
ATOM     80  C   UNL A   1      42.922  20.943  27.719  1.00  0.00     0.059 A 
ATOM     81  F   UNL A   1      43.370  22.700  29.208  1.00  0.00    -0.206 F 
ATOM     82  C   UNL A   1      42.817  20.481  26.408  1.00  0.00     0.060 A 
BRANCH  82  83
ATOM     83  S   UNL A   1      42.370  18.762  26.080  1.00  0.00     0.124 S 
ATOM     84  O   UNL A   1      42.617  18.141  27.376  1.00  0.00    -0.237 OA
ATOM     85  O   UNL A   1      40.969  18.879  25.684  1.00  0.00    -0.237 OA
ATOM     86  O   UNL A   1      43.285  18.376  25.009  1.00  0.00    -0.744 OA
ENDBRANCH  82  83
ENDBRANCH  50  75
BRANCH  62  87
ATOM     87  C   UNL A   1      49.616  26.612  26.480  1.00  0.00     0.058 A 
ATOM     88  C   UNL A   1      50.444  26.014  27.441  1.00  0.00     0.135 A 
ATOM     89  C   UNL A   1      50.100  26.711  25.164  1.00  0.00     0.135 A 
ATOM     90  F   UNL A   1      50.032  25.903  28.713  1.00  0.00    -0.206 F 
ATOM     91  C   UNL A   1      51.704  25.526  27.109  1.00  0.00     0.059 A 
ATOM     92  C   UNL A   1      51.346  26.208  24.805  1.00  0.00     0.059 A 
ATOM     93  F   UNL A   1      49.343  27.268  24.207  1.00  0.00    -0.206 F 
ATOM     94  C   UNL A   1      52.142  25.618  25.786  1.00  0.00     0.060 A 
BRANCH  94  95
ATOM     95  S   UNL A   1      53.744  24.907  25.353  1.00  0.00     0.124 S 
ATOM     96  O   UNL A   1      54.142  25.742  24.225  1.00  0.00    -0.237 OA
ATOM     97  O   UNL A   1      54.510  25.092  26.581  1.00  0.00    -0.237 OA
ATOM     98  O   UNL A   1      53.423  23.520  25.025  1.00  0.00    -0.744 OA
ENDBRANCH  94  95
ENDBRANCH  62  87
ENDBRANCH  36  37
ENDBRANCH  28  31
ENDBRANCH  26  27
ENDBRANCH  25  26
ENDBRANCH   1  25
TORSDOF 20
ENDMDL
