MODEL 1
REMARK VINA RESULT:      -9.9      0.000      0.000
REMARK SMILES COc1cc([C@H]2C[C@@H](C(=O)NCCCCNC(=O)c3ccc(-c4c5nc(c(-c6c(F)cc(S(=O)(=O)[O-])cc6F)c6ccc([nH]6)c(-c6c(F)cc(S(=O)(=O)[O-])cc6F)c6nc(c(-c7c(F)cc(S(=O)(=O)[O-])cc7F)c7ccc4[nH]7)C=C6)C=C5)cc3)C2)ccc1Br
REMARK SMILES IDX 14 1 13 2 12 3 11 4 9 5 10 6 8 8 6 9 7 10 85 11 5 12 3 13
REMARK SMILES IDX 4 14 88 15 87 16 89 17 86 18 2 19 1 20 15 21 16 22 17 23
REMARK SMILES IDX 18 25 19 26 20 27 84 28 21 29 83 30 22 31 23 32 24 33 77 34
REMARK SMILES IDX 25 35 82 36 76 37 78 38 26 39 81 40 75 41 74 42 27 44 61 45
REMARK SMILES IDX 40 46 60 47 41 48 44 49 59 50 79 51 42 52 43 53 58 55 80 56
REMARK SMILES IDX 45 57 28 58 29 59 38 60 30 61 31 62 37 63 39 64 32 65 33 66
REMARK SMILES IDX 34 67 35 68 36 69 62 70 63 71 72 72 64 73 65 74 71 75 73 76
REMARK SMILES IDX 66 77 67 78 68 79 69 80 70 81 46 82 47 83 56 84 48 85 49 86
REMARK SMILES IDX 55 87 57 88 50 89 51 90 52 91 53 92 54 93
REMARK H PARENT 11 7 16 24 78 43 44 54
REMARK Flexibility Score: inf
ROOT
ATOM      1  C   UNL A   1      33.607  33.924  28.103  1.00  0.00     0.023 C 
ENDROOT
BRANCH   1   2
ATOM      2  C   UNL A   1      33.977  35.147  28.937  1.00  0.00     0.023 C 
BRANCH   2   3
ATOM      3  C   UNL A   1      33.250  35.243  30.273  1.00  0.00     0.116 C 
BRANCH   3   4
ATOM      4  N   UNL A   1      34.099  35.696  31.347  1.00  0.00    -0.356 N 
ATOM      5  C   UNL A   1      34.955  34.985  32.155  1.00  0.00     0.223 C 
ATOM      6  O   UNL A   1      35.582  35.651  32.993  1.00  0.00    -0.275 OA
ATOM      7  H   UNL A   1      34.059  36.662  31.531  1.00  0.00     0.163 HD
BRANCH   5   8
ATOM      8  C   UNL A   1      35.143  33.458  32.025  1.00  0.00     0.079 C 
ATOM      9  C   UNL A   1      36.382  31.700  32.339  1.00  0.00     0.021 C 
ATOM     10  C   UNL A   1      35.502  32.593  33.255  1.00  0.00     0.022 C 
ATOM     11  C   UNL A   1      36.352  32.844  31.284  1.00  0.00     0.022 C 
BRANCH   9  12
ATOM     12  C   UNL A   1      37.807  31.173  32.849  1.00  0.00    -0.041 A 
ATOM     13  C   UNL A   1      39.397  29.319  33.200  1.00  0.00     0.133 A 
ATOM     14  C   UNL A   1      38.141  29.804  32.798  1.00  0.00     0.051 A 
ATOM     15  C   UNL A   1      40.392  30.207  33.602  1.00  0.00     0.060 A 
ATOM     16  C   UNL A   1      40.090  31.559  33.702  1.00  0.00     0.020 A 
ATOM     17  Br  UNL A   1      42.171  29.668  33.975  1.00  0.00    -0.047 Br
ATOM     18  C   UNL A   1      38.815  32.018  33.354  1.00  0.00     0.005 A 
BRANCH  13  19
ATOM     19  O   UNL A   1      39.596  27.965  33.108  1.00  0.00    -0.496 OA
ATOM     20  C   UNL A   1      38.513  27.342  32.414  1.00  0.00     0.278 C 
ENDBRANCH  13  19
ENDBRANCH   9  12
ENDBRANCH   5   8
ENDBRANCH   3   4
ENDBRANCH   2   3
ENDBRANCH   1   2
BRANCH   1  21
ATOM     21  C   UNL A   1      34.464  32.688  28.354  1.00  0.00     0.116 C 
BRANCH  21  22
ATOM     22  N   UNL A   1      33.787  31.445  28.021  1.00  0.00    -0.352 N 
ATOM     23  C   UNL A   1      34.318  30.191  27.848  1.00  0.00     0.251 C 
ATOM     24  H   UNL A   1      32.811  31.512  27.903  1.00  0.00     0.163 HD
ATOM     25  O   UNL A   1      33.604  29.280  27.432  1.00  0.00    -0.269 OA
BRANCH  23  26
ATOM     26  C   UNL A   1      35.749  29.946  28.135  1.00  0.00     0.039 A 
ATOM     27  C   UNL A   1      36.116  29.482  29.399  1.00  0.00     0.014 A 
ATOM     28  C   UNL A   1      36.727  30.167  27.160  1.00  0.00     0.014 A 
ATOM     29  C   UNL A   1      37.457  29.199  29.671  1.00  0.00     0.010 A 
ATOM     30  C   UNL A   1      38.046  29.797  27.402  1.00  0.00     0.010 A 
ATOM     31  C   UNL A   1      38.431  29.328  28.665  1.00  0.00    -0.014 A 
BRANCH  31  32
ATOM     32  C   UNL A   1      39.857  29.008  28.937  1.00  0.00     0.031 A 
ATOM     33  C   UNL A   1      40.756  30.038  29.569  1.00  0.00     0.074 A 
ATOM     34  C   UNL A   1      40.353  27.806  28.582  1.00  0.00     0.049 A 
ATOM     35  N   UNL A   1      42.023  29.949  29.883  1.00  0.00    -0.248 NA
ATOM     36  C   UNL A   1      40.161  31.353  29.865  1.00  0.00     0.031 C 
ATOM     37  C   UNL A   1      39.598  26.743  27.913  1.00  0.00     0.029 A 
ATOM     38  N   UNL A   1      41.608  27.272  28.736  1.00  0.00    -0.354 N 
ATOM     39  C   UNL A   1      42.378  31.193  30.394  1.00  0.00     0.074 A 
ATOM     40  C   UNL A   1      41.211  32.039  30.292  1.00  0.00     0.031 C 
ATOM     41  C   UNL A   1      40.393  25.672  27.753  1.00  0.00     0.029 A 
ATOM     42  C   UNL A   1      41.721  25.982  28.272  1.00  0.00     0.049 A 
ATOM     43  H   UNL A   1      42.356  27.766  29.142  1.00  0.00     0.167 HD
ATOM     44  C   UNL A   1      43.560  31.588  30.926  1.00  0.00     0.037 A 
ATOM     45  C   UNL A   1      42.776  25.142  28.271  1.00  0.00     0.037 A 
ATOM     46  C   UNL A   1      44.710  30.730  31.050  1.00  0.00     0.049 A 
ATOM     47  C   UNL A   1      44.077  25.602  28.874  1.00  0.00     0.074 A 
ATOM     48  C   UNL A   1      45.932  31.010  31.636  1.00  0.00     0.029 A 
ATOM     49  N   UNL A   1      44.783  29.427  30.577  1.00  0.00    -0.354 N 
ATOM     50  N   UNL A   1      44.371  26.756  29.425  1.00  0.00    -0.248 NA
ATOM     51  C   UNL A   1      45.186  24.639  28.865  1.00  0.00     0.031 C 
ATOM     52  C   UNL A   1      46.763  29.897  31.465  1.00  0.00     0.029 A 
ATOM     53  C   UNL A   1      46.038  28.900  30.833  1.00  0.00     0.049 A 
ATOM     54  H   UNL A   1      44.051  28.948  30.126  1.00  0.00     0.167 HD
ATOM     55  C   UNL A   1      45.687  26.644  29.862  1.00  0.00     0.074 A 
ATOM     56  C   UNL A   1      46.125  25.306  29.521  1.00  0.00     0.031 C 
ATOM     57  C   UNL A   1      46.459  27.563  30.494  1.00  0.00     0.037 A 
BRANCH  44  58
ATOM     58  C   UNL A   1      43.669  33.009  31.411  1.00  0.00     0.058 A 
ATOM     59  C   UNL A   1      43.429  33.359  32.750  1.00  0.00     0.135 A 
ATOM     60  C   UNL A   1      44.049  34.034  30.528  1.00  0.00     0.135 A 
ATOM     61  F   UNL A   1      43.049  32.425  33.636  1.00  0.00    -0.206 F 
ATOM     62  C   UNL A   1      43.527  34.677  33.188  1.00  0.00     0.059 A 
ATOM     63  C   UNL A   1      44.185  35.354  30.952  1.00  0.00     0.059 A 
ATOM     64  F   UNL A   1      44.291  33.759  29.237  1.00  0.00    -0.206 F 
ATOM     65  C   UNL A   1      43.905  35.667  32.281  1.00  0.00     0.060 A 
BRANCH  65  66
ATOM     66  S   UNL A   1      44.026  37.370  32.866  1.00  0.00     0.124 S 
ATOM     67  O   UNL A   1      42.992  37.399  33.895  1.00  0.00    -0.237 OA
ATOM     68  O   UNL A   1      45.402  37.437  33.349  1.00  0.00    -0.237 OA
ATOM     69  O   UNL A   1      43.745  38.162  31.672  1.00  0.00    -0.744 OA
ENDBRANCH  65  66
ENDBRANCH  44  58
BRANCH  45  70
ATOM     70  C   UNL A   1      42.635  23.767  27.718  1.00  0.00     0.058 A 
ATOM     71  C   UNL A   1      42.467  22.663  28.566  1.00  0.00     0.135 A 
ATOM     72  C   UNL A   1      42.661  23.529  26.335  1.00  0.00     0.135 A 
ATOM     73  F   UNL A   1      42.442  22.836  29.897  1.00  0.00    -0.206 F 
ATOM     74  C   UNL A   1      42.352  21.369  28.068  1.00  0.00     0.059 A 
ATOM     75  C   UNL A   1      42.518  22.247  25.811  1.00  0.00     0.059 A 
ATOM     76  F   UNL A   1      42.800  24.552  25.479  1.00  0.00    -0.206 F 
ATOM     77  C   UNL A   1      42.377  21.172  26.687  1.00  0.00     0.060 A 
BRANCH  77  78
ATOM     78  S   UNL A   1      42.184  19.493  26.050  1.00  0.00     0.124 S 
ATOM     79  O   UNL A   1      42.543  18.692  27.214  1.00  0.00    -0.237 OA
ATOM     80  O   UNL A   1      40.774  19.472  25.669  1.00  0.00    -0.237 OA
ATOM     81  O   UNL A   1      43.126  19.447  24.936  1.00  0.00    -0.744 OA
ENDBRANCH  77  78
ENDBRANCH  45  70
BRANCH  57  82
ATOM     82  C   UNL A   1      47.844  27.137  30.904  1.00  0.00     0.058 A 
ATOM     83  C   UNL A   1      48.105  26.547  32.150  1.00  0.00     0.135 A 
ATOM     84  C   UNL A   1      48.923  27.296  30.017  1.00  0.00     0.135 A 
ATOM     85  F   UNL A   1      47.113  26.373  33.037  1.00  0.00    -0.206 F 
ATOM     86  C   UNL A   1      49.392  26.168  32.521  1.00  0.00     0.059 A 
ATOM     87  C   UNL A   1      50.211  26.892  30.352  1.00  0.00     0.059 A 
ATOM     88  F   UNL A   1      48.729  27.840  28.805  1.00  0.00    -0.206 F 
ATOM     89  C   UNL A   1      50.439  26.346  31.614  1.00  0.00     0.060 A 
BRANCH  89  90
ATOM     90  S   UNL A   1      52.102  25.844  32.102  1.00  0.00     0.124 S 
ATOM     91  O   UNL A   1      52.821  25.938  30.836  1.00  0.00    -0.237 OA
ATOM     92  O   UNL A   1      52.449  26.845  33.105  1.00  0.00    -0.237 OA
ATOM     93  O   UNL A   1      51.912  24.490  32.616  1.00  0.00    -0.744 OA
ENDBRANCH  89  90
ENDBRANCH  57  82
ENDBRANCH  31  32
ENDBRANCH  23  26
ENDBRANCH  21  22
ENDBRANCH   1  21
TORSDOF 16
ENDMDL
MODEL 2
REMARK VINA RESULT:      -9.5      0.944      8.509
REMARK SMILES COc1cc([C@H]2C[C@@H](C(=O)NCCCCNC(=O)c3ccc(-c4c5nc(c(-c6c(F)cc(S(=O)(=O)[O-])cc6F)c6ccc([nH]6)c(-c6c(F)cc(S(=O)(=O)[O-])cc6F)c6nc(c(-c7c(F)cc(S(=O)(=O)[O-])cc7F)c7ccc4[nH]7)C=C6)C=C5)cc3)C2)ccc1Br
REMARK SMILES IDX 14 1 13 2 12 3 11 4 9 5 10 6 8 8 6 9 7 10 85 11 5 12 3 13
REMARK SMILES IDX 4 14 88 15 87 16 89 17 86 18 2 19 1 20 15 21 16 22 17 23
REMARK SMILES IDX 18 25 19 26 20 27 84 28 21 29 83 30 22 31 23 32 24 33 77 34
REMARK SMILES IDX 25 35 82 36 76 37 78 38 26 39 81 40 75 41 74 42 27 44 61 45
REMARK SMILES IDX 40 46 60 47 41 48 44 49 59 50 79 51 42 52 43 53 58 55 80 56
REMARK SMILES IDX 45 57 28 58 29 59 38 60 30 61 31 62 37 63 39 64 32 65 33 66
REMARK SMILES IDX 34 67 35 68 36 69 62 70 63 71 72 72 64 73 65 74 71 75 73 76
REMARK SMILES IDX 66 77 67 78 68 79 69 80 70 81 46 82 47 83 56 84 48 85 49 86
REMARK SMILES IDX 55 87 57 88 50 89 51 90 52 91 53 92 54 93
REMARK H PARENT 11 7 16 24 78 43 44 54
REMARK Flexibility Score: inf
ROOT
ATOM      1  C   UNL A   1      33.527  33.627  28.027  1.00  0.00     0.023 C 
ENDROOT
BRANCH   1   2
ATOM      2  C   UNL A   1      33.816  34.928  28.771  1.00  0.00     0.023 C 
BRANCH   2   3
ATOM      3  C   UNL A   1      33.067  35.079  30.090  1.00  0.00     0.116 C 
BRANCH   3   4
ATOM      4  N   UNL A   1      33.847  35.734  31.111  1.00  0.00    -0.356 N 
ATOM      5  C   UNL A   1      34.563  35.196  32.155  1.00  0.00     0.223 C 
ATOM      6  O   UNL A   1      35.162  36.011  32.873  1.00  0.00    -0.275 OA
ATOM      7  H   UNL A   1      33.870  36.716  31.053  1.00  0.00     0.163 HD
BRANCH   5   8
ATOM      8  C   UNL A   1      34.635  33.676  32.415  1.00  0.00     0.079 C 
ATOM      9  C   UNL A   1      35.835  31.916  32.848  1.00  0.00     0.021 C 
ATOM     10  C   UNL A   1      35.320  33.118  33.685  1.00  0.00     0.022 C 
ATOM     11  C   UNL A   1      35.530  32.744  31.566  1.00  0.00     0.022 C 
BRANCH   9  12
ATOM     12  C   UNL A   1      37.323  31.361  33.059  1.00  0.00    -0.041 A 
ATOM     13  C   UNL A   1      39.690  31.760  33.633  1.00  0.00     0.133 A 
ATOM     14  C   UNL A   1      38.384  32.225  33.402  1.00  0.00     0.051 A 
ATOM     15  C   UNL A   1      39.961  30.395  33.598  1.00  0.00     0.060 A 
ATOM     16  C   UNL A   1      38.952  29.515  33.227  1.00  0.00     0.020 A 
ATOM     17  Br  UNL A   1      41.640  29.661  34.085  1.00  0.00    -0.047 Br
ATOM     18  C   UNL A   1      37.671  30.000  32.942  1.00  0.00     0.005 A 
BRANCH  13  19
ATOM     19  O   UNL A   1      40.634  32.702  33.953  1.00  0.00    -0.496 OA
ATOM     20  C   UNL A   1      40.043  34.001  34.035  1.00  0.00     0.278 C 
ENDBRANCH  13  19
ENDBRANCH   9  12
ENDBRANCH   5   8
ENDBRANCH   3   4
ENDBRANCH   2   3
ENDBRANCH   1   2
BRANCH   1  21
ATOM     21  C   UNL A   1      34.385  32.439  28.446  1.00  0.00     0.116 C 
BRANCH  21  22
ATOM     22  N   UNL A   1      33.782  31.155  28.122  1.00  0.00    -0.352 N 
ATOM     23  C   UNL A   1      34.388  29.937  27.941  1.00  0.00     0.251 C 
ATOM     24  H   UNL A   1      32.802  31.162  28.017  1.00  0.00     0.163 HD
ATOM     25  O   UNL A   1      33.727  28.983  27.534  1.00  0.00    -0.269 OA
BRANCH  23  26
ATOM     26  C   UNL A   1      35.835  29.782  28.207  1.00  0.00     0.039 A 
ATOM     27  C   UNL A   1      36.249  29.361  29.472  1.00  0.00     0.014 A 
ATOM     28  C   UNL A   1      36.783  30.046  27.213  1.00  0.00     0.014 A 
ATOM     29  C   UNL A   1      37.609  29.162  29.725  1.00  0.00     0.010 A 
ATOM     30  C   UNL A   1      38.126  29.759  27.438  1.00  0.00     0.010 A 
ATOM     31  C   UNL A   1      38.558  29.334  28.702  1.00  0.00    -0.014 A 
BRANCH  31  32
ATOM     32  C   UNL A   1      40.004  29.103  28.954  1.00  0.00     0.031 A 
ATOM     33  C   UNL A   1      40.632  27.781  28.597  1.00  0.00     0.074 A 
ATOM     34  C   UNL A   1      40.745  30.067  29.537  1.00  0.00     0.049 A 
ATOM     35  N   UNL A   1      41.872  27.390  28.740  1.00  0.00    -0.248 NA
ATOM     36  C   UNL A   1      39.745  26.752  28.029  1.00  0.00     0.031 C 
ATOM     37  C   UNL A   1      40.241  31.370  29.980  1.00  0.00     0.029 A 
ATOM     38  N   UNL A   1      42.080  30.104  29.855  1.00  0.00    -0.354 N 
ATOM     39  C   UNL A   1      41.910  26.071  28.297  1.00  0.00     0.074 A 
ATOM     40  C   UNL A   1      40.557  25.709  27.939  1.00  0.00     0.031 C 
ATOM     41  C   UNL A   1      41.262  32.092  30.473  1.00  0.00     0.029 A 
ATOM     42  C   UNL A   1      42.482  31.294  30.416  1.00  0.00     0.049 A 
ATOM     43  H   UNL A   1      42.691  29.350  29.696  1.00  0.00     0.167 HD
ATOM     44  C   UNL A   1      42.977  25.246  28.174  1.00  0.00     0.037 A 
ATOM     45  C   UNL A   1      43.698  31.697  30.834  1.00  0.00     0.037 A 
ATOM     46  C   UNL A   1      44.325  25.624  28.507  1.00  0.00     0.049 A 
ATOM     47  C   UNL A   1      44.871  30.763  30.680  1.00  0.00     0.074 A 
ATOM     48  C   UNL A   1      45.487  24.887  28.354  1.00  0.00     0.029 A 
ATOM     49  N   UNL A   1      44.694  26.841  29.063  1.00  0.00    -0.354 N 
ATOM     50  N   UNL A   1      44.901  29.549  30.185  1.00  0.00    -0.248 NA
ATOM     51  C   UNL A   1      46.177  31.262  31.130  1.00  0.00     0.031 C 
ATOM     52  C   UNL A   1      46.549  25.636  28.873  1.00  0.00     0.029 A 
ATOM     53  C   UNL A   1      46.062  26.864  29.286  1.00  0.00     0.049 A 
ATOM     54  H   UNL A   1      44.076  27.577  29.270  1.00  0.00     0.167 HD
ATOM     55  C   UNL A   1      46.234  29.152  30.230  1.00  0.00     0.074 A 
ATOM     56  C   UNL A   1      46.977  30.262  30.789  1.00  0.00     0.031 C 
ATOM     57  C   UNL A   1      46.791  27.980  29.837  1.00  0.00     0.037 A 
BRANCH  44  58
ATOM     58  C   UNL A   1      42.728  23.853  27.660  1.00  0.00     0.058 A 
ATOM     59  C   UNL A   1      42.662  23.566  26.287  1.00  0.00     0.135 A 
ATOM     60  C   UNL A   1      42.581  22.780  28.556  1.00  0.00     0.135 A 
ATOM     61  F   UNL A   1      42.780  24.553  25.384  1.00  0.00    -0.206 F 
ATOM     62  C   UNL A   1      42.426  22.276  25.820  1.00  0.00     0.059 A 
ATOM     63  C   UNL A   1      42.376  21.476  28.111  1.00  0.00     0.059 A 
ATOM     64  F   UNL A   1      42.634  22.993  29.880  1.00  0.00    -0.206 F 
ATOM     65  C   UNL A   1      42.284  21.238  26.741  1.00  0.00     0.060 A 
BRANCH  65  66
ATOM     66  S   UNL A   1      41.977  19.571  26.120  1.00  0.00     0.124 S 
ATOM     67  O   UNL A   1      42.895  19.509  24.987  1.00  0.00    -0.237 OA
ATOM     68  O   UNL A   1      42.330  18.741  27.268  1.00  0.00    -0.237 OA
ATOM     69  O   UNL A   1      40.558  19.591  25.777  1.00  0.00    -0.744 OA
ENDBRANCH  65  66
ENDBRANCH  44  58
BRANCH  45  70
ATOM     70  C   UNL A   1      43.881  33.063  31.397  1.00  0.00     0.058 A 
ATOM     71  C   UNL A   1      44.072  34.170  30.557  1.00  0.00     0.135 A 
ATOM     72  C   UNL A   1      43.863  33.291  32.782  1.00  0.00     0.135 A 
ATOM     73  F   UNL A   1      44.104  34.004  29.226  1.00  0.00    -0.206 F 
ATOM     74  C   UNL A   1      44.262  35.450  31.067  1.00  0.00     0.059 A 
ATOM     75  C   UNL A   1      44.021  34.567  33.315  1.00  0.00     0.059 A 
ATOM     76  F   UNL A   1      43.665  32.269  33.629  1.00  0.00    -0.206 F 
ATOM     77  C   UNL A   1      44.232  35.638  32.449  1.00  0.00     0.060 A 
BRANCH  77  78
ATOM     78  S   UNL A   1      44.437  37.311  33.099  1.00  0.00     0.124 S 
ATOM     79  O   UNL A   1      44.495  38.098  31.872  1.00  0.00    -0.237 OA
ATOM     80  O   UNL A   1      43.232  37.474  33.906  1.00  0.00    -0.237 OA
ATOM     81  O   UNL A   1      45.682  37.227  33.856  1.00  0.00    -0.744 OA
ENDBRANCH  77  78
ENDBRANCH  45  70
BRANCH  57  82
ATOM     82  C   UNL A   1      48.287  27.853  29.953  1.00  0.00     0.058 A 
ATOM     83  C   UNL A   1      48.902  27.251  31.061  1.00  0.00     0.135 A 
ATOM     84  C   UNL A   1      49.117  28.317  28.917  1.00  0.00     0.135 A 
ATOM     85  F   UNL A   1      48.158  26.793  32.081  1.00  0.00    -0.206 F 
ATOM     86  C   UNL A   1      50.286  27.150  31.160  1.00  0.00     0.059 A 
ATOM     87  C   UNL A   1      50.501  28.194  28.978  1.00  0.00     0.059 A 
ATOM     88  F   UNL A   1      48.582  28.887  27.826  1.00  0.00    -0.206 F 
ATOM     89  C   UNL A   1      51.078  27.627  30.113  1.00  0.00     0.060 A 
BRANCH  89  90
ATOM     90  S   UNL A   1      52.871  27.483  30.248  1.00  0.00     0.124 S 
ATOM     91  O   UNL A   1      53.121  26.236  29.533  1.00  0.00    -0.237 OA
ATOM     92  O   UNL A   1      53.333  28.698  29.585  1.00  0.00    -0.237 OA
ATOM     93  O   UNL A   1      53.101  27.437  31.690  1.00  0.00    -0.744 OA
ENDBRANCH  89  90
ENDBRANCH  57  82
ENDBRANCH  31  32
ENDBRANCH  23  26
ENDBRANCH  21  22
ENDBRANCH   1  21
TORSDOF 16
ENDMDL
MODEL 3
REMARK VINA RESULT:      -9.3      5.342     11.916
REMARK SMILES COc1cc([C@H]2C[C@@H](C(=O)NCCCCNC(=O)c3ccc(-c4c5nc(c(-c6c(F)cc(S(=O)(=O)[O-])cc6F)c6ccc([nH]6)c(-c6c(F)cc(S(=O)(=O)[O-])cc6F)c6nc(c(-c7c(F)cc(S(=O)(=O)[O-])cc7F)c7ccc4[nH]7)C=C6)C=C5)cc3)C2)ccc1Br
REMARK SMILES IDX 14 1 13 2 12 3 11 4 9 5 10 6 8 8 6 9 7 10 85 11 5 12 3 13
REMARK SMILES IDX 4 14 88 15 87 16 89 17 86 18 2 19 1 20 15 21 16 22 17 23
REMARK SMILES IDX 18 25 19 26 20 27 84 28 21 29 83 30 22 31 23 32 24 33 77 34
REMARK SMILES IDX 25 35 82 36 76 37 78 38 26 39 81 40 75 41 74 42 27 44 61 45
REMARK SMILES IDX 40 46 60 47 41 48 44 49 59 50 79 51 42 52 43 53 58 55 80 56
REMARK SMILES IDX 45 57 28 58 29 59 38 60 30 61 31 62 37 63 39 64 32 65 33 66
REMARK SMILES IDX 34 67 35 68 36 69 62 70 63 71 72 72 64 73 65 74 71 75 73 76
REMARK SMILES IDX 66 77 67 78 68 79 69 80 70 81 46 82 47 83 56 84 48 85 49 86
REMARK SMILES IDX 55 87 57 88 50 89 51 90 52 91 53 92 54 93
REMARK H PARENT 11 7 16 24 78 43 44 54
REMARK Flexibility Score: inf
ROOT
ATOM      1  C   UNL A   1      42.418  22.173  27.832  1.00  0.00     0.023 C 
ENDROOT
BRANCH   1   2
ATOM      2  C   UNL A   1      41.841  21.375  26.665  1.00  0.00     0.023 C 
BRANCH   2   3
ATOM      3  C   UNL A   1      40.318  21.316  26.635  1.00  0.00     0.116 C 
BRANCH   3   4
ATOM      4  N   UNL A   1      39.700  22.613  26.754  1.00  0.00    -0.356 N 
ATOM      5  C   UNL A   1      38.514  23.076  26.232  1.00  0.00     0.223 C 
ATOM      6  O   UNL A   1      38.220  24.246  26.521  1.00  0.00    -0.275 OA
ATOM      7  H   UNL A   1      40.202  23.267  27.291  1.00  0.00     0.163 HD
BRANCH   5   8
ATOM      8  C   UNL A   1      37.595  22.199  25.354  1.00  0.00     0.079 C 
ATOM      9  C   UNL A   1      35.707  21.948  24.307  1.00  0.00     0.021 C 
ATOM     10  C   UNL A   1      37.013  22.739  24.026  1.00  0.00     0.022 C 
ATOM     11  C   UNL A   1      36.160  21.829  25.791  1.00  0.00     0.022 C 
BRANCH   9  12
ATOM     12  C   UNL A   1      34.280  22.607  23.998  1.00  0.00    -0.041 A 
ATOM     13  C   UNL A   1      31.961  23.100  24.685  1.00  0.00     0.133 A 
ATOM     14  C   UNL A   1      33.211  22.498  24.911  1.00  0.00     0.051 A 
ATOM     15  C   UNL A   1      31.765  23.898  23.560  1.00  0.00     0.060 A 
ATOM     16  C   UNL A   1      32.781  24.000  22.619  1.00  0.00     0.020 A 
ATOM     17  Br  UNL A   1      30.185  24.905  23.269  1.00  0.00    -0.047 Br
ATOM     18  C   UNL A   1      33.999  23.344  22.830  1.00  0.00     0.005 A 
BRANCH  13  19
ATOM     19  O   UNL A   1      31.001  22.913  25.646  1.00  0.00    -0.496 OA
ATOM     20  C   UNL A   1      31.564  23.045  26.953  1.00  0.00     0.278 C 
ENDBRANCH  13  19
ENDBRANCH   9  12
ENDBRANCH   5   8
ENDBRANCH   3   4
ENDBRANCH   2   3
ENDBRANCH   1   2
BRANCH   1  21
ATOM     21  C   UNL A   1      43.314  23.340  27.435  1.00  0.00     0.116 C 
BRANCH  21  22
ATOM     22  N   UNL A   1      42.871  24.017  26.226  1.00  0.00    -0.352 N 
ATOM     23  C   UNL A   1      42.200  25.208  26.099  1.00  0.00     0.251 C 
ATOM     24  H   UNL A   1      43.082  23.555  25.381  1.00  0.00     0.163 HD
ATOM     25  O   UNL A   1      41.786  25.557  24.995  1.00  0.00    -0.269 OA
BRANCH  23  26
ATOM     26  C   UNL A   1      41.954  26.051  27.289  1.00  0.00     0.039 A 
ATOM     27  C   UNL A   1      42.785  27.148  27.524  1.00  0.00     0.014 A 
ATOM     28  C   UNL A   1      40.905  25.766  28.169  1.00  0.00     0.014 A 
ATOM     29  C   UNL A   1      42.535  27.983  28.617  1.00  0.00     0.010 A 
ATOM     30  C   UNL A   1      40.603  26.650  29.201  1.00  0.00     0.010 A 
ATOM     31  C   UNL A   1      41.426  27.757  29.450  1.00  0.00    -0.014 A 
BRANCH  31  32
ATOM     32  C   UNL A   1      41.138  28.653  30.601  1.00  0.00     0.031 A 
ATOM     33  C   UNL A   1      41.956  28.549  31.862  1.00  0.00     0.074 A 
ATOM     34  C   UNL A   1      40.120  29.533  30.527  1.00  0.00     0.049 A 
ATOM     35  N   UNL A   1      41.859  29.238  32.969  1.00  0.00    -0.248 NA
ATOM     36  C   UNL A   1      43.006  27.516  31.894  1.00  0.00     0.031 C 
ATOM     37  C   UNL A   1      39.219  29.691  29.382  1.00  0.00     0.029 A 
ATOM     38  N   UNL A   1      39.671  30.463  31.431  1.00  0.00    -0.354 N 
ATOM     39  C   UNL A   1      42.818  28.714  33.830  1.00  0.00     0.074 A 
ATOM     40  C   UNL A   1      43.444  27.609  33.140  1.00  0.00     0.031 C 
ATOM     41  C   UNL A   1      38.354  30.687  29.636  1.00  0.00     0.029 A 
ATOM     42  C   UNL A   1      38.613  31.213  30.973  1.00  0.00     0.049 A 
ATOM     43  H   UNL A   1      40.070  30.582  32.322  1.00  0.00     0.167 HD
ATOM     44  C   UNL A   1      43.164  29.132  35.072  1.00  0.00     0.037 A 
ATOM     45  C   UNL A   1      37.931  32.215  31.563  1.00  0.00     0.037 A 
ATOM     46  C   UNL A   1      42.554  30.251  35.740  1.00  0.00     0.049 A 
ATOM     47  C   UNL A   1      38.340  32.666  32.941  1.00  0.00     0.074 A 
ATOM     48  C   UNL A   1      42.878  30.799  36.969  1.00  0.00     0.029 A 
ATOM     49  N   UNL A   1      41.492  30.992  35.241  1.00  0.00    -0.354 N 
ATOM     50  N   UNL A   1      39.301  32.210  33.708  1.00  0.00    -0.248 NA
ATOM     51  C   UNL A   1      37.577  33.776  33.526  1.00  0.00     0.031 C 
ATOM     52  C   UNL A   1      41.975  31.833  37.238  1.00  0.00     0.029 A 
ATOM     53  C   UNL A   1      41.131  31.974  36.149  1.00  0.00     0.049 A 
ATOM     54  H   UNL A   1      41.059  30.841  34.370  1.00  0.00     0.167 HD
ATOM     55  C   UNL A   1      39.283  33.003  34.851  1.00  0.00     0.074 A 
ATOM     56  C   UNL A   1      38.223  33.972  34.667  1.00  0.00     0.031 C 
ATOM     57  C   UNL A   1      40.077  32.938  35.950  1.00  0.00     0.037 A 
BRANCH  44  58
ATOM     58  C   UNL A   1      44.250  28.373  35.787  1.00  0.00     0.058 A 
ATOM     59  C   UNL A   1      45.608  28.701  35.640  1.00  0.00     0.135 A 
ATOM     60  C   UNL A   1      43.926  27.319  36.657  1.00  0.00     0.135 A 
ATOM     61  F   UNL A   1      45.980  29.689  34.810  1.00  0.00    -0.206 F 
ATOM     62  C   UNL A   1      46.607  27.991  36.300  1.00  0.00     0.059 A 
ATOM     63  C   UNL A   1      44.906  26.616  37.354  1.00  0.00     0.059 A 
ATOM     64  F   UNL A   1      42.645  26.960  36.838  1.00  0.00    -0.206 F 
ATOM     65  C   UNL A   1      46.245  26.949  37.155  1.00  0.00     0.060 A 
BRANCH  65  66
ATOM     66  S   UNL A   1      47.552  26.037  38.003  1.00  0.00     0.124 S 
ATOM     67  O   UNL A   1      48.608  27.042  38.075  1.00  0.00    -0.237 OA
ATOM     68  O   UNL A   1      46.918  25.693  39.272  1.00  0.00    -0.237 OA
ATOM     69  O   UNL A   1      47.816  24.912  37.112  1.00  0.00    -0.744 OA
ENDBRANCH  65  66
ENDBRANCH  44  58
BRANCH  45  70
ATOM     70  C   UNL A   1      36.820  32.891  30.838  1.00  0.00     0.058 A 
ATOM     71  C   UNL A   1      35.481  32.571  31.110  1.00  0.00     0.135 A 
ATOM     72  C   UNL A   1      37.071  33.871  29.864  1.00  0.00     0.135 A 
ATOM     73  F   UNL A   1      35.188  31.636  32.027  1.00  0.00    -0.206 F 
ATOM     74  C   UNL A   1      34.432  33.179  30.430  1.00  0.00     0.059 A 
ATOM     75  C   UNL A   1      36.037  34.515  29.191  1.00  0.00     0.059 A 
ATOM     76  F   UNL A   1      38.333  34.227  29.579  1.00  0.00    -0.206 F 
ATOM     77  C   UNL A   1      34.720  34.153  29.473  1.00  0.00     0.060 A 
BRANCH  77  78
ATOM     78  S   UNL A   1      33.348  34.967  28.626  1.00  0.00     0.124 S 
ATOM     79  O   UNL A   1      32.559  35.459  29.749  1.00  0.00    -0.237 OA
ATOM     80  O   UNL A   1      34.038  35.982  27.835  1.00  0.00    -0.237 OA
ATOM     81  O   UNL A   1      32.743  33.887  27.852  1.00  0.00    -0.744 OA
ENDBRANCH  77  78
ENDBRANCH  45  70
BRANCH  57  82
ATOM     82  C   UNL A   1      39.862  33.975  37.019  1.00  0.00     0.058 A 
ATOM     83  C   UNL A   1      39.099  33.716  38.169  1.00  0.00     0.135 A 
ATOM     84  C   UNL A   1      40.459  35.243  36.904  1.00  0.00     0.135 A 
ATOM     85  F   UNL A   1      38.505  32.523  38.330  1.00  0.00    -0.206 F 
ATOM     86  C   UNL A   1      38.900  34.688  39.144  1.00  0.00     0.059 A 
ATOM     87  C   UNL A   1      40.302  36.218  37.884  1.00  0.00     0.059 A 
ATOM     88  F   UNL A   1      41.212  35.542  35.833  1.00  0.00    -0.206 F 
ATOM     89  C   UNL A   1      39.505  35.937  38.991  1.00  0.00     0.060 A 
BRANCH  89  90
ATOM     90  S   UNL A   1      39.246  37.187  40.267  1.00  0.00     0.124 S 
ATOM     91  O   UNL A   1      38.533  38.221  39.525  1.00  0.00    -0.237 OA
ATOM     92  O   UNL A   1      38.460  36.462  41.260  1.00  0.00    -0.237 OA
ATOM     93  O   UNL A   1      40.602  37.534  40.683  1.00  0.00    -0.744 OA
ENDBRANCH  89  90
ENDBRANCH  57  82
ENDBRANCH  31  32
ENDBRANCH  23  26
ENDBRANCH  21  22
ENDBRANCH   1  21
TORSDOF 16
ENDMDL
