MODEL 1
REMARK VINA RESULT:     -12.5      0.000      0.000
REMARK SMILES O=C(NCCCCNC(=O)[C@@H]1CC2(CC[NH2+]CC2)C[N@@H+]1Cc1cccc2nonc12)c1ccc(-c2c3nc(c(-c4c(F)cc(S(=O)(=O)[O-])cc4F)c4ccc([nH]4)c(-c4c(F)cc(S(=O)(=O)[O-])cc4F)c4nc(c(-c5c(F)cc(S(=O)(=O)[O-])cc5F)c5ccc2[nH]5)C=C4)C=C3)cc1
REMARK SMILES IDX 5 1 4 2 3 3 1 4 2 5 31 7 32 8 96 9 33 10 95 11 34 12 35 13
REMARK SMILES IDX 36 14 89 15 37 16 94 17 88 18 90 19 38 20 93 21 87 22 86 23
REMARK SMILES IDX 39 25 73 26 52 27 72 28 53 29 56 30 71 31 91 32 54 33 55 34
REMARK SMILES IDX 70 36 92 37 57 38 40 39 41 40 50 41 42 42 43 43 49 44 51 45
REMARK SMILES IDX 44 46 45 47 46 48 47 49 48 50 74 51 75 52 84 53 76 54 77 55
REMARK SMILES IDX 83 56 85 57 78 58 79 59 80 60 81 61 82 62 58 63 59 64 68 65
REMARK SMILES IDX 60 66 61 67 67 68 69 69 62 70 63 71 64 72 65 73 66 74 6 75
REMARK SMILES IDX 7 76 8 77 9 78 10 80 11 81 12 82 20 83 13 84 19 85 14 87
REMARK SMILES IDX 18 88 15 89 17 90 16 91 21 94 22 95 23 96 30 97 24 98 26 99
REMARK SMILES IDX 29 100 25 101 27 102 28 103
REMARK H PARENT 3 6 90 24 56 35 8 79 20 86 16 92 16 93
REMARK Flexibility Score: inf
ROOT
ATOM      1  C   UNL A   1      37.754  21.428  25.322  1.00  0.00     0.023 C 
ENDROOT
BRANCH   1   2
ATOM      2  C   UNL A   1      38.773  22.331  26.033  1.00  0.00     0.116 C 
BRANCH   2   3
ATOM      3  N   UNL A   1      39.666  21.523  26.841  1.00  0.00    -0.352 N 
ATOM      4  O   UNL A   1      41.613  20.717  27.527  1.00  0.00    -0.269 OA
ATOM      5  C   UNL A   1      40.959  21.718  27.231  1.00  0.00     0.251 C 
ATOM      6  H   UNL A   1      39.268  20.684  27.166  1.00  0.00     0.163 HD
BRANCH   5   7
ATOM      7  C   UNL A   1      41.584  23.057  27.355  1.00  0.00     0.039 A 
ATOM      8  C   UNL A   1      41.042  23.917  28.321  1.00  0.00     0.014 A 
ATOM      9  C   UNL A   1      42.526  23.550  26.447  1.00  0.00     0.014 A 
ATOM     10  C   UNL A   1      41.419  25.259  28.371  1.00  0.00     0.010 A 
ATOM     11  C   UNL A   1      42.908  24.899  26.502  1.00  0.00     0.010 A 
ATOM     12  C   UNL A   1      42.350  25.762  27.456  1.00  0.00    -0.014 A 
BRANCH  12  13
ATOM     13  C   UNL A   1      42.734  27.186  27.579  1.00  0.00     0.031 A 
ATOM     14  C   UNL A   1      41.612  28.164  27.492  1.00  0.00     0.074 A 
ATOM     15  C   UNL A   1      43.872  27.567  28.203  1.00  0.00     0.049 A 
ATOM     16  N   UNL A   1      40.822  28.398  28.498  1.00  0.00    -0.248 NA
ATOM     17  C   UNL A   1      41.155  28.755  26.236  1.00  0.00     0.031 C 
ATOM     18  C   UNL A   1      44.502  26.786  29.277  1.00  0.00     0.029 A 
ATOM     19  N   UNL A   1      44.560  28.761  28.210  1.00  0.00    -0.354 N 
ATOM     20  C   UNL A   1      39.753  29.133  28.026  1.00  0.00     0.074 A 
ATOM     21  C   UNL A   1      40.005  29.339  26.616  1.00  0.00     0.031 C 
ATOM     22  C   UNL A   1      45.357  27.583  29.949  1.00  0.00     0.029 A 
ATOM     23  C   UNL A   1      45.463  28.875  29.271  1.00  0.00     0.049 A 
ATOM     24  H   UNL A   1      44.428  29.464  27.534  1.00  0.00     0.167 HD
ATOM     25  C   UNL A   1      38.729  29.526  28.828  1.00  0.00     0.037 A 
ATOM     26  C   UNL A   1      45.782  30.033  29.916  1.00  0.00     0.037 A 
ATOM     27  C   UNL A   1      38.848  29.142  30.204  1.00  0.00     0.049 A 
ATOM     28  C   UNL A   1      44.462  30.395  30.549  1.00  0.00     0.074 A 
ATOM     29  C   UNL A   1      38.438  28.095  31.001  1.00  0.00     0.029 A 
ATOM     30  N   UNL A   1      39.636  29.919  31.021  1.00  0.00    -0.354 N 
ATOM     31  N   UNL A   1      43.965  29.874  31.640  1.00  0.00    -0.248 NA
ATOM     32  C   UNL A   1      43.496  31.122  29.723  1.00  0.00     0.031 C 
ATOM     33  C   UNL A   1      39.369  28.058  32.086  1.00  0.00     0.029 A 
ATOM     34  C   UNL A   1      40.309  29.060  31.854  1.00  0.00     0.049 A 
ATOM     35  H   UNL A   1      39.703  30.901  31.011  1.00  0.00     0.167 HD
ATOM     36  C   UNL A   1      42.579  29.972  31.497  1.00  0.00     0.074 A 
ATOM     37  C   UNL A   1      42.360  30.761  30.303  1.00  0.00     0.031 C 
ATOM     38  C   UNL A   1      41.685  29.265  32.247  1.00  0.00     0.037 A 
BRANCH  25  39
ATOM     39  C   UNL A   1      37.632  30.428  28.427  1.00  0.00     0.058 A 
ATOM     40  C   UNL A   1      37.757  31.791  28.731  1.00  0.00     0.135 A 
ATOM     41  C   UNL A   1      36.391  29.956  27.987  1.00  0.00     0.135 A 
ATOM     42  F   UNL A   1      38.932  32.274  29.172  1.00  0.00    -0.206 F 
ATOM     43  C   UNL A   1      36.675  32.654  28.659  1.00  0.00     0.059 A 
ATOM     44  C   UNL A   1      35.290  30.806  27.900  1.00  0.00     0.059 A 
ATOM     45  F   UNL A   1      36.226  28.657  27.694  1.00  0.00    -0.206 F 
ATOM     46  C   UNL A   1      35.437  32.146  28.264  1.00  0.00     0.060 A 
BRANCH  46  47
ATOM     47  S   UNL A   1      34.018  33.264  28.295  1.00  0.00     0.124 S 
ATOM     48  O   UNL A   1      32.999  32.474  27.611  1.00  0.00    -0.237 OA
ATOM     49  O   UNL A   1      33.820  33.456  29.728  1.00  0.00    -0.237 OA
ATOM     50  O   UNL A   1      34.493  34.437  27.569  1.00  0.00    -0.744 OA
ENDBRANCH  46  47
ENDBRANCH  25  39
BRANCH  26  51
ATOM     51  C   UNL A   1      46.623  31.014  29.152  1.00  0.00     0.058 A 
ATOM     52  C   UNL A   1      47.425  30.542  28.092  1.00  0.00     0.135 A 
ATOM     53  C   UNL A   1      46.703  32.394  29.410  1.00  0.00     0.135 A 
ATOM     54  F   UNL A   1      47.529  29.224  27.855  1.00  0.00    -0.206 F 
ATOM     55  C   UNL A   1      48.128  31.396  27.244  1.00  0.00     0.059 A 
ATOM     56  C   UNL A   1      47.378  33.275  28.561  1.00  0.00     0.059 A 
ATOM     57  F   UNL A   1      46.111  32.932  30.485  1.00  0.00    -0.206 F 
ATOM     58  C   UNL A   1      48.059  32.768  27.459  1.00  0.00     0.060 A 
BRANCH  58  59
ATOM     59  S   UNL A   1      48.811  33.873  26.246  1.00  0.00     0.124 S 
ATOM     60  O   UNL A   1      47.672  34.207  25.394  1.00  0.00    -0.237 OA
ATOM     61  O   UNL A   1      49.304  34.955  27.096  1.00  0.00    -0.237 OA
ATOM     62  O   UNL A   1      49.840  33.052  25.628  1.00  0.00    -0.744 OA
ENDBRANCH  58  59
ENDBRANCH  26  51
BRANCH  38  63
ATOM     63  C   UNL A   1      42.237  28.505  33.405  1.00  0.00     0.058 A 
ATOM     64  C   UNL A   1      42.066  28.991  34.707  1.00  0.00     0.135 A 
ATOM     65  C   UNL A   1      42.835  27.244  33.247  1.00  0.00     0.135 A 
ATOM     66  F   UNL A   1      41.494  30.189  34.914  1.00  0.00    -0.206 F 
ATOM     67  C   UNL A   1      42.420  28.230  35.817  1.00  0.00     0.059 A 
ATOM     68  C   UNL A   1      43.178  26.457  34.344  1.00  0.00     0.059 A 
ATOM     69  F   UNL A   1      43.041  26.732  32.021  1.00  0.00    -0.206 F 
ATOM     70  C   UNL A   1      42.951  26.953  35.626  1.00  0.00     0.060 A 
BRANCH  70  71
ATOM     71  S   UNL A   1      43.245  25.919  37.076  1.00  0.00     0.124 S 
ATOM     72  O   UNL A   1      44.348  25.073  36.632  1.00  0.00    -0.237 OA
ATOM     73  O   UNL A   1      43.579  26.907  38.098  1.00  0.00    -0.237 OA
ATOM     74  O   UNL A   1      41.971  25.233  37.274  1.00  0.00    -0.744 OA
ENDBRANCH  70  71
ENDBRANCH  38  63
ENDBRANCH  12  13
ENDBRANCH   5   7
ENDBRANCH   2   3
ENDBRANCH   1   2
BRANCH   1  75
ATOM     75  C   UNL A   1      36.278  21.864  25.445  1.00  0.00     0.023 C 
BRANCH  75  76
ATOM     76  C   UNL A   1      36.065  23.288  25.972  1.00  0.00     0.116 C 
BRANCH  76  77
ATOM     77  N   UNL A   1      34.677  23.464  26.335  1.00  0.00    -0.351 N 
ATOM     78  C   UNL A   1      33.760  24.269  25.727  1.00  0.00     0.278 C 
ATOM     79  H   UNL A   1      34.358  22.943  27.108  1.00  0.00     0.163 HD
ATOM     80  O   UNL A   1      32.990  24.875  26.472  1.00  0.00    -0.268 OA
BRANCH  78  81
ATOM     81  C   UNL A   1      33.716  24.334  24.186  1.00  0.00     0.275 C 
ATOM     82  C   UNL A   1      34.216  25.686  23.678  1.00  0.00     0.089 C 
ATOM     83  N   UNL A   1      32.371  24.244  23.610  1.00  0.00    -0.320 N 
ATOM     84  C   UNL A   1      32.954  26.544  23.412  1.00  0.00     0.036 C 
ATOM     85  C   UNL A   1      31.892  25.491  23.056  1.00  0.00     0.270 C 
ATOM     86  H   UNL A   1      32.538  23.614  22.825  1.00  0.00     0.349 HD
ATOM     87  C   UNL A   1      33.175  27.541  22.258  1.00  0.00     0.074 C 
ATOM     88  C   UNL A   1      32.502  27.382  24.634  1.00  0.00     0.074 C 
ATOM     89  C   UNL A   1      34.139  28.664  22.651  1.00  0.00     0.261 C 
ATOM     90  C   UNL A   1      33.492  28.493  24.976  1.00  0.00     0.261 C 
ATOM     91  N   UNL A   1      33.687  29.395  23.838  1.00  0.00    -0.346 N 
ATOM     92  H   UNL A   1      32.803  29.858  23.626  1.00  0.00     0.346 HD
ATOM     93  H   UNL A   1      34.401  30.079  24.086  1.00  0.00     0.346 HD
BRANCH  83  94
ATOM     94  C   UNL A   1      31.453  23.164  23.921  1.00  0.00     0.302 C 
BRANCH  94  95
ATOM     95  C   UNL A   1      31.954  21.798  23.552  1.00  0.00     0.038 A 
ATOM     96  C   UNL A   1      31.823  21.263  22.242  1.00  0.00     0.012 A 
ATOM     97  C   UNL A   1      32.448  20.857  24.488  1.00  0.00     0.144 A 
ATOM     98  C   UNL A   1      32.062  19.903  21.912  1.00  0.00     0.003 A 
ATOM     99  C   UNL A   1      32.687  19.460  24.148  1.00  0.00     0.135 A 
ATOM    100  N   UNL A   1      32.720  21.017  25.791  1.00  0.00    -0.049 NA
ATOM    101  C   UNL A   1      32.482  18.949  22.854  1.00  0.00     0.034 A 
ATOM    102  N   UNL A   1      33.079  18.819  25.255  1.00  0.00    -0.050 NA
ATOM    103  O   UNL A   1      33.116  19.775  26.253  1.00  0.00    -0.243 OA
ENDBRANCH  94  95
ENDBRANCH  83  94
ENDBRANCH  78  81
ENDBRANCH  76  77
ENDBRANCH  75  76
ENDBRANCH   1  75
TORSDOF 16
ENDMDL
MODEL 2
REMARK VINA RESULT:     -12.3      1.426      3.434
REMARK SMILES O=C(NCCCCNC(=O)[C@@H]1CC2(CC[NH2+]CC2)C[N@@H+]1Cc1cccc2nonc12)c1ccc(-c2c3nc(c(-c4c(F)cc(S(=O)(=O)[O-])cc4F)c4ccc([nH]4)c(-c4c(F)cc(S(=O)(=O)[O-])cc4F)c4nc(c(-c5c(F)cc(S(=O)(=O)[O-])cc5F)c5ccc2[nH]5)C=C4)C=C3)cc1
REMARK SMILES IDX 5 1 4 2 3 3 1 4 2 5 31 7 32 8 96 9 33 10 95 11 34 12 35 13
REMARK SMILES IDX 36 14 89 15 37 16 94 17 88 18 90 19 38 20 93 21 87 22 86 23
REMARK SMILES IDX 39 25 73 26 52 27 72 28 53 29 56 30 71 31 91 32 54 33 55 34
REMARK SMILES IDX 70 36 92 37 57 38 40 39 41 40 50 41 42 42 43 43 49 44 51 45
REMARK SMILES IDX 44 46 45 47 46 48 47 49 48 50 74 51 75 52 84 53 76 54 77 55
REMARK SMILES IDX 83 56 85 57 78 58 79 59 80 60 81 61 82 62 58 63 59 64 68 65
REMARK SMILES IDX 60 66 61 67 67 68 69 69 62 70 63 71 64 72 65 73 66 74 6 75
REMARK SMILES IDX 7 76 8 77 9 78 10 80 11 81 12 82 20 83 13 84 19 85 14 87
REMARK SMILES IDX 18 88 15 89 17 90 16 91 21 94 22 95 23 96 30 97 24 98 26 99
REMARK SMILES IDX 29 100 25 101 27 102 28 103
REMARK H PARENT 3 6 90 24 56 35 8 79 20 86 16 92 16 93
REMARK Flexibility Score: inf
ROOT
ATOM      1  C   UNL A   1      37.867  22.267  26.081  1.00  0.00     0.023 C 
ENDROOT
BRANCH   1   2
ATOM      2  C   UNL A   1      39.130  21.548  25.584  1.00  0.00     0.116 C 
BRANCH   2   3
ATOM      3  N   UNL A   1      39.933  21.127  26.716  1.00  0.00    -0.352 N 
ATOM      4  O   UNL A   1      41.743  21.012  27.990  1.00  0.00    -0.269 OA
ATOM      5  C   UNL A   1      40.963  21.737  27.371  1.00  0.00     0.251 C 
ATOM      6  H   UNL A   1      39.693  20.243  27.075  1.00  0.00     0.163 HD
BRANCH   5   7
ATOM      7  C   UNL A   1      41.154  23.207  27.408  1.00  0.00     0.039 A 
ATOM      8  C   UNL A   1      42.314  23.706  26.798  1.00  0.00     0.014 A 
ATOM      9  C   UNL A   1      40.357  24.065  28.172  1.00  0.00     0.014 A 
ATOM     10  C   UNL A   1      42.687  25.040  26.963  1.00  0.00     0.010 A 
ATOM     11  C   UNL A   1      40.729  25.408  28.331  1.00  0.00     0.010 A 
ATOM     12  C   UNL A   1      41.901  25.900  27.737  1.00  0.00    -0.014 A 
BRANCH  12  13
ATOM     13  C   UNL A   1      42.331  27.311  27.848  1.00  0.00     0.031 A 
ATOM     14  C   UNL A   1      41.244  28.326  27.728  1.00  0.00     0.074 A 
ATOM     15  C   UNL A   1      43.470  27.663  28.487  1.00  0.00     0.049 A 
ATOM     16  N   UNL A   1      40.445  28.599  28.717  1.00  0.00    -0.248 NA
ATOM     17  C   UNL A   1      40.829  28.914  26.456  1.00  0.00     0.031 C 
ATOM     18  C   UNL A   1      44.054  26.876  29.583  1.00  0.00     0.029 A 
ATOM     19  N   UNL A   1      44.197  28.834  28.491  1.00  0.00    -0.354 N 
ATOM     20  C   UNL A   1      39.409  29.363  28.215  1.00  0.00     0.074 A 
ATOM     21  C   UNL A   1      39.693  29.541  26.807  1.00  0.00     0.031 C 
ATOM     22  C   UNL A   1      44.923  27.654  30.259  1.00  0.00     0.029 A 
ATOM     23  C   UNL A   1      45.084  28.931  29.566  1.00  0.00     0.049 A 
ATOM     24  H   UNL A   1      44.100  29.531  27.804  1.00  0.00     0.167 HD
ATOM     25  C   UNL A   1      38.385  29.801  28.993  1.00  0.00     0.037 A 
ATOM     26  C   UNL A   1      45.431  30.087  30.201  1.00  0.00     0.037 A 
ATOM     27  C   UNL A   1      38.467  29.432  30.376  1.00  0.00     0.049 A 
ATOM     28  C   UNL A   1      44.113  30.502  30.806  1.00  0.00     0.074 A 
ATOM     29  C   UNL A   1      38.008  28.411  31.180  1.00  0.00     0.029 A 
ATOM     30  N   UNL A   1      39.267  30.193  31.197  1.00  0.00    -0.354 N 
ATOM     31  N   UNL A   1      43.580  30.013  31.895  1.00  0.00    -0.248 NA
ATOM     32  C   UNL A   1      43.187  31.249  29.953  1.00  0.00     0.031 C 
ATOM     33  C   UNL A   1      38.918  28.357  32.281  1.00  0.00     0.029 A 
ATOM     34  C   UNL A   1      39.896  29.324  32.053  1.00  0.00     0.049 A 
ATOM     35  H   UNL A   1      39.367  31.173  31.175  1.00  0.00     0.167 HD
ATOM     36  C   UNL A   1      42.201  30.155  31.726  1.00  0.00     0.074 A 
ATOM     37  C   UNL A   1      42.029  30.934  30.517  1.00  0.00     0.031 C 
ATOM     38  C   UNL A   1      41.271  29.489  32.469  1.00  0.00     0.037 A 
BRANCH  25  39
ATOM     39  C   UNL A   1      37.327  30.733  28.561  1.00  0.00     0.058 A 
ATOM     40  C   UNL A   1      37.536  32.106  28.762  1.00  0.00     0.135 A 
ATOM     41  C   UNL A   1      36.048  30.304  28.193  1.00  0.00     0.135 A 
ATOM     42  F   UNL A   1      38.750  32.551  29.131  1.00  0.00    -0.206 F 
ATOM     43  C   UNL A   1      36.501  33.021  28.659  1.00  0.00     0.059 A 
ATOM     44  C   UNL A   1      34.992  31.206  28.078  1.00  0.00     0.059 A 
ATOM     45  F   UNL A   1      35.802  28.998  28.001  1.00  0.00    -0.206 F 
ATOM     46  C   UNL A   1      35.224  32.559  28.340  1.00  0.00     0.060 A 
BRANCH  46  47
ATOM     47  S   UNL A   1      33.871  33.754  28.332  1.00  0.00     0.124 S 
ATOM     48  O   UNL A   1      33.605  33.917  29.757  1.00  0.00    -0.237 OA
ATOM     49  O   UNL A   1      34.486  34.898  27.665  1.00  0.00    -0.237 OA
ATOM     50  O   UNL A   1      32.824  33.079  27.572  1.00  0.00    -0.744 OA
ENDBRANCH  46  47
ENDBRANCH  25  39
BRANCH  26  51
ATOM     51  C   UNL A   1      46.318  31.029  29.440  1.00  0.00     0.058 A 
ATOM     52  C   UNL A   1      47.363  30.496  28.657  1.00  0.00     0.135 A 
ATOM     53  C   UNL A   1      46.214  32.431  29.446  1.00  0.00     0.135 A 
ATOM     54  F   UNL A   1      47.636  29.181  28.694  1.00  0.00    -0.206 F 
ATOM     55  C   UNL A   1      48.145  31.282  27.812  1.00  0.00     0.059 A 
ATOM     56  C   UNL A   1      46.966  33.239  28.590  1.00  0.00     0.059 A 
ATOM     57  F   UNL A   1      45.364  33.058  30.270  1.00  0.00    -0.206 F 
ATOM     58  C   UNL A   1      47.906  32.650  27.750  1.00  0.00     0.060 A 
BRANCH  58  59
ATOM     59  S   UNL A   1      48.788  33.628  26.515  1.00  0.00     0.124 S 
ATOM     60  O   UNL A   1      49.396  34.673  27.335  1.00  0.00    -0.237 OA
ATOM     61  O   UNL A   1      49.713  32.640  25.961  1.00  0.00    -0.237 OA
ATOM     62  O   UNL A   1      47.736  34.067  25.613  1.00  0.00    -0.744 OA
ENDBRANCH  58  59
ENDBRANCH  26  51
BRANCH  38  63
ATOM     63  C   UNL A   1      41.776  28.726  33.646  1.00  0.00     0.058 A 
ATOM     64  C   UNL A   1      41.544  29.205  34.942  1.00  0.00     0.135 A 
ATOM     65  C   UNL A   1      42.389  27.470  33.509  1.00  0.00     0.135 A 
ATOM     66  F   UNL A   1      40.955  30.398  35.129  1.00  0.00    -0.206 F 
ATOM     67  C   UNL A   1      41.854  28.441  36.063  1.00  0.00     0.059 A 
ATOM     68  C   UNL A   1      42.690  26.681  34.616  1.00  0.00     0.059 A 
ATOM     69  F   UNL A   1      42.653  26.966  32.291  1.00  0.00    -0.206 F 
ATOM     70  C   UNL A   1      42.402  27.169  35.889  1.00  0.00     0.060 A 
BRANCH  70  71
ATOM     71  S   UNL A   1      42.639  26.129  37.345  1.00  0.00     0.124 S 
ATOM     72  O   UNL A   1      43.141  24.890  36.761  1.00  0.00    -0.237 OA
ATOM     73  O   UNL A   1      43.608  26.899  38.121  1.00  0.00    -0.237 OA
ATOM     74  O   UNL A   1      41.305  26.048  37.933  1.00  0.00    -0.744 OA
ENDBRANCH  70  71
ENDBRANCH  38  63
ENDBRANCH  12  13
ENDBRANCH   5   7
ENDBRANCH   2   3
ENDBRANCH   1   2
BRANCH   1  75
ATOM     75  C   UNL A   1      37.513  23.576  25.342  1.00  0.00     0.023 C 
BRANCH  75  76
ATOM     76  C   UNL A   1      36.958  23.391  23.925  1.00  0.00     0.116 C 
BRANCH  76  77
ATOM     77  N   UNL A   1      35.513  23.395  23.970  1.00  0.00    -0.351 N 
ATOM     78  C   UNL A   1      34.688  22.318  24.108  1.00  0.00     0.278 C 
ATOM     79  H   UNL A   1      35.076  24.274  23.893  1.00  0.00     0.163 HD
ATOM     80  O   UNL A   1      33.667  22.324  23.422  1.00  0.00    -0.268 OA
BRANCH  78  81
ATOM     81  C   UNL A   1      35.054  21.212  25.120  1.00  0.00     0.275 C 
ATOM     82  C   UNL A   1      34.772  19.825  24.544  1.00  0.00     0.089 C 
ATOM     83  N   UNL A   1      34.258  21.224  26.350  1.00  0.00    -0.320 N 
ATOM     84  C   UNL A   1      33.388  19.399  25.093  1.00  0.00     0.036 C 
ATOM     85  C   UNL A   1      33.314  20.132  26.442  1.00  0.00     0.270 C 
ATOM     86  H   UNL A   1      34.980  21.053  27.050  1.00  0.00     0.349 HD
ATOM     87  C   UNL A   1      33.291  17.871  25.270  1.00  0.00     0.074 C 
ATOM     88  C   UNL A   1      32.204  19.811  24.183  1.00  0.00     0.074 C 
ATOM     89  C   UNL A   1      33.239  17.143  23.924  1.00  0.00     0.261 C 
ATOM     90  C   UNL A   1      32.193  19.048  22.861  1.00  0.00     0.261 C 
ATOM     91  N   UNL A   1      32.128  17.601  23.086  1.00  0.00    -0.346 N 
ATOM     92  H   UNL A   1      31.247  17.377  23.550  1.00  0.00     0.346 HD
ATOM     93  H   UNL A   1      32.189  17.130  22.183  1.00  0.00     0.346 HD
BRANCH  83  94
ATOM     94  C   UNL A   1      34.119  22.402  27.186  1.00  0.00     0.302 C 
BRANCH  94  95
ATOM     95  C   UNL A   1      32.929  23.258  26.858  1.00  0.00     0.038 A 
ATOM     96  C   UNL A   1      31.592  22.799  27.010  1.00  0.00     0.012 A 
ATOM     97  C   UNL A   1      33.013  24.520  26.221  1.00  0.00     0.144 A 
ATOM     98  C   UNL A   1      30.457  23.477  26.492  1.00  0.00     0.003 A 
ATOM     99  C   UNL A   1      31.847  25.211  25.686  1.00  0.00     0.135 A 
ATOM    100  N   UNL A   1      34.096  25.260  25.942  1.00  0.00    -0.049 NA
ATOM    101  C   UNL A   1      30.544  24.694  25.796  1.00  0.00     0.034 A 
ATOM    102  N   UNL A   1      32.261  26.334  25.089  1.00  0.00    -0.050 NA
ATOM    103  O   UNL A   1      33.632  26.372  25.262  1.00  0.00    -0.243 OA
ENDBRANCH  94  95
ENDBRANCH  83  94
ENDBRANCH  78  81
ENDBRANCH  76  77
ENDBRANCH  75  76
ENDBRANCH   1  75
TORSDOF 16
ENDMDL
MODEL 3
REMARK VINA RESULT:     -12.1      1.385      3.597
REMARK SMILES O=C(NCCCCNC(=O)[C@@H]1CC2(CC[NH2+]CC2)C[N@@H+]1Cc1cccc2nonc12)c1ccc(-c2c3nc(c(-c4c(F)cc(S(=O)(=O)[O-])cc4F)c4ccc([nH]4)c(-c4c(F)cc(S(=O)(=O)[O-])cc4F)c4nc(c(-c5c(F)cc(S(=O)(=O)[O-])cc5F)c5ccc2[nH]5)C=C4)C=C3)cc1
REMARK SMILES IDX 5 1 4 2 3 3 1 4 2 5 31 7 32 8 96 9 33 10 95 11 34 12 35 13
REMARK SMILES IDX 36 14 89 15 37 16 94 17 88 18 90 19 38 20 93 21 87 22 86 23
REMARK SMILES IDX 39 25 73 26 52 27 72 28 53 29 56 30 71 31 91 32 54 33 55 34
REMARK SMILES IDX 70 36 92 37 57 38 40 39 41 40 50 41 42 42 43 43 49 44 51 45
REMARK SMILES IDX 44 46 45 47 46 48 47 49 48 50 74 51 75 52 84 53 76 54 77 55
REMARK SMILES IDX 83 56 85 57 78 58 79 59 80 60 81 61 82 62 58 63 59 64 68 65
REMARK SMILES IDX 60 66 61 67 67 68 69 69 62 70 63 71 64 72 65 73 66 74 6 75
REMARK SMILES IDX 7 76 8 77 9 78 10 80 11 81 12 82 20 83 13 84 19 85 14 87
REMARK SMILES IDX 18 88 15 89 17 90 16 91 21 94 22 95 23 96 30 97 24 98 26 99
REMARK SMILES IDX 29 100 25 101 27 102 28 103
REMARK H PARENT 3 6 90 24 56 35 8 79 20 86 16 92 16 93
REMARK Flexibility Score: inf
ROOT
ATOM      1  C   UNL A   1      38.039  21.252  25.060  1.00  0.00     0.023 C 
ENDROOT
BRANCH   1   2
ATOM      2  C   UNL A   1      38.807  22.204  25.989  1.00  0.00     0.116 C 
BRANCH   2   3
ATOM      3  N   UNL A   1      39.691  21.441  26.851  1.00  0.00    -0.352 N 
ATOM      4  O   UNL A   1      41.631  20.676  27.602  1.00  0.00    -0.269 OA
ATOM      5  C   UNL A   1      40.979  21.659  27.244  1.00  0.00     0.251 C 
ATOM      6  H   UNL A   1      39.290  20.621  27.216  1.00  0.00     0.163 HD
BRANCH   5   7
ATOM      7  C   UNL A   1      41.603  23.003  27.303  1.00  0.00     0.039 A 
ATOM      8  C   UNL A   1      41.353  23.763  28.455  1.00  0.00     0.014 A 
ATOM      9  C   UNL A   1      42.240  23.601  26.212  1.00  0.00     0.014 A 
ATOM     10  C   UNL A   1      41.716  25.108  28.514  1.00  0.00     0.010 A 
ATOM     11  C   UNL A   1      42.611  24.952  26.274  1.00  0.00     0.010 A 
ATOM     12  C   UNL A   1      42.342  25.715  27.420  1.00  0.00    -0.014 A 
BRANCH  12  13
ATOM     13  C   UNL A   1      42.733  27.136  27.553  1.00  0.00     0.031 A 
ATOM     14  C   UNL A   1      41.617  28.121  27.467  1.00  0.00     0.074 A 
ATOM     15  C   UNL A   1      43.870  27.507  28.185  1.00  0.00     0.049 A 
ATOM     16  N   UNL A   1      40.823  28.353  28.470  1.00  0.00    -0.248 NA
ATOM     17  C   UNL A   1      41.169  28.722  26.212  1.00  0.00     0.031 C 
ATOM     18  C   UNL A   1      44.490  26.717  29.258  1.00  0.00     0.029 A 
ATOM     19  N   UNL A   1      44.564  28.698  28.203  1.00  0.00    -0.354 N 
ATOM     20  C   UNL A   1      39.760  29.097  27.997  1.00  0.00     0.074 A 
ATOM     21  C   UNL A   1      40.020  29.310  26.590  1.00  0.00     0.031 C 
ATOM     22  C   UNL A   1      45.346  27.506  29.939  1.00  0.00     0.029 A 
ATOM     23  C   UNL A   1      45.462  28.800  29.269  1.00  0.00     0.049 A 
ATOM     24  H   UNL A   1      44.439  29.406  27.531  1.00  0.00     0.167 HD
ATOM     25  C   UNL A   1      38.734  29.489  28.796  1.00  0.00     0.037 A 
ATOM     26  C   UNL A   1      45.784  29.953  29.922  1.00  0.00     0.037 A 
ATOM     27  C   UNL A   1      38.844  29.097  30.171  1.00  0.00     0.049 A 
ATOM     28  C   UNL A   1      44.463  30.318  30.552  1.00  0.00     0.074 A 
ATOM     29  C   UNL A   1      38.425  28.047  30.959  1.00  0.00     0.029 A 
ATOM     30  N   UNL A   1      39.633  29.864  30.996  1.00  0.00    -0.354 N 
ATOM     31  N   UNL A   1      43.958  29.793  31.637  1.00  0.00    -0.248 NA
ATOM     32  C   UNL A   1      43.505  31.055  29.725  1.00  0.00     0.031 C 
ATOM     33  C   UNL A   1      39.351  27.998  32.049  1.00  0.00     0.029 A 
ATOM     34  C   UNL A   1      40.297  28.997  31.827  1.00  0.00     0.049 A 
ATOM     35  H   UNL A   1      39.705  30.846  30.993  1.00  0.00     0.167 HD
ATOM     36  C   UNL A   1      42.574  29.899  31.488  1.00  0.00     0.074 A 
ATOM     37  C   UNL A   1      42.364  30.697  30.297  1.00  0.00     0.031 C 
ATOM     38  C   UNL A   1      41.672  29.193  32.229  1.00  0.00     0.037 A 
BRANCH  25  39
ATOM     39  C   UNL A   1      37.644  30.400  28.396  1.00  0.00     0.058 A 
ATOM     40  C   UNL A   1      37.767  31.758  28.724  1.00  0.00     0.135 A 
ATOM     41  C   UNL A   1      36.408  29.938  27.932  1.00  0.00     0.135 A 
ATOM     42  F   UNL A   1      38.937  32.232  29.187  1.00  0.00    -0.206 F 
ATOM     43  C   UNL A   1      36.687  32.624  28.651  1.00  0.00     0.059 A 
ATOM     44  C   UNL A   1      35.309  30.790  27.844  1.00  0.00     0.059 A 
ATOM     45  F   UNL A   1      36.245  28.643  27.617  1.00  0.00    -0.206 F 
ATOM     46  C   UNL A   1      35.454  32.125  28.232  1.00  0.00     0.060 A 
BRANCH  46  47
ATOM     47  S   UNL A   1      34.037  33.244  28.262  1.00  0.00     0.124 S 
ATOM     48  O   UNL A   1      33.856  33.461  29.694  1.00  0.00    -0.237 OA
ATOM     49  O   UNL A   1      34.540  34.384  27.503  1.00  0.00    -0.237 OA
ATOM     50  O   UNL A   1      32.982  32.476  27.607  1.00  0.00    -0.744 OA
ENDBRANCH  46  47
ENDBRANCH  25  39
BRANCH  26  51
ATOM     51  C   UNL A   1      46.634  30.935  29.169  1.00  0.00     0.058 A 
ATOM     52  C   UNL A   1      47.361  30.484  28.047  1.00  0.00     0.135 A 
ATOM     53  C   UNL A   1      46.792  32.293  29.493  1.00  0.00     0.135 A 
ATOM     54  F   UNL A   1      47.390  29.176  27.738  1.00  0.00    -0.206 F 
ATOM     55  C   UNL A   1      48.063  31.349  27.210  1.00  0.00     0.059 A 
ATOM     56  C   UNL A   1      47.468  33.186  28.657  1.00  0.00     0.059 A 
ATOM     57  F   UNL A   1      46.279  32.800  30.622  1.00  0.00    -0.206 F 
ATOM     58  C   UNL A   1      48.071  32.709  27.498  1.00  0.00     0.060 A 
BRANCH  58  59
ATOM     59  S   UNL A   1      48.816  33.843  26.307  1.00  0.00     0.124 S 
ATOM     60  O   UNL A   1      49.270  34.932  27.169  1.00  0.00    -0.237 OA
ATOM     61  O   UNL A   1      49.871  33.012  25.728  1.00  0.00    -0.237 OA
ATOM     62  O   UNL A   1      47.718  34.165  25.410  1.00  0.00    -0.744 OA
ENDBRANCH  58  59
ENDBRANCH  26  51
BRANCH  38  63
ATOM     63  C   UNL A   1      42.214  28.422  33.385  1.00  0.00     0.058 A 
ATOM     64  C   UNL A   1      42.007  28.882  34.691  1.00  0.00     0.135 A 
ATOM     65  C   UNL A   1      42.839  27.176  33.217  1.00  0.00     0.135 A 
ATOM     66  F   UNL A   1      41.408  30.065  34.907  1.00  0.00    -0.206 F 
ATOM     67  C   UNL A   1      42.352  28.109  35.795  1.00  0.00     0.059 A 
ATOM     68  C   UNL A   1      43.175  26.376  34.307  1.00  0.00     0.059 A 
ATOM     69  F   UNL A   1      43.081  26.689  31.988  1.00  0.00    -0.206 F 
ATOM     70  C   UNL A   1      42.911  26.845  35.593  1.00  0.00     0.060 A 
BRANCH  70  71
ATOM     71  S   UNL A   1      43.195  25.791  37.030  1.00  0.00     0.124 S 
ATOM     72  O   UNL A   1      41.962  25.012  37.088  1.00  0.00    -0.237 OA
ATOM     73  O   UNL A   1      44.393  25.052  36.641  1.00  0.00    -0.237 OA
ATOM     74  O   UNL A   1      43.385  26.741  38.123  1.00  0.00    -0.744 OA
ENDBRANCH  70  71
ENDBRANCH  38  63
ENDBRANCH  12  13
ENDBRANCH   5   7
ENDBRANCH   2   3
ENDBRANCH   1   2
BRANCH   1  75
ATOM     75  C   UNL A   1      36.865  21.886  24.282  1.00  0.00     0.023 C 
BRANCH  75  76
ATOM     76  C   UNL A   1      37.078  23.344  23.862  1.00  0.00     0.116 C 
BRANCH  76  77
ATOM     77  N   UNL A   1      36.050  23.729  22.922  1.00  0.00    -0.351 N 
ATOM     78  C   UNL A   1      34.720  23.893  23.173  1.00  0.00     0.278 C 
ATOM     79  H   UNL A   1      36.343  23.891  21.995  1.00  0.00     0.163 HD
ATOM     80  O   UNL A   1      33.948  23.476  22.310  1.00  0.00    -0.268 OA
BRANCH  78  81
ATOM     81  C   UNL A   1      34.279  24.610  24.466  1.00  0.00     0.275 C 
ATOM     82  C   UNL A   1      34.394  23.683  25.676  1.00  0.00     0.089 C 
ATOM     83  N   UNL A   1      32.869  25.009  24.492  1.00  0.00    -0.320 N 
ATOM     84  C   UNL A   1      32.978  23.104  25.917  1.00  0.00     0.036 C 
ATOM     85  C   UNL A   1      32.058  24.219  25.392  1.00  0.00     0.270 C 
ATOM     86  H   UNL A   1      32.939  25.943  24.896  1.00  0.00     0.349 HD
ATOM     87  C   UNL A   1      32.727  22.815  27.410  1.00  0.00     0.074 C 
ATOM     88  C   UNL A   1      32.711  21.778  25.163  1.00  0.00     0.074 C 
ATOM     89  C   UNL A   1      33.550  21.624  27.906  1.00  0.00     0.261 C 
ATOM     90  C   UNL A   1      33.549  20.622  25.704  1.00  0.00     0.261 C 
ATOM     91  N   UNL A   1      33.292  20.408  27.131  1.00  0.00    -0.346 N 
ATOM     92  H   UNL A   1      32.317  20.134  27.256  1.00  0.00     0.346 HD
ATOM     93  H   UNL A   1      33.918  19.674  27.465  1.00  0.00     0.346 HD
BRANCH  83  94
ATOM     94  C   UNL A   1      32.258  25.809  23.446  1.00  0.00     0.302 C 
BRANCH  94  95
ATOM     95  C   UNL A   1      32.000  27.238  23.830  1.00  0.00     0.038 A 
ATOM     96  C   UNL A   1      32.575  27.836  24.983  1.00  0.00     0.012 A 
ATOM     97  C   UNL A   1      31.048  28.069  23.190  1.00  0.00     0.144 A 
ATOM     98  C   UNL A   1      32.174  29.093  25.509  1.00  0.00     0.003 A 
ATOM     99  C   UNL A   1      30.634  29.355  23.735  1.00  0.00     0.135 A 
ATOM    100  N   UNL A   1      30.337  27.845  22.075  1.00  0.00    -0.049 NA
ATOM    101  C   UNL A   1      31.177  29.887  24.918  1.00  0.00     0.034 A 
ATOM    102  N   UNL A   1      29.680  29.859  22.945  1.00  0.00    -0.050 NA
ATOM    103  O   UNL A   1      29.512  28.945  21.922  1.00  0.00    -0.243 OA
ENDBRANCH  94  95
ENDBRANCH  83  94
ENDBRANCH  78  81
ENDBRANCH  76  77
ENDBRANCH  75  76
ENDBRANCH   1  75
TORSDOF 16
ENDMDL
