MODEL 1
REMARK VINA RESULT:     -10.5      0.000      0.000
REMARK SMILES CC[C@](O)(C(=O)NCCCCNC(=O)c1ccc(-c2c3nc(c(-c4c(F)cc(S(=O)(=O)[O-])cc4F)c4ccc([nH]4)c(-c4c(F)cc(S(=O)(=O)[O-])cc4F)c4nc(c(-c5c(F)cc(S(=O)(=O)[O-])cc5F)c5ccc2[nH]5)C=C4)C=C3)cc1)[C@@H](C)c1ccc(C)s1
REMARK SMILES IDX 10 1 9 2 8 3 7 4 5 5 6 6 3 8 2 9 1 10 81 11 82 12 83 13
REMARK SMILES IDX 84 14 88 15 85 16 86 17 87 18 4 19 11 21 12 22 13 23 14 25
REMARK SMILES IDX 15 26 16 27 80 28 17 29 79 30 18 31 19 32 20 33 73 34 21 35
REMARK SMILES IDX 78 36 72 37 74 38 22 39 77 40 71 41 70 42 23 44 57 45 36 46
REMARK SMILES IDX 56 47 37 48 40 49 55 50 75 51 38 52 39 53 54 55 76 56 41 57
REMARK SMILES IDX 24 58 25 59 34 60 26 61 27 62 33 63 35 64 28 65 29 66 30 67
REMARK SMILES IDX 31 68 32 69 58 70 59 71 68 72 60 73 61 74 67 75 69 76 62 77
REMARK SMILES IDX 63 78 64 79 65 80 66 81 42 82 43 83 52 84 44 85 45 86 51 87
REMARK SMILES IDX 53 88 46 89 47 90 48 91 49 92 50 93
REMARK H PARENT 7 7 4 20 12 24 74 43 40 54
REMARK Flexibility Score: inf
ROOT
ATOM      1  C   UNL A   1      32.217  27.636  27.309  1.00  0.00     0.023 C 
ENDROOT
BRANCH   1   2
ATOM      2  C   UNL A   1      31.399  27.483  26.029  1.00  0.00     0.023 C 
BRANCH   2   3
ATOM      3  C   UNL A   1      31.313  26.058  25.496  1.00  0.00     0.116 C 
BRANCH   3   4
ATOM      4  N   UNL A   1      30.364  25.233  26.228  1.00  0.00    -0.354 N 
ATOM      5  C   UNL A   1      30.423  23.903  26.563  1.00  0.00     0.252 C 
ATOM      6  O   UNL A   1      29.550  23.475  27.322  1.00  0.00    -0.272 OA
ATOM      7  H   UNL A   1      29.553  25.702  26.531  1.00  0.00     0.163 HD
BRANCH   5   8
ATOM      8  C   UNL A   1      31.629  23.022  26.101  1.00  0.00     0.150 C 
BRANCH   8   9
ATOM      9  C   UNL A   1      31.824  23.438  24.606  1.00  0.00     0.043 C 
ATOM     10  C   UNL A   1      31.862  22.366  23.531  1.00  0.00     0.007 C 
ENDBRANCH   8   9
BRANCH   8  11
ATOM     11  C   UNL A   1      32.897  23.264  27.014  1.00  0.00     0.068 C 
ATOM     12  C   UNL A   1      33.075  22.231  28.147  1.00  0.00     0.017 C 
BRANCH  11  13
ATOM     13  C   UNL A   1      34.201  23.325  26.205  1.00  0.00     0.011 A 
ATOM     14  C   UNL A   1      34.820  24.437  25.660  1.00  0.00     0.016 A 
ATOM     15  S   UNL A   1      35.111  21.908  25.856  1.00  0.00    -0.145 S 
ATOM     16  C   UNL A   1      35.876  24.083  24.767  1.00  0.00     0.015 A 
ATOM     17  C   UNL A   1      36.094  22.723  24.729  1.00  0.00     0.002 A 
ATOM     18  C   UNL A   1      37.026  21.951  23.860  1.00  0.00     0.056 C 
ENDBRANCH  11  13
ENDBRANCH   8  11
BRANCH   8  19
ATOM     19  O   UNL A   1      31.223  21.652  26.203  1.00  0.00    -0.379 OA
ATOM     20  H   UNL A   1      30.444  21.503  25.644  1.00  0.00     0.212 HD
ENDBRANCH   8  19
ENDBRANCH   5   8
ENDBRANCH   3   4
ENDBRANCH   2   3
ENDBRANCH   1   2
BRANCH   1  21
ATOM     21  C   UNL A   1      33.531  28.398  27.163  1.00  0.00     0.116 C 
BRANCH  21  22
ATOM     22  N   UNL A   1      33.432  29.797  27.550  1.00  0.00    -0.352 N 
ATOM     23  C   UNL A   1      34.372  30.608  28.135  1.00  0.00     0.251 C 
ATOM     24  H   UNL A   1      32.564  30.224  27.367  1.00  0.00     0.163 HD
ATOM     25  O   UNL A   1      34.054  31.743  28.493  1.00  0.00    -0.269 OA
BRANCH  23  26
ATOM     26  C   UNL A   1      35.747  30.115  28.367  1.00  0.00     0.039 A 
ATOM     27  C   UNL A   1      36.663  30.173  27.315  1.00  0.00     0.014 A 
ATOM     28  C   UNL A   1      36.142  29.606  29.609  1.00  0.00     0.014 A 
ATOM     29  C   UNL A   1      37.986  29.782  27.526  1.00  0.00     0.010 A 
ATOM     30  C   UNL A   1      37.481  29.294  29.840  1.00  0.00     0.010 A 
ATOM     31  C   UNL A   1      38.419  29.377  28.802  1.00  0.00    -0.014 A 
BRANCH  31  32
ATOM     32  C   UNL A   1      39.852  29.066  29.044  1.00  0.00     0.031 A 
ATOM     33  C   UNL A   1      40.773  30.094  29.646  1.00  0.00     0.074 A 
ATOM     34  C   UNL A   1      40.329  27.852  28.703  1.00  0.00     0.049 A 
ATOM     35  N   UNL A   1      42.039  29.981  29.961  1.00  0.00    -0.248 NA
ATOM     36  C   UNL A   1      40.210  31.429  29.906  1.00  0.00     0.031 C 
ATOM     37  C   UNL A   1      39.555  26.797  28.041  1.00  0.00     0.029 A 
ATOM     38  N   UNL A   1      41.572  27.295  28.866  1.00  0.00    -0.354 N 
ATOM     39  C   UNL A   1      42.418  31.220  30.465  1.00  0.00     0.074 A 
ATOM     40  C   UNL A   1      41.270  32.092  30.346  1.00  0.00     0.031 C 
ATOM     41  C   UNL A   1      40.330  25.712  27.887  1.00  0.00     0.029 A 
ATOM     42  C   UNL A   1      41.661  26.000  28.409  1.00  0.00     0.049 A 
ATOM     43  H   UNL A   1      42.329  27.777  29.271  1.00  0.00     0.167 HD
ATOM     44  C   UNL A   1      43.603  31.588  31.010  1.00  0.00     0.037 A 
ATOM     45  C   UNL A   1      42.698  25.140  28.413  1.00  0.00     0.037 A 
ATOM     46  C   UNL A   1      44.743  30.714  31.130  1.00  0.00     0.049 A 
ATOM     47  C   UNL A   1      43.999  25.569  29.033  1.00  0.00     0.074 A 
ATOM     48  C   UNL A   1      45.977  30.981  31.697  1.00  0.00     0.029 A 
ATOM     49  N   UNL A   1      44.790  29.404  30.674  1.00  0.00    -0.354 N 
ATOM     50  N   UNL A   1      44.316  26.722  29.572  1.00  0.00    -0.248 NA
ATOM     51  C   UNL A   1      45.079  24.574  29.062  1.00  0.00     0.031 C 
ATOM     52  C   UNL A   1      46.784  29.848  31.546  1.00  0.00     0.029 A 
ATOM     53  C   UNL A   1      46.036  28.855  30.934  1.00  0.00     0.049 A 
ATOM     54  H   UNL A   1      44.048  28.934  30.232  1.00  0.00     0.167 HD
ATOM     55  C   UNL A   1      45.626  26.587  30.018  1.00  0.00     0.074 A 
ATOM     56  C   UNL A   1      46.029  25.229  29.715  1.00  0.00     0.031 C 
ATOM     57  C   UNL A   1      46.427  27.504  30.617  1.00  0.00     0.037 A 
BRANCH  44  58
ATOM     58  C   UNL A   1      43.722  32.993  31.538  1.00  0.00     0.058 A 
ATOM     59  C   UNL A   1      44.037  34.070  30.691  1.00  0.00     0.135 A 
ATOM     60  C   UNL A   1      43.470  33.280  32.889  1.00  0.00     0.135 A 
ATOM     61  F   UNL A   1      44.304  33.853  29.393  1.00  0.00    -0.206 F 
ATOM     62  C   UNL A   1      44.120  35.374  31.167  1.00  0.00     0.059 A 
ATOM     63  C   UNL A   1      43.518  34.582  33.383  1.00  0.00     0.059 A 
ATOM     64  F   UNL A   1      43.166  32.293  33.746  1.00  0.00    -0.206 F 
ATOM     65  C   UNL A   1      43.855  35.620  32.515  1.00  0.00     0.060 A 
BRANCH  65  66
ATOM     66  S   UNL A   1      43.945  37.323  33.110  1.00  0.00     0.124 S 
ATOM     67  O   UNL A   1      45.230  37.322  33.802  1.00  0.00    -0.237 OA
ATOM     68  O   UNL A   1      43.896  38.089  31.869  1.00  0.00    -0.237 OA
ATOM     69  O   UNL A   1      42.772  37.447  33.968  1.00  0.00    -0.744 OA
ENDBRANCH  65  66
ENDBRANCH  44  58
BRANCH  45  70
ATOM     70  C   UNL A   1      42.541  23.781  27.823  1.00  0.00     0.058 A 
ATOM     71  C   UNL A   1      42.392  22.646  28.634  1.00  0.00     0.135 A 
ATOM     72  C   UNL A   1      42.536  23.594  26.432  1.00  0.00     0.135 A 
ATOM     73  F   UNL A   1      42.392  22.771  29.971  1.00  0.00    -0.206 F 
ATOM     74  C   UNL A   1      42.273  21.372  28.090  1.00  0.00     0.059 A 
ATOM     75  C   UNL A   1      42.387  22.334  25.863  1.00  0.00     0.059 A 
ATOM     76  F   UNL A   1      42.654  24.649  25.611  1.00  0.00    -0.206 F 
ATOM     77  C   UNL A   1      42.271  21.226  26.701  1.00  0.00     0.060 A 
BRANCH  77  78
ATOM     78  S   UNL A   1      42.082  19.571  26.002  1.00  0.00     0.124 S 
ATOM     79  O   UNL A   1      42.999  19.625  24.869  1.00  0.00    -0.237 OA
ATOM     80  O   UNL A   1      42.489  18.720  27.114  1.00  0.00    -0.237 OA
ATOM     81  O   UNL A   1      40.663  19.512  25.663  1.00  0.00    -0.744 OA
ENDBRANCH  77  78
ENDBRANCH  45  70
BRANCH  57  82
ATOM     82  C   UNL A   1      47.812  27.055  30.998  1.00  0.00     0.058 A 
ATOM     83  C   UNL A   1      48.901  27.195  30.122  1.00  0.00     0.135 A 
ATOM     84  C   UNL A   1      48.055  26.478  32.255  1.00  0.00     0.135 A 
ATOM     85  F   UNL A   1      48.724  27.737  28.906  1.00  0.00    -0.206 F 
ATOM     86  C   UNL A   1      50.169  26.733  30.458  1.00  0.00     0.059 A 
ATOM     87  C   UNL A   1      49.322  26.039  32.626  1.00  0.00     0.059 A 
ATOM     88  F   UNL A   1      47.055  26.335  33.139  1.00  0.00    -0.206 F 
ATOM     89  C   UNL A   1      50.368  26.150  31.711  1.00  0.00     0.060 A 
BRANCH  89  90
ATOM     90  S   UNL A   1      52.015  25.540  32.129  1.00  0.00     0.124 S 
ATOM     91  O   UNL A   1      52.244  26.178  33.422  1.00  0.00    -0.237 OA
ATOM     92  O   UNL A   1      51.815  24.094  32.162  1.00  0.00    -0.237 OA
ATOM     93  O   UNL A   1      52.846  26.027  31.033  1.00  0.00    -0.744 OA
ENDBRANCH  89  90
ENDBRANCH  57  82
ENDBRANCH  31  32
ENDBRANCH  23  26
ENDBRANCH  21  22
ENDBRANCH   1  21
TORSDOF 18
ENDMDL
MODEL 2
REMARK VINA RESULT:     -10.5      4.691     10.419
REMARK SMILES CC[C@](O)(C(=O)NCCCCNC(=O)c1ccc(-c2c3nc(c(-c4c(F)cc(S(=O)(=O)[O-])cc4F)c4ccc([nH]4)c(-c4c(F)cc(S(=O)(=O)[O-])cc4F)c4nc(c(-c5c(F)cc(S(=O)(=O)[O-])cc5F)c5ccc2[nH]5)C=C4)C=C3)cc1)[C@@H](C)c1ccc(C)s1
REMARK SMILES IDX 10 1 9 2 8 3 7 4 5 5 6 6 3 8 2 9 1 10 81 11 82 12 83 13
REMARK SMILES IDX 84 14 88 15 85 16 86 17 87 18 4 19 11 21 12 22 13 23 14 25
REMARK SMILES IDX 15 26 16 27 80 28 17 29 79 30 18 31 19 32 20 33 73 34 21 35
REMARK SMILES IDX 78 36 72 37 74 38 22 39 77 40 71 41 70 42 23 44 57 45 36 46
REMARK SMILES IDX 56 47 37 48 40 49 55 50 75 51 38 52 39 53 54 55 76 56 41 57
REMARK SMILES IDX 24 58 25 59 34 60 26 61 27 62 33 63 35 64 28 65 29 66 30 67
REMARK SMILES IDX 31 68 32 69 58 70 59 71 68 72 60 73 61 74 67 75 69 76 62 77
REMARK SMILES IDX 63 78 64 79 65 80 66 81 42 82 43 83 52 84 44 85 45 86 51 87
REMARK SMILES IDX 53 88 46 89 47 90 48 91 49 92 50 93
REMARK H PARENT 7 7 4 20 12 24 74 43 40 54
REMARK Flexibility Score: inf
ROOT
ATOM      1  C   UNL A   1      39.259  22.588  26.547  1.00  0.00     0.023 C 
ENDROOT
BRANCH   1   2
ATOM      2  C   UNL A   1      38.150  23.564  26.163  1.00  0.00     0.023 C 
BRANCH   2   3
ATOM      3  C   UNL A   1      37.338  23.155  24.941  1.00  0.00     0.116 C 
BRANCH   3   4
ATOM      4  N   UNL A   1      36.932  21.758  24.969  1.00  0.00    -0.354 N 
ATOM      5  C   UNL A   1      35.677  21.203  25.016  1.00  0.00     0.252 C 
ATOM      6  O   UNL A   1      35.598  19.980  24.880  1.00  0.00    -0.272 OA
ATOM      7  H   UNL A   1      37.673  21.110  24.951  1.00  0.00     0.163 HD
BRANCH   5   8
ATOM      8  C   UNL A   1      34.410  22.114  25.101  1.00  0.00     0.150 C 
BRANCH   8   9
ATOM      9  C   UNL A   1      34.375  22.538  26.607  1.00  0.00     0.043 C 
ATOM     10  C   UNL A   1      33.967  21.524  27.661  1.00  0.00     0.007 C 
ENDBRANCH   8   9
BRANCH   8  11
ATOM     11  C   UNL A   1      34.504  23.323  24.087  1.00  0.00     0.068 C 
ATOM     12  C   UNL A   1      33.919  23.030  22.689  1.00  0.00     0.017 C 
BRANCH  11  13
ATOM     13  C   UNL A   1      33.845  24.600  24.631  1.00  0.00     0.011 A 
ATOM     14  C   UNL A   1      34.456  25.698  25.210  1.00  0.00     0.016 A 
ATOM     15  S   UNL A   1      32.141  24.826  24.579  1.00  0.00    -0.145 S 
ATOM     16  C   UNL A   1      33.514  26.581  25.819  1.00  0.00     0.015 A 
ATOM     17  C   UNL A   1      32.212  26.181  25.608  1.00  0.00     0.002 A 
ATOM     18  C   UNL A   1      30.956  26.767  26.154  1.00  0.00     0.056 C 
ENDBRANCH  11  13
ENDBRANCH   8  11
BRANCH   8  19
ATOM     19  O   UNL A   1      33.275  21.303  24.773  1.00  0.00    -0.379 OA
ATOM     20  H   UNL A   1      33.578  20.465  24.388  1.00  0.00     0.212 HD
ENDBRANCH   8  19
ENDBRANCH   5   8
ENDBRANCH   3   4
ENDBRANCH   2   3
ENDBRANCH   1   2
BRANCH   1  21
ATOM     21  C   UNL A   1      40.575  23.226  26.985  1.00  0.00     0.116 C 
BRANCH  21  22
ATOM     22  N   UNL A   1      41.164  24.087  25.970  1.00  0.00    -0.352 N 
ATOM     23  C   UNL A   1      41.461  25.425  26.029  1.00  0.00     0.251 C 
ATOM     24  H   UNL A   1      41.381  23.644  25.118  1.00  0.00     0.163 HD
ATOM     25  O   UNL A   1      41.854  26.003  25.014  1.00  0.00    -0.269 OA
BRANCH  23  26
ATOM     26  C   UNL A   1      41.277  26.180  27.288  1.00  0.00     0.039 A 
ATOM     27  C   UNL A   1      42.328  26.978  27.746  1.00  0.00     0.014 A 
ATOM     28  C   UNL A   1      40.083  26.115  28.012  1.00  0.00     0.014 A 
ATOM     29  C   UNL A   1      42.157  27.757  28.891  1.00  0.00     0.010 A 
ATOM     30  C   UNL A   1      39.886  26.954  29.108  1.00  0.00     0.010 A 
ATOM     31  C   UNL A   1      40.920  27.784  29.561  1.00  0.00    -0.014 A 
BRANCH  31  32
ATOM     32  C   UNL A   1      40.712  28.698  30.715  1.00  0.00     0.031 A 
ATOM     33  C   UNL A   1      41.542  28.567  31.964  1.00  0.00     0.074 A 
ATOM     34  C   UNL A   1      39.753  29.643  30.640  1.00  0.00     0.049 A 
ATOM     35  N   UNL A   1      41.521  29.301  33.048  1.00  0.00    -0.248 NA
ATOM     36  C   UNL A   1      42.504  27.454  32.015  1.00  0.00     0.031 C 
ATOM     37  C   UNL A   1      38.830  29.821  29.515  1.00  0.00     0.029 A 
ATOM     38  N   UNL A   1      39.394  30.633  31.519  1.00  0.00    -0.354 N 
ATOM     39  C   UNL A   1      42.470  28.749  33.901  1.00  0.00     0.074 A 
ATOM     40  C   UNL A   1      42.997  27.575  33.240  1.00  0.00     0.031 C 
ATOM     41  C   UNL A   1      38.037  30.877  29.757  1.00  0.00     0.029 A 
ATOM     42  C   UNL A   1      38.372  31.433  31.064  1.00  0.00     0.049 A 
ATOM     43  H   UNL A   1      39.828  30.759  32.394  1.00  0.00     0.167 HD
ATOM     44  C   UNL A   1      42.889  29.198  35.109  1.00  0.00     0.037 A 
ATOM     45  C   UNL A   1      37.772  32.496  31.633  1.00  0.00     0.037 A 
ATOM     46  C   UNL A   1      42.363  30.371  35.761  1.00  0.00     0.049 A 
ATOM     47  C   UNL A   1      38.262  32.982  32.969  1.00  0.00     0.074 A 
ATOM     48  C   UNL A   1      42.744  30.929  36.969  1.00  0.00     0.029 A 
ATOM     49  N   UNL A   1      41.341  31.167  35.261  1.00  0.00    -0.354 N 
ATOM     50  N   UNL A   1      39.212  32.489  33.728  1.00  0.00    -0.248 NA
ATOM     51  C   UNL A   1      37.613  34.179  33.519  1.00  0.00     0.031 C 
ATOM     52  C   UNL A   1      41.926  32.036  37.220  1.00  0.00     0.029 A 
ATOM     53  C   UNL A   1      41.070  32.201  36.142  1.00  0.00     0.049 A 
ATOM     54  H   UNL A   1      40.878  31.018  34.405  1.00  0.00     0.167 HD
ATOM     55  C   UNL A   1      39.285  33.325  34.837  1.00  0.00     0.074 A 
ATOM     56  C   UNL A   1      38.305  34.372  34.632  1.00  0.00     0.031 C 
ATOM     57  C   UNL A   1      40.084  33.231  35.930  1.00  0.00     0.037 A 
BRANCH  44  58
ATOM     58  C   UNL A   1      43.986  28.431  35.796  1.00  0.00     0.058 A 
ATOM     59  C   UNL A   1      45.340  28.757  35.603  1.00  0.00     0.135 A 
ATOM     60  C   UNL A   1      43.689  27.394  36.696  1.00  0.00     0.135 A 
ATOM     61  F   UNL A   1      45.685  29.728  34.742  1.00  0.00    -0.206 F 
ATOM     62  C   UNL A   1      46.358  28.071  36.258  1.00  0.00     0.059 A 
ATOM     63  C   UNL A   1      44.689  26.713  37.385  1.00  0.00     0.059 A 
ATOM     64  F   UNL A   1      42.415  27.038  36.920  1.00  0.00    -0.206 F 
ATOM     65  C   UNL A   1      46.022  27.052  37.150  1.00  0.00     0.060 A 
BRANCH  65  66
ATOM     66  S   UNL A   1      47.355  26.188  38.008  1.00  0.00     0.124 S 
ATOM     67  O   UNL A   1      48.082  25.592  36.891  1.00  0.00    -0.237 OA
ATOM     68  O   UNL A   1      48.038  27.278  38.698  1.00  0.00    -0.237 OA
ATOM     69  O   UNL A   1      46.652  25.246  38.871  1.00  0.00    -0.744 OA
ENDBRANCH  65  66
ENDBRANCH  44  58
BRANCH  45  70
ATOM     70  C   UNL A   1      36.650  33.182  30.933  1.00  0.00     0.058 A 
ATOM     71  C   UNL A   1      36.869  33.942  29.774  1.00  0.00     0.135 A 
ATOM     72  C   UNL A   1      35.334  33.088  31.412  1.00  0.00     0.135 A 
ATOM     73  F   UNL A   1      38.110  34.066  29.277  1.00  0.00    -0.206 F 
ATOM     74  C   UNL A   1      35.831  34.608  29.131  1.00  0.00     0.059 A 
ATOM     75  C   UNL A   1      34.274  33.719  30.769  1.00  0.00     0.059 A 
ATOM     76  F   UNL A   1      35.067  32.357  32.504  1.00  0.00    -0.206 F 
ATOM     77  C   UNL A   1      34.535  34.490  29.638  1.00  0.00     0.060 A 
BRANCH  77  78
ATOM     78  S   UNL A   1      33.186  35.329  28.777  1.00  0.00     0.124 S 
ATOM     79  O   UNL A   1      33.911  36.328  28.001  1.00  0.00    -0.237 OA
ATOM     80  O   UNL A   1      32.584  34.240  28.015  1.00  0.00    -0.237 OA
ATOM     81  O   UNL A   1      32.366  35.849  29.868  1.00  0.00    -0.744 OA
ENDBRANCH  77  78
ENDBRANCH  45  70
BRANCH  57  82
ATOM     82  C   UNL A   1      39.937  34.304  36.976  1.00  0.00     0.058 A 
ATOM     83  C   UNL A   1      39.042  34.170  38.051  1.00  0.00     0.135 A 
ATOM     84  C   UNL A   1      40.701  35.480  36.904  1.00  0.00     0.135 A 
ATOM     85  F   UNL A   1      38.286  33.068  38.166  1.00  0.00    -0.206 F 
ATOM     86  C   UNL A   1      38.874  35.185  38.987  1.00  0.00     0.059 A 
ATOM     87  C   UNL A   1      40.573  36.494  37.848  1.00  0.00     0.059 A 
ATOM     88  F   UNL A   1      41.584  35.654  35.908  1.00  0.00    -0.206 F 
ATOM     89  C   UNL A   1      39.640  36.347  38.873  1.00  0.00     0.060 A 
BRANCH  89  90
ATOM     90  S   UNL A   1      39.400  37.663  40.084  1.00  0.00     0.124 S 
ATOM     91  O   UNL A   1      39.218  36.899  41.315  1.00  0.00    -0.237 OA
ATOM     92  O   UNL A   1      40.646  38.415  39.982  1.00  0.00    -0.237 OA
ATOM     93  O   UNL A   1      38.212  38.361  39.598  1.00  0.00    -0.744 OA
ENDBRANCH  89  90
ENDBRANCH  57  82
ENDBRANCH  31  32
ENDBRANCH  23  26
ENDBRANCH  21  22
ENDBRANCH   1  21
TORSDOF 18
ENDMDL
MODEL 3
REMARK VINA RESULT:     -10.4      3.725      9.329
REMARK SMILES CC[C@](O)(C(=O)NCCCCNC(=O)c1ccc(-c2c3nc(c(-c4c(F)cc(S(=O)(=O)[O-])cc4F)c4ccc([nH]4)c(-c4c(F)cc(S(=O)(=O)[O-])cc4F)c4nc(c(-c5c(F)cc(S(=O)(=O)[O-])cc5F)c5ccc2[nH]5)C=C4)C=C3)cc1)[C@@H](C)c1ccc(C)s1
REMARK SMILES IDX 10 1 9 2 8 3 7 4 5 5 6 6 3 8 2 9 1 10 81 11 82 12 83 13
REMARK SMILES IDX 84 14 88 15 85 16 86 17 87 18 4 19 11 21 12 22 13 23 14 25
REMARK SMILES IDX 15 26 16 27 80 28 17 29 79 30 18 31 19 32 20 33 73 34 21 35
REMARK SMILES IDX 78 36 72 37 74 38 22 39 77 40 71 41 70 42 23 44 57 45 36 46
REMARK SMILES IDX 56 47 37 48 40 49 55 50 75 51 38 52 39 53 54 55 76 56 41 57
REMARK SMILES IDX 24 58 25 59 34 60 26 61 27 62 33 63 35 64 28 65 29 66 30 67
REMARK SMILES IDX 31 68 32 69 58 70 59 71 68 72 60 73 61 74 67 75 69 76 62 77
REMARK SMILES IDX 63 78 64 79 65 80 66 81 42 82 43 83 52 84 44 85 45 86 51 87
REMARK SMILES IDX 53 88 46 89 47 90 48 91 49 92 50 93
REMARK H PARENT 7 7 4 20 12 24 74 43 40 54
REMARK Flexibility Score: inf
ROOT
ATOM      1  C   UNL A   1      38.447  19.708  25.018  1.00  0.00     0.023 C 
ENDROOT
BRANCH   1   2
ATOM      2  C   UNL A   1      37.558  20.865  24.566  1.00  0.00     0.023 C 
BRANCH   2   3
ATOM      3  C   UNL A   1      36.261  21.012  25.351  1.00  0.00     0.116 C 
BRANCH   3   4
ATOM      4  N   UNL A   1      35.318  19.932  25.102  1.00  0.00    -0.354 N 
ATOM      5  C   UNL A   1      33.946  19.947  25.075  1.00  0.00     0.252 C 
ATOM      6  O   UNL A   1      33.380  18.920  24.690  1.00  0.00    -0.272 OA
ATOM      7  H   UNL A   1      35.728  19.055  24.924  1.00  0.00     0.163 HD
BRANCH   5   8
ATOM      8  C   UNL A   1      33.159  21.260  25.392  1.00  0.00     0.150 C 
BRANCH   8   9
ATOM      9  C   UNL A   1      33.811  21.754  26.725  1.00  0.00     0.043 C 
ATOM     10  C   UNL A   1      32.922  22.210  27.869  1.00  0.00     0.007 C 
ENDBRANCH   8   9
BRANCH   8  11
ATOM     11  C   UNL A   1      33.261  22.291  24.197  1.00  0.00     0.068 C 
ATOM     12  C   UNL A   1      32.230  22.066  23.071  1.00  0.00     0.017 C 
BRANCH  11  13
ATOM     13  C   UNL A   1      33.155  23.749  24.668  1.00  0.00     0.011 A 
ATOM     14  C   UNL A   1      34.176  24.661  24.867  1.00  0.00     0.016 A 
ATOM     15  S   UNL A   1      31.636  24.470  25.029  1.00  0.00    -0.145 S 
ATOM     16  C   UNL A   1      33.727  25.836  25.543  1.00  0.00     0.015 A 
ATOM     17  C   UNL A   1      32.365  25.827  25.754  1.00  0.00     0.002 A 
ATOM     18  C   UNL A   1      31.531  26.809  26.503  1.00  0.00     0.056 C 
ENDBRANCH  11  13
ENDBRANCH   8  11
BRANCH   8  19
ATOM     19  O   UNL A   1      31.787  20.900  25.596  1.00  0.00    -0.379 OA
ATOM     20  H   UNL A   1      31.234  21.352  24.940  1.00  0.00     0.212 HD
ENDBRANCH   8  19
ENDBRANCH   5   8
ENDBRANCH   3   4
ENDBRANCH   2   3
ENDBRANCH   1   2
BRANCH   1  21
ATOM     21  C   UNL A   1      39.449  20.041  26.120  1.00  0.00     0.116 C 
BRANCH  21  22
ATOM     22  N   UNL A   1      40.660  19.236  26.061  1.00  0.00    -0.352 N 
ATOM     23  C   UNL A   1      41.972  19.630  26.139  1.00  0.00     0.251 C 
ATOM     24  H   UNL A   1      40.517  18.269  25.947  1.00  0.00     0.163 HD
ATOM     25  O   UNL A   1      42.865  18.803  25.951  1.00  0.00    -0.269 OA
BRANCH  23  26
ATOM     26  C   UNL A   1      42.316  21.043  26.413  1.00  0.00     0.039 A 
ATOM     27  C   UNL A   1      42.586  21.420  27.730  1.00  0.00     0.014 A 
ATOM     28  C   UNL A   1      42.382  21.992  25.388  1.00  0.00     0.014 A 
ATOM     29  C   UNL A   1      42.983  22.730  28.007  1.00  0.00     0.010 A 
ATOM     30  C   UNL A   1      42.858  23.275  25.655  1.00  0.00     0.010 A 
ATOM     31  C   UNL A   1      43.162  23.660  26.968  1.00  0.00    -0.014 A 
BRANCH  31  32
ATOM     32  C   UNL A   1      43.690  25.018  27.259  1.00  0.00     0.031 A 
ATOM     33  C   UNL A   1      45.142  25.347  27.037  1.00  0.00     0.074 A 
ATOM     34  C   UNL A   1      42.853  25.958  27.746  1.00  0.00     0.049 A 
ATOM     35  N   UNL A   1      45.762  26.488  27.201  1.00  0.00    -0.248 NA
ATOM     36  C   UNL A   1      46.018  24.249  26.595  1.00  0.00     0.031 C 
ATOM     37  C   UNL A   1      41.442  25.741  28.078  1.00  0.00     0.029 A 
ATOM     38  N   UNL A   1      43.061  27.281  28.042  1.00  0.00    -0.354 N 
ATOM     39  C   UNL A   1      47.092  26.250  26.873  1.00  0.00     0.074 A 
ATOM     40  C   UNL A   1      47.205  24.840  26.571  1.00  0.00     0.031 C 
ATOM     41  C   UNL A   1      40.905  26.897  28.497  1.00  0.00     0.029 A 
ATOM     42  C   UNL A   1      41.935  27.929  28.494  1.00  0.00     0.049 A 
ATOM     43  H   UNL A   1      43.934  27.725  27.940  1.00  0.00     0.167 HD
ATOM     44  C   UNL A   1      48.119  27.131  26.796  1.00  0.00     0.037 A 
ATOM     45  C   UNL A   1      41.752  29.212  28.862  1.00  0.00     0.037 A 
ATOM     46  C   UNL A   1      48.001  28.536  27.093  1.00  0.00     0.049 A 
ATOM     47  C   UNL A   1      42.904  30.173  28.758  1.00  0.00     0.074 A 
ATOM     48  C   UNL A   1      48.972  29.518  27.013  1.00  0.00     0.029 A 
ATOM     49  N   UNL A   1      46.840  29.161  27.530  1.00  0.00    -0.354 N 
ATOM     50  N   UNL A   1      44.138  29.944  28.375  1.00  0.00    -0.248 NA
ATOM     51  C   UNL A   1      42.636  31.571  29.118  1.00  0.00     0.031 C 
ATOM     52  C   UNL A   1      48.412  30.727  27.441  1.00  0.00     0.029 A 
ATOM     53  C   UNL A   1      47.076  30.510  27.737  1.00  0.00     0.049 A 
ATOM     54  H   UNL A   1      45.977  28.710  27.672  1.00  0.00     0.167 HD
ATOM     55  C   UNL A   1      44.789  31.171  28.433  1.00  0.00     0.074 A 
ATOM     56  C   UNL A   1      43.802  32.144  28.856  1.00  0.00     0.031 C 
ATOM     57  C   UNL A   1      46.086  31.466  28.168  1.00  0.00     0.037 A 
BRANCH  44  58
ATOM     58  C   UNL A   1      49.458  26.605  26.352  1.00  0.00     0.058 A 
ATOM     59  C   UNL A   1      49.903  26.761  25.028  1.00  0.00     0.135 A 
ATOM     60  C   UNL A   1      50.330  25.987  27.263  1.00  0.00     0.135 A 
ATOM     61  F   UNL A   1      49.106  27.330  24.110  1.00  0.00    -0.206 F 
ATOM     62  C   UNL A   1      51.151  26.304  24.618  1.00  0.00     0.059 A 
ATOM     63  C   UNL A   1      51.596  25.547  26.883  1.00  0.00     0.059 A 
ATOM     64  F   UNL A   1      49.959  25.810  28.541  1.00  0.00    -0.206 F 
ATOM     65  C   UNL A   1      51.992  25.701  25.555  1.00  0.00     0.060 A 
BRANCH  65  66
ATOM     66  S   UNL A   1      53.618  25.134  25.010  1.00  0.00     0.124 S 
ATOM     67  O   UNL A   1      53.515  23.695  25.233  1.00  0.00    -0.237 OA
ATOM     68  O   UNL A   1      53.642  25.557  23.613  1.00  0.00    -0.237 OA
ATOM     69  O   UNL A   1      54.540  25.841  25.892  1.00  0.00    -0.744 OA
ENDBRANCH  65  66
ENDBRANCH  44  58
BRANCH  45  70
ATOM     70  C   UNL A   1      40.419  29.664  29.350  1.00  0.00     0.058 A 
ATOM     71  C   UNL A   1      40.180  29.892  30.714  1.00  0.00     0.135 A 
ATOM     72  C   UNL A   1      39.356  29.876  28.458  1.00  0.00     0.135 A 
ATOM     73  F   UNL A   1      41.163  29.701  31.609  1.00  0.00    -0.206 F 
ATOM     74  C   UNL A   1      38.931  30.288  31.179  1.00  0.00     0.059 A 
ATOM     75  C   UNL A   1      38.107  30.301  28.895  1.00  0.00     0.059 A 
ATOM     76  F   UNL A   1      39.538  29.692  27.141  1.00  0.00    -0.206 F 
ATOM     77  C   UNL A   1      37.898  30.489  30.260  1.00  0.00     0.060 A 
BRANCH  77  78
ATOM     78  S   UNL A   1      36.288  31.036  30.869  1.00  0.00     0.124 S 
ATOM     79  O   UNL A   1      35.436  30.782  29.713  1.00  0.00    -0.237 OA
ATOM     80  O   UNL A   1      36.082  30.161  32.019  1.00  0.00    -0.237 OA
ATOM     81  O   UNL A   1      36.512  32.442  31.193  1.00  0.00    -0.744 OA
ENDBRANCH  77  78
ENDBRANCH  45  70
BRANCH  57  82
ATOM     82  C   UNL A   1      46.502  32.906  28.314  1.00  0.00     0.058 A 
ATOM     83  C   UNL A   1      46.418  33.810  27.243  1.00  0.00     0.135 A 
ATOM     84  C   UNL A   1      46.988  33.387  29.540  1.00  0.00     0.135 A 
ATOM     85  F   UNL A   1      45.962  33.402  26.048  1.00  0.00    -0.206 F 
ATOM     86  C   UNL A   1      46.849  35.127  27.367  1.00  0.00     0.059 A 
ATOM     87  C   UNL A   1      47.394  34.709  29.697  1.00  0.00     0.059 A 
ATOM     88  F   UNL A   1      47.075  32.572  30.602  1.00  0.00    -0.206 F 
ATOM     89  C   UNL A   1      47.343  35.565  28.598  1.00  0.00     0.060 A 
BRANCH  89  90
ATOM     90  S   UNL A   1      47.915  37.271  28.742  1.00  0.00     0.124 S 
ATOM     91  O   UNL A   1      49.156  37.230  27.974  1.00  0.00    -0.237 OA
ATOM     92  O   UNL A   1      46.819  38.022  28.137  1.00  0.00    -0.237 OA
ATOM     93  O   UNL A   1      48.074  37.455  30.182  1.00  0.00    -0.744 OA
ENDBRANCH  89  90
ENDBRANCH  57  82
ENDBRANCH  31  32
ENDBRANCH  23  26
ENDBRANCH  21  22
ENDBRANCH   1  21
TORSDOF 18
ENDMDL
