MODEL 1
REMARK VINA RESULT:     -13.1      0.000      0.000
REMARK SMILES O=C(CN1C(=O)/C(=C\c2c(F)cccc2Cl)Oc2ccccc21)NCCCCNC(=O)c1ccc(-c2c3nc(c(-c4c(F)cc(S(=O)(=O)[O-])cc4F)c4ccc([nH]4)c(-c4c(F)cc(S(=O)(=O)[O-])cc4F)c4nc(c(-c5c(F)cc(S(=O)(=O)[O-])cc5F)c5ccc2[nH]5)C=C4)C=C3)cc1
REMARK SMILES IDX 27 1 26 2 25 3 24 4 1 5 2 6 3 8 4 9 5 10 23 11 6 12 7 13
REMARK SMILES IDX 18 14 22 15 8 16 17 17 19 18 21 19 20 20 9 21 10 22 15 23
REMARK SMILES IDX 11 24 12 25 14 26 16 27 13 28 28 29 29 30 30 31 31 33 32 34
REMARK SMILES IDX 33 35 97 36 34 37 96 38 35 39 36 40 37 41 90 42 38 43 95 44
REMARK SMILES IDX 89 45 91 46 39 47 94 48 88 49 87 50 40 52 74 53 53 54 73 55
REMARK SMILES IDX 54 56 57 57 72 58 92 59 55 60 56 61 71 63 93 64 58 65 41 66
REMARK SMILES IDX 42 67 51 68 43 69 44 70 50 71 52 72 45 73 46 74 47 75 48 76
REMARK SMILES IDX 49 77 75 78 76 79 85 80 77 81 78 82 84 83 86 84 79 85 80 86
REMARK SMILES IDX 81 87 82 88 83 89 59 90 60 91 69 92 61 93 62 94 68 95 70 96
REMARK SMILES IDX 63 97 64 98 65 99 66 100 67 101
REMARK H PARENT 24 7 29 32 91 51 57 62
REMARK Flexibility Score: inf
ROOT
ATOM      1  C   UNL A   1      40.775  22.410  27.597  1.00  0.00     0.023 C 
ENDROOT
BRANCH   1   2
ATOM      2  C   UNL A   1      39.797  21.964  26.511  1.00  0.00     0.023 C 
BRANCH   2   3
ATOM      3  C   UNL A   1      38.733  22.981  26.117  1.00  0.00     0.116 C 
BRANCH   3   4
ATOM      4  N   UNL A   1      37.370  22.572  26.399  1.00  0.00    -0.355 N 
ATOM      5  O   UNL A   1      37.003  21.766  24.287  1.00  0.00    -0.273 OA
ATOM      6  C   UNL A   1      36.654  21.851  25.465  1.00  0.00     0.240 C 
ATOM      7  H   UNL A   1      36.955  22.810  27.259  1.00  0.00     0.163 HD
BRANCH   6   8
ATOM      8  C   UNL A   1      35.331  21.244  25.936  1.00  0.00     0.226 C 
BRANCH   8   9
ATOM      9  N   UNL A   1      34.213  20.958  25.029  1.00  0.00    -0.293 N 
ATOM     10  C   UNL A   1      33.470  22.075  24.643  1.00  0.00     0.294 C 
ATOM     11  C   UNL A   1      33.974  19.691  24.423  1.00  0.00     0.088 A 
ATOM     12  O   UNL A   1      33.777  23.210  25.010  1.00  0.00    -0.265 OA
ATOM     13  C   UNL A   1      32.294  21.832  23.736  1.00  0.00     0.193 C 
ATOM     14  C   UNL A   1      32.880  19.544  23.566  1.00  0.00     0.151 A 
ATOM     15  C   UNL A   1      34.774  18.562  24.637  1.00  0.00     0.030 A 
ATOM     16  C   UNL A   1      31.388  22.789  23.463  1.00  0.00     0.065 C 
ATOM     17  O   UNL A   1      32.079  20.582  23.178  1.00  0.00    -0.449 OA
ATOM     18  C   UNL A   1      32.529  18.298  23.032  1.00  0.00     0.049 A 
ATOM     19  C   UNL A   1      34.418  17.308  24.124  1.00  0.00     0.002 A 
ATOM     20  C   UNL A   1      33.284  17.172  23.335  1.00  0.00     0.004 A 
BRANCH  16  21
ATOM     21  C   UNL A   1      31.327  24.118  24.086  1.00  0.00     0.033 A 
ATOM     22  C   UNL A   1      30.740  24.280  25.346  1.00  0.00     0.132 A 
ATOM     23  C   UNL A   1      31.782  25.264  23.413  1.00  0.00     0.051 A 
ATOM     24  F   UNL A   1      30.292  23.213  26.026  1.00  0.00    -0.206 F 
ATOM     25  C   UNL A   1      30.585  25.543  25.917  1.00  0.00     0.040 A 
ATOM     26  C   UNL A   1      31.636  26.532  23.984  1.00  0.00     0.021 A 
ATOM     27  Cl  UNL A   1      32.519  25.167  21.849  1.00  0.00    -0.084 Cl
ATOM     28  C   UNL A   1      31.030  26.672  25.233  1.00  0.00     0.005 A 
ENDBRANCH  16  21
ENDBRANCH   8   9
ENDBRANCH   6   8
ENDBRANCH   3   4
ENDBRANCH   2   3
ENDBRANCH   1   2
BRANCH   1  29
ATOM     29  C   UNL A   1      42.079  23.031  27.106  1.00  0.00     0.116 C 
BRANCH  29  30
ATOM     30  N   UNL A   1      41.896  23.999  26.033  1.00  0.00    -0.352 N 
ATOM     31  C   UNL A   1      41.582  25.338  26.096  1.00  0.00     0.251 C 
ATOM     32  H   UNL A   1      42.015  23.639  25.124  1.00  0.00     0.163 HD
ATOM     33  O   UNL A   1      41.365  25.962  25.059  1.00  0.00    -0.269 OA
BRANCH  31  34
ATOM     34  C   UNL A   1      41.463  26.019  27.406  1.00  0.00     0.039 A 
ATOM     35  C   UNL A   1      40.326  25.858  28.201  1.00  0.00     0.014 A 
ATOM     36  C   UNL A   1      42.500  26.855  27.836  1.00  0.00     0.014 A 
ATOM     37  C   UNL A   1      40.144  26.671  29.316  1.00  0.00     0.010 A 
ATOM     38  C   UNL A   1      42.348  27.611  29.003  1.00  0.00     0.010 A 
ATOM     39  C   UNL A   1      41.142  27.573  29.720  1.00  0.00    -0.014 A 
BRANCH  39  40
ATOM     40  C   UNL A   1      40.884  28.489  30.865  1.00  0.00     0.031 A 
ATOM     41  C   UNL A   1      41.775  28.459  32.084  1.00  0.00     0.074 A 
ATOM     42  C   UNL A   1      39.898  29.403  30.780  1.00  0.00     0.049 A 
ATOM     43  N   UNL A   1      41.719  29.199  33.163  1.00  0.00    -0.248 NA
ATOM     44  C   UNL A   1      42.868  27.474  32.096  1.00  0.00     0.031 C 
ATOM     45  C   UNL A   1      38.977  29.547  29.650  1.00  0.00     0.029 A 
ATOM     46  N   UNL A   1      39.521  30.402  31.642  1.00  0.00    -0.354 N 
ATOM     47  C   UNL A   1      42.756  28.765  33.981  1.00  0.00     0.074 A 
ATOM     48  C   UNL A   1      43.410  27.675  33.290  1.00  0.00     0.031 C 
ATOM     49  C   UNL A   1      38.180  30.605  29.863  1.00  0.00     0.029 A 
ATOM     50  C   UNL A   1      38.495  31.184  31.165  1.00  0.00     0.049 A 
ATOM     51  H   UNL A   1      39.947  30.546  32.518  1.00  0.00     0.167 HD
ATOM     52  C   UNL A   1      43.141  29.242  35.189  1.00  0.00     0.037 A 
ATOM     53  C   UNL A   1      37.872  32.243  31.716  1.00  0.00     0.037 A 
ATOM     54  C   UNL A   1      42.514  30.346  35.866  1.00  0.00     0.049 A 
ATOM     55  C   UNL A   1      38.296  32.727  33.075  1.00  0.00     0.074 A 
ATOM     56  C   UNL A   1      42.841  30.899  37.093  1.00  0.00     0.029 A 
ATOM     57  N   UNL A   1      41.443  31.074  35.374  1.00  0.00    -0.354 N 
ATOM     58  N   UNL A   1      39.268  32.288  33.837  1.00  0.00    -0.248 NA
ATOM     59  C   UNL A   1      37.530  33.839  33.654  1.00  0.00     0.031 C 
ATOM     60  C   UNL A   1      41.951  31.946  37.354  1.00  0.00     0.029 A 
ATOM     61  C   UNL A   1      41.090  32.065  36.275  1.00  0.00     0.049 A 
ATOM     62  H   UNL A   1      40.999  30.911  34.511  1.00  0.00     0.167 HD
ATOM     63  C   UNL A   1      39.237  33.076  34.981  1.00  0.00     0.074 A 
ATOM     64  C   UNL A   1      38.163  34.033  34.804  1.00  0.00     0.031 C 
ATOM     65  C   UNL A   1      40.023  33.011  36.083  1.00  0.00     0.037 A 
BRANCH  52  66
ATOM     66  C   UNL A   1      44.311  28.583  35.868  1.00  0.00     0.058 A 
ATOM     67  C   UNL A   1      45.620  29.050  35.678  1.00  0.00     0.135 A 
ATOM     68  C   UNL A   1      44.111  27.539  36.785  1.00  0.00     0.135 A 
ATOM     69  F   UNL A   1      45.867  30.034  34.800  1.00  0.00    -0.206 F 
ATOM     70  C   UNL A   1      46.693  28.502  36.375  1.00  0.00     0.059 A 
ATOM     71  C   UNL A   1      45.166  26.989  37.506  1.00  0.00     0.059 A 
ATOM     72  F   UNL A   1      42.877  27.056  37.000  1.00  0.00    -0.206 F 
ATOM     73  C   UNL A   1      46.455  27.476  37.291  1.00  0.00     0.060 A 
BRANCH  73  74
ATOM     74  S   UNL A   1      47.854  26.807  38.217  1.00  0.00     0.124 S 
ATOM     75  O   UNL A   1      47.566  27.284  39.565  1.00  0.00    -0.237 OA
ATOM     76  O   UNL A   1      47.708  25.370  38.008  1.00  0.00    -0.237 OA
ATOM     77  O   UNL A   1      49.013  27.416  37.570  1.00  0.00    -0.744 OA
ENDBRANCH  73  74
ENDBRANCH  52  66
BRANCH  53  78
ATOM     78  C   UNL A   1      36.773  32.923  30.983  1.00  0.00     0.058 A 
ATOM     79  C   UNL A   1      35.436  32.751  31.367  1.00  0.00     0.135 A 
ATOM     80  C   UNL A   1      37.039  33.756  29.886  1.00  0.00     0.135 A 
ATOM     81  F   UNL A   1      35.133  31.957  32.407  1.00  0.00    -0.206 F 
ATOM     82  C   UNL A   1      34.397  33.368  30.680  1.00  0.00     0.059 A 
ATOM     83  C   UNL A   1      36.019  34.404  29.197  1.00  0.00     0.059 A 
ATOM     84  F   UNL A   1      38.305  33.963  29.489  1.00  0.00    -0.206 F 
ATOM     85  C   UNL A   1      34.699  34.194  29.595  1.00  0.00     0.060 A 
BRANCH  85  86
ATOM     86  S   UNL A   1      33.348  35.025  28.731  1.00  0.00     0.124 S 
ATOM     87  O   UNL A   1      32.780  33.929  27.956  1.00  0.00    -0.237 OA
ATOM     88  O   UNL A   1      32.533  35.517  29.836  1.00  0.00    -0.237 OA
ATOM     89  O   UNL A   1      34.033  36.059  27.960  1.00  0.00    -0.744 OA
ENDBRANCH  85  86
ENDBRANCH  53  78
BRANCH  65  90
ATOM     90  C   UNL A   1      39.764  34.003  37.178  1.00  0.00     0.058 A 
ATOM     91  C   UNL A   1      38.978  33.670  38.292  1.00  0.00     0.135 A 
ATOM     92  C   UNL A   1      40.355  35.275  37.145  1.00  0.00     0.135 A 
ATOM     93  F   UNL A   1      38.385  32.467  38.366  1.00  0.00    -0.206 F 
ATOM     94  C   UNL A   1      38.777  34.570  39.333  1.00  0.00     0.059 A 
ATOM     95  C   UNL A   1      40.183  36.185  38.185  1.00  0.00     0.059 A 
ATOM     96  F   UNL A   1      41.121  35.638  36.105  1.00  0.00    -0.206 F 
ATOM     97  C   UNL A   1      39.386  35.825  39.271  1.00  0.00     0.060 A 
BRANCH  97  98
ATOM     98  S   UNL A   1      39.152  36.969  40.648  1.00  0.00     0.124 S 
ATOM     99  O   UNL A   1      38.420  36.139  41.599  1.00  0.00    -0.237 OA
ATOM    100  O   UNL A   1      40.525  37.298  41.019  1.00  0.00    -0.237 OA
ATOM    101  O   UNL A   1      38.391  38.064  40.054  1.00  0.00    -0.744 OA
ENDBRANCH  97  98
ENDBRANCH  65  90
ENDBRANCH  39  40
ENDBRANCH  31  34
ENDBRANCH  29  30
ENDBRANCH   1  29
TORSDOF 16
ENDMDL
MODEL 2
REMARK VINA RESULT:     -13.0      0.259      8.042
REMARK SMILES O=C(CN1C(=O)/C(=C\c2c(F)cccc2Cl)Oc2ccccc21)NCCCCNC(=O)c1ccc(-c2c3nc(c(-c4c(F)cc(S(=O)(=O)[O-])cc4F)c4ccc([nH]4)c(-c4c(F)cc(S(=O)(=O)[O-])cc4F)c4nc(c(-c5c(F)cc(S(=O)(=O)[O-])cc5F)c5ccc2[nH]5)C=C4)C=C3)cc1
REMARK SMILES IDX 27 1 26 2 25 3 24 4 1 5 2 6 3 8 4 9 5 10 23 11 6 12 7 13
REMARK SMILES IDX 18 14 22 15 8 16 17 17 19 18 21 19 20 20 9 21 10 22 15 23
REMARK SMILES IDX 11 24 12 25 14 26 16 27 13 28 28 29 29 30 30 31 31 33 32 34
REMARK SMILES IDX 33 35 97 36 34 37 96 38 35 39 36 40 37 41 90 42 38 43 95 44
REMARK SMILES IDX 89 45 91 46 39 47 94 48 88 49 87 50 40 52 74 53 53 54 73 55
REMARK SMILES IDX 54 56 57 57 72 58 92 59 55 60 56 61 71 63 93 64 58 65 41 66
REMARK SMILES IDX 42 67 51 68 43 69 44 70 50 71 52 72 45 73 46 74 47 75 48 76
REMARK SMILES IDX 49 77 75 78 76 79 85 80 77 81 78 82 84 83 86 84 79 85 80 86
REMARK SMILES IDX 81 87 82 88 83 89 59 90 60 91 69 92 61 93 62 94 68 95 70 96
REMARK SMILES IDX 63 97 64 98 65 99 66 100 67 101
REMARK H PARENT 24 7 29 32 91 51 57 62
REMARK Flexibility Score: inf
ROOT
ATOM      1  C   UNL A   1      40.890  22.289  27.724  1.00  0.00     0.023 C 
ENDROOT
BRANCH   1   2
ATOM      2  C   UNL A   1      40.108  21.513  26.666  1.00  0.00     0.023 C 
BRANCH   2   3
ATOM      3  C   UNL A   1      39.099  22.320  25.860  1.00  0.00     0.116 C 
BRANCH   3   4
ATOM      4  N   UNL A   1      37.715  22.134  26.257  1.00  0.00    -0.355 N 
ATOM      5  O   UNL A   1      36.976  21.801  24.116  1.00  0.00    -0.273 OA
ATOM      6  C   UNL A   1      36.774  21.739  25.329  1.00  0.00     0.240 C 
ATOM      7  H   UNL A   1      37.449  22.289  27.192  1.00  0.00     0.163 HD
BRANCH   6   8
ATOM      8  C   UNL A   1      35.408  21.321  25.875  1.00  0.00     0.226 C 
BRANCH   8   9
ATOM      9  N   UNL A   1      34.259  21.016  25.015  1.00  0.00    -0.293 N 
ATOM     10  C   UNL A   1      33.495  22.124  24.642  1.00  0.00     0.294 C 
ATOM     11  C   UNL A   1      34.006  19.741  24.434  1.00  0.00     0.088 A 
ATOM     12  O   UNL A   1      33.809  23.265  24.983  1.00  0.00    -0.265 OA
ATOM     13  C   UNL A   1      32.288  21.862  23.782  1.00  0.00     0.193 C 
ATOM     14  C   UNL A   1      32.881  19.577  23.619  1.00  0.00     0.151 A 
ATOM     15  C   UNL A   1      34.821  18.618  24.632  1.00  0.00     0.030 A 
ATOM     16  C   UNL A   1      31.367  22.811  23.531  1.00  0.00     0.065 C 
ATOM     17  O   UNL A   1      32.061  20.605  23.248  1.00  0.00    -0.449 OA
ATOM     18  C   UNL A   1      32.519  18.322  23.114  1.00  0.00     0.049 A 
ATOM     19  C   UNL A   1      34.453  17.356  24.148  1.00  0.00     0.002 A 
ATOM     20  C   UNL A   1      33.292  17.203  23.403  1.00  0.00     0.004 A 
BRANCH  16  21
ATOM     21  C   UNL A   1      31.321  24.147  24.139  1.00  0.00     0.033 A 
ATOM     22  C   UNL A   1      30.732  24.330  25.396  1.00  0.00     0.132 A 
ATOM     23  C   UNL A   1      31.790  25.280  23.455  1.00  0.00     0.051 A 
ATOM     24  F   UNL A   1      30.270  23.276  26.086  1.00  0.00    -0.206 F 
ATOM     25  C   UNL A   1      30.591  25.601  25.953  1.00  0.00     0.040 A 
ATOM     26  C   UNL A   1      31.658  26.556  24.012  1.00  0.00     0.021 A 
ATOM     27  Cl  UNL A   1      32.530  25.157  21.893  1.00  0.00    -0.084 Cl
ATOM     28  C   UNL A   1      31.052  26.717  25.257  1.00  0.00     0.005 A 
ENDBRANCH  16  21
ENDBRANCH   8   9
ENDBRANCH   6   8
ENDBRANCH   3   4
ENDBRANCH   2   3
ENDBRANCH   1   2
BRANCH   1  29
ATOM     29  C   UNL A   1      42.112  23.052  27.224  1.00  0.00     0.116 C 
BRANCH  29  30
ATOM     30  N   UNL A   1      41.821  23.964  26.127  1.00  0.00    -0.352 N 
ATOM     31  C   UNL A   1      41.488  25.300  26.153  1.00  0.00     0.251 C 
ATOM     32  H   UNL A   1      41.869  23.563  25.228  1.00  0.00     0.163 HD
ATOM     33  O   UNL A   1      41.173  25.870  25.111  1.00  0.00    -0.269 OA
BRANCH  31  34
ATOM     34  C   UNL A   1      41.467  26.042  27.436  1.00  0.00     0.039 A 
ATOM     35  C   UNL A   1      40.381  25.944  28.308  1.00  0.00     0.014 A 
ATOM     36  C   UNL A   1      42.547  26.870  27.761  1.00  0.00     0.014 A 
ATOM     37  C   UNL A   1      40.288  26.810  29.394  1.00  0.00     0.010 A 
ATOM     38  C   UNL A   1      42.487  27.682  28.899  1.00  0.00     0.010 A 
ATOM     39  C   UNL A   1      41.329  27.704  29.692  1.00  0.00    -0.014 A 
BRANCH  39  40
ATOM     40  C   UNL A   1      41.165  28.677  30.807  1.00  0.00     0.031 A 
ATOM     41  C   UNL A   1      40.069  29.713  30.762  1.00  0.00     0.074 A 
ATOM     42  C   UNL A   1      41.950  28.580  31.898  1.00  0.00     0.049 A 
ATOM     43  N   UNL A   1      39.758  30.623  31.652  1.00  0.00    -0.248 NA
ATOM     44  C   UNL A   1      39.210  29.735  29.567  1.00  0.00     0.031 C 
ATOM     45  C   UNL A   1      43.035  27.612  32.073  1.00  0.00     0.029 A 
ATOM     46  N   UNL A   1      41.941  29.283  33.077  1.00  0.00    -0.354 N 
ATOM     47  C   UNL A   1      38.681  31.327  31.123  1.00  0.00     0.074 A 
ATOM     48  C   UNL A   1      38.407  30.761  29.820  1.00  0.00     0.031 C 
ATOM     49  C   UNL A   1      43.549  27.746  33.305  1.00  0.00     0.029 A 
ATOM     50  C   UNL A   1      42.869  28.840  33.990  1.00  0.00     0.049 A 
ATOM     51  H   UNL A   1      41.326  30.032  33.252  1.00  0.00     0.167 HD
ATOM     52  C   UNL A   1      37.973  32.339  31.679  1.00  0.00     0.037 A 
ATOM     53  C   UNL A   1      43.148  29.271  35.235  1.00  0.00     0.037 A 
ATOM     54  C   UNL A   1      38.221  32.883  32.988  1.00  0.00     0.049 A 
ATOM     55  C   UNL A   1      42.370  30.421  35.811  1.00  0.00     0.074 A 
ATOM     56  C   UNL A   1      37.550  33.908  33.633  1.00  0.00     0.029 A 
ATOM     57  N   UNL A   1      39.207  32.444  33.856  1.00  0.00    -0.354 N 
ATOM     58  N   UNL A   1      41.369  31.083  35.285  1.00  0.00    -0.248 NA
ATOM     59  C   UNL A   1      42.770  30.893  37.145  1.00  0.00     0.031 C 
ATOM     60  C   UNL A   1      38.147  34.105  34.883  1.00  0.00     0.029 A 
ATOM     61  C   UNL A   1      39.168  33.181  35.029  1.00  0.00     0.049 A 
ATOM     62  H   UNL A   1      39.841  31.714  33.669  1.00  0.00     0.167 HD
ATOM     63  C   UNL A   1      41.012  32.041  36.225  1.00  0.00     0.074 A 
ATOM     64  C   UNL A   1      41.892  31.862  37.363  1.00  0.00     0.031 C 
ATOM     65  C   UNL A   1      40.047  32.989  36.152  1.00  0.00     0.037 A 
BRANCH  52  66
ATOM     66  C   UNL A   1      36.842  32.929  30.883  1.00  0.00     0.058 A 
ATOM     67  C   UNL A   1      35.507  32.591  31.153  1.00  0.00     0.135 A 
ATOM     68  C   UNL A   1      37.088  33.908  29.907  1.00  0.00     0.135 A 
ATOM     69  F   UNL A   1      35.219  31.649  32.065  1.00  0.00    -0.206 F 
ATOM     70  C   UNL A   1      34.454  33.204  30.481  1.00  0.00     0.059 A 
ATOM     71  C   UNL A   1      36.050  34.547  29.236  1.00  0.00     0.059 A 
ATOM     72  F   UNL A   1      38.348  34.264  29.611  1.00  0.00    -0.206 F 
ATOM     73  C   UNL A   1      34.735  34.184  29.528  1.00  0.00     0.060 A 
BRANCH  73  74
ATOM     74  S   UNL A   1      33.353  34.998  28.697  1.00  0.00     0.124 S 
ATOM     75  O   UNL A   1      34.042  36.036  27.938  1.00  0.00    -0.237 OA
ATOM     76  O   UNL A   1      32.780  33.912  27.910  1.00  0.00    -0.237 OA
ATOM     77  O   UNL A   1      32.525  35.474  29.801  1.00  0.00    -0.744 OA
ENDBRANCH  73  74
ENDBRANCH  52  66
BRANCH  53  78
ATOM     78  C   UNL A   1      44.219  28.613  36.027  1.00  0.00     0.058 A 
ATOM     79  C   UNL A   1      43.922  27.563  36.907  1.00  0.00     0.135 A 
ATOM     80  C   UNL A   1      45.557  29.022  35.921  1.00  0.00     0.135 A 
ATOM     81  F   UNL A   1      42.655  27.142  37.047  1.00  0.00    -0.206 F 
ATOM     82  C   UNL A   1      44.912  26.949  37.666  1.00  0.00     0.059 A 
ATOM     83  C   UNL A   1      46.568  28.409  36.651  1.00  0.00     0.059 A 
ATOM     84  F   UNL A   1      45.892  30.015  35.081  1.00  0.00    -0.206 F 
ATOM     85  C   UNL A   1      46.234  27.380  37.531  1.00  0.00     0.060 A 
BRANCH  85  86
ATOM     86  S   UNL A   1      47.520  26.551  38.490  1.00  0.00     0.124 S 
ATOM     87  O   UNL A   1      48.676  27.398  38.220  1.00  0.00    -0.237 OA
ATOM     88  O   UNL A   1      46.984  26.614  39.845  1.00  0.00    -0.237 OA
ATOM     89  O   UNL A   1      47.563  25.214  37.903  1.00  0.00    -0.744 OA
ENDBRANCH  85  86
ENDBRANCH  53  78
BRANCH  65  90
ATOM     90  C   UNL A   1      39.879  33.899  37.333  1.00  0.00     0.058 A 
ATOM     91  C   UNL A   1      40.485  35.164  37.370  1.00  0.00     0.135 A 
ATOM     92  C   UNL A   1      39.057  33.530  38.409  1.00  0.00     0.135 A 
ATOM     93  F   UNL A   1      41.285  35.560  36.367  1.00  0.00    -0.206 F 
ATOM     94  C   UNL A   1      40.290  36.030  38.441  1.00  0.00     0.059 A 
ATOM     95  C   UNL A   1      38.833  34.388  39.481  1.00  0.00     0.059 A 
ATOM     96  F   UNL A   1      38.449  32.333  38.417  1.00  0.00    -0.206 F 
ATOM     97  C   UNL A   1      39.460  35.633  39.491  1.00  0.00     0.060 A 
BRANCH  97  98
ATOM     98  S   UNL A   1      39.182  36.783  40.856  1.00  0.00     0.124 S 
ATOM     99  O   UNL A   1      40.549  37.081  41.273  1.00  0.00    -0.237 OA
ATOM    100  O   UNL A   1      38.467  37.876  40.203  1.00  0.00    -0.237 OA
ATOM    101  O   UNL A   1      38.392  36.002  41.802  1.00  0.00    -0.744 OA
ENDBRANCH  97  98
ENDBRANCH  65  90
ENDBRANCH  39  40
ENDBRANCH  31  34
ENDBRANCH  29  30
ENDBRANCH   1  29
TORSDOF 16
ENDMDL
MODEL 3
REMARK VINA RESULT:     -12.8      1.220      3.195
REMARK SMILES O=C(CN1C(=O)/C(=C\c2c(F)cccc2Cl)Oc2ccccc21)NCCCCNC(=O)c1ccc(-c2c3nc(c(-c4c(F)cc(S(=O)(=O)[O-])cc4F)c4ccc([nH]4)c(-c4c(F)cc(S(=O)(=O)[O-])cc4F)c4nc(c(-c5c(F)cc(S(=O)(=O)[O-])cc5F)c5ccc2[nH]5)C=C4)C=C3)cc1
REMARK SMILES IDX 27 1 26 2 25 3 24 4 1 5 2 6 3 8 4 9 5 10 23 11 6 12 7 13
REMARK SMILES IDX 18 14 22 15 8 16 17 17 19 18 21 19 20 20 9 21 10 22 15 23
REMARK SMILES IDX 11 24 12 25 14 26 16 27 13 28 28 29 29 30 30 31 31 33 32 34
REMARK SMILES IDX 33 35 97 36 34 37 96 38 35 39 36 40 37 41 90 42 38 43 95 44
REMARK SMILES IDX 89 45 91 46 39 47 94 48 88 49 87 50 40 52 74 53 53 54 73 55
REMARK SMILES IDX 54 56 57 57 72 58 92 59 55 60 56 61 71 63 93 64 58 65 41 66
REMARK SMILES IDX 42 67 51 68 43 69 44 70 50 71 52 72 45 73 46 74 47 75 48 76
REMARK SMILES IDX 49 77 75 78 76 79 85 80 77 81 78 82 84 83 86 84 79 85 80 86
REMARK SMILES IDX 81 87 82 88 83 89 59 90 60 91 69 92 61 93 62 94 68 95 70 96
REMARK SMILES IDX 63 97 64 98 65 99 66 100 67 101
REMARK H PARENT 24 7 29 32 91 51 57 62
REMARK Flexibility Score: inf
ROOT
ATOM      1  C   UNL A   1      41.756  21.601  26.500  1.00  0.00     0.023 C 
ENDROOT
BRANCH   1   2
ATOM      2  C   UNL A   1      40.292  21.193  26.650  1.00  0.00     0.023 C 
BRANCH   2   3
ATOM      3  C   UNL A   1      39.266  22.286  26.375  1.00  0.00     0.116 C 
BRANCH   3   4
ATOM      4  N   UNL A   1      38.295  21.961  25.346  1.00  0.00    -0.355 N 
ATOM      5  O   UNL A   1      36.683  23.340  26.206  1.00  0.00    -0.273 OA
ATOM      6  C   UNL A   1      37.101  22.649  25.277  1.00  0.00     0.240 C 
ATOM      7  H   UNL A   1      38.490  21.248  24.696  1.00  0.00     0.163 HD
BRANCH   6   8
ATOM      8  C   UNL A   1      36.255  22.425  24.023  1.00  0.00     0.226 C 
BRANCH   8   9
ATOM      9  N   UNL A   1      34.787  22.409  24.039  1.00  0.00    -0.293 N 
ATOM     10  C   UNL A   1      34.217  21.172  24.346  1.00  0.00     0.294 C 
ATOM     11  C   UNL A   1      33.970  23.571  23.935  1.00  0.00     0.088 A 
ATOM     12  O   UNL A   1      34.913  20.195  24.624  1.00  0.00    -0.265 OA
ATOM     13  C   UNL A   1      32.714  21.095  24.347  1.00  0.00     0.193 C 
ATOM     14  C   UNL A   1      32.579  23.429  23.975  1.00  0.00     0.151 A 
ATOM     15  C   UNL A   1      34.476  24.869  23.787  1.00  0.00     0.030 A 
ATOM     16  C   UNL A   1      32.055  19.924  24.424  1.00  0.00     0.065 C 
ATOM     17  O   UNL A   1      31.948  22.242  24.224  1.00  0.00    -0.449 OA
ATOM     18  C   UNL A   1      31.725  24.518  23.763  1.00  0.00     0.049 A 
ATOM     19  C   UNL A   1      33.628  25.959  23.554  1.00  0.00     0.002 A 
ATOM     20  C   UNL A   1      32.252  25.782  23.524  1.00  0.00     0.004 A 
BRANCH  16  21
ATOM     21  C   UNL A   1      32.667  18.589  24.380  1.00  0.00     0.033 A 
ATOM     22  C   UNL A   1      33.064  17.956  25.563  1.00  0.00     0.132 A 
ATOM     23  C   UNL A   1      32.938  17.947  23.161  1.00  0.00     0.051 A 
ATOM     24  F   UNL A   1      32.825  18.532  26.752  1.00  0.00    -0.206 F 
ATOM     25  C   UNL A   1      33.732  16.732  25.542  1.00  0.00     0.040 A 
ATOM     26  C   UNL A   1      33.601  16.716  23.134  1.00  0.00     0.021 A 
ATOM     27  Cl  UNL A   1      32.489  18.652  21.643  1.00  0.00    -0.084 Cl
ATOM     28  C   UNL A   1      34.004  16.112  24.325  1.00  0.00     0.005 A 
ENDBRANCH  16  21
ENDBRANCH   8   9
ENDBRANCH   6   8
ENDBRANCH   3   4
ENDBRANCH   2   3
ENDBRANCH   1   2
BRANCH   1  29
ATOM     29  C   UNL A   1      42.103  23.018  26.944  1.00  0.00     0.116 C 
BRANCH  29  30
ATOM     30  N   UNL A   1      41.994  24.005  25.879  1.00  0.00    -0.352 N 
ATOM     31  C   UNL A   1      41.749  25.359  25.949  1.00  0.00     0.251 C 
ATOM     32  H   UNL A   1      42.114  23.650  24.968  1.00  0.00     0.163 HD
ATOM     33  O   UNL A   1      41.587  26.003  24.916  1.00  0.00    -0.269 OA
BRANCH  31  34
ATOM     34  C   UNL A   1      41.635  26.031  27.265  1.00  0.00     0.039 A 
ATOM     35  C   UNL A   1      40.493  25.882  28.055  1.00  0.00     0.014 A 
ATOM     36  C   UNL A   1      42.684  26.847  27.705  1.00  0.00     0.014 A 
ATOM     37  C   UNL A   1      40.320  26.689  29.176  1.00  0.00     0.010 A 
ATOM     38  C   UNL A   1      42.540  27.596  28.877  1.00  0.00     0.010 A 
ATOM     39  C   UNL A   1      41.332  27.572  29.590  1.00  0.00    -0.014 A 
BRANCH  39  40
ATOM     40  C   UNL A   1      41.084  28.483  30.741  1.00  0.00     0.031 A 
ATOM     41  C   UNL A   1      42.000  28.465  31.941  1.00  0.00     0.074 A 
ATOM     42  C   UNL A   1      40.083  29.383  30.677  1.00  0.00     0.049 A 
ATOM     43  N   UNL A   1      41.957  29.203  33.022  1.00  0.00    -0.248 NA
ATOM     44  C   UNL A   1      43.108  27.496  31.929  1.00  0.00     0.031 C 
ATOM     45  C   UNL A   1      39.137  29.514  29.567  1.00  0.00     0.029 A 
ATOM     46  N   UNL A   1      39.710  30.375  31.549  1.00  0.00    -0.354 N 
ATOM     47  C   UNL A   1      43.017  28.783  33.818  1.00  0.00     0.074 A 
ATOM     48  C   UNL A   1      43.672  27.704  33.112  1.00  0.00     0.031 C 
ATOM     49  C   UNL A   1      38.329  30.560  29.799  1.00  0.00     0.029 A 
ATOM     50  C   UNL A   1      38.663  31.143  31.095  1.00  0.00     0.049 A 
ATOM     51  H   UNL A   1      40.151  30.524  32.416  1.00  0.00     0.167 HD
ATOM     52  C   UNL A   1      43.420  29.265  35.018  1.00  0.00     0.037 A 
ATOM     53  C   UNL A   1      38.036  32.192  31.660  1.00  0.00     0.037 A 
ATOM     54  C   UNL A   1      42.791  30.359  35.710  1.00  0.00     0.049 A 
ATOM     55  C   UNL A   1      38.481  32.680  33.010  1.00  0.00     0.074 A 
ATOM     56  C   UNL A   1      43.135  30.916  36.930  1.00  0.00     0.029 A 
ATOM     57  N   UNL A   1      41.699  31.071  35.240  1.00  0.00    -0.354 N 
ATOM     58  N   UNL A   1      39.475  32.255  33.751  1.00  0.00    -0.248 NA
ATOM     59  C   UNL A   1      37.711  33.781  33.606  1.00  0.00     0.031 C 
ATOM     60  C   UNL A   1      42.235  31.949  37.210  1.00  0.00     0.029 A 
ATOM     61  C   UNL A   1      41.351  32.057  36.150  1.00  0.00     0.049 A 
ATOM     62  H   UNL A   1      41.239  30.903  34.386  1.00  0.00     0.167 HD
ATOM     63  C   UNL A   1      39.456  33.042  34.897  1.00  0.00     0.074 A 
ATOM     64  C   UNL A   1      38.365  33.983  34.743  1.00  0.00     0.031 C 
ATOM     65  C   UNL A   1      40.266  32.987  35.981  1.00  0.00     0.037 A 
BRANCH  52  66
ATOM     66  C   UNL A   1      44.613  28.623  35.671  1.00  0.00     0.058 A 
ATOM     67  C   UNL A   1      44.465  27.556  36.571  1.00  0.00     0.135 A 
ATOM     68  C   UNL A   1      45.916  29.016  35.326  1.00  0.00     0.135 A 
ATOM     69  F   UNL A   1      43.240  27.154  36.947  1.00  0.00    -0.206 F 
ATOM     70  C   UNL A   1      45.569  26.901  37.107  1.00  0.00     0.059 A 
ATOM     71  C   UNL A   1      47.034  28.363  35.835  1.00  0.00     0.059 A 
ATOM     72  F   UNL A   1      46.110  30.032  34.471  1.00  0.00    -0.206 F 
ATOM     73  C   UNL A   1      46.849  27.308  36.728  1.00  0.00     0.060 A 
BRANCH  73  74
ATOM     74  S   UNL A   1      48.269  26.417  37.401  1.00  0.00     0.124 S 
ATOM     75  O   UNL A   1      48.294  26.906  38.776  1.00  0.00    -0.237 OA
ATOM     76  O   UNL A   1      47.872  25.023  37.232  1.00  0.00    -0.237 OA
ATOM     77  O   UNL A   1      49.378  26.856  36.559  1.00  0.00    -0.744 OA
ENDBRANCH  73  74
ENDBRANCH  52  66
BRANCH  53  78
ATOM     78  C   UNL A   1      36.912  32.857  30.951  1.00  0.00     0.058 A 
ATOM     79  C   UNL A   1      35.581  32.518  31.233  1.00  0.00     0.135 A 
ATOM     80  C   UNL A   1      37.148  33.840  29.978  1.00  0.00     0.135 A 
ATOM     81  F   UNL A   1      35.308  31.578  32.151  1.00  0.00    -0.206 F 
ATOM     82  C   UNL A   1      34.521  33.121  30.565  1.00  0.00     0.059 A 
ATOM     83  C   UNL A   1      36.104  34.473  29.313  1.00  0.00     0.059 A 
ATOM     84  F   UNL A   1      38.405  34.207  29.683  1.00  0.00    -0.206 F 
ATOM     85  C   UNL A   1      34.793  34.098  29.606  1.00  0.00     0.060 A 
BRANCH  85  86
ATOM     86  S   UNL A   1      33.410  34.906  28.771  1.00  0.00     0.124 S 
ATOM     87  O   UNL A   1      32.986  33.868  27.839  1.00  0.00    -0.237 OA
ATOM     88  O   UNL A   1      32.500  35.181  29.878  1.00  0.00    -0.237 OA
ATOM     89  O   UNL A   1      34.027  36.085  28.170  1.00  0.00    -0.744 OA
ENDBRANCH  85  86
ENDBRANCH  53  78
BRANCH  65  90
ATOM     90  C   UNL A   1      40.015  33.974  37.083  1.00  0.00     0.058 A 
ATOM     91  C   UNL A   1      40.557  35.268  37.039  1.00  0.00     0.135 A 
ATOM     92  C   UNL A   1      39.177  33.647  38.160  1.00  0.00     0.135 A 
ATOM     93  F   UNL A   1      41.370  35.626  36.032  1.00  0.00    -0.206 F 
ATOM     94  C   UNL A   1      40.286  36.202  38.034  1.00  0.00     0.059 A 
ATOM     95  C   UNL A   1      38.877  34.572  39.156  1.00  0.00     0.059 A 
ATOM     96  F   UNL A   1      38.629  32.425  38.243  1.00  0.00    -0.206 F 
ATOM     97  C   UNL A   1      39.442  35.844  39.087  1.00  0.00     0.060 A 
BRANCH  97  98
ATOM     98  S   UNL A   1      39.064  37.079  40.349  1.00  0.00     0.124 S 
ATOM     99  O   UNL A   1      40.386  37.342  40.909  1.00  0.00    -0.237 OA
ATOM    100  O   UNL A   1      38.482  38.162  39.562  1.00  0.00    -0.237 OA
ATOM    101  O   UNL A   1      38.133  36.386  41.234  1.00  0.00    -0.744 OA
ENDBRANCH  97  98
ENDBRANCH  65  90
ENDBRANCH  39  40
ENDBRANCH  31  34
ENDBRANCH  29  30
ENDBRANCH   1  29
TORSDOF 16
ENDMDL
