MODEL 1
REMARK VINA RESULT:     -11.2      0.000      0.000
REMARK SMILES C[C@H](SCc1c(F)c(F)c(F)c(F)c1F)C(=O)NCCCCNC(=O)c1ccc(-c2c3nc(c(-c4c(F)cc(S(=O)(=O)[O-])cc4F)c4ccc([nH]4)c(-c4c(F)cc(S(=O)(=O)[O-])cc4F)c4nc(c(-c5c(F)cc(S(=O)(=O)[O-])cc5F)c5ccc2[nH]5)C=C4)C=C3)cc1
REMARK SMILES IDX 20 1 19 2 18 3 16 4 17 5 2 7 1 8 3 9 4 10 5 11 6 12 14 13
REMARK SMILES IDX 7 14 8 15 12 16 15 17 9 18 10 19 13 20 11 21 21 22 22 23
REMARK SMILES IDX 23 24 24 25 25 27 26 28 27 29 91 30 28 31 90 32 29 33 30 34
REMARK SMILES IDX 31 35 84 36 32 37 89 38 83 39 85 40 33 41 88 42 82 43 81 44
REMARK SMILES IDX 34 46 68 47 47 48 67 49 48 50 51 51 66 52 86 53 49 54 50 55
REMARK SMILES IDX 65 57 87 58 52 59 35 60 36 61 45 62 37 63 38 64 44 65 46 66
REMARK SMILES IDX 39 67 40 68 41 69 42 70 43 71 69 72 70 73 79 74 71 75 72 76
REMARK SMILES IDX 78 77 80 78 73 79 74 80 75 81 76 82 77 83 53 84 54 85 63 86
REMARK SMILES IDX 55 87 56 88 62 89 64 90 57 91 58 92 59 93 60 94 61 95
REMARK H PARENT 18 6 23 26 85 45 51 56
REMARK Flexibility Score: inf
ROOT
ATOM      1  C   UNL A   1      32.054  27.006  25.653  1.00  0.00     0.023 C 
ENDROOT
BRANCH   1   2
ATOM      2  C   UNL A   1      32.281  25.507  25.737  1.00  0.00     0.116 C 
BRANCH   2   3
ATOM      3  N   UNL A   1      31.342  24.944  26.686  1.00  0.00    -0.355 N 
ATOM      4  C   UNL A   1      31.099  23.641  27.009  1.00  0.00     0.232 C 
ATOM      5  O   UNL A   1      29.943  23.381  27.361  1.00  0.00    -0.274 OA
ATOM      6  H   UNL A   1      30.795  25.602  27.173  1.00  0.00     0.163 HD
BRANCH   4   7
ATOM      7  C   UNL A   1      32.177  22.552  27.030  1.00  0.00     0.133 C 
ATOM      8  C   UNL A   1      33.466  22.781  27.804  1.00  0.00     0.030 C 
BRANCH   7   9
ATOM      9  S   UNL A   1      32.406  21.593  25.481  1.00  0.00    -0.144 SA
BRANCH   9  10
ATOM     10  C   UNL A   1      33.562  22.540  24.436  1.00  0.00     0.112 C 
BRANCH  10  11
ATOM     11  C   UNL A   1      35.033  22.381  24.760  1.00  0.00     0.040 A 
ATOM     12  C   UNL A   1      35.617  21.104  24.726  1.00  0.00     0.169 A 
ATOM     13  C   UNL A   1      35.903  23.447  25.025  1.00  0.00     0.169 A 
ATOM     14  F   UNL A   1      34.888  20.059  24.307  1.00  0.00    -0.203 F 
ATOM     15  C   UNL A   1      36.934  20.878  25.127  1.00  0.00     0.197 A 
ATOM     16  C   UNL A   1      37.231  23.233  25.399  1.00  0.00     0.197 A 
ATOM     17  F   UNL A   1      35.491  24.714  24.884  1.00  0.00    -0.203 F 
ATOM     18  F   UNL A   1      37.416  19.629  25.165  1.00  0.00    -0.200 F 
ATOM     19  C   UNL A   1      37.736  21.947  25.486  1.00  0.00     0.200 A 
ATOM     20  F   UNL A   1      38.024  24.282  25.659  1.00  0.00    -0.200 F 
ATOM     21  F   UNL A   1      39.000  21.742  25.876  1.00  0.00    -0.200 F 
ENDBRANCH  10  11
ENDBRANCH   9  10
ENDBRANCH   7   9
ENDBRANCH   4   7
ENDBRANCH   2   3
ENDBRANCH   1   2
BRANCH   1  22
ATOM     22  C   UNL A   1      32.318  27.801  26.920  1.00  0.00     0.023 C 
BRANCH  22  23
ATOM     23  C   UNL A   1      33.646  28.528  26.931  1.00  0.00     0.116 C 
BRANCH  23  24
ATOM     24  N   UNL A   1      33.569  29.866  27.506  1.00  0.00    -0.352 N 
ATOM     25  C   UNL A   1      34.530  30.570  28.192  1.00  0.00     0.251 C 
ATOM     26  H   UNL A   1      32.709  30.328  27.388  1.00  0.00     0.163 HD
ATOM     27  O   UNL A   1      34.254  31.652  28.703  1.00  0.00    -0.269 OA
BRANCH  25  28
ATOM     28  C   UNL A   1      35.881  29.990  28.339  1.00  0.00     0.039 A 
ATOM     29  C   UNL A   1      36.792  30.108  27.287  1.00  0.00     0.014 A 
ATOM     30  C   UNL A   1      36.265  29.401  29.544  1.00  0.00     0.014 A 
ATOM     31  C   UNL A   1      38.116  29.709  27.481  1.00  0.00     0.010 A 
ATOM     32  C   UNL A   1      37.603  29.122  29.773  1.00  0.00     0.010 A 
ATOM     33  C   UNL A   1      38.543  29.260  28.742  1.00  0.00    -0.014 A 
BRANCH  33  34
ATOM     34  C   UNL A   1      39.958  28.899  29.011  1.00  0.00     0.031 A 
ATOM     35  C   UNL A   1      40.892  29.937  29.573  1.00  0.00     0.074 A 
ATOM     36  C   UNL A   1      40.419  27.680  28.667  1.00  0.00     0.049 A 
ATOM     37  N   UNL A   1      42.185  29.874  29.756  1.00  0.00    -0.248 NA
ATOM     38  C   UNL A   1      40.301  31.238  29.930  1.00  0.00     0.031 C 
ATOM     39  C   UNL A   1      39.627  26.613  28.049  1.00  0.00     0.029 A 
ATOM     40  N   UNL A   1      41.674  27.136  28.776  1.00  0.00    -0.354 N 
ATOM     41  C   UNL A   1      42.561  31.129  30.220  1.00  0.00     0.074 A 
ATOM     42  C   UNL A   1      41.375  31.955  30.223  1.00  0.00     0.031 C 
ATOM     43  C   UNL A   1      40.408  25.537  27.860  1.00  0.00     0.029 A 
ATOM     44  C   UNL A   1      41.762  25.847  28.306  1.00  0.00     0.049 A 
ATOM     45  H   UNL A   1      42.440  27.624  29.155  1.00  0.00     0.167 HD
ATOM     46  C   UNL A   1      43.779  31.547  30.639  1.00  0.00     0.037 A 
ATOM     47  C   UNL A   1      42.817  25.013  28.238  1.00  0.00     0.037 A 
ATOM     48  C   UNL A   1      44.941  30.702  30.684  1.00  0.00     0.049 A 
ATOM     49  C   UNL A   1      44.151  25.484  28.751  1.00  0.00     0.074 A 
ATOM     50  C   UNL A   1      46.206  31.003  31.155  1.00  0.00     0.029 A 
ATOM     51  N   UNL A   1      44.974  29.383  30.255  1.00  0.00    -0.354 N 
ATOM     52  N   UNL A   1      44.477  26.657  29.240  1.00  0.00    -0.248 NA
ATOM     53  C   UNL A   1      45.258  24.518  28.712  1.00  0.00     0.031 C 
ATOM     54  C   UNL A   1      47.014  29.874  30.983  1.00  0.00     0.029 A 
ATOM     55  C   UNL A   1      46.241  28.858  30.443  1.00  0.00     0.049 A 
ATOM     56  H   UNL A   1      44.210  28.893  29.873  1.00  0.00     0.167 HD
ATOM     57  C   UNL A   1      45.820  26.564  29.589  1.00  0.00     0.074 A 
ATOM     58  C   UNL A   1      46.241  25.215  29.267  1.00  0.00     0.031 C 
ATOM     59  C   UNL A   1      46.632  27.507  30.126  1.00  0.00     0.037 A 
BRANCH  46  60
ATOM     60  C   UNL A   1      43.900  32.973  31.102  1.00  0.00     0.058 A 
ATOM     61  C   UNL A   1      43.615  33.342  32.427  1.00  0.00     0.135 A 
ATOM     62  C   UNL A   1      44.318  33.980  30.218  1.00  0.00     0.135 A 
ATOM     63  F   UNL A   1      43.193  32.423  33.309  1.00  0.00    -0.206 F 
ATOM     64  C   UNL A   1      43.703  34.664  32.849  1.00  0.00     0.059 A 
ATOM     65  C   UNL A   1      44.441  35.306  30.626  1.00  0.00     0.059 A 
ATOM     66  F   UNL A   1      44.601  33.685  28.939  1.00  0.00    -0.206 F 
ATOM     67  C   UNL A   1      44.115  35.640  31.940  1.00  0.00     0.060 A 
BRANCH  67  68
ATOM     68  S   UNL A   1      44.221  37.351  32.503  1.00  0.00     0.124 S 
ATOM     69  O   UNL A   1      45.603  37.418  32.969  1.00  0.00    -0.237 OA
ATOM     70  O   UNL A   1      43.926  38.101  31.286  1.00  0.00    -0.237 OA
ATOM     71  O   UNL A   1      43.202  37.429  33.545  1.00  0.00    -0.744 OA
ENDBRANCH  67  68
ENDBRANCH  46  60
BRANCH  47  72
ATOM     72  C   UNL A   1      42.647  23.639  27.695  1.00  0.00     0.058 A 
ATOM     73  C   UNL A   1      42.693  23.400  26.314  1.00  0.00     0.135 A 
ATOM     74  C   UNL A   1      42.453  22.536  28.542  1.00  0.00     0.135 A 
ATOM     75  F   UNL A   1      42.873  24.423  25.464  1.00  0.00    -0.206 F 
ATOM     76  C   UNL A   1      42.537  22.123  25.788  1.00  0.00     0.059 A 
ATOM     77  C   UNL A   1      42.318  21.244  28.041  1.00  0.00     0.059 A 
ATOM     78  F   UNL A   1      42.420  22.708  29.873  1.00  0.00    -0.206 F 
ATOM     79  C   UNL A   1      42.350  21.049  26.660  1.00  0.00     0.060 A 
BRANCH  79  80
ATOM     80  S   UNL A   1      42.194  19.388  25.970  1.00  0.00     0.124 S 
ATOM     81  O   UNL A   1      43.034  19.484  24.782  1.00  0.00    -0.237 OA
ATOM     82  O   UNL A   1      42.712  18.556  27.052  1.00  0.00    -0.237 OA
ATOM     83  O   UNL A   1      40.761  19.260  25.723  1.00  0.00    -0.744 OA
ENDBRANCH  79  80
ENDBRANCH  47  72
BRANCH  59  84
ATOM     84  C   UNL A   1      48.047  27.107  30.432  1.00  0.00     0.058 A 
ATOM     85  C   UNL A   1      49.083  27.300  29.505  1.00  0.00     0.135 A 
ATOM     86  C   UNL A   1      48.378  26.581  31.690  1.00  0.00     0.135 A 
ATOM     87  F   UNL A   1      48.815  27.796  28.287  1.00  0.00    -0.206 F 
ATOM     88  C   UNL A   1      50.398  26.966  29.809  1.00  0.00     0.059 A 
ATOM     89  C   UNL A   1      49.690  26.264  32.025  1.00  0.00     0.059 A 
ATOM     90  F   UNL A   1      47.425  26.389  32.616  1.00  0.00    -0.206 F 
ATOM     91  C   UNL A   1      50.691  26.451  31.073  1.00  0.00     0.060 A 
BRANCH  91  92
ATOM     92  S   UNL A   1      52.409  26.058  31.469  1.00  0.00     0.124 S 
ATOM     93  O   UNL A   1      53.057  26.238  30.175  1.00  0.00    -0.237 OA
ATOM     94  O   UNL A   1      52.732  27.054  32.486  1.00  0.00    -0.237 OA
ATOM     95  O   UNL A   1      52.338  24.682  31.952  1.00  0.00    -0.744 OA
ENDBRANCH  91  92
ENDBRANCH  59  84
ENDBRANCH  33  34
ENDBRANCH  25  28
ENDBRANCH  23  24
ENDBRANCH  22  23
ENDBRANCH   1  22
TORSDOF 17
ENDMDL
MODEL 2
REMARK VINA RESULT:     -11.2      1.168      1.968
REMARK SMILES C[C@H](SCc1c(F)c(F)c(F)c(F)c1F)C(=O)NCCCCNC(=O)c1ccc(-c2c3nc(c(-c4c(F)cc(S(=O)(=O)[O-])cc4F)c4ccc([nH]4)c(-c4c(F)cc(S(=O)(=O)[O-])cc4F)c4nc(c(-c5c(F)cc(S(=O)(=O)[O-])cc5F)c5ccc2[nH]5)C=C4)C=C3)cc1
REMARK SMILES IDX 20 1 19 2 18 3 16 4 17 5 2 7 1 8 3 9 4 10 5 11 6 12 14 13
REMARK SMILES IDX 7 14 8 15 12 16 15 17 9 18 10 19 13 20 11 21 21 22 22 23
REMARK SMILES IDX 23 24 24 25 25 27 26 28 27 29 91 30 28 31 90 32 29 33 30 34
REMARK SMILES IDX 31 35 84 36 32 37 89 38 83 39 85 40 33 41 88 42 82 43 81 44
REMARK SMILES IDX 34 46 68 47 47 48 67 49 48 50 51 51 66 52 86 53 49 54 50 55
REMARK SMILES IDX 65 57 87 58 52 59 35 60 36 61 45 62 37 63 38 64 44 65 46 66
REMARK SMILES IDX 39 67 40 68 41 69 42 70 43 71 69 72 70 73 79 74 71 75 72 76
REMARK SMILES IDX 78 77 80 78 73 79 74 80 75 81 76 82 77 83 53 84 54 85 63 86
REMARK SMILES IDX 55 87 56 88 62 89 64 90 57 91 58 92 59 93 60 94 61 95
REMARK H PARENT 18 6 23 26 85 45 51 56
REMARK Flexibility Score: inf
ROOT
ATOM      1  C   UNL A   1      33.093  27.230  25.102  1.00  0.00     0.023 C 
ENDROOT
BRANCH   1   2
ATOM      2  C   UNL A   1      33.784  26.472  23.982  1.00  0.00     0.116 C 
BRANCH   2   3
ATOM      3  N   UNL A   1      32.945  26.514  22.801  1.00  0.00    -0.355 N 
ATOM      4  C   UNL A   1      32.399  25.494  22.080  1.00  0.00     0.232 C 
ATOM      5  O   UNL A   1      32.240  25.713  20.873  1.00  0.00    -0.274 OA
ATOM      6  H   UNL A   1      32.736  27.416  22.468  1.00  0.00     0.163 HD
BRANCH   4   7
ATOM      7  C   UNL A   1      31.919  24.174  22.695  1.00  0.00     0.133 C 
ATOM      8  C   UNL A   1      30.868  24.192  23.794  1.00  0.00     0.030 C 
BRANCH   7   9
ATOM      9  S   UNL A   1      33.182  22.858  22.903  1.00  0.00    -0.144 SA
BRANCH   9  10
ATOM     10  C   UNL A   1      33.664  22.856  24.662  1.00  0.00     0.112 C 
BRANCH  10  11
ATOM     11  C   UNL A   1      35.110  22.514  24.955  1.00  0.00     0.040 A 
ATOM     12  C   UNL A   1      35.962  23.498  25.483  1.00  0.00     0.169 A 
ATOM     13  C   UNL A   1      35.665  21.236  24.807  1.00  0.00     0.169 A 
ATOM     14  F   UNL A   1      35.457  24.695  25.816  1.00  0.00    -0.203 F 
ATOM     15  C   UNL A   1      37.328  23.279  25.663  1.00  0.00     0.197 A 
ATOM     16  C   UNL A   1      37.026  21.000  25.014  1.00  0.00     0.197 A 
ATOM     17  F   UNL A   1      34.889  20.187  24.504  1.00  0.00    -0.203 F 
ATOM     18  F   UNL A   1      38.115  24.279  26.082  1.00  0.00    -0.200 F 
ATOM     19  C   UNL A   1      37.864  22.031  25.406  1.00  0.00     0.200 A 
ATOM     20  F   UNL A   1      37.517  19.764  24.847  1.00  0.00    -0.200 F 
ATOM     21  F   UNL A   1      39.174  21.810  25.572  1.00  0.00    -0.200 F 
ENDBRANCH  10  11
ENDBRANCH   9  10
ENDBRANCH   7   9
ENDBRANCH   4   7
ENDBRANCH   2   3
ENDBRANCH   1   2
BRANCH   1  22
ATOM     22  C   UNL A   1      33.914  28.299  25.802  1.00  0.00     0.023 C 
BRANCH  22  23
ATOM     23  C   UNL A   1      33.562  28.494  27.262  1.00  0.00     0.116 C 
BRANCH  23  24
ATOM     24  N   UNL A   1      33.540  29.895  27.669  1.00  0.00    -0.352 N 
ATOM     25  C   UNL A   1      34.546  30.651  28.223  1.00  0.00     0.251 C 
ATOM     26  H   UNL A   1      32.685  30.363  27.530  1.00  0.00     0.163 HD
ATOM     27  O   UNL A   1      34.317  31.795  28.606  1.00  0.00    -0.269 OA
BRANCH  25  28
ATOM     28  C   UNL A   1      35.888  30.057  28.384  1.00  0.00     0.039 A 
ATOM     29  C   UNL A   1      36.800  30.131  27.330  1.00  0.00     0.014 A 
ATOM     30  C   UNL A   1      36.265  29.496  29.605  1.00  0.00     0.014 A 
ATOM     31  C   UNL A   1      38.119  29.720  27.534  1.00  0.00     0.010 A 
ATOM     32  C   UNL A   1      37.599  29.204  29.842  1.00  0.00     0.010 A 
ATOM     33  C   UNL A   1      38.540  29.300  28.806  1.00  0.00    -0.014 A 
BRANCH  33  34
ATOM     34  C   UNL A   1      39.950  28.926  29.084  1.00  0.00     0.031 A 
ATOM     35  C   UNL A   1      40.885  29.953  29.665  1.00  0.00     0.074 A 
ATOM     36  C   UNL A   1      40.406  27.708  28.732  1.00  0.00     0.049 A 
ATOM     37  N   UNL A   1      42.176  29.878  29.860  1.00  0.00    -0.248 NA
ATOM     38  C   UNL A   1      40.301  31.254  30.031  1.00  0.00     0.031 C 
ATOM     39  C   UNL A   1      39.613  26.653  28.097  1.00  0.00     0.029 A 
ATOM     40  N   UNL A   1      41.656  27.155  28.847  1.00  0.00    -0.354 N 
ATOM     41  C   UNL A   1      42.557  31.126  30.340  1.00  0.00     0.074 A 
ATOM     42  C   UNL A   1      41.376  31.960  30.341  1.00  0.00     0.031 C 
ATOM     43  C   UNL A   1      40.388  25.573  27.904  1.00  0.00     0.029 A 
ATOM     44  C   UNL A   1      41.739  25.870  28.365  1.00  0.00     0.049 A 
ATOM     45  H   UNL A   1      42.422  27.634  29.238  1.00  0.00     0.167 HD
ATOM     46  C   UNL A   1      43.773  31.532  30.774  1.00  0.00     0.037 A 
ATOM     47  C   UNL A   1      42.790  25.029  28.299  1.00  0.00     0.037 A 
ATOM     48  C   UNL A   1      44.929  30.679  30.822  1.00  0.00     0.049 A 
ATOM     49  C   UNL A   1      44.122  25.486  28.828  1.00  0.00     0.074 A 
ATOM     50  C   UNL A   1      46.192  30.966  31.307  1.00  0.00     0.029 A 
ATOM     51  N   UNL A   1      44.958  29.364  30.380  1.00  0.00    -0.354 N 
ATOM     52  N   UNL A   1      44.452  26.652  29.332  1.00  0.00    -0.248 NA
ATOM     53  C   UNL A   1      45.223  24.513  28.790  1.00  0.00     0.031 C 
ATOM     54  C   UNL A   1      46.994  29.833  31.131  1.00  0.00     0.029 A 
ATOM     55  C   UNL A   1      46.219  28.828  30.574  1.00  0.00     0.049 A 
ATOM     56  H   UNL A   1      44.194  28.883  29.986  1.00  0.00     0.167 HD
ATOM     57  C   UNL A   1      45.791  26.546  29.693  1.00  0.00     0.074 A 
ATOM     58  C   UNL A   1      46.205  25.197  29.361  1.00  0.00     0.031 C 
ATOM     59  C   UNL A   1      46.604  27.478  30.246  1.00  0.00     0.037 A 
BRANCH  46  60
ATOM     60  C   UNL A   1      43.900  32.952  31.253  1.00  0.00     0.058 A 
ATOM     61  C   UNL A   1      44.214  34.000  30.371  1.00  0.00     0.135 A 
ATOM     62  C   UNL A   1      43.694  33.274  32.603  1.00  0.00     0.135 A 
ATOM     63  F   UNL A   1      44.441  33.746  29.073  1.00  0.00    -0.206 F 
ATOM     64  C   UNL A   1      44.357  35.309  30.818  1.00  0.00     0.059 A 
ATOM     65  C   UNL A   1      43.802  34.582  33.068  1.00  0.00     0.059 A 
ATOM     66  F   UNL A   1      43.394  32.312  33.491  1.00  0.00    -0.206 F 
ATOM     67  C   UNL A   1      44.151  35.590  32.169  1.00  0.00     0.060 A 
BRANCH  67  68
ATOM     68  S   UNL A   1      44.342  37.294  32.732  1.00  0.00     0.124 S 
ATOM     69  O   UNL A   1      45.574  37.206  33.509  1.00  0.00    -0.237 OA
ATOM     70  O   UNL A   1      44.437  38.031  31.476  1.00  0.00    -0.237 OA
ATOM     71  O   UNL A   1      43.127  37.533  33.506  1.00  0.00    -0.744 OA
ENDBRANCH  67  68
ENDBRANCH  46  60
BRANCH  47  72
ATOM     72  C   UNL A   1      42.615  23.662  27.740  1.00  0.00     0.058 A 
ATOM     73  C   UNL A   1      42.681  23.435  26.357  1.00  0.00     0.135 A 
ATOM     74  C   UNL A   1      42.398  22.553  28.573  1.00  0.00     0.135 A 
ATOM     75  F   UNL A   1      42.884  24.464  25.520  1.00  0.00    -0.206 F 
ATOM     76  C   UNL A   1      42.521  22.165  25.817  1.00  0.00     0.059 A 
ATOM     77  C   UNL A   1      42.258  21.268  28.058  1.00  0.00     0.059 A 
ATOM     78  F   UNL A   1      42.345  22.714  29.905  1.00  0.00    -0.206 F 
ATOM     79  C   UNL A   1      42.310  21.085  26.676  1.00  0.00     0.060 A 
BRANCH  79  80
ATOM     80  S   UNL A   1      42.150  19.431  25.968  1.00  0.00     0.124 S 
ATOM     81  O   UNL A   1      42.957  19.551  24.759  1.00  0.00    -0.237 OA
ATOM     82  O   UNL A   1      42.703  18.590  27.025  1.00  0.00    -0.237 OA
ATOM     83  O   UNL A   1      40.712  19.295  25.758  1.00  0.00    -0.744 OA
ENDBRANCH  79  80
ENDBRANCH  47  72
BRANCH  59  84
ATOM     84  C   UNL A   1      48.013  27.065  30.561  1.00  0.00     0.058 A 
ATOM     85  C   UNL A   1      49.036  27.150  29.604  1.00  0.00     0.135 A 
ATOM     86  C   UNL A   1      48.354  26.637  31.854  1.00  0.00     0.135 A 
ATOM     87  F   UNL A   1      48.759  27.550  28.353  1.00  0.00    -0.206 F 
ATOM     88  C   UNL A   1      50.347  26.806  29.913  1.00  0.00     0.059 A 
ATOM     89  C   UNL A   1      49.664  26.312  32.192  1.00  0.00     0.059 A 
ATOM     90  F   UNL A   1      47.414  26.550  32.808  1.00  0.00    -0.206 F 
ATOM     91  C   UNL A   1      50.651  26.390  31.211  1.00  0.00     0.060 A 
BRANCH  91  92
ATOM     92  S   UNL A   1      52.364  25.983  31.609  1.00  0.00     0.124 S 
ATOM     93  O   UNL A   1      53.033  26.253  30.342  1.00  0.00    -0.237 OA
ATOM     94  O   UNL A   1      52.662  26.912  32.695  1.00  0.00    -0.237 OA
ATOM     95  O   UNL A   1      52.296  24.578  31.999  1.00  0.00    -0.744 OA
ENDBRANCH  91  92
ENDBRANCH  59  84
ENDBRANCH  33  34
ENDBRANCH  25  28
ENDBRANCH  23  24
ENDBRANCH  22  23
ENDBRANCH   1  22
TORSDOF 17
ENDMDL
MODEL 3
REMARK VINA RESULT:     -10.8      3.388      6.371
REMARK SMILES C[C@H](SCc1c(F)c(F)c(F)c(F)c1F)C(=O)NCCCCNC(=O)c1ccc(-c2c3nc(c(-c4c(F)cc(S(=O)(=O)[O-])cc4F)c4ccc([nH]4)c(-c4c(F)cc(S(=O)(=O)[O-])cc4F)c4nc(c(-c5c(F)cc(S(=O)(=O)[O-])cc5F)c5ccc2[nH]5)C=C4)C=C3)cc1
REMARK SMILES IDX 20 1 19 2 18 3 16 4 17 5 2 7 1 8 3 9 4 10 5 11 6 12 14 13
REMARK SMILES IDX 7 14 8 15 12 16 15 17 9 18 10 19 13 20 11 21 21 22 22 23
REMARK SMILES IDX 23 24 24 25 25 27 26 28 27 29 91 30 28 31 90 32 29 33 30 34
REMARK SMILES IDX 31 35 84 36 32 37 89 38 83 39 85 40 33 41 88 42 82 43 81 44
REMARK SMILES IDX 34 46 68 47 47 48 67 49 48 50 51 51 66 52 86 53 49 54 50 55
REMARK SMILES IDX 65 57 87 58 52 59 35 60 36 61 45 62 37 63 38 64 44 65 46 66
REMARK SMILES IDX 39 67 40 68 41 69 42 70 43 71 69 72 70 73 79 74 71 75 72 76
REMARK SMILES IDX 78 77 80 78 73 79 74 80 75 81 76 82 77 83 53 84 54 85 63 86
REMARK SMILES IDX 55 87 56 88 62 89 64 90 57 91 58 92 59 93 60 94 61 95
REMARK H PARENT 18 6 23 26 85 45 51 56
REMARK Flexibility Score: inf
ROOT
ATOM      1  C   UNL A   1      33.585  34.932  28.691  1.00  0.00     0.023 C 
ENDROOT
BRANCH   1   2
ATOM      2  C   UNL A   1      33.636  36.060  29.706  1.00  0.00     0.116 C 
BRANCH   2   3
ATOM      3  N   UNL A   1      32.544  35.895  30.644  1.00  0.00    -0.355 N 
ATOM      4  C   UNL A   1      32.568  35.752  32.000  1.00  0.00     0.232 C 
ATOM      5  O   UNL A   1      31.655  35.077  32.487  1.00  0.00    -0.274 OA
ATOM      6  H   UNL A   1      31.646  35.883  30.241  1.00  0.00     0.163 HD
BRANCH   4   7
ATOM      7  C   UNL A   1      33.594  36.436  32.911  1.00  0.00     0.133 C 
ATOM      8  C   UNL A   1      34.061  37.848  32.595  1.00  0.00     0.030 C 
BRANCH   7   9
ATOM      9  S   UNL A   1      34.906  35.366  33.619  1.00  0.00    -0.144 SA
BRANCH   9  10
ATOM     10  C   UNL A   1      35.548  34.339  32.255  1.00  0.00     0.112 C 
BRANCH  10  11
ATOM     11  C   UNL A   1      36.609  33.324  32.629  1.00  0.00     0.040 A 
ATOM     12  C   UNL A   1      36.332  31.953  32.504  1.00  0.00     0.169 A 
ATOM     13  C   UNL A   1      37.910  33.654  33.030  1.00  0.00     0.169 A 
ATOM     14  F   UNL A   1      35.170  31.564  31.959  1.00  0.00    -0.203 F 
ATOM     15  C   UNL A   1      37.222  30.972  32.943  1.00  0.00     0.197 A 
ATOM     16  C   UNL A   1      38.819  32.677  33.442  1.00  0.00     0.197 A 
ATOM     17  F   UNL A   1      38.335  34.924  32.987  1.00  0.00    -0.203 F 
ATOM     18  F   UNL A   1      36.874  29.680  32.887  1.00  0.00    -0.200 F 
ATOM     19  C   UNL A   1      38.462  31.340  33.433  1.00  0.00     0.200 A 
ATOM     20  F   UNL A   1      40.049  33.040  33.833  1.00  0.00    -0.200 F 
ATOM     21  F   UNL A   1      39.324  30.408  33.860  1.00  0.00    -0.200 F 
ENDBRANCH  10  11
ENDBRANCH   9  10
ENDBRANCH   7   9
ENDBRANCH   4   7
ENDBRANCH   2   3
ENDBRANCH   1   2
BRANCH   1  22
ATOM     22  C   UNL A   1      34.919  34.334  28.277  1.00  0.00     0.023 C 
BRANCH  22  23
ATOM     23  C   UNL A   1      35.171  32.944  28.822  1.00  0.00     0.116 C 
BRANCH  23  24
ATOM     24  N   UNL A   1      34.234  31.946  28.317  1.00  0.00    -0.352 N 
ATOM     25  C   UNL A   1      34.465  30.633  27.983  1.00  0.00     0.251 C 
ATOM     26  H   UNL A   1      33.308  32.257  28.199  1.00  0.00     0.163 HD
ATOM     27  O   UNL A   1      33.574  29.962  27.468  1.00  0.00    -0.269 OA
BRANCH  25  28
ATOM     28  C   UNL A   1      35.805  30.056  28.213  1.00  0.00     0.039 A 
ATOM     29  C   UNL A   1      36.769  30.144  27.207  1.00  0.00     0.014 A 
ATOM     30  C   UNL A   1      36.125  29.499  29.451  1.00  0.00     0.014 A 
ATOM     31  C   UNL A   1      38.080  29.750  27.478  1.00  0.00     0.010 A 
ATOM     32  C   UNL A   1      37.449  29.225  29.756  1.00  0.00     0.010 A 
ATOM     33  C   UNL A   1      38.442  29.334  28.770  1.00  0.00    -0.014 A 
BRANCH  33  34
ATOM     34  C   UNL A   1      39.840  28.979  29.121  1.00  0.00     0.031 A 
ATOM     35  C   UNL A   1      40.715  30.001  29.796  1.00  0.00     0.074 A 
ATOM     36  C   UNL A   1      40.344  27.785  28.752  1.00  0.00     0.049 A 
ATOM     37  N   UNL A   1      41.993  29.946  30.067  1.00  0.00    -0.248 NA
ATOM     38  C   UNL A   1      40.079  31.275  30.173  1.00  0.00     0.031 C 
ATOM     39  C   UNL A   1      39.615  26.739  28.030  1.00  0.00     0.029 A 
ATOM     40  N   UNL A   1      41.598  27.253  28.923  1.00  0.00    -0.354 N 
ATOM     41  C   UNL A   1      42.315  31.182  30.615  1.00  0.00     0.074 A 
ATOM     42  C   UNL A   1      41.118  31.991  30.575  1.00  0.00     0.031 C 
ATOM     43  C   UNL A   1      40.425  25.684  27.845  1.00  0.00     0.029 A 
ATOM     44  C   UNL A   1      41.739  25.990  28.399  1.00  0.00     0.049 A 
ATOM     45  H   UNL A   1      42.327  27.732  29.378  1.00  0.00     0.167 HD
ATOM     46  C   UNL A   1      43.493  31.595  31.138  1.00  0.00     0.037 A 
ATOM     47  C   UNL A   1      42.810  25.174  28.366  1.00  0.00     0.037 A 
ATOM     48  C   UNL A   1      44.663  30.765  31.225  1.00  0.00     0.049 A 
ATOM     49  C   UNL A   1      44.097  25.637  28.994  1.00  0.00     0.074 A 
ATOM     50  C   UNL A   1      45.888  31.059  31.797  1.00  0.00     0.029 A 
ATOM     51  N   UNL A   1      44.749  29.469  30.737  1.00  0.00    -0.354 N 
ATOM     52  N   UNL A   1      44.369  26.789  29.560  1.00  0.00    -0.248 NA
ATOM     53  C   UNL A   1      45.220  24.690  28.986  1.00  0.00     0.031 C 
ATOM     54  C   UNL A   1      46.724  29.951  31.629  1.00  0.00     0.029 A 
ATOM     55  C   UNL A   1      46.008  28.952  30.988  1.00  0.00     0.049 A 
ATOM     56  H   UNL A   1      44.022  28.988  30.279  1.00  0.00     0.167 HD
ATOM     57  C   UNL A   1      45.686  26.697  29.998  1.00  0.00     0.074 A 
ATOM     58  C   UNL A   1      46.150  25.371  29.642  1.00  0.00     0.031 C 
ATOM     59  C   UNL A   1      46.443  27.624  30.635  1.00  0.00     0.037 A 
BRANCH  46  60
ATOM     60  C   UNL A   1      43.558  32.998  31.677  1.00  0.00     0.058 A 
ATOM     61  C   UNL A   1      43.458  33.263  33.052  1.00  0.00     0.135 A 
ATOM     62  C   UNL A   1      43.736  34.090  30.812  1.00  0.00     0.135 A 
ATOM     63  F   UNL A   1      43.267  32.259  33.922  1.00  0.00    -0.206 F 
ATOM     64  C   UNL A   1      43.492  34.562  33.548  1.00  0.00     0.059 A 
ATOM     65  C   UNL A   1      43.803  35.396  31.289  1.00  0.00     0.059 A 
ATOM     66  F   UNL A   1      43.836  33.895  29.488  1.00  0.00    -0.206 F 
ATOM     67  C   UNL A   1      43.663  35.623  32.658  1.00  0.00     0.060 A 
BRANCH  67  68
ATOM     68  S   UNL A   1      43.703  37.302  33.317  1.00  0.00     0.124 S 
ATOM     69  O   UNL A   1      44.890  37.251  34.167  1.00  0.00    -0.237 OA
ATOM     70  O   UNL A   1      43.825  38.111  32.108  1.00  0.00    -0.237 OA
ATOM     71  O   UNL A   1      42.431  37.420  34.022  1.00  0.00    -0.744 OA
ENDBRANCH  67  68
ENDBRANCH  46  60
BRANCH  47  72
ATOM     72  C   UNL A   1      42.701  23.826  27.747  1.00  0.00     0.058 A 
ATOM     73  C   UNL A   1      42.491  22.686  28.538  1.00  0.00     0.135 A 
ATOM     74  C   UNL A   1      42.786  23.650  26.357  1.00  0.00     0.135 A 
ATOM     75  F   UNL A   1      42.407  22.803  29.872  1.00  0.00    -0.206 F 
ATOM     76  C   UNL A   1      42.386  21.418  27.977  1.00  0.00     0.059 A 
ATOM     77  C   UNL A   1      42.660  22.394  25.770  1.00  0.00     0.059 A 
ATOM     78  F   UNL A   1      42.967  24.711  25.556  1.00  0.00    -0.206 F 
ATOM     79  C   UNL A   1      42.471  21.282  26.590  1.00  0.00     0.060 A 
BRANCH  79  80
ATOM     80  S   UNL A   1      42.287  19.637  25.868  1.00  0.00     0.124 S 
ATOM     81  O   UNL A   1      43.288  19.669  24.808  1.00  0.00    -0.237 OA
ATOM     82  O   UNL A   1      42.587  18.768  27.002  1.00  0.00    -0.237 OA
ATOM     83  O   UNL A   1      40.897  19.619  25.425  1.00  0.00    -0.744 OA
ENDBRANCH  79  80
ENDBRANCH  47  72
BRANCH  59  84
ATOM     84  C   UNL A   1      47.839  27.228  31.020  1.00  0.00     0.058 A 
ATOM     85  C   UNL A   1      48.115  26.610  32.250  1.00  0.00     0.135 A 
ATOM     86  C   UNL A   1      48.902  27.415  30.124  1.00  0.00     0.135 A 
ATOM     87  F   UNL A   1      47.132  26.413  33.142  1.00  0.00    -0.206 F 
ATOM     88  C   UNL A   1      49.403  26.207  32.586  1.00  0.00     0.059 A 
ATOM     89  C   UNL A   1      50.194  26.998  30.428  1.00  0.00     0.059 A 
ATOM     90  F   UNL A   1      48.688  27.991  28.930  1.00  0.00    -0.206 F 
ATOM     91  C   UNL A   1      50.435  26.404  31.666  1.00  0.00     0.060 A 
BRANCH  91  92
ATOM     92  S   UNL A   1      52.096  25.842  32.098  1.00  0.00     0.124 S 
ATOM     93  O   UNL A   1      52.877  26.341  30.971  1.00  0.00    -0.237 OA
ATOM     94  O   UNL A   1      52.329  26.507  33.376  1.00  0.00    -0.237 OA
ATOM     95  O   UNL A   1      51.953  24.391  32.172  1.00  0.00    -0.744 OA
ENDBRANCH  91  92
ENDBRANCH  59  84
ENDBRANCH  33  34
ENDBRANCH  25  28
ENDBRANCH  23  24
ENDBRANCH  22  23
ENDBRANCH   1  22
TORSDOF 17
ENDMDL
