MODEL 1
REMARK VINA RESULT:     -11.7      0.000      0.000
REMARK SMILES COc1ccc(C(=O)c2ccccc2)cc1[C@@H](C)C(=O)NCCCCNC(=O)c1ccc(-c2c3nc(c(-c4c(F)cc(S(=O)(=O)[O-])cc4F)c4ccc([nH]4)c(-c4c(F)cc(S(=O)(=O)[O-])cc4F)c4nc(c(-c5c(F)cc(S(=O)(=O)[O-])cc5F)c5ccc2[nH]5)C=C4)C=C3)cc1
REMARK SMILES IDX 23 1 22 2 21 3 19 4 20 5 17 7 18 8 16 9 3 10 4 11 5 12 15 13
REMARK SMILES IDX 6 14 2 15 1 16 7 17 8 18 9 19 10 20 14 21 11 22 13 23 12 24
REMARK SMILES IDX 24 25 25 26 26 27 27 28 28 30 29 31 30 32 94 33 31 34 93 35
REMARK SMILES IDX 32 36 33 37 34 38 87 39 35 40 92 41 86 42 88 43 36 44 91 45
REMARK SMILES IDX 85 46 84 47 37 49 71 50 50 51 70 52 51 53 54 54 69 55 89 56
REMARK SMILES IDX 52 57 53 58 68 60 90 61 55 62 38 63 39 64 48 65 40 66 41 67
REMARK SMILES IDX 47 68 49 69 42 70 43 71 44 72 45 73 46 74 72 75 73 76 82 77
REMARK SMILES IDX 74 78 75 79 81 80 83 81 76 82 77 83 78 84 79 85 80 86 56 87
REMARK SMILES IDX 57 88 66 89 58 90 59 91 65 92 67 93 60 94 61 95 62 96 63 97
REMARK SMILES IDX 64 98
REMARK H PARENT 21 6 26 29 88 48 54 59
REMARK Flexibility Score: inf
ROOT
ATOM      1  C   UNL A   1      34.380  24.225  26.119  1.00  0.00     0.023 C 
ENDROOT
BRANCH   1   2
ATOM      2  C   UNL A   1      33.826  25.591  25.723  1.00  0.00     0.116 C 
BRANCH   2   3
ATOM      3  N   UNL A   1      32.526  25.820  26.310  1.00  0.00    -0.356 N 
ATOM      4  C   UNL A   1      31.292  25.948  25.756  1.00  0.00     0.227 C 
ATOM      5  O   UNL A   1      30.384  26.273  26.533  1.00  0.00    -0.274 OA
ATOM      6  H   UNL A   1      32.536  25.896  27.292  1.00  0.00     0.163 HD
BRANCH   4   7
ATOM      7  C   UNL A   1      30.982  25.730  24.262  1.00  0.00     0.109 C 
ATOM      8  C   UNL A   1      29.537  25.977  23.836  1.00  0.00     0.023 C 
BRANCH   7   9
ATOM      9  C   UNL A   1      31.623  24.468  23.694  1.00  0.00     0.007 A 
ATOM     10  C   UNL A   1      32.429  24.511  22.545  1.00  0.00     0.122 A 
ATOM     11  C   UNL A   1      33.086  23.370  22.081  1.00  0.00     0.047 A 
ATOM     12  C   UNL A   1      32.976  22.165  22.775  1.00  0.00     0.016 A 
ATOM     13  C   UNL A   1      31.469  23.218  24.331  1.00  0.00     0.020 A 
ATOM     14  C   UNL A   1      32.158  22.072  23.906  1.00  0.00     0.023 A 
BRANCH  10  15
ATOM     15  O   UNL A   1      32.491  25.626  21.751  1.00  0.00    -0.496 OA
ATOM     16  C   UNL A   1      33.628  26.438  22.043  1.00  0.00     0.278 C 
ENDBRANCH  10  15
BRANCH  14  17
ATOM     17  C   UNL A   1      32.138  20.768  24.641  1.00  0.00     0.193 C 
ATOM     18  O   UNL A   1      31.573  20.701  25.732  1.00  0.00    -0.289 OA
BRANCH  17  19
ATOM     19  C   UNL A   1      32.721  19.516  24.104  1.00  0.00     0.022 A 
ATOM     20  C   UNL A   1      33.895  19.030  24.696  1.00  0.00     0.012 A 
ATOM     21  C   UNL A   1      32.167  18.852  23.004  1.00  0.00     0.012 A 
ATOM     22  C   UNL A   1      34.498  17.871  24.207  1.00  0.00     0.001 A 
ATOM     23  C   UNL A   1      32.771  17.690  22.520  1.00  0.00     0.001 A 
ATOM     24  C   UNL A   1      33.938  17.209  23.115  1.00  0.00     0.000 A 
ENDBRANCH  17  19
ENDBRANCH  14  17
ENDBRANCH   7   9
ENDBRANCH   4   7
ENDBRANCH   2   3
ENDBRANCH   1   2
BRANCH   1  25
ATOM     25  C   UNL A   1      35.426  23.637  25.188  1.00  0.00     0.023 C 
BRANCH  25  26
ATOM     26  C   UNL A   1      36.850  24.096  25.460  1.00  0.00     0.116 C 
BRANCH  26  27
ATOM     27  N   UNL A   1      37.847  23.034  25.403  1.00  0.00    -0.352 N 
ATOM     28  C   UNL A   1      39.090  23.015  25.987  1.00  0.00     0.251 C 
ATOM     29  H   UNL A   1      37.600  22.234  24.885  1.00  0.00     0.163 HD
ATOM     30  O   UNL A   1      39.848  22.059  25.858  1.00  0.00    -0.269 OA
BRANCH  28  31
ATOM     31  C   UNL A   1      39.514  24.189  26.757  1.00  0.00     0.039 A 
ATOM     32  C   UNL A   1      40.281  25.175  26.133  1.00  0.00     0.014 A 
ATOM     33  C   UNL A   1      39.087  24.323  28.079  1.00  0.00     0.014 A 
ATOM     34  C   UNL A   1      40.606  26.325  26.844  1.00  0.00     0.010 A 
ATOM     35  C   UNL A   1      39.325  25.508  28.746  1.00  0.00     0.010 A 
ATOM     36  C   UNL A   1      40.118  26.498  28.148  1.00  0.00    -0.014 A 
BRANCH  36  37
ATOM     37  C   UNL A   1      40.506  27.658  28.972  1.00  0.00     0.031 A 
ATOM     38  C   UNL A   1      41.810  27.590  29.720  1.00  0.00     0.074 A 
ATOM     39  C   UNL A   1      39.660  28.693  29.111  1.00  0.00     0.049 A 
ATOM     40  N   UNL A   1      42.284  28.391  30.634  1.00  0.00    -0.248 NA
ATOM     41  C   UNL A   1      42.673  26.428  29.433  1.00  0.00     0.031 C 
ATOM     42  C   UNL A   1      38.356  28.817  28.454  1.00  0.00     0.029 A 
ATOM     43  N   UNL A   1      39.761  29.830  29.864  1.00  0.00    -0.354 N 
ATOM     44  C   UNL A   1      43.476  27.811  31.055  1.00  0.00     0.074 A 
ATOM     45  C   UNL A   1      43.621  26.561  30.347  1.00  0.00     0.031 C 
ATOM     46  C   UNL A   1      37.788  29.977  28.820  1.00  0.00     0.029 A 
ATOM     47  C   UNL A   1      38.667  30.656  29.765  1.00  0.00     0.049 A 
ATOM     48  H   UNL A   1      40.545  30.038  30.424  1.00  0.00     0.167 HD
ATOM     49  C   UNL A   1      44.380  28.300  31.935  1.00  0.00     0.037 A 
ATOM     50  C   UNL A   1      38.413  31.825  30.381  1.00  0.00     0.037 A 
ATOM     51  C   UNL A   1      44.224  29.573  32.586  1.00  0.00     0.049 A 
ATOM     52  C   UNL A   1      39.455  32.371  31.320  1.00  0.00     0.074 A 
ATOM     53  C   UNL A   1      45.085  30.208  33.462  1.00  0.00     0.029 A 
ATOM     54  N   UNL A   1      43.133  30.415  32.412  1.00  0.00    -0.354 N 
ATOM     55  N   UNL A   1      40.592  31.829  31.694  1.00  0.00    -0.248 NA
ATOM     56  C   UNL A   1      39.191  33.687  31.911  1.00  0.00     0.031 C 
ATOM     57  C   UNL A   1      44.498  31.420  33.841  1.00  0.00     0.029 A 
ATOM     58  C   UNL A   1      43.296  31.564  33.163  1.00  0.00     0.049 A 
ATOM     59  H   UNL A   1      42.357  30.221  31.837  1.00  0.00     0.167 HD
ATOM     60  C   UNL A   1      41.196  32.754  32.536  1.00  0.00     0.074 A 
ATOM     61  C   UNL A   1      40.300  33.893  32.605  1.00  0.00     0.031 C 
ATOM     62  C   UNL A   1      42.381  32.678  33.192  1.00  0.00     0.037 A 
BRANCH  49  63
ATOM     63  C   UNL A   1      45.597  27.464  32.225  1.00  0.00     0.058 A 
ATOM     64  C   UNL A   1      45.596  26.473  33.222  1.00  0.00     0.135 A 
ATOM     65  C   UNL A   1      46.783  27.650  31.496  1.00  0.00     0.135 A 
ATOM     66  F   UNL A   1      44.500  26.266  33.968  1.00  0.00    -0.206 F 
ATOM     67  C   UNL A   1      46.734  25.724  33.509  1.00  0.00     0.059 A 
ATOM     68  C   UNL A   1      47.923  26.889  31.744  1.00  0.00     0.059 A 
ATOM     69  F   UNL A   1      46.848  28.586  30.537  1.00  0.00    -0.206 F 
ATOM     70  C   UNL A   1      47.893  25.938  32.764  1.00  0.00     0.060 A 
BRANCH  70  71
ATOM     71  S   UNL A   1      49.356  24.952  33.142  1.00  0.00     0.124 S 
ATOM     72  O   UNL A   1      50.123  25.875  33.973  1.00  0.00    -0.237 OA
ATOM     73  O   UNL A   1      48.785  23.801  33.836  1.00  0.00    -0.237 OA
ATOM     74  O   UNL A   1      49.926  24.669  31.829  1.00  0.00    -0.744 OA
ENDBRANCH  70  71
ENDBRANCH  49  63
BRANCH  50  75
ATOM     75  C   UNL A   1      37.155  32.565  30.091  1.00  0.00     0.058 A 
ATOM     76  C   UNL A   1      37.115  33.551  29.094  1.00  0.00     0.135 A 
ATOM     77  C   UNL A   1      35.964  32.284  30.777  1.00  0.00     0.135 A 
ATOM     78  F   UNL A   1      38.227  33.855  28.407  1.00  0.00    -0.206 F 
ATOM     79  C   UNL A   1      35.948  34.248  28.801  1.00  0.00     0.059 A 
ATOM     80  C   UNL A   1      34.776  32.949  30.484  1.00  0.00     0.059 A 
ATOM     81  F   UNL A   1      35.941  31.332  31.723  1.00  0.00    -0.206 F 
ATOM     82  C   UNL A   1      34.781  33.938  29.502  1.00  0.00     0.060 A 
BRANCH  82  83
ATOM     83  S   UNL A   1      33.260  34.818  29.082  1.00  0.00     0.124 S 
ATOM     84  O   UNL A   1      32.654  33.910  28.113  1.00  0.00    -0.237 OA
ATOM     85  O   UNL A   1      32.592  34.909  30.376  1.00  0.00    -0.237 OA
ATOM     86  O   UNL A   1      33.743  36.086  28.543  1.00  0.00    -0.744 OA
ENDBRANCH  82  83
ENDBRANCH  50  75
BRANCH  62  87
ATOM     87  C   UNL A   1      42.790  33.881  33.994  1.00  0.00     0.058 A 
ATOM     88  C   UNL A   1      43.523  34.933  33.427  1.00  0.00     0.135 A 
ATOM     89  C   UNL A   1      42.412  33.988  35.342  1.00  0.00     0.135 A 
ATOM     90  F   UNL A   1      43.910  34.874  32.142  1.00  0.00    -0.206 F 
ATOM     91  C   UNL A   1      43.905  36.036  34.181  1.00  0.00     0.059 A 
ATOM     92  C   UNL A   1      42.754  35.097  36.106  1.00  0.00     0.059 A 
ATOM     93  F   UNL A   1      41.695  33.014  35.924  1.00  0.00    -0.206 F 
ATOM     94  C   UNL A   1      43.518  36.106  35.522  1.00  0.00     0.060 A 
BRANCH  94  95
ATOM     95  S   UNL A   1      44.014  37.545  36.490  1.00  0.00     0.124 S 
ATOM     96  O   UNL A   1      43.925  38.609  35.498  1.00  0.00    -0.237 OA
ATOM     97  O   UNL A   1      43.007  37.574  37.547  1.00  0.00    -0.237 OA
ATOM     98  O   UNL A   1      45.365  37.206  36.930  1.00  0.00    -0.744 OA
ENDBRANCH  94  95
ENDBRANCH  62  87
ENDBRANCH  36  37
ENDBRANCH  28  31
ENDBRANCH  26  27
ENDBRANCH  25  26
ENDBRANCH   1  25
TORSDOF 18
ENDMDL
MODEL 2
REMARK VINA RESULT:     -11.7      4.816     10.071
REMARK SMILES COc1ccc(C(=O)c2ccccc2)cc1[C@@H](C)C(=O)NCCCCNC(=O)c1ccc(-c2c3nc(c(-c4c(F)cc(S(=O)(=O)[O-])cc4F)c4ccc([nH]4)c(-c4c(F)cc(S(=O)(=O)[O-])cc4F)c4nc(c(-c5c(F)cc(S(=O)(=O)[O-])cc5F)c5ccc2[nH]5)C=C4)C=C3)cc1
REMARK SMILES IDX 23 1 22 2 21 3 19 4 20 5 17 7 18 8 16 9 3 10 4 11 5 12 15 13
REMARK SMILES IDX 6 14 2 15 1 16 7 17 8 18 9 19 10 20 14 21 11 22 13 23 12 24
REMARK SMILES IDX 24 25 25 26 26 27 27 28 28 30 29 31 30 32 94 33 31 34 93 35
REMARK SMILES IDX 32 36 33 37 34 38 87 39 35 40 92 41 86 42 88 43 36 44 91 45
REMARK SMILES IDX 85 46 84 47 37 49 71 50 50 51 70 52 51 53 54 54 69 55 89 56
REMARK SMILES IDX 52 57 53 58 68 60 90 61 55 62 38 63 39 64 48 65 40 66 41 67
REMARK SMILES IDX 47 68 49 69 42 70 43 71 44 72 45 73 46 74 72 75 73 76 82 77
REMARK SMILES IDX 74 78 75 79 81 80 83 81 76 82 77 83 78 84 79 85 80 86 56 87
REMARK SMILES IDX 57 88 66 89 58 90 59 91 65 92 67 93 60 94 61 95 62 96 63 97
REMARK SMILES IDX 64 98
REMARK H PARENT 21 6 26 29 88 48 54 59
REMARK Flexibility Score: inf
ROOT
ATOM      1  C   UNL A   1      33.412  28.126  26.736  1.00  0.00     0.023 C 
ENDROOT
BRANCH   1   2
ATOM      2  C   UNL A   1      31.904  28.230  26.950  1.00  0.00     0.116 C 
BRANCH   2   3
ATOM      3  N   UNL A   1      31.292  26.922  27.007  1.00  0.00    -0.356 N 
ATOM      4  C   UNL A   1      30.489  26.259  26.133  1.00  0.00     0.227 C 
ATOM      5  O   UNL A   1      30.018  25.189  26.542  1.00  0.00    -0.274 OA
ATOM      6  H   UNL A   1      31.493  26.419  27.829  1.00  0.00     0.163 HD
BRANCH   4   7
ATOM      7  C   UNL A   1      30.139  26.762  24.719  1.00  0.00     0.109 C 
ATOM      8  C   UNL A   1      28.739  26.418  24.216  1.00  0.00     0.023 C 
BRANCH   7   9
ATOM      9  C   UNL A   1      31.265  26.553  23.712  1.00  0.00     0.007 A 
ATOM     10  C   UNL A   1      32.003  27.635  23.205  1.00  0.00     0.122 A 
ATOM     11  C   UNL A   1      33.090  27.431  22.354  1.00  0.00     0.047 A 
ATOM     12  C   UNL A   1      33.483  26.136  22.013  1.00  0.00     0.016 A 
ATOM     13  C   UNL A   1      31.638  25.259  23.289  1.00  0.00     0.020 A 
ATOM     14  C   UNL A   1      32.756  25.033  22.470  1.00  0.00     0.023 A 
BRANCH  10  15
ATOM     15  O   UNL A   1      31.607  28.931  23.404  1.00  0.00    -0.496 OA
ATOM     16  C   UNL A   1      30.714  29.389  22.388  1.00  0.00     0.278 C 
ENDBRANCH  10  15
BRANCH  14  17
ATOM     17  C   UNL A   1      33.270  23.671  22.122  1.00  0.00     0.193 C 
ATOM     18  O   UNL A   1      33.593  23.429  20.960  1.00  0.00    -0.289 OA
BRANCH  17  19
ATOM     19  C   UNL A   1      33.470  22.593  23.118  1.00  0.00     0.022 A 
ATOM     20  C   UNL A   1      34.727  22.488  23.732  1.00  0.00     0.012 A 
ATOM     21  C   UNL A   1      32.470  21.659  23.412  1.00  0.00     0.012 A 
ATOM     22  C   UNL A   1      34.972  21.472  24.654  1.00  0.00     0.001 A 
ATOM     23  C   UNL A   1      32.718  20.647  24.340  1.00  0.00     0.001 A 
ATOM     24  C   UNL A   1      33.969  20.549  24.950  1.00  0.00     0.000 A 
ENDBRANCH  17  19
ENDBRANCH  14  17
ENDBRANCH   7   9
ENDBRANCH   4   7
ENDBRANCH   2   3
ENDBRANCH   1   2
BRANCH   1  25
ATOM     25  C   UNL A   1      34.199  29.412  26.926  1.00  0.00     0.023 C 
BRANCH  25  26
ATOM     26  C   UNL A   1      35.438  29.275  27.796  1.00  0.00     0.116 C 
BRANCH  26  27
ATOM     27  N   UNL A   1      35.393  30.046  29.033  1.00  0.00    -0.352 N 
ATOM     28  C   UNL A   1      36.442  30.387  29.851  1.00  0.00     0.251 C 
ATOM     29  H   UNL A   1      34.504  30.361  29.316  1.00  0.00     0.163 HD
ATOM     30  O   UNL A   1      36.275  31.036  30.878  1.00  0.00    -0.269 OA
BRANCH  28  31
ATOM     31  C   UNL A   1      37.786  29.929  29.483  1.00  0.00     0.039 A 
ATOM     32  C   UNL A   1      38.163  29.928  28.139  1.00  0.00     0.014 A 
ATOM     33  C   UNL A   1      38.679  29.565  30.493  1.00  0.00     0.014 A 
ATOM     34  C   UNL A   1      39.466  29.575  27.805  1.00  0.00     0.010 A 
ATOM     35  C   UNL A   1      39.997  29.314  30.167  1.00  0.00     0.010 A 
ATOM     36  C   UNL A   1      40.389  29.279  28.821  1.00  0.00    -0.014 A 
BRANCH  36  37
ATOM     37  C   UNL A   1      41.755  28.816  28.514  1.00  0.00     0.031 A 
ATOM     38  C   UNL A   1      42.858  29.839  28.487  1.00  0.00     0.074 A 
ATOM     39  C   UNL A   1      41.968  27.532  28.180  1.00  0.00     0.049 A 
ATOM     40  N   UNL A   1      44.091  29.717  28.079  1.00  0.00    -0.248 NA
ATOM     41  C   UNL A   1      42.505  31.200  28.933  1.00  0.00     0.031 C 
ATOM     42  C   UNL A   1      40.943  26.485  28.140  1.00  0.00     0.029 A 
ATOM     43  N   UNL A   1      43.112  26.891  27.794  1.00  0.00    -0.354 N 
ATOM     44  C   UNL A   1      44.645  30.988  28.183  1.00  0.00     0.074 A 
ATOM     45  C   UNL A   1      43.599  31.879  28.629  1.00  0.00     0.031 C 
ATOM     46  C   UNL A   1      41.512  25.327  27.768  1.00  0.00     0.029 A 
ATOM     47  C   UNL A   1      42.927  25.560  27.505  1.00  0.00     0.049 A 
ATOM     48  H   UNL A   1      43.986  27.341  27.728  1.00  0.00     0.167 HD
ATOM     49  C   UNL A   1      45.923  31.367  27.953  1.00  0.00     0.037 A 
ATOM     50  C   UNL A   1      43.811  24.643  27.071  1.00  0.00     0.037 A 
ATOM     51  C   UNL A   1      46.950  30.442  27.555  1.00  0.00     0.049 A 
ATOM     52  C   UNL A   1      45.238  25.077  26.867  1.00  0.00     0.074 A 
ATOM     53  C   UNL A   1      48.293  30.682  27.335  1.00  0.00     0.029 A 
ATOM     54  N   UNL A   1      46.742  29.085  27.336  1.00  0.00    -0.354 N 
ATOM     55  N   UNL A   1      45.761  26.276  26.993  1.00  0.00    -0.248 NA
ATOM     56  C   UNL A   1      46.198  24.039  26.477  1.00  0.00     0.031 C 
ATOM     57  C   UNL A   1      48.890  29.476  26.951  1.00  0.00     0.029 A 
ATOM     58  C   UNL A   1      47.931  28.474  26.983  1.00  0.00     0.049 A 
ATOM     59  H   UNL A   1      45.874  28.627  27.420  1.00  0.00     0.167 HD
ATOM     60  C   UNL A   1      47.117  26.130  26.732  1.00  0.00     0.074 A 
ATOM     61  C   UNL A   1      47.332  24.723  26.452  1.00  0.00     0.031 C 
ATOM     62  C   UNL A   1      48.100  27.066  26.724  1.00  0.00     0.037 A 
BRANCH  49  63
ATOM     63  C   UNL A   1      46.267  32.821  28.135  1.00  0.00     0.058 A 
ATOM     64  C   UNL A   1      46.170  33.743  27.079  1.00  0.00     0.135 A 
ATOM     65  C   UNL A   1      46.698  33.303  29.381  1.00  0.00     0.135 A 
ATOM     66  F   UNL A   1      45.787  33.337  25.859  1.00  0.00    -0.206 F 
ATOM     67  C   UNL A   1      46.519  35.081  27.243  1.00  0.00     0.059 A 
ATOM     68  C   UNL A   1      47.021  34.645  29.576  1.00  0.00     0.059 A 
ATOM     69  F   UNL A   1      46.819  32.469  30.425  1.00  0.00    -0.206 F 
ATOM     70  C   UNL A   1      46.942  35.523  28.496  1.00  0.00     0.060 A 
BRANCH  70  71
ATOM     71  S   UNL A   1      47.383  37.262  28.693  1.00  0.00     0.124 S 
ATOM     72  O   UNL A   1      48.508  37.384  27.772  1.00  0.00    -0.237 OA
ATOM     73  O   UNL A   1      46.156  37.941  28.287  1.00  0.00    -0.237 OA
ATOM     74  O   UNL A   1      47.716  37.371  30.109  1.00  0.00    -0.744 OA
ENDBRANCH  70  71
ENDBRANCH  49  63
BRANCH  50  75
ATOM     75  C   UNL A   1      43.383  23.235  26.852  1.00  0.00     0.058 A 
ATOM     76  C   UNL A   1      43.347  22.688  25.561  1.00  0.00     0.135 A 
ATOM     77  C   UNL A   1      43.031  22.400  27.923  1.00  0.00     0.135 A 
ATOM     78  F   UNL A   1      43.677  23.444  24.502  1.00  0.00    -0.206 F 
ATOM     79  C   UNL A   1      42.959  21.371  25.335  1.00  0.00     0.059 A 
ATOM     80  C   UNL A   1      42.665  21.071  27.726  1.00  0.00     0.059 A 
ATOM     81  F   UNL A   1      43.072  22.866  29.182  1.00  0.00    -0.206 F 
ATOM     82  C   UNL A   1      42.621  20.569  26.426  1.00  0.00     0.060 A 
BRANCH  82  83
ATOM     83  S   UNL A   1      42.161  18.848  26.126  1.00  0.00     0.124 S 
ATOM     84  O   UNL A   1      40.743  18.974  25.810  1.00  0.00    -0.237 OA
ATOM     85  O   UNL A   1      43.034  18.488  25.013  1.00  0.00    -0.237 OA
ATOM     86  O   UNL A   1      42.471  18.192  27.393  1.00  0.00    -0.744 OA
ENDBRANCH  82  83
ENDBRANCH  50  75
BRANCH  62  87
ATOM     87  C   UNL A   1      49.495  26.580  26.455  1.00  0.00     0.058 A 
ATOM     88  C   UNL A   1      50.292  26.022  27.465  1.00  0.00     0.135 A 
ATOM     89  C   UNL A   1      50.025  26.650  25.157  1.00  0.00     0.135 A 
ATOM     90  F   UNL A   1      49.829  25.937  28.723  1.00  0.00    -0.206 F 
ATOM     91  C   UNL A   1      51.585  25.586  27.207  1.00  0.00     0.059 A 
ATOM     92  C   UNL A   1      51.304  26.189  24.869  1.00  0.00     0.059 A 
ATOM     93  F   UNL A   1      49.294  27.160  24.153  1.00  0.00    -0.206 F 
ATOM     94  C   UNL A   1      52.083  25.678  25.905  1.00  0.00     0.060 A 
BRANCH  94  95
ATOM     95  S   UNL A   1      53.762  25.103  25.580  1.00  0.00     0.124 S 
ATOM     96  O   UNL A   1      53.548  23.675  25.380  1.00  0.00    -0.237 OA
ATOM     97  O   UNL A   1      54.129  25.864  24.389  1.00  0.00    -0.237 OA
ATOM     98  O   UNL A   1      54.485  25.468  26.795  1.00  0.00    -0.744 OA
ENDBRANCH  94  95
ENDBRANCH  62  87
ENDBRANCH  36  37
ENDBRANCH  28  31
ENDBRANCH  26  27
ENDBRANCH  25  26
ENDBRANCH   1  25
TORSDOF 18
ENDMDL
MODEL 3
REMARK VINA RESULT:     -11.5      3.018      8.972
REMARK SMILES COc1ccc(C(=O)c2ccccc2)cc1[C@@H](C)C(=O)NCCCCNC(=O)c1ccc(-c2c3nc(c(-c4c(F)cc(S(=O)(=O)[O-])cc4F)c4ccc([nH]4)c(-c4c(F)cc(S(=O)(=O)[O-])cc4F)c4nc(c(-c5c(F)cc(S(=O)(=O)[O-])cc5F)c5ccc2[nH]5)C=C4)C=C3)cc1
REMARK SMILES IDX 23 1 22 2 21 3 19 4 20 5 17 7 18 8 16 9 3 10 4 11 5 12 15 13
REMARK SMILES IDX 6 14 2 15 1 16 7 17 8 18 9 19 10 20 14 21 11 22 13 23 12 24
REMARK SMILES IDX 24 25 25 26 26 27 27 28 28 30 29 31 30 32 94 33 31 34 93 35
REMARK SMILES IDX 32 36 33 37 34 38 87 39 35 40 92 41 86 42 88 43 36 44 91 45
REMARK SMILES IDX 85 46 84 47 37 49 71 50 50 51 70 52 51 53 54 54 69 55 89 56
REMARK SMILES IDX 52 57 53 58 68 60 90 61 55 62 38 63 39 64 48 65 40 66 41 67
REMARK SMILES IDX 47 68 49 69 42 70 43 71 44 72 45 73 46 74 72 75 73 76 82 77
REMARK SMILES IDX 74 78 75 79 81 80 83 81 76 82 77 83 78 84 79 85 80 86 56 87
REMARK SMILES IDX 57 88 66 89 58 90 59 91 65 92 67 93 60 94 61 95 62 96 63 97
REMARK SMILES IDX 64 98
REMARK H PARENT 21 6 26 29 88 48 54 59
REMARK Flexibility Score: inf
ROOT
ATOM      1  C   UNL A   1      33.780  26.649  24.870  1.00  0.00     0.023 C 
ENDROOT
BRANCH   1   2
ATOM      2  C   UNL A   1      33.201  25.629  25.847  1.00  0.00     0.116 C 
BRANCH   2   3
ATOM      3  N   UNL A   1      31.822  25.926  26.158  1.00  0.00    -0.356 N 
ATOM      4  C   UNL A   1      30.685  25.192  26.025  1.00  0.00     0.227 C 
ATOM      5  O   UNL A   1      29.628  25.791  26.264  1.00  0.00    -0.274 OA
ATOM      6  H   UNL A   1      31.679  26.823  26.537  1.00  0.00     0.163 HD
BRANCH   4   7
ATOM      7  C   UNL A   1      30.650  23.714  25.591  1.00  0.00     0.109 C 
ATOM      8  C   UNL A   1      30.345  22.702  26.693  1.00  0.00     0.023 C 
BRANCH   7   9
ATOM      9  C   UNL A   1      31.793  23.336  24.655  1.00  0.00     0.007 A 
ATOM     10  C   UNL A   1      31.881  23.865  23.357  1.00  0.00     0.122 A 
ATOM     11  C   UNL A   1      32.976  23.587  22.538  1.00  0.00     0.047 A 
ATOM     12  C   UNL A   1      34.024  22.796  23.009  1.00  0.00     0.016 A 
ATOM     13  C   UNL A   1      32.831  22.477  25.077  1.00  0.00     0.020 A 
ATOM     14  C   UNL A   1      33.960  22.223  24.283  1.00  0.00     0.023 A 
BRANCH  10  15
ATOM     15  O   UNL A   1      30.842  24.553  22.789  1.00  0.00    -0.496 OA
ATOM     16  C   UNL A   1      31.229  25.852  22.342  1.00  0.00     0.278 C 
ENDBRANCH  10  15
BRANCH  14  17
ATOM     17  C   UNL A   1      35.148  21.440  24.752  1.00  0.00     0.193 C 
ATOM     18  O   UNL A   1      35.126  20.213  24.676  1.00  0.00    -0.289 OA
BRANCH  17  19
ATOM     19  C   UNL A   1      36.391  22.065  25.261  1.00  0.00     0.022 A 
ATOM     20  C   UNL A   1      37.554  21.282  25.296  1.00  0.00     0.012 A 
ATOM     21  C   UNL A   1      36.416  23.376  25.750  1.00  0.00     0.012 A 
ATOM     22  C   UNL A   1      38.742  21.817  25.794  1.00  0.00     0.001 A 
ATOM     23  C   UNL A   1      37.609  23.908  26.243  1.00  0.00     0.001 A 
ATOM     24  C   UNL A   1      38.764  23.126  26.273  1.00  0.00     0.000 A 
ENDBRANCH  17  19
ENDBRANCH  14  17
ENDBRANCH   7   9
ENDBRANCH   4   7
ENDBRANCH   2   3
ENDBRANCH   1   2
BRANCH   1  25
ATOM     25  C   UNL A   1      33.673  28.106  25.290  1.00  0.00     0.023 C 
BRANCH  25  26
ATOM     26  C   UNL A   1      34.298  28.426  26.638  1.00  0.00     0.116 C 
BRANCH  26  27
ATOM     27  N   UNL A   1      33.885  29.705  27.205  1.00  0.00    -0.352 N 
ATOM     28  C   UNL A   1      34.628  30.562  27.979  1.00  0.00     0.251 C 
ATOM     29  H   UNL A   1      32.962  29.987  27.010  1.00  0.00     0.163 HD
ATOM     30  O   UNL A   1      34.162  31.612  28.407  1.00  0.00    -0.269 OA
BRANCH  28  31
ATOM     31  C   UNL A   1      36.004  30.180  28.312  1.00  0.00     0.039 A 
ATOM     32  C   UNL A   1      36.278  29.642  29.571  1.00  0.00     0.014 A 
ATOM     33  C   UNL A   1      36.998  30.305  27.339  1.00  0.00     0.014 A 
ATOM     34  C   UNL A   1      37.568  29.203  29.850  1.00  0.00     0.010 A 
ATOM     35  C   UNL A   1      38.249  29.776  27.583  1.00  0.00     0.010 A 
ATOM     36  C   UNL A   1      38.553  29.259  28.851  1.00  0.00    -0.014 A 
BRANCH  36  37
ATOM     37  C   UNL A   1      39.954  28.886  29.124  1.00  0.00     0.031 A 
ATOM     38  C   UNL A   1      40.864  29.935  29.702  1.00  0.00     0.074 A 
ATOM     39  C   UNL A   1      40.404  27.670  28.770  1.00  0.00     0.049 A 
ATOM     40  N   UNL A   1      42.158  29.910  29.865  1.00  0.00    -0.248 NA
ATOM     41  C   UNL A   1      40.233  31.207  30.102  1.00  0.00     0.031 C 
ATOM     42  C   UNL A   1      39.595  26.609  28.164  1.00  0.00     0.029 A 
ATOM     43  N   UNL A   1      41.655  27.126  28.853  1.00  0.00    -0.354 N 
ATOM     44  C   UNL A   1      42.497  31.170  30.348  1.00  0.00     0.074 A 
ATOM     45  C   UNL A   1      41.285  31.955  30.391  1.00  0.00     0.031 C 
ATOM     46  C   UNL A   1      40.370  25.535  27.947  1.00  0.00     0.029 A 
ATOM     47  C   UNL A   1      41.734  25.845  28.360  1.00  0.00     0.049 A 
ATOM     48  H   UNL A   1      42.428  27.607  29.230  1.00  0.00     0.167 HD
ATOM     49  C   UNL A   1      43.710  31.615  30.747  1.00  0.00     0.037 A 
ATOM     50  C   UNL A   1      42.796  25.027  28.255  1.00  0.00     0.037 A 
ATOM     51  C   UNL A   1      44.887  30.789  30.735  1.00  0.00     0.049 A 
ATOM     52  C   UNL A   1      44.127  25.529  28.749  1.00  0.00     0.074 A 
ATOM     53  C   UNL A   1      46.166  31.098  31.156  1.00  0.00     0.029 A 
ATOM     54  N   UNL A   1      44.916  29.472  30.291  1.00  0.00    -0.354 N 
ATOM     55  N   UNL A   1      44.434  26.713  29.229  1.00  0.00    -0.248 NA
ATOM     56  C   UNL A   1      45.250  24.587  28.701  1.00  0.00     0.031 C 
ATOM     57  C   UNL A   1      46.976  29.978  30.936  1.00  0.00     0.029 A 
ATOM     58  C   UNL A   1      46.190  28.954  30.427  1.00  0.00     0.049 A 
ATOM     59  H   UNL A   1      44.141  28.981  29.933  1.00  0.00     0.167 HD
ATOM     60  C   UNL A   1      45.778  26.647  29.574  1.00  0.00     0.074 A 
ATOM     61  C   UNL A   1      46.218  25.302  29.256  1.00  0.00     0.031 C 
ATOM     62  C   UNL A   1      46.580  27.604  30.107  1.00  0.00     0.037 A 
BRANCH  49  63
ATOM     63  C   UNL A   1      43.809  33.038  31.229  1.00  0.00     0.058 A 
ATOM     64  C   UNL A   1      43.465  33.402  32.542  1.00  0.00     0.135 A 
ATOM     65  C   UNL A   1      44.257  34.054  30.370  1.00  0.00     0.135 A 
ATOM     66  F   UNL A   1      43.007  32.479  33.402  1.00  0.00    -0.206 F 
ATOM     67  C   UNL A   1      43.528  34.724  32.974  1.00  0.00     0.059 A 
ATOM     68  C   UNL A   1      44.360  35.378  30.791  1.00  0.00     0.059 A 
ATOM     69  F   UNL A   1      44.593  33.770  29.101  1.00  0.00    -0.206 F 
ATOM     70  C   UNL A   1      43.978  35.705  32.091  1.00  0.00     0.060 A 
BRANCH  70  71
ATOM     71  S   UNL A   1      44.062  37.413  32.671  1.00  0.00     0.124 S 
ATOM     72  O   UNL A   1      43.066  37.407  33.738  1.00  0.00    -0.237 OA
ATOM     73  O   UNL A   1      45.451  37.526  33.104  1.00  0.00    -0.237 OA
ATOM     74  O   UNL A   1      43.711  38.192  31.488  1.00  0.00    -0.744 OA
ENDBRANCH  70  71
ENDBRANCH  49  63
BRANCH  50  75
ATOM     75  C   UNL A   1      42.632  23.654  27.708  1.00  0.00     0.058 A 
ATOM     76  C   UNL A   1      42.692  23.418  26.327  1.00  0.00     0.135 A 
ATOM     77  C   UNL A   1      42.445  22.546  28.550  1.00  0.00     0.135 A 
ATOM     78  F   UNL A   1      42.873  24.443  25.479  1.00  0.00    -0.206 F 
ATOM     79  C   UNL A   1      42.551  22.140  25.796  1.00  0.00     0.059 A 
ATOM     80  C   UNL A   1      42.328  21.254  28.045  1.00  0.00     0.059 A 
ATOM     81  F   UNL A   1      42.405  22.713  29.881  1.00  0.00    -0.206 F 
ATOM     82  C   UNL A   1      42.370  21.063  26.664  1.00  0.00     0.060 A 
BRANCH  82  83
ATOM     83  S   UNL A   1      42.233  19.402  25.967  1.00  0.00     0.124 S 
ATOM     84  O   UNL A   1      40.793  19.290  25.759  1.00  0.00    -0.237 OA
ATOM     85  O   UNL A   1      43.046  19.509  24.760  1.00  0.00    -0.237 OA
ATOM     86  O   UNL A   1      42.788  18.551  27.014  1.00  0.00    -0.744 OA
ENDBRANCH  82  83
ENDBRANCH  50  75
BRANCH  62  87
ATOM     87  C   UNL A   1      47.993  27.204  30.423  1.00  0.00     0.058 A 
ATOM     88  C   UNL A   1      48.333  26.581  31.632  1.00  0.00     0.135 A 
ATOM     89  C   UNL A   1      49.012  27.423  29.482  1.00  0.00     0.135 A 
ATOM     90  F   UNL A   1      47.393  26.353  32.564  1.00  0.00    -0.206 F 
ATOM     91  C   UNL A   1      49.645  26.226  31.918  1.00  0.00     0.059 A 
ATOM     92  C   UNL A   1      50.326  27.046  29.733  1.00  0.00     0.059 A 
ATOM     93  F   UNL A   1      48.733  28.000  28.303  1.00  0.00    -0.206 F 
ATOM     94  C   UNL A   1      50.635  26.466  30.962  1.00  0.00     0.060 A 
BRANCH  94  95
ATOM     95  S   UNL A   1      52.335  25.995  31.341  1.00  0.00     0.124 S 
ATOM     96  O   UNL A   1      52.146  24.679  31.939  1.00  0.00    -0.237 OA
ATOM     97  O   UNL A   1      52.966  26.012  30.025  1.00  0.00    -0.237 OA
ATOM     98  O   UNL A   1      52.779  27.043  32.255  1.00  0.00    -0.744 OA
ENDBRANCH  94  95
ENDBRANCH  62  87
ENDBRANCH  36  37
ENDBRANCH  28  31
ENDBRANCH  26  27
ENDBRANCH  25  26
ENDBRANCH   1  25
TORSDOF 18
ENDMDL
