MODEL 1
REMARK VINA RESULT:     -11.5      0.000      0.000
REMARK SMILES CC[C@@](C)([NH3+])C(=O)Nc1cc(C(=O)NCCCCNC(=O)c2ccc(-c3c4nc(c(-c5c(F)cc(S(=O)(=O)[O-])cc5F)c5ccc([nH]5)c(-c5c(F)cc(S(=O)(=O)[O-])cc5F)c5nc(c(-c6c(F)cc(S(=O)(=O)[O-])cc6F)c6ccc3[nH]6)C=C5)C=C4)cc2)cc(C(F)(F)F)c1
REMARK SMILES IDX 16 1 15 2 14 3 12 4 13 5 11 7 9 8 10 9 94 10 89 11 88 12
REMARK SMILES IDX 8 13 6 14 7 15 3 17 4 18 2 19 1 20 5 21 90 25 91 26 92 27
REMARK SMILES IDX 93 28 17 29 18 30 19 31 20 32 21 34 22 35 23 36 87 37 24 38
REMARK SMILES IDX 86 39 25 40 26 41 27 42 80 43 28 44 85 45 79 46 81 47 29 48
REMARK SMILES IDX 84 49 78 50 77 51 30 53 64 54 43 55 63 56 44 57 47 58 62 59
REMARK SMILES IDX 82 60 45 61 46 62 61 64 83 65 48 66 31 67 32 68 41 69 33 70
REMARK SMILES IDX 34 71 40 72 42 73 35 74 36 75 37 76 38 77 39 78 65 79 66 80
REMARK SMILES IDX 75 81 67 82 68 83 74 84 76 85 69 86 70 87 71 88 72 89 73 90
REMARK SMILES IDX 49 91 50 92 59 93 51 94 52 95 58 96 60 97 53 98 54 99 55 100
REMARK SMILES IDX 56 101 57 102
REMARK H PARENT 14 6 8 16 5 22 5 23 5 24 19 33 81 52 47 63
REMARK Flexibility Score: inf
ROOT
ATOM      1  C   UNL A   1      32.860  29.135  24.348  1.00  0.00     0.023 C 
ENDROOT
BRANCH   1   2
ATOM      2  C   UNL A   1      34.066  28.405  23.781  1.00  0.00     0.116 C 
BRANCH   2   3
ATOM      3  N   UNL A   1      33.876  27.782  22.478  1.00  0.00    -0.352 N 
ATOM      4  C   UNL A   1      33.453  26.508  22.152  1.00  0.00     0.251 C 
ATOM      5  O   UNL A   1      33.346  26.183  20.973  1.00  0.00    -0.269 OA
ATOM      6  H   UNL A   1      34.081  28.360  21.709  1.00  0.00     0.163 HD
BRANCH   4   7
ATOM      7  C   UNL A   1      33.189  25.495  23.208  1.00  0.00     0.042 A 
ATOM      8  C   UNL A   1      33.933  23.593  24.491  1.00  0.00     0.042 A 
ATOM      9  C   UNL A   1      34.121  24.469  23.424  1.00  0.00     0.040 A 
ATOM     10  C   UNL A   1      32.979  23.904  25.454  1.00  0.00     0.039 A 
ATOM     11  C   UNL A   1      31.985  24.845  25.199  1.00  0.00     0.058 A 
ATOM     12  C   UNL A   1      32.041  25.551  24.000  1.00  0.00     0.027 A 
BRANCH   8  13
ATOM     13  N   UNL A   1      34.713  22.437  24.593  1.00  0.00    -0.321 N 
ATOM     14  C   UNL A   1      34.326  21.116  24.708  1.00  0.00     0.285 C 
ATOM     15  O   UNL A   1      35.216  20.311  25.015  1.00  0.00    -0.267 OA
ATOM     16  H   UNL A   1      35.685  22.587  24.583  1.00  0.00     0.170 HD
BRANCH  14  17
ATOM     17  C   UNL A   1      32.865  20.613  24.333  1.00  0.00     0.171 C 
ATOM     18  C   UNL A   1      32.357  21.267  23.036  1.00  0.00     0.090 C 
BRANCH  17  19
ATOM     19  C   UNL A   1      32.857  19.063  24.171  1.00  0.00     0.075 C 
ATOM     20  C   UNL A   1      32.290  18.538  22.856  1.00  0.00     0.011 C 
ENDBRANCH  17  19
BRANCH  17  21
ATOM     21  N   UNL A   1      31.925  20.887  25.450  1.00  0.00    -0.345 N 
ATOM     22  H   UNL A   1      32.067  20.199  26.189  1.00  0.00     0.345 HD
ATOM     23  H   UNL A   1      30.966  20.828  25.110  1.00  0.00     0.345 HD
ATOM     24  H   UNL A   1      32.098  21.822  25.819  1.00  0.00     0.345 HD
ENDBRANCH  17  21
ENDBRANCH  14  17
ENDBRANCH   8  13
BRANCH  11  25
ATOM     25  C   UNL A   1      30.911  25.147  26.208  1.00  0.00     0.416 C 
ATOM     26  F   UNL A   1      31.399  25.832  27.279  1.00  0.00    -0.166 F 
ATOM     27  F   UNL A   1      29.916  25.916  25.691  1.00  0.00    -0.166 F 
ATOM     28  F   UNL A   1      30.303  24.039  26.709  1.00  0.00    -0.166 F 
ENDBRANCH  11  25
ENDBRANCH   4   7
ENDBRANCH   2   3
ENDBRANCH   1   2
BRANCH   1  29
ATOM     29  C   UNL A   1      32.444  28.761  25.760  1.00  0.00     0.023 C 
BRANCH  29  30
ATOM     30  C   UNL A   1      33.518  28.900  26.830  1.00  0.00     0.116 C 
BRANCH  30  31
ATOM     31  N   UNL A   1      33.517  30.188  27.512  1.00  0.00    -0.352 N 
ATOM     32  C   UNL A   1      34.521  30.788  28.239  1.00  0.00     0.251 C 
ATOM     33  H   UNL A   1      32.680  30.702  27.444  1.00  0.00     0.163 HD
ATOM     34  O   UNL A   1      34.326  31.865  28.796  1.00  0.00    -0.269 OA
BRANCH  32  35
ATOM     35  C   UNL A   1      35.818  30.097  28.385  1.00  0.00     0.039 A 
ATOM     36  C   UNL A   1      36.718  30.111  27.316  1.00  0.00     0.014 A 
ATOM     37  C   UNL A   1      36.179  29.523  29.606  1.00  0.00     0.014 A 
ATOM     38  C   UNL A   1      38.022  29.653  27.508  1.00  0.00     0.010 A 
ATOM     39  C   UNL A   1      37.501  29.146  29.819  1.00  0.00     0.010 A 
ATOM     40  C   UNL A   1      38.441  29.225  28.779  1.00  0.00    -0.014 A 
BRANCH  40  41
ATOM     41  C   UNL A   1      39.856  28.876  29.064  1.00  0.00     0.031 A 
ATOM     42  C   UNL A   1      40.792  29.930  29.586  1.00  0.00     0.074 A 
ATOM     43  C   UNL A   1      40.324  27.652  28.743  1.00  0.00     0.049 A 
ATOM     44  N   UNL A   1      42.090  29.885  29.730  1.00  0.00    -0.248 NA
ATOM     45  C   UNL A   1      40.189  31.220  29.962  1.00  0.00     0.031 C 
ATOM     46  C   UNL A   1      39.530  26.558  28.179  1.00  0.00     0.029 A 
ATOM     47  N   UNL A   1      41.593  27.130  28.823  1.00  0.00    -0.354 N 
ATOM     48  C   UNL A   1      42.464  31.146  30.177  1.00  0.00     0.074 A 
ATOM     49  C   UNL A   1      41.260  31.946  30.246  1.00  0.00     0.031 C 
ATOM     50  C   UNL A   1      40.325  25.495  27.974  1.00  0.00     0.029 A 
ATOM     51  C   UNL A   1      41.692  25.842  28.350  1.00  0.00     0.049 A 
ATOM     52  H   UNL A   1      42.358  27.632  29.183  1.00  0.00     0.167 HD
ATOM     53  C   UNL A   1      43.697  31.592  30.516  1.00  0.00     0.037 A 
ATOM     54  C   UNL A   1      42.764  25.037  28.219  1.00  0.00     0.037 A 
ATOM     55  C   UNL A   1      44.883  30.777  30.495  1.00  0.00     0.049 A 
ATOM     56  C   UNL A   1      44.119  25.544  28.636  1.00  0.00     0.074 A 
ATOM     57  C   UNL A   1      46.165  31.117  30.886  1.00  0.00     0.029 A 
ATOM     58  N   UNL A   1      44.929  29.459  30.069  1.00  0.00    -0.354 N 
ATOM     59  N   UNL A   1      44.446  26.725  29.102  1.00  0.00    -0.248 NA
ATOM     60  C   UNL A   1      45.248  24.612  28.511  1.00  0.00     0.031 C 
ATOM     61  C   UNL A   1      46.994  30.010  30.673  1.00  0.00     0.029 A 
ATOM     62  C   UNL A   1      46.219  28.972  30.180  1.00  0.00     0.049 A 
ATOM     63  H   UNL A   1      44.157  28.945  29.735  1.00  0.00     0.167 HD
ATOM     64  C   UNL A   1      45.813  26.669  29.350  1.00  0.00     0.074 A 
ATOM     65  C   UNL A   1      46.250  25.337  28.989  1.00  0.00     0.031 C 
ATOM     66  C   UNL A   1      46.631  27.634  29.835  1.00  0.00     0.037 A 
BRANCH  53  67
ATOM     67  C   UNL A   1      43.822  33.024  30.949  1.00  0.00     0.058 A 
ATOM     68  C   UNL A   1      43.678  33.399  32.294  1.00  0.00     0.135 A 
ATOM     69  C   UNL A   1      44.118  34.029  30.015  1.00  0.00     0.135 A 
ATOM     70  F   UNL A   1      43.377  32.479  33.224  1.00  0.00    -0.206 F 
ATOM     71  C   UNL A   1      43.794  34.725  32.694  1.00  0.00     0.059 A 
ATOM     72  C   UNL A   1      44.264  35.359  30.397  1.00  0.00     0.059 A 
ATOM     73  F   UNL A   1      44.264  33.724  28.716  1.00  0.00    -0.206 F 
ATOM     74  C   UNL A   1      44.085  35.700  31.737  1.00  0.00     0.060 A 
BRANCH  74  75
ATOM     75  S   UNL A   1      44.238  37.416  32.272  1.00  0.00     0.124 S 
ATOM     76  O   UNL A   1      43.935  38.132  31.036  1.00  0.00    -0.237 OA
ATOM     77  O   UNL A   1      43.228  37.511  33.320  1.00  0.00    -0.237 OA
ATOM     78  O   UNL A   1      45.621  37.508  32.728  1.00  0.00    -0.744 OA
ENDBRANCH  74  75
ENDBRANCH  53  67
BRANCH  54  79
ATOM     79  C   UNL A   1      42.603  23.661  27.682  1.00  0.00     0.058 A 
ATOM     80  C   UNL A   1      42.622  23.422  26.300  1.00  0.00     0.135 A 
ATOM     81  C   UNL A   1      42.430  22.559  28.535  1.00  0.00     0.135 A 
ATOM     82  F   UNL A   1      42.778  24.444  25.446  1.00  0.00    -0.206 F 
ATOM     83  C   UNL A   1      42.461  22.142  25.779  1.00  0.00     0.059 A 
ATOM     84  C   UNL A   1      42.287  21.268  28.038  1.00  0.00     0.059 A 
ATOM     85  F   UNL A   1      42.421  22.733  29.865  1.00  0.00    -0.206 F 
ATOM     86  C   UNL A   1      42.293  21.070  26.658  1.00  0.00     0.060 A 
BRANCH  86  87
ATOM     87  S   UNL A   1      42.127  19.406  25.975  1.00  0.00     0.124 S 
ATOM     88  O   UNL A   1      42.648  18.589  27.065  1.00  0.00    -0.237 OA
ATOM     89  O   UNL A   1      40.690  19.311  25.736  1.00  0.00    -0.237 OA
ATOM     90  O   UNL A   1      42.951  19.456  24.771  1.00  0.00    -0.744 OA
ENDBRANCH  86  87
ENDBRANCH  54  79
BRANCH  66  91
ATOM     91  C   UNL A   1      48.075  27.281  30.045  1.00  0.00     0.058 A 
ATOM     92  C   UNL A   1      49.047  27.559  29.073  1.00  0.00     0.135 A 
ATOM     93  C   UNL A   1      48.499  26.731  31.264  1.00  0.00     0.135 A 
ATOM     94  F   UNL A   1      48.688  28.078  27.887  1.00  0.00    -0.206 F 
ATOM     95  C   UNL A   1      50.393  27.297  29.300  1.00  0.00     0.059 A 
ATOM     96  C   UNL A   1      49.843  26.480  31.522  1.00  0.00     0.059 A 
ATOM     97  F   UNL A   1      47.607  26.455  32.229  1.00  0.00    -0.206 F 
ATOM     98  C   UNL A   1      50.782  26.761  30.530  1.00  0.00     0.060 A 
BRANCH  98  99
ATOM     99  S   UNL A   1      52.539  26.482  30.839  1.00  0.00     0.124 S 
ATOM    100  O   UNL A   1      53.056  26.339  29.482  1.00  0.00    -0.237 OA
ATOM    101  O   UNL A   1      52.933  27.698  31.543  1.00  0.00    -0.237 OA
ATOM    102  O   UNL A   1      52.551  25.266  31.648  1.00  0.00    -0.744 OA
ENDBRANCH  98  99
ENDBRANCH  66  91
ENDBRANCH  40  41
ENDBRANCH  32  35
ENDBRANCH  30  31
ENDBRANCH  29  30
ENDBRANCH   1  29
TORSDOF 19
ENDMDL
MODEL 2
REMARK VINA RESULT:     -11.1      2.948      3.746
REMARK SMILES CC[C@@](C)([NH3+])C(=O)Nc1cc(C(=O)NCCCCNC(=O)c2ccc(-c3c4nc(c(-c5c(F)cc(S(=O)(=O)[O-])cc5F)c5ccc([nH]5)c(-c5c(F)cc(S(=O)(=O)[O-])cc5F)c5nc(c(-c6c(F)cc(S(=O)(=O)[O-])cc6F)c6ccc3[nH]6)C=C5)C=C4)cc2)cc(C(F)(F)F)c1
REMARK SMILES IDX 16 1 15 2 14 3 12 4 13 5 11 7 9 8 10 9 94 10 89 11 88 12
REMARK SMILES IDX 8 13 6 14 7 15 3 17 4 18 2 19 1 20 5 21 90 25 91 26 92 27
REMARK SMILES IDX 93 28 17 29 18 30 19 31 20 32 21 34 22 35 23 36 87 37 24 38
REMARK SMILES IDX 86 39 25 40 26 41 27 42 80 43 28 44 85 45 79 46 81 47 29 48
REMARK SMILES IDX 84 49 78 50 77 51 30 53 64 54 43 55 63 56 44 57 47 58 62 59
REMARK SMILES IDX 82 60 45 61 46 62 61 64 83 65 48 66 31 67 32 68 41 69 33 70
REMARK SMILES IDX 34 71 40 72 42 73 35 74 36 75 37 76 38 77 39 78 65 79 66 80
REMARK SMILES IDX 75 81 67 82 68 83 74 84 76 85 69 86 70 87 71 88 72 89 73 90
REMARK SMILES IDX 49 91 50 92 59 93 51 94 52 95 58 96 60 97 53 98 54 99 55 100
REMARK SMILES IDX 56 101 57 102
REMARK H PARENT 14 6 8 16 5 22 5 23 5 24 19 33 81 52 47 63
REMARK Flexibility Score: inf
ROOT
ATOM      1  C   UNL A   1      32.858  29.750  27.198  1.00  0.00     0.023 C 
ENDROOT
BRANCH   1   2
ATOM      2  C   UNL A   1      32.351  30.069  25.802  1.00  0.00     0.116 C 
BRANCH   2   3
ATOM      3  N   UNL A   1      33.275  29.789  24.712  1.00  0.00    -0.352 N 
ATOM      4  C   UNL A   1      33.100  29.042  23.564  1.00  0.00     0.251 C 
ATOM      5  O   UNL A   1      34.017  28.943  22.753  1.00  0.00    -0.269 OA
ATOM      6  H   UNL A   1      34.165  30.197  24.809  1.00  0.00     0.163 HD
BRANCH   4   7
ATOM      7  C   UNL A   1      31.837  28.295  23.321  1.00  0.00     0.042 A 
ATOM      8  C   UNL A   1      30.598  26.228  23.418  1.00  0.00     0.042 A 
ATOM      9  C   UNL A   1      31.809  26.908  23.527  1.00  0.00     0.040 A 
ATOM     10  C   UNL A   1      29.418  26.964  23.358  1.00  0.00     0.039 A 
ATOM     11  C   UNL A   1      29.436  28.321  23.044  1.00  0.00     0.058 A 
ATOM     12  C   UNL A   1      30.673  28.947  22.908  1.00  0.00     0.027 A 
BRANCH   8  13
ATOM     13  N   UNL A   1      30.579  24.830  23.393  1.00  0.00    -0.321 N 
ATOM     14  C   UNL A   1      30.791  23.924  24.413  1.00  0.00     0.285 C 
ATOM     15  O   UNL A   1      30.945  22.744  24.071  1.00  0.00    -0.267 OA
ATOM     16  H   UNL A   1      30.386  24.432  22.514  1.00  0.00     0.170 HD
BRANCH  14  17
ATOM     17  C   UNL A   1      30.702  24.324  25.949  1.00  0.00     0.171 C 
ATOM     18  C   UNL A   1      30.610  23.082  26.853  1.00  0.00     0.090 C 
BRANCH  17  19
ATOM     19  C   UNL A   1      31.946  25.171  26.355  1.00  0.00     0.075 C 
ATOM     20  C   UNL A   1      31.651  26.570  26.883  1.00  0.00     0.011 C 
ENDBRANCH  17  19
BRANCH  17  21
ATOM     21  N   UNL A   1      29.537  25.217  26.181  1.00  0.00    -0.345 N 
ATOM     22  H   UNL A   1      28.688  24.760  25.850  1.00  0.00     0.345 HD
ATOM     23  H   UNL A   1      29.673  26.092  25.675  1.00  0.00     0.345 HD
ATOM     24  H   UNL A   1      29.451  25.411  27.178  1.00  0.00     0.345 HD
ENDBRANCH  17  21
ENDBRANCH  14  17
ENDBRANCH   8  13
BRANCH  11  25
ATOM     25  C   UNL A   1      28.166  29.115  22.917  1.00  0.00     0.416 C 
ATOM     26  F   UNL A   1      28.234  30.295  23.593  1.00  0.00    -0.166 F 
ATOM     27  F   UNL A   1      27.883  29.437  21.626  1.00  0.00    -0.166 F 
ATOM     28  F   UNL A   1      27.066  28.468  23.389  1.00  0.00    -0.166 F 
ENDBRANCH  11  25
ENDBRANCH   4   7
ENDBRANCH   2   3
ENDBRANCH   1   2
BRANCH   1  29
ATOM     29  C   UNL A   1      34.335  29.417  27.322  1.00  0.00     0.023 C 
BRANCH  29  30
ATOM     30  C   UNL A   1      35.253  30.578  27.679  1.00  0.00     0.116 C 
BRANCH  30  31
ATOM     31  N   UNL A   1      35.266  30.913  29.097  1.00  0.00    -0.352 N 
ATOM     32  C   UNL A   1      36.230  30.649  30.045  1.00  0.00     0.251 C 
ATOM     33  H   UNL A   1      34.474  31.398  29.425  1.00  0.00     0.163 HD
ATOM     34  O   UNL A   1      36.049  30.961  31.219  1.00  0.00    -0.269 OA
BRANCH  32  35
ATOM     35  C   UNL A   1      37.460  29.937  29.643  1.00  0.00     0.039 A 
ATOM     36  C   UNL A   1      37.891  30.025  28.317  1.00  0.00     0.014 A 
ATOM     37  C   UNL A   1      38.233  29.269  30.595  1.00  0.00     0.014 A 
ATOM     38  C   UNL A   1      39.154  29.542  27.971  1.00  0.00     0.010 A 
ATOM     39  C   UNL A   1      39.522  28.866  30.267  1.00  0.00     0.010 A 
ATOM     40  C   UNL A   1      40.004  29.016  28.957  1.00  0.00    -0.014 A 
BRANCH  40  41
ATOM     41  C   UNL A   1      41.409  28.634  28.661  1.00  0.00     0.031 A 
ATOM     42  C   UNL A   1      42.472  29.695  28.606  1.00  0.00     0.074 A 
ATOM     43  C   UNL A   1      41.704  27.360  28.330  1.00  0.00     0.049 A 
ATOM     44  N   UNL A   1      43.710  29.604  28.195  1.00  0.00    -0.248 NA
ATOM     45  C   UNL A   1      42.079  31.047  29.036  1.00  0.00     0.031 C 
ATOM     46  C   UNL A   1      40.751  26.247  28.293  1.00  0.00     0.029 A 
ATOM     47  N   UNL A   1      42.889  26.790  27.933  1.00  0.00    -0.354 N 
ATOM     48  C   UNL A   1      44.231  30.889  28.281  1.00  0.00     0.074 A 
ATOM     49  C   UNL A   1      43.166  31.748  28.750  1.00  0.00     0.031 C 
ATOM     50  C   UNL A   1      41.390  25.131  27.908  1.00  0.00     0.029 A 
ATOM     51  C   UNL A   1      42.786  25.453  27.628  1.00  0.00     0.049 A 
ATOM     52  H   UNL A   1      43.733  27.293  27.872  1.00  0.00     0.167 HD
ATOM     53  C   UNL A   1      45.489  31.311  28.011  1.00  0.00     0.037 A 
ATOM     54  C   UNL A   1      43.706  24.587  27.159  1.00  0.00     0.037 A 
ATOM     55  C   UNL A   1      46.559  30.442  27.596  1.00  0.00     0.049 A 
ATOM     56  C   UNL A   1      45.107  25.073  26.901  1.00  0.00     0.074 A 
ATOM     57  C   UNL A   1      47.884  30.763  27.366  1.00  0.00     0.029 A 
ATOM     58  N   UNL A   1      46.427  29.083  27.359  1.00  0.00    -0.354 N 
ATOM     59  N   UNL A   1      45.595  26.283  27.035  1.00  0.00    -0.248 NA
ATOM     60  C   UNL A   1      46.082  24.079  26.431  1.00  0.00     0.031 C 
ATOM     61  C   UNL A   1      48.551  29.599  26.965  1.00  0.00     0.029 A 
ATOM     62  C   UNL A   1      47.646  28.550  26.977  1.00  0.00     0.049 A 
ATOM     63  H   UNL A   1      45.590  28.572  27.448  1.00  0.00     0.167 HD
ATOM     64  C   UNL A   1      46.939  26.190  26.690  1.00  0.00     0.074 A 
ATOM     65  C   UNL A   1      47.189  24.805  26.349  1.00  0.00     0.031 C 
ATOM     66  C   UNL A   1      47.880  27.164  26.661  1.00  0.00     0.037 A 
BRANCH  53  67
ATOM     67  C   UNL A   1      45.778  32.775  28.170  1.00  0.00     0.058 A 
ATOM     68  C   UNL A   1      46.226  33.308  29.388  1.00  0.00     0.135 A 
ATOM     69  C   UNL A   1      45.635  33.652  27.082  1.00  0.00     0.135 A 
ATOM     70  F   UNL A   1      46.362  32.515  30.464  1.00  0.00    -0.206 F 
ATOM     71  C   UNL A   1      46.494  34.664  29.534  1.00  0.00     0.059 A 
ATOM     72  C   UNL A   1      45.922  35.009  27.198  1.00  0.00     0.059 A 
ATOM     73  F   UNL A   1      45.209  33.194  25.895  1.00  0.00    -0.206 F 
ATOM     74  C   UNL A   1      46.337  35.509  28.432  1.00  0.00     0.060 A 
BRANCH  74  75
ATOM     75  S   UNL A   1      46.692  37.266  28.634  1.00  0.00     0.124 S 
ATOM     76  O   UNL A   1      46.187  37.511  29.981  1.00  0.00    -0.237 OA
ATOM     77  O   UNL A   1      48.142  37.313  28.484  1.00  0.00    -0.237 OA
ATOM     78  O   UNL A   1      45.933  37.891  27.556  1.00  0.00    -0.744 OA
ENDBRANCH  74  75
ENDBRANCH  53  67
BRANCH  54  79
ATOM     79  C   UNL A   1      43.339  23.167  26.917  1.00  0.00     0.058 A 
ATOM     80  C   UNL A   1      43.177  22.680  25.612  1.00  0.00     0.135 A 
ATOM     81  C   UNL A   1      43.149  22.270  27.980  1.00  0.00     0.135 A 
ATOM     82  F   UNL A   1      43.343  23.502  24.565  1.00  0.00    -0.206 F 
ATOM     83  C   UNL A   1      42.822  21.358  25.367  1.00  0.00     0.059 A 
ATOM     84  C   UNL A   1      42.814  20.938  27.759  1.00  0.00     0.059 A 
ATOM     85  F   UNL A   1      43.309  22.683  29.246  1.00  0.00    -0.206 F 
ATOM     86  C   UNL A   1      42.642  20.493  26.448  1.00  0.00     0.060 A 
BRANCH  86  87
ATOM     87  S   UNL A   1      42.225  18.767  26.120  1.00  0.00     0.124 S 
ATOM     88  O   UNL A   1      43.148  18.442  25.039  1.00  0.00    -0.237 OA
ATOM     89  O   UNL A   1      42.498  18.132  27.406  1.00  0.00    -0.237 OA
ATOM     90  O   UNL A   1      40.814  18.830  25.750  1.00  0.00    -0.744 OA
ENDBRANCH  86  87
ENDBRANCH  54  79
BRANCH  66  91
ATOM     91  C   UNL A   1      49.279  26.768  26.287  1.00  0.00     0.058 A 
ATOM     92  C   UNL A   1      49.743  26.873  24.968  1.00  0.00     0.135 A 
ATOM     93  C   UNL A   1      50.186  26.354  27.275  1.00  0.00     0.135 A 
ATOM     94  F   UNL A   1      48.910  27.257  23.987  1.00  0.00    -0.206 F 
ATOM     95  C   UNL A   1      51.060  26.574  24.638  1.00  0.00     0.059 A 
ATOM     96  C   UNL A   1      51.513  26.070  26.972  1.00  0.00     0.059 A 
ATOM     97  F   UNL A   1      49.790  26.246  28.553  1.00  0.00    -0.206 F 
ATOM     98  C   UNL A   1      51.940  26.178  25.648  1.00  0.00     0.060 A 
BRANCH  98  99
ATOM     99  S   UNL A   1      53.663  25.851  25.221  1.00  0.00     0.124 S 
ATOM    100  O   UNL A   1      53.569  24.528  24.614  1.00  0.00    -0.237 OA
ATOM    101  O   UNL A   1      53.974  26.947  24.308  1.00  0.00    -0.237 OA
ATOM    102  O   UNL A   1      54.348  25.905  26.510  1.00  0.00    -0.744 OA
ENDBRANCH  98  99
ENDBRANCH  66  91
ENDBRANCH  40  41
ENDBRANCH  32  35
ENDBRANCH  30  31
ENDBRANCH  29  30
ENDBRANCH   1  29
TORSDOF 19
ENDMDL
MODEL 3
REMARK VINA RESULT:     -11.1      3.418      9.451
REMARK SMILES CC[C@@](C)([NH3+])C(=O)Nc1cc(C(=O)NCCCCNC(=O)c2ccc(-c3c4nc(c(-c5c(F)cc(S(=O)(=O)[O-])cc5F)c5ccc([nH]5)c(-c5c(F)cc(S(=O)(=O)[O-])cc5F)c5nc(c(-c6c(F)cc(S(=O)(=O)[O-])cc6F)c6ccc3[nH]6)C=C5)C=C4)cc2)cc(C(F)(F)F)c1
REMARK SMILES IDX 16 1 15 2 14 3 12 4 13 5 11 7 9 8 10 9 94 10 89 11 88 12
REMARK SMILES IDX 8 13 6 14 7 15 3 17 4 18 2 19 1 20 5 21 90 25 91 26 92 27
REMARK SMILES IDX 93 28 17 29 18 30 19 31 20 32 21 34 22 35 23 36 87 37 24 38
REMARK SMILES IDX 86 39 25 40 26 41 27 42 80 43 28 44 85 45 79 46 81 47 29 48
REMARK SMILES IDX 84 49 78 50 77 51 30 53 64 54 43 55 63 56 44 57 47 58 62 59
REMARK SMILES IDX 82 60 45 61 46 62 61 64 83 65 48 66 31 67 32 68 41 69 33 70
REMARK SMILES IDX 34 71 40 72 42 73 35 74 36 75 37 76 38 77 39 78 65 79 66 80
REMARK SMILES IDX 75 81 67 82 68 83 74 84 76 85 69 86 70 87 71 88 72 89 73 90
REMARK SMILES IDX 49 91 50 92 59 93 51 94 52 95 58 96 60 97 53 98 54 99 55 100
REMARK SMILES IDX 56 101 57 102
REMARK H PARENT 14 6 8 16 5 22 5 23 5 24 19 33 81 52 47 63
REMARK Flexibility Score: inf
ROOT
ATOM      1  C   UNL A   1      35.923  21.276  25.019  1.00  0.00     0.023 C 
ENDROOT
BRANCH   1   2
ATOM      2  C   UNL A   1      34.964  21.054  26.177  1.00  0.00     0.116 C 
BRANCH   2   3
ATOM      3  N   UNL A   1      33.976  20.001  25.989  1.00  0.00    -0.352 N 
ATOM      4  C   UNL A   1      32.792  20.004  25.278  1.00  0.00     0.251 C 
ATOM      5  O   UNL A   1      32.102  18.990  25.236  1.00  0.00    -0.269 OA
ATOM      6  H   UNL A   1      34.185  19.152  26.441  1.00  0.00     0.163 HD
BRANCH   4   7
ATOM      7  C   UNL A   1      32.301  21.241  24.615  1.00  0.00     0.042 A 
ATOM      8  C   UNL A   1      31.117  23.338  24.750  1.00  0.00     0.042 A 
ATOM      9  C   UNL A   1      31.476  22.122  25.329  1.00  0.00     0.040 A 
ATOM     10  C   UNL A   1      31.778  23.755  23.600  1.00  0.00     0.039 A 
ATOM     11  C   UNL A   1      32.509  22.855  22.828  1.00  0.00     0.058 A 
ATOM     12  C   UNL A   1      32.656  21.553  23.301  1.00  0.00     0.027 A 
BRANCH   8  13
ATOM     13  N   UNL A   1      30.123  24.127  25.338  1.00  0.00    -0.321 N 
ATOM     14  C   UNL A   1      30.232  25.313  26.036  1.00  0.00     0.285 C 
ATOM     15  O   UNL A   1      29.220  25.680  26.648  1.00  0.00    -0.267 OA
ATOM     16  H   UNL A   1      29.206  23.783  25.239  1.00  0.00     0.170 HD
BRANCH  14  17
ATOM     17  C   UNL A   1      31.521  26.240  25.958  1.00  0.00     0.171 C 
ATOM     18  C   UNL A   1      31.429  27.421  26.940  1.00  0.00     0.090 C 
BRANCH  17  19
ATOM     19  C   UNL A   1      32.801  25.406  26.267  1.00  0.00     0.075 C 
ATOM     20  C   UNL A   1      34.080  25.880  25.588  1.00  0.00     0.011 C 
ENDBRANCH  17  19
BRANCH  17  21
ATOM     21  N   UNL A   1      31.712  26.738  24.571  1.00  0.00    -0.345 N 
ATOM     22  H   UNL A   1      32.585  27.263  24.517  1.00  0.00     0.345 HD
ATOM     23  H   UNL A   1      30.934  27.344  24.316  1.00  0.00     0.345 HD
ATOM     24  H   UNL A   1      31.752  25.946  23.929  1.00  0.00     0.345 HD
ENDBRANCH  17  21
ENDBRANCH  14  17
ENDBRANCH   8  13
BRANCH  11  25
ATOM     25  C   UNL A   1      33.179  23.278  21.550  1.00  0.00     0.416 C 
ATOM     26  F   UNL A   1      34.536  23.245  21.653  1.00  0.00    -0.166 F 
ATOM     27  F   UNL A   1      32.861  22.467  20.505  1.00  0.00    -0.166 F 
ATOM     28  F   UNL A   1      32.857  24.539  21.154  1.00  0.00    -0.166 F 
ENDBRANCH  11  25
ENDBRANCH   4   7
ENDBRANCH   2   3
ENDBRANCH   1   2
BRANCH   1  29
ATOM     29  C   UNL A   1      36.035  22.698  24.497  1.00  0.00     0.023 C 
BRANCH  29  30
ATOM     30  C   UNL A   1      37.250  23.487  24.965  1.00  0.00     0.116 C 
BRANCH  30  31
ATOM     31  N   UNL A   1      38.412  22.663  25.276  1.00  0.00    -0.352 N 
ATOM     32  C   UNL A   1      39.504  22.961  26.061  1.00  0.00     0.251 C 
ATOM     33  H   UNL A   1      38.417  21.768  24.867  1.00  0.00     0.163 HD
ATOM     34  O   UNL A   1      40.427  22.158  26.170  1.00  0.00    -0.269 OA
BRANCH  32  35
ATOM     35  C   UNL A   1      39.577  24.277  26.727  1.00  0.00     0.039 A 
ATOM     36  C   UNL A   1      38.974  24.438  27.977  1.00  0.00     0.014 A 
ATOM     37  C   UNL A   1      40.321  25.315  26.162  1.00  0.00     0.014 A 
ATOM     38  C   UNL A   1      39.214  25.601  28.712  1.00  0.00     0.010 A 
ATOM     39  C   UNL A   1      40.627  26.433  26.930  1.00  0.00     0.010 A 
ATOM     40  C   UNL A   1      40.093  26.579  28.220  1.00  0.00    -0.014 A 
BRANCH  40  41
ATOM     41  C   UNL A   1      40.496  27.754  29.034  1.00  0.00     0.031 A 
ATOM     42  C   UNL A   1      41.766  27.704  29.835  1.00  0.00     0.074 A 
ATOM     43  C   UNL A   1      39.666  28.812  29.144  1.00  0.00     0.049 A 
ATOM     44  N   UNL A   1      42.206  28.539  30.740  1.00  0.00    -0.248 NA
ATOM     45  C   UNL A   1      42.641  26.540  29.614  1.00  0.00     0.031 C 
ATOM     46  C   UNL A   1      38.378  28.958  28.460  1.00  0.00     0.029 A 
ATOM     47  N   UNL A   1      39.770  29.957  29.896  1.00  0.00    -0.354 N 
ATOM     48  C   UNL A   1      43.386  27.985  31.221  1.00  0.00     0.074 A 
ATOM     49  C   UNL A   1      43.575  26.726  30.534  1.00  0.00     0.031 C 
ATOM     50  C   UNL A   1      37.820  30.127  28.814  1.00  0.00     0.029 A 
ATOM     51  C   UNL A   1      38.685  30.795  29.782  1.00  0.00     0.049 A 
ATOM     52  H   UNL A   1      40.548  30.158  30.463  1.00  0.00     0.167 HD
ATOM     53  C   UNL A   1      44.243  28.489  32.140  1.00  0.00     0.037 A 
ATOM     54  C   UNL A   1      38.409  31.960  30.399  1.00  0.00     0.037 A 
ATOM     55  C   UNL A   1      44.078  29.767  32.782  1.00  0.00     0.049 A 
ATOM     56  C   UNL A   1      39.396  32.518  31.390  1.00  0.00     0.074 A 
ATOM     57  C   UNL A   1      44.927  30.396  33.674  1.00  0.00     0.029 A 
ATOM     58  N   UNL A   1      42.996  30.613  32.591  1.00  0.00    -0.354 N 
ATOM     59  N   UNL A   1      40.531  32.003  31.798  1.00  0.00    -0.248 NA
ATOM     60  C   UNL A   1      39.067  33.812  32.004  1.00  0.00     0.031 C 
ATOM     61  C   UNL A   1      44.346  31.615  34.043  1.00  0.00     0.029 A 
ATOM     62  C   UNL A   1      43.151  31.756  33.355  1.00  0.00     0.049 A 
ATOM     63  H   UNL A   1      42.230  30.427  32.001  1.00  0.00     0.167 HD
ATOM     64  C   UNL A   1      41.063  32.922  32.696  1.00  0.00     0.074 A 
ATOM     65  C   UNL A   1      40.130  34.027  32.766  1.00  0.00     0.031 C 
ATOM     66  C   UNL A   1      42.221  32.856  33.396  1.00  0.00     0.037 A 
BRANCH  53  67
ATOM     67  C   UNL A   1      45.444  27.662  32.497  1.00  0.00     0.058 A 
ATOM     68  C   UNL A   1      45.384  26.670  33.488  1.00  0.00     0.135 A 
ATOM     69  C   UNL A   1      46.660  27.841  31.819  1.00  0.00     0.135 A 
ATOM     70  F   UNL A   1      44.249  26.471  34.178  1.00  0.00    -0.206 F 
ATOM     71  C   UNL A   1      46.496  25.903  33.816  1.00  0.00     0.059 A 
ATOM     72  C   UNL A   1      47.780  27.068  32.114  1.00  0.00     0.059 A 
ATOM     73  F   UNL A   1      46.772  28.777  30.864  1.00  0.00    -0.206 F 
ATOM     74  C   UNL A   1      47.692  26.111  33.125  1.00  0.00     0.060 A 
BRANCH  74  75
ATOM     75  S   UNL A   1      49.126  25.107  33.560  1.00  0.00     0.124 S 
ATOM     76  O   UNL A   1      48.491  23.953  34.189  1.00  0.00    -0.237 OA
ATOM     77  O   UNL A   1      49.742  24.858  32.261  1.00  0.00    -0.237 OA
ATOM     78  O   UNL A   1      49.887  25.972  34.456  1.00  0.00    -0.744 OA
ENDBRANCH  74  75
ENDBRANCH  53  67
BRANCH  54  79
ATOM     79  C   UNL A   1      37.152  32.690  30.089  1.00  0.00     0.058 A 
ATOM     80  C   UNL A   1      35.974  32.425  30.802  1.00  0.00     0.135 A 
ATOM     81  C   UNL A   1      37.103  33.666  29.082  1.00  0.00     0.135 A 
ATOM     82  F   UNL A   1      35.971  31.496  31.770  1.00  0.00    -0.206 F 
ATOM     83  C   UNL A   1      34.785  33.089  30.518  1.00  0.00     0.059 A 
ATOM     84  C   UNL A   1      35.931  34.358  28.794  1.00  0.00     0.059 A 
ATOM     85  F   UNL A   1      38.208  33.968  28.383  1.00  0.00    -0.206 F 
ATOM     86  C   UNL A   1      34.773  34.055  29.509  1.00  0.00     0.060 A 
BRANCH  86  87
ATOM     87  S   UNL A   1      33.237  34.943  29.176  1.00  0.00     0.124 S 
ATOM     88  O   UNL A   1      33.738  36.236  28.724  1.00  0.00    -0.237 OA
ATOM     89  O   UNL A   1      32.611  34.108  28.155  1.00  0.00    -0.237 OA
ATOM     90  O   UNL A   1      32.564  34.943  30.471  1.00  0.00    -0.744 OA
ENDBRANCH  86  87
ENDBRANCH  54  79
BRANCH  66  91
ATOM     91  C   UNL A   1      42.572  34.024  34.271  1.00  0.00     0.058 A 
ATOM     92  C   UNL A   1      42.250  34.042  35.635  1.00  0.00     0.135 A 
ATOM     93  C   UNL A   1      43.307  35.101  33.752  1.00  0.00     0.135 A 
ATOM     94  F   UNL A   1      41.541  33.038  36.176  1.00  0.00    -0.206 F 
ATOM     95  C   UNL A   1      42.640  35.093  36.458  1.00  0.00     0.059 A 
ATOM     96  C   UNL A   1      43.726  36.153  34.560  1.00  0.00     0.059 A 
ATOM     97  F   UNL A   1      43.646  35.126  32.453  1.00  0.00    -0.206 F 
ATOM     98  C   UNL A   1      43.382  36.143  35.911  1.00  0.00     0.060 A 
BRANCH  98  99
ATOM     99  S   UNL A   1      43.937  37.473  36.999  1.00  0.00     0.124 S 
ATOM    100  O   UNL A   1      45.216  36.951  37.471  1.00  0.00    -0.237 OA
ATOM    101  O   UNL A   1      44.014  38.612  36.091  1.00  0.00    -0.237 OA
ATOM    102  O   UNL A   1      42.881  37.551  38.004  1.00  0.00    -0.744 OA
ENDBRANCH  98  99
ENDBRANCH  66  91
ENDBRANCH  40  41
ENDBRANCH  32  35
ENDBRANCH  30  31
ENDBRANCH  29  30
ENDBRANCH   1  29
TORSDOF 19
ENDMDL
