MODEL 1
REMARK VINA RESULT:     -10.1      0.000      0.000
REMARK SMILES O=C(NCCCCNC(=O)c1ccc(N2C(=O)/C(=C\C3=Cc4ccccc4OC3)SC2=S)cc1)c1ccc(-c2c3nc(c(-c4c(F)cc(S(=O)(=O)[O-])cc4F)c4ccc([nH]4)c(-c4c(F)cc(S(=O)(=O)[O-])cc4F)c4nc(c(-c5c(F)cc(S(=O)(=O)[O-])cc5F)c5ccc2[nH]5)C=C4)C=C3)cc1
REMARK SMILES IDX 5 1 4 2 3 3 1 4 2 5 35 7 36 8 100 9 37 10 99 11 38 12 39 13
REMARK SMILES IDX 40 14 93 15 41 16 98 17 92 18 94 19 42 20 97 21 91 22 90 23
REMARK SMILES IDX 43 25 77 26 56 27 76 28 57 29 60 30 75 31 95 32 58 33 59 34
REMARK SMILES IDX 74 36 96 37 61 38 44 39 45 40 54 41 46 42 47 43 53 44 55 45
REMARK SMILES IDX 48 46 49 47 50 48 51 49 52 50 78 51 79 52 88 53 80 54 81 55
REMARK SMILES IDX 87 56 89 57 82 58 83 59 84 60 85 61 86 62 62 63 63 64 72 65
REMARK SMILES IDX 64 66 65 67 71 68 73 69 66 70 67 71 68 72 69 73 70 74 6 75
REMARK SMILES IDX 7 76 8 77 9 78 10 80 11 81 12 82 34 83 13 84 33 85 14 86
REMARK SMILES IDX 15 87 16 88 31 89 17 90 18 91 30 92 32 93 19 94 20 95 21 96
REMARK SMILES IDX 29 97 22 98 28 99 23 100 27 101 24 102 26 103 25 104
REMARK H PARENT 3 6 94 24 60 35 8 79
REMARK Flexibility Score: inf
ROOT
ATOM      1  C   UNL A   1      34.728  32.406  30.093  1.00  0.00     0.023 C 
ENDROOT
BRANCH   1   2
ATOM      2  C   UNL A   1      34.489  32.344  28.589  1.00  0.00     0.116 C 
BRANCH   2   3
ATOM      3  N   UNL A   1      33.885  31.096  28.155  1.00  0.00    -0.352 N 
ATOM      4  O   UNL A   1      33.810  28.961  27.444  1.00  0.00    -0.269 OA
ATOM      5  C   UNL A   1      34.474  29.871  27.931  1.00  0.00     0.251 C 
ATOM      6  H   UNL A   1      32.913  31.130  27.997  1.00  0.00     0.163 HD
BRANCH   5   7
ATOM      7  C   UNL A   1      35.907  29.660  28.247  1.00  0.00     0.039 A 
ATOM      8  C   UNL A   1      36.902  29.941  27.309  1.00  0.00     0.014 A 
ATOM      9  C   UNL A   1      36.264  29.185  29.514  1.00  0.00     0.014 A 
ATOM     10  C   UNL A   1      38.228  29.617  27.583  1.00  0.00     0.010 A 
ATOM     11  C   UNL A   1      37.608  28.934  29.818  1.00  0.00     0.010 A 
ATOM     12  C   UNL A   1      38.599  29.120  28.844  1.00  0.00    -0.014 A 
BRANCH  12  13
ATOM     13  C   UNL A   1      40.037  28.869  29.128  1.00  0.00     0.031 A 
ATOM     14  C   UNL A   1      40.697  27.570  28.753  1.00  0.00     0.074 A 
ATOM     15  C   UNL A   1      40.763  29.857  29.689  1.00  0.00     0.049 A 
ATOM     16  N   UNL A   1      41.952  27.219  28.880  1.00  0.00    -0.248 NA
ATOM     17  C   UNL A   1      39.842  26.526  28.166  1.00  0.00     0.031 C 
ATOM     18  C   UNL A   1      40.228  31.153  30.120  1.00  0.00     0.029 A 
ATOM     19  N   UNL A   1      42.101  29.942  29.973  1.00  0.00    -0.354 N 
ATOM     20  C   UNL A   1      42.039  25.917  28.403  1.00  0.00     0.074 A 
ATOM     21  C   UNL A   1      40.702  25.528  28.003  1.00  0.00     0.031 C 
ATOM     22  C   UNL A   1      41.234  31.918  30.565  1.00  0.00     0.029 A 
ATOM     23  C   UNL A   1      42.475  31.155  30.500  1.00  0.00     0.049 A 
ATOM     24  H   UNL A   1      42.733  29.204  29.815  1.00  0.00     0.167 HD
ATOM     25  C   UNL A   1      43.134  25.125  28.297  1.00  0.00     0.037 A 
ATOM     26  C   UNL A   1      43.680  31.604  30.896  1.00  0.00     0.037 A 
ATOM     27  C   UNL A   1      44.466  25.523  28.680  1.00  0.00     0.049 A 
ATOM     28  C   UNL A   1      44.877  30.707  30.761  1.00  0.00     0.074 A 
ATOM     29  C   UNL A   1      45.643  24.799  28.586  1.00  0.00     0.029 A 
ATOM     30  N   UNL A   1      44.801  26.753  29.228  1.00  0.00    -0.354 N 
ATOM     31  N   UNL A   1      44.939  29.488  30.283  1.00  0.00    -0.248 NA
ATOM     32  C   UNL A   1      46.163  31.244  31.223  1.00  0.00     0.031 C 
ATOM     33  C   UNL A   1      46.683  25.577  29.105  1.00  0.00     0.029 A 
ATOM     34  C   UNL A   1      46.161  26.802  29.490  1.00  0.00     0.049 A 
ATOM     35  H   UNL A   1      44.165  27.484  29.405  1.00  0.00     0.167 HD
ATOM     36  C   UNL A   1      46.273  29.111  30.384  1.00  0.00     0.074 A 
ATOM     37  C   UNL A   1      46.985  30.243  30.942  1.00  0.00     0.031 C 
ATOM     38  C   UNL A   1      46.853  27.932  30.054  1.00  0.00     0.037 A 
BRANCH  25  39
ATOM     39  C   UNL A   1      42.949  23.738  27.745  1.00  0.00     0.058 A 
ATOM     40  C   UNL A   1      42.707  22.640  28.586  1.00  0.00     0.135 A 
ATOM     41  C   UNL A   1      42.940  23.516  26.359  1.00  0.00     0.135 A 
ATOM     42  F   UNL A   1      42.718  22.795  29.918  1.00  0.00    -0.206 F 
ATOM     43  C   UNL A   1      42.475  21.368  28.071  1.00  0.00     0.059 A 
ATOM     44  C   UNL A   1      42.691  22.256  25.821  1.00  0.00     0.059 A 
ATOM     45  F   UNL A   1      43.164  24.532  25.510  1.00  0.00    -0.206 F 
ATOM     46  C   UNL A   1      42.467  21.185  26.687  1.00  0.00     0.060 A 
BRANCH  46  47
ATOM     47  S   UNL A   1      42.141  19.534  26.034  1.00  0.00     0.124 S 
ATOM     48  O   UNL A   1      40.701  19.593  25.799  1.00  0.00    -0.237 OA
ATOM     49  O   UNL A   1      42.975  19.500  24.837  1.00  0.00    -0.237 OA
ATOM     50  O   UNL A   1      42.566  18.650  27.115  1.00  0.00    -0.744 OA
ENDBRANCH  46  47
ENDBRANCH  25  39
BRANCH  26  51
ATOM     51  C   UNL A   1      43.810  32.972  31.462  1.00  0.00     0.058 A 
ATOM     52  C   UNL A   1      44.075  34.076  30.640  1.00  0.00     0.135 A 
ATOM     53  C   UNL A   1      43.653  33.199  32.838  1.00  0.00     0.135 A 
ATOM     54  F   UNL A   1      44.235  33.905  29.319  1.00  0.00    -0.206 F 
ATOM     55  C   UNL A   1      44.197  35.359  31.163  1.00  0.00     0.059 A 
ATOM     56  C   UNL A   1      43.746  34.476  33.381  1.00  0.00     0.059 A 
ATOM     57  F   UNL A   1      43.380  32.176  33.663  1.00  0.00    -0.206 F 
ATOM     58  C   UNL A   1      44.032  35.548  32.537  1.00  0.00     0.060 A 
BRANCH  58  59
ATOM     59  S   UNL A   1      44.144  37.220  33.208  1.00  0.00     0.124 S 
ATOM     60  O   UNL A   1      45.492  37.222  33.763  1.00  0.00    -0.237 OA
ATOM     61  O   UNL A   1      43.939  38.047  32.023  1.00  0.00    -0.237 OA
ATOM     62  O   UNL A   1      43.057  37.259  34.182  1.00  0.00    -0.744 OA
ENDBRANCH  58  59
ENDBRANCH  26  51
BRANCH  38  63
ATOM     63  C   UNL A   1      48.331  27.816  30.287  1.00  0.00     0.058 A 
ATOM     64  C   UNL A   1      49.255  28.111  29.273  1.00  0.00     0.135 A 
ATOM     65  C   UNL A   1      48.830  27.415  31.537  1.00  0.00     0.135 A 
ATOM     66  F   UNL A   1      48.827  28.490  28.059  1.00  0.00    -0.206 F 
ATOM     67  C   UNL A   1      50.624  27.984  29.481  1.00  0.00     0.059 A 
ATOM     68  C   UNL A   1      50.196  27.302  31.774  1.00  0.00     0.059 A 
ATOM     69  F   UNL A   1      47.986  27.129  32.541  1.00  0.00    -0.206 F 
ATOM     70  C   UNL A   1      51.085  27.573  30.732  1.00  0.00     0.060 A 
BRANCH  70  71
ATOM     71  S   UNL A   1      52.864  27.416  30.996  1.00  0.00     0.124 S 
ATOM     72  O   UNL A   1      53.075  25.995  30.736  1.00  0.00    -0.237 OA
ATOM     73  O   UNL A   1      53.414  28.330  30.000  1.00  0.00    -0.237 OA
ATOM     74  O   UNL A   1      53.038  27.834  32.385  1.00  0.00    -0.744 OA
ENDBRANCH  70  71
ENDBRANCH  38  63
ENDBRANCH  12  13
ENDBRANCH   5   7
ENDBRANCH   2   3
ENDBRANCH   1   2
BRANCH   1  75
ATOM     75  C   UNL A   1      36.188  32.526  30.532  1.00  0.00     0.023 C 
BRANCH  75  76
ATOM     76  C   UNL A   1      36.751  33.945  30.603  1.00  0.00     0.116 C 
BRANCH  76  77
ATOM     77  N   UNL A   1      36.055  34.788  31.560  1.00  0.00    -0.352 N 
ATOM     78  C   UNL A   1      36.236  34.948  32.910  1.00  0.00     0.251 C 
ATOM     79  H   UNL A   1      35.333  35.335  31.176  1.00  0.00     0.163 HD
ATOM     80  O   UNL A   1      35.445  35.635  33.552  1.00  0.00    -0.269 OA
BRANCH  78  81
ATOM     81  C   UNL A   1      37.347  34.280  33.623  1.00  0.00     0.039 A 
ATOM     82  C   UNL A   1      37.049  33.550  34.772  1.00  0.00     0.016 A 
ATOM     83  C   UNL A   1      38.675  34.397  33.216  1.00  0.00     0.016 A 
ATOM     84  C   UNL A   1      38.065  32.882  35.467  1.00  0.00     0.027 A 
ATOM     85  C   UNL A   1      39.684  33.709  33.906  1.00  0.00     0.027 A 
ATOM     86  C   UNL A   1      39.403  32.933  35.045  1.00  0.00     0.051 A 
BRANCH  86  87
ATOM     87  N   UNL A   1      40.425  32.142  35.677  1.00  0.00    -0.261 N 
ATOM     88  C   UNL A   1      40.413  30.750  35.556  1.00  0.00     0.270 C 
ATOM     89  C   UNL A   1      41.461  32.633  36.463  1.00  0.00     0.152 C 
ATOM     90  O   UNL A   1      39.459  30.009  35.404  1.00  0.00    -0.268 OA
ATOM     91  C   UNL A   1      41.787  30.229  35.806  1.00  0.00     0.081 C 
ATOM     92  S   UNL A   1      42.574  31.317  36.888  1.00  0.00    -0.054 SA
ATOM     93  S   UNL A   1      41.723  34.160  37.101  1.00  0.00    -0.051 S 
ATOM     94  C   UNL A   1      42.460  29.253  35.177  1.00  0.00     0.028 C 
BRANCH  94  95
ATOM     95  C   UNL A   1      42.124  28.519  33.948  1.00  0.00    -0.009 C 
ATOM     96  C   UNL A   1      43.025  28.141  33.018  1.00  0.00     0.019 C 
ATOM     97  C   UNL A   1      41.105  27.419  34.232  1.00  0.00     0.265 C 
ATOM     98  C   UNL A   1      43.619  26.815  33.368  1.00  0.00     0.017 A 
ATOM     99  O   UNL A   1      41.752  26.293  34.863  1.00  0.00    -0.488 OA
ATOM    100  C   UNL A   1      44.856  26.440  32.841  1.00  0.00     0.012 A 
ATOM    101  C   UNL A   1      42.978  25.985  34.309  1.00  0.00     0.127 A 
ATOM    102  C   UNL A   1      45.475  25.273  33.290  1.00  0.00     0.001 A 
ATOM    103  C   UNL A   1      43.608  24.832  34.769  1.00  0.00     0.047 A 
ATOM    104  C   UNL A   1      44.860  24.480  34.262  1.00  0.00     0.004 A 
ENDBRANCH  94  95
ENDBRANCH  86  87
ENDBRANCH  78  81
ENDBRANCH  76  77
ENDBRANCH  75  76
ENDBRANCH   1  75
TORSDOF 16
ENDMDL
MODEL 2
REMARK VINA RESULT:     -10.0      0.533      7.936
REMARK SMILES O=C(NCCCCNC(=O)c1ccc(N2C(=O)/C(=C\C3=Cc4ccccc4OC3)SC2=S)cc1)c1ccc(-c2c3nc(c(-c4c(F)cc(S(=O)(=O)[O-])cc4F)c4ccc([nH]4)c(-c4c(F)cc(S(=O)(=O)[O-])cc4F)c4nc(c(-c5c(F)cc(S(=O)(=O)[O-])cc5F)c5ccc2[nH]5)C=C4)C=C3)cc1
REMARK SMILES IDX 5 1 4 2 3 3 1 4 2 5 35 7 36 8 100 9 37 10 99 11 38 12 39 13
REMARK SMILES IDX 40 14 93 15 41 16 98 17 92 18 94 19 42 20 97 21 91 22 90 23
REMARK SMILES IDX 43 25 77 26 56 27 76 28 57 29 60 30 75 31 95 32 58 33 59 34
REMARK SMILES IDX 74 36 96 37 61 38 44 39 45 40 54 41 46 42 47 43 53 44 55 45
REMARK SMILES IDX 48 46 49 47 50 48 51 49 52 50 78 51 79 52 88 53 80 54 81 55
REMARK SMILES IDX 87 56 89 57 82 58 83 59 84 60 85 61 86 62 62 63 63 64 72 65
REMARK SMILES IDX 64 66 65 67 71 68 73 69 66 70 67 71 68 72 69 73 70 74 6 75
REMARK SMILES IDX 7 76 8 77 9 78 10 80 11 81 12 82 34 83 13 84 33 85 14 86
REMARK SMILES IDX 15 87 16 88 31 89 17 90 18 91 30 92 32 93 19 94 20 95 21 96
REMARK SMILES IDX 29 97 22 98 28 99 23 100 27 101 24 102 26 103 25 104
REMARK H PARENT 3 6 94 24 60 35 8 79
REMARK Flexibility Score: inf
ROOT
ATOM      1  C   UNL A   1      34.960  32.404  30.217  1.00  0.00     0.023 C 
ENDROOT
BRANCH   1   2
ATOM      2  C   UNL A   1      34.639  32.369  28.728  1.00  0.00     0.116 C 
BRANCH   2   3
ATOM      3  N   UNL A   1      34.025  31.122  28.303  1.00  0.00    -0.352 N 
ATOM      4  O   UNL A   1      33.932  28.995  27.572  1.00  0.00    -0.269 OA
ATOM      5  C   UNL A   1      34.610  29.903  28.045  1.00  0.00     0.251 C 
ATOM      6  H   UNL A   1      33.048  31.155  28.179  1.00  0.00     0.163 HD
BRANCH   5   7
ATOM      7  C   UNL A   1      36.054  29.694  28.309  1.00  0.00     0.039 A 
ATOM      8  C   UNL A   1      37.015  30.001  27.344  1.00  0.00     0.014 A 
ATOM      9  C   UNL A   1      36.455  29.195  29.554  1.00  0.00     0.014 A 
ATOM     10  C   UNL A   1      38.352  29.679  27.567  1.00  0.00     0.010 A 
ATOM     11  C   UNL A   1      37.810  28.946  29.807  1.00  0.00     0.010 A 
ATOM     12  C   UNL A   1      38.767  29.158  28.804  1.00  0.00    -0.014 A 
BRANCH  12  13
ATOM     13  C   UNL A   1      40.215  28.911  29.034  1.00  0.00     0.031 A 
ATOM     14  C   UNL A   1      41.087  29.929  29.718  1.00  0.00     0.074 A 
ATOM     15  C   UNL A   1      40.731  27.723  28.660  1.00  0.00     0.049 A 
ATOM     16  N   UNL A   1      42.353  29.841  30.042  1.00  0.00    -0.248 NA
ATOM     17  C   UNL A   1      40.467  31.213  30.079  1.00  0.00     0.031 C 
ATOM     18  C   UNL A   1      39.990  26.665  27.965  1.00  0.00     0.029 A 
ATOM     19  N   UNL A   1      41.985  27.192  28.826  1.00  0.00    -0.354 N 
ATOM     20  C   UNL A   1      42.685  31.054  30.634  1.00  0.00     0.074 A 
ATOM     21  C   UNL A   1      41.491  31.875  30.602  1.00  0.00     0.031 C 
ATOM     22  C   UNL A   1      40.786  25.598  27.811  1.00  0.00     0.029 A 
ATOM     23  C   UNL A   1      42.105  25.910  28.349  1.00  0.00     0.049 A 
ATOM     24  H   UNL A   1      42.726  27.684  29.248  1.00  0.00     0.167 HD
ATOM     25  C   UNL A   1      43.871  31.442  31.163  1.00  0.00     0.037 A 
ATOM     26  C   UNL A   1      43.162  25.076  28.335  1.00  0.00     0.037 A 
ATOM     27  C   UNL A   1      45.051  30.615  31.207  1.00  0.00     0.049 A 
ATOM     28  C   UNL A   1      44.461  25.530  28.934  1.00  0.00     0.074 A 
ATOM     29  C   UNL A   1      46.292  30.912  31.747  1.00  0.00     0.029 A 
ATOM     30  N   UNL A   1      45.140  29.329  30.696  1.00  0.00    -0.354 N 
ATOM     31  N   UNL A   1      44.744  26.674  29.510  1.00  0.00    -0.248 NA
ATOM     32  C   UNL A   1      45.584  24.585  28.877  1.00  0.00     0.031 C 
ATOM     33  C   UNL A   1      47.139  29.819  31.535  1.00  0.00     0.029 A 
ATOM     34  C   UNL A   1      46.416  28.825  30.894  1.00  0.00     0.049 A 
ATOM     35  H   UNL A   1      44.404  28.845  30.255  1.00  0.00     0.167 HD
ATOM     36  C   UNL A   1      46.079  26.585  29.888  1.00  0.00     0.074 A 
ATOM     37  C   UNL A   1      46.536  25.265  29.499  1.00  0.00     0.031 C 
ATOM     38  C   UNL A   1      46.857  27.514  30.492  1.00  0.00     0.037 A 
BRANCH  25  39
ATOM     39  C   UNL A   1      43.963  32.827  31.742  1.00  0.00     0.058 A 
ATOM     40  C   UNL A   1      44.301  33.934  30.947  1.00  0.00     0.135 A 
ATOM     41  C   UNL A   1      43.640  33.063  33.088  1.00  0.00     0.135 A 
ATOM     42  F   UNL A   1      44.632  33.763  29.658  1.00  0.00    -0.206 F 
ATOM     43  C   UNL A   1      44.327  35.223  31.469  1.00  0.00     0.059 A 
ATOM     44  C   UNL A   1      43.641  34.346  33.627  1.00  0.00     0.059 A 
ATOM     45  F   UNL A   1      43.309  32.040  33.892  1.00  0.00    -0.206 F 
ATOM     46  C   UNL A   1      43.993  35.421  32.811  1.00  0.00     0.060 A 
BRANCH  46  47
ATOM     47  S   UNL A   1      44.009  37.102  33.468  1.00  0.00     0.124 S 
ATOM     48  O   UNL A   1      42.666  37.206  34.032  1.00  0.00    -0.237 OA
ATOM     49  O   UNL A   1      45.099  37.051  34.437  1.00  0.00    -0.237 OA
ATOM     50  O   UNL A   1      44.261  37.926  32.290  1.00  0.00    -0.744 OA
ENDBRANCH  46  47
ENDBRANCH  25  39
BRANCH  26  51
ATOM     51  C   UNL A   1      43.031  23.727  27.726  1.00  0.00     0.058 A 
ATOM     52  C   UNL A   1      42.641  22.619  28.492  1.00  0.00     0.135 A 
ATOM     53  C   UNL A   1      43.278  23.527  26.359  1.00  0.00     0.135 A 
ATOM     54  F   UNL A   1      42.397  22.764  29.803  1.00  0.00    -0.206 F 
ATOM     55  C   UNL A   1      42.516  21.354  27.928  1.00  0.00     0.059 A 
ATOM     56  C   UNL A   1      43.137  22.276  25.768  1.00  0.00     0.059 A 
ATOM     57  F   UNL A   1      43.636  24.561  25.581  1.00  0.00    -0.206 F 
ATOM     58  C   UNL A   1      42.767  21.193  26.563  1.00  0.00     0.060 A 
BRANCH  58  59
ATOM     59  S   UNL A   1      42.559  19.559  25.824  1.00  0.00     0.124 S 
ATOM     60  O   UNL A   1      43.491  19.625  24.705  1.00  0.00    -0.237 OA
ATOM     61  O   UNL A   1      42.935  18.671  26.919  1.00  0.00    -0.237 OA
ATOM     62  O   UNL A   1      41.143  19.536  25.469  1.00  0.00    -0.744 OA
ENDBRANCH  58  59
ENDBRANCH  26  51
BRANCH  38  63
ATOM     63  C   UNL A   1      48.281  27.128  30.771  1.00  0.00     0.058 A 
ATOM     64  C   UNL A   1      49.268  27.212  29.778  1.00  0.00     0.135 A 
ATOM     65  C   UNL A   1      48.664  26.680  32.045  1.00  0.00     0.135 A 
ATOM     66  F   UNL A   1      48.949  27.627  28.542  1.00  0.00    -0.206 F 
ATOM     67  C   UNL A   1      50.583  26.836  30.029  1.00  0.00     0.059 A 
ATOM     68  C   UNL A   1      49.978  26.319  32.325  1.00  0.00     0.059 A 
ATOM     69  F   UNL A   1      47.758  26.590  33.031  1.00  0.00    -0.206 F 
ATOM     70  C   UNL A   1      50.928  26.384  31.304  1.00  0.00     0.060 A 
BRANCH  70  71
ATOM     71  S   UNL A   1      52.638  25.903  31.624  1.00  0.00     0.124 S 
ATOM     72  O   UNL A   1      53.253  26.123  30.318  1.00  0.00    -0.237 OA
ATOM     73  O   UNL A   1      53.036  26.833  32.676  1.00  0.00    -0.237 OA
ATOM     74  O   UNL A   1      52.524  24.508  32.040  1.00  0.00    -0.744 OA
ENDBRANCH  70  71
ENDBRANCH  38  63
ENDBRANCH  12  13
ENDBRANCH   5   7
ENDBRANCH   2   3
ENDBRANCH   1   2
BRANCH   1  75
ATOM     75  C   UNL A   1      36.437  32.576  30.578  1.00  0.00     0.023 C 
BRANCH  75  76
ATOM     76  C   UNL A   1      36.935  34.017  30.683  1.00  0.00     0.116 C 
BRANCH  76  77
ATOM     77  N   UNL A   1      36.193  34.809  31.649  1.00  0.00    -0.352 N 
ATOM     78  C   UNL A   1      36.324  34.915  33.010  1.00  0.00     0.251 C 
ATOM     79  H   UNL A   1      35.477  35.362  31.261  1.00  0.00     0.163 HD
ATOM     80  O   UNL A   1      35.500  35.563  33.650  1.00  0.00    -0.269 OA
BRANCH  78  81
ATOM     81  C   UNL A   1      37.419  34.233  33.734  1.00  0.00     0.039 A 
ATOM     82  C   UNL A   1      37.101  33.515  34.886  1.00  0.00     0.016 A 
ATOM     83  C   UNL A   1      38.750  34.324  33.334  1.00  0.00     0.016 A 
ATOM     84  C   UNL A   1      38.101  32.835  35.591  1.00  0.00     0.027 A 
ATOM     85  C   UNL A   1      39.744  33.624  34.035  1.00  0.00     0.027 A 
ATOM     86  C   UNL A   1      39.443  32.860  35.177  1.00  0.00     0.051 A 
BRANCH  86  87
ATOM     87  N   UNL A   1      40.448  32.057  35.821  1.00  0.00    -0.261 N 
ATOM     88  C   UNL A   1      40.433  30.666  35.679  1.00  0.00     0.270 C 
ATOM     89  C   UNL A   1      41.467  32.532  36.637  1.00  0.00     0.152 C 
ATOM     90  O   UNL A   1      39.480  29.931  35.495  1.00  0.00    -0.268 OA
ATOM     91  C   UNL A   1      41.800  30.137  35.952  1.00  0.00     0.081 C 
ATOM     92  S   UNL A   1      42.565  31.206  37.068  1.00  0.00    -0.054 SA
ATOM     93  S   UNL A   1      41.720  34.049  37.303  1.00  0.00    -0.051 S 
ATOM     94  C   UNL A   1      42.483  29.167  35.325  1.00  0.00     0.028 C 
BRANCH  94  95
ATOM     95  C   UNL A   1      42.172  28.452  34.078  1.00  0.00    -0.009 C 
ATOM     96  C   UNL A   1      43.101  27.945  33.242  1.00  0.00     0.019 C 
ATOM     97  C   UNL A   1      41.002  27.493  34.277  1.00  0.00     0.265 C 
ATOM     98  C   UNL A   1      43.489  26.565  33.661  1.00  0.00     0.017 A 
ATOM     99  O   UNL A   1      41.443  26.310  34.980  1.00  0.00    -0.488 OA
ATOM    100  C   UNL A   1      44.713  26.027  33.256  1.00  0.00     0.012 A 
ATOM    101  C   UNL A   1      42.666  25.842  34.547  1.00  0.00     0.127 A 
ATOM    102  C   UNL A   1      45.137  24.804  33.775  1.00  0.00     0.001 A 
ATOM    103  C   UNL A   1      43.102  24.630  35.077  1.00  0.00     0.047 A 
ATOM    104  C   UNL A   1      44.342  24.115  34.694  1.00  0.00     0.004 A 
ENDBRANCH  94  95
ENDBRANCH  86  87
ENDBRANCH  78  81
ENDBRANCH  76  77
ENDBRANCH  75  76
ENDBRANCH   1  75
TORSDOF 16
ENDMDL
MODEL 3
REMARK VINA RESULT:      -9.5      4.770      8.481
REMARK SMILES O=C(NCCCCNC(=O)c1ccc(N2C(=O)/C(=C\C3=Cc4ccccc4OC3)SC2=S)cc1)c1ccc(-c2c3nc(c(-c4c(F)cc(S(=O)(=O)[O-])cc4F)c4ccc([nH]4)c(-c4c(F)cc(S(=O)(=O)[O-])cc4F)c4nc(c(-c5c(F)cc(S(=O)(=O)[O-])cc5F)c5ccc2[nH]5)C=C4)C=C3)cc1
REMARK SMILES IDX 5 1 4 2 3 3 1 4 2 5 35 7 36 8 100 9 37 10 99 11 38 12 39 13
REMARK SMILES IDX 40 14 93 15 41 16 98 17 92 18 94 19 42 20 97 21 91 22 90 23
REMARK SMILES IDX 43 25 77 26 56 27 76 28 57 29 60 30 75 31 95 32 58 33 59 34
REMARK SMILES IDX 74 36 96 37 61 38 44 39 45 40 54 41 46 42 47 43 53 44 55 45
REMARK SMILES IDX 48 46 49 47 50 48 51 49 52 50 78 51 79 52 88 53 80 54 81 55
REMARK SMILES IDX 87 56 89 57 82 58 83 59 84 60 85 61 86 62 62 63 63 64 72 65
REMARK SMILES IDX 64 66 65 67 71 68 73 69 66 70 67 71 68 72 69 73 70 74 6 75
REMARK SMILES IDX 7 76 8 77 9 78 10 80 11 81 12 82 34 83 13 84 33 85 14 86
REMARK SMILES IDX 15 87 16 88 31 89 17 90 18 91 30 92 32 93 19 94 20 95 21 96
REMARK SMILES IDX 29 97 22 98 28 99 23 100 27 101 24 102 26 103 25 104
REMARK H PARENT 3 6 94 24 60 35 8 79
REMARK Flexibility Score: inf
ROOT
ATOM      1  C   UNL A   1      35.958  30.600  30.205  1.00  0.00     0.023 C 
ENDROOT
BRANCH   1   2
ATOM      2  C   UNL A   1      36.437  30.405  31.638  1.00  0.00     0.116 C 
BRANCH   2   3
ATOM      3  N   UNL A   1      36.796  31.649  32.298  1.00  0.00    -0.352 N 
ATOM      4  O   UNL A   1      38.150  33.209  33.194  1.00  0.00    -0.269 OA
ATOM      5  C   UNL A   1      38.041  32.202  32.501  1.00  0.00     0.251 C 
ATOM      6  H   UNL A   1      36.041  32.173  32.652  1.00  0.00     0.163 HD
BRANCH   5   7
ATOM      7  C   UNL A   1      39.247  31.571  31.912  1.00  0.00     0.039 A 
ATOM      8  C   UNL A   1      40.059  30.723  32.667  1.00  0.00     0.014 A 
ATOM      9  C   UNL A   1      39.562  31.821  30.571  1.00  0.00     0.014 A 
ATOM     10  C   UNL A   1      41.252  30.244  32.131  1.00  0.00     0.010 A 
ATOM     11  C   UNL A   1      40.721  31.272  30.008  1.00  0.00     0.010 A 
ATOM     12  C   UNL A   1      41.592  30.503  30.793  1.00  0.00    -0.014 A 
BRANCH  12  13
ATOM     13  C   UNL A   1      42.830  29.900  30.232  1.00  0.00     0.031 A 
ATOM     14  C   UNL A   1      42.820  28.538  29.593  1.00  0.00     0.074 A 
ATOM     15  C   UNL A   1      43.968  30.623  30.262  1.00  0.00     0.049 A 
ATOM     16  N   UNL A   1      43.802  27.897  29.009  1.00  0.00    -0.248 NA
ATOM     17  C   UNL A   1      41.552  27.793  29.616  1.00  0.00     0.031 C 
ATOM     18  C   UNL A   1      44.107  31.947  30.878  1.00  0.00     0.029 A 
ATOM     19  N   UNL A   1      45.213  30.366  29.748  1.00  0.00    -0.354 N 
ATOM     20  C   UNL A   1      43.279  26.675  28.604  1.00  0.00     0.074 A 
ATOM     21  C   UNL A   1      41.895  26.651  29.031  1.00  0.00     0.031 C 
ATOM     22  C   UNL A   1      45.348  32.405  30.662  1.00  0.00     0.029 A 
ATOM     23  C   UNL A   1      46.107  31.391  29.938  1.00  0.00     0.049 A 
ATOM     24  H   UNL A   1      45.442  29.528  29.286  1.00  0.00     0.167 HD
ATOM     25  C   UNL A   1      43.893  25.672  27.930  1.00  0.00     0.037 A 
ATOM     26  C   UNL A   1      47.400  31.504  29.580  1.00  0.00     0.037 A 
ATOM     27  C   UNL A   1      45.266  25.708  27.491  1.00  0.00     0.049 A 
ATOM     28  C   UNL A   1      48.052  30.380  28.828  1.00  0.00     0.074 A 
ATOM     29  C   UNL A   1      45.968  24.751  26.779  1.00  0.00     0.029 A 
ATOM     30  N   UNL A   1      46.146  26.756  27.721  1.00  0.00    -0.354 N 
ATOM     31  N   UNL A   1      47.529  29.243  28.435  1.00  0.00    -0.248 NA
ATOM     32  C   UNL A   1      49.468  30.551  28.476  1.00  0.00     0.031 C 
ATOM     33  C   UNL A   1      47.280  25.205  26.604  1.00  0.00     0.029 A 
ATOM     34  C   UNL A   1      47.386  26.462  27.177  1.00  0.00     0.049 A 
ATOM     35  H   UNL A   1      45.922  27.586  28.200  1.00  0.00     0.167 HD
ATOM     36  C   UNL A   1      48.553  28.563  27.785  1.00  0.00     0.074 A 
ATOM     37  C   UNL A   1      49.715  29.429  27.815  1.00  0.00     0.031 C 
ATOM     38  C   UNL A   1      48.535  27.330  27.224  1.00  0.00     0.037 A 
BRANCH  25  39
ATOM     39  C   UNL A   1      43.089  24.439  27.618  1.00  0.00     0.058 A 
ATOM     40  C   UNL A   1      42.520  24.236  26.352  1.00  0.00     0.135 A 
ATOM     41  C   UNL A   1      42.950  23.418  28.571  1.00  0.00     0.135 A 
ATOM     42  F   UNL A   1      42.612  25.186  25.409  1.00  0.00    -0.206 F 
ATOM     43  C   UNL A   1      41.828  23.067  26.045  1.00  0.00     0.059 A 
ATOM     44  C   UNL A   1      42.279  22.233  28.280  1.00  0.00     0.059 A 
ATOM     45  F   UNL A   1      43.476  23.561  29.798  1.00  0.00    -0.206 F 
ATOM     46  C   UNL A   1      41.715  22.070  27.015  1.00  0.00     0.060 A 
BRANCH  46  47
ATOM     47  S   UNL A   1      40.836  20.550  26.595  1.00  0.00     0.124 S 
ATOM     48  O   UNL A   1      40.779  19.879  27.891  1.00  0.00    -0.237 OA
ATOM     49  O   UNL A   1      39.563  21.053  26.089  1.00  0.00    -0.237 OA
ATOM     50  O   UNL A   1      41.698  19.921  25.599  1.00  0.00    -0.744 OA
ENDBRANCH  46  47
ENDBRANCH  25  39
BRANCH  26  51
ATOM     51  C   UNL A   1      48.161  32.730  29.935  1.00  0.00     0.058 A 
ATOM     52  C   UNL A   1      48.919  32.798  31.112  1.00  0.00     0.135 A 
ATOM     53  C   UNL A   1      48.155  33.851  29.091  1.00  0.00     0.135 A 
ATOM     54  F   UNL A   1      48.951  31.751  31.950  1.00  0.00    -0.206 F 
ATOM     55  C   UNL A   1      49.633  33.942  31.451  1.00  0.00     0.059 A 
ATOM     56  C   UNL A   1      48.880  34.997  29.395  1.00  0.00     0.059 A 
ATOM     57  F   UNL A   1      47.459  33.826  27.943  1.00  0.00    -0.206 F 
ATOM     58  C   UNL A   1      49.607  35.038  30.584  1.00  0.00     0.060 A 
BRANCH  58  59
ATOM     59  S   UNL A   1      50.573  36.505  31.002  1.00  0.00     0.124 S 
ATOM     60  O   UNL A   1      49.538  37.531  31.050  1.00  0.00    -0.237 OA
ATOM     61  O   UNL A   1      51.166  36.134  32.283  1.00  0.00    -0.237 OA
ATOM     62  O   UNL A   1      51.516  36.607  29.892  1.00  0.00    -0.744 OA
ENDBRANCH  58  59
ENDBRANCH  26  51
BRANCH  38  63
ATOM     63  C   UNL A   1      49.812  26.853  26.595  1.00  0.00     0.058 A 
ATOM     64  C   UNL A   1      50.121  27.147  25.258  1.00  0.00     0.135 A 
ATOM     65  C   UNL A   1      50.739  26.105  27.337  1.00  0.00     0.135 A 
ATOM     66  F   UNL A   1      49.262  27.852  24.505  1.00  0.00    -0.206 F 
ATOM     67  C   UNL A   1      51.294  26.688  24.668  1.00  0.00     0.059 A 
ATOM     68  C   UNL A   1      51.928  25.654  26.774  1.00  0.00     0.059 A 
ATOM     69  F   UNL A   1      50.492  25.805  28.622  1.00  0.00    -0.206 F 
ATOM     70  C   UNL A   1      52.189  25.937  25.432  1.00  0.00     0.060 A 
BRANCH  70  71
ATOM     71  S   UNL A   1      53.712  25.350  24.661  1.00  0.00     0.124 S 
ATOM     72  O   UNL A   1      53.560  25.848  23.297  1.00  0.00    -0.237 OA
ATOM     73  O   UNL A   1      54.743  26.002  25.462  1.00  0.00    -0.237 OA
ATOM     74  O   UNL A   1      53.631  23.900  24.815  1.00  0.00    -0.744 OA
ENDBRANCH  70  71
ENDBRANCH  38  63
ENDBRANCH  12  13
ENDBRANCH   5   7
ENDBRANCH   2   3
ENDBRANCH   1   2
BRANCH   1  75
ATOM     75  C   UNL A   1      36.594  29.682  29.159  1.00  0.00     0.023 C 
BRANCH  75  76
ATOM     76  C   UNL A   1      35.865  29.591  27.819  1.00  0.00     0.116 C 
BRANCH  76  77
ATOM     77  N   UNL A   1      34.536  30.176  27.851  1.00  0.00    -0.352 N 
ATOM     78  C   UNL A   1      33.398  29.855  27.156  1.00  0.00     0.251 C 
ATOM     79  H   UNL A   1      34.435  30.931  28.476  1.00  0.00     0.163 HD
ATOM     80  O   UNL A   1      32.403  30.569  27.255  1.00  0.00    -0.269 OA
BRANCH  78  81
ATOM     81  C   UNL A   1      33.350  28.681  26.257  1.00  0.00     0.039 A 
ATOM     82  C   UNL A   1      33.791  28.839  24.944  1.00  0.00     0.016 A 
ATOM     83  C   UNL A   1      32.839  27.450  26.661  1.00  0.00     0.016 A 
ATOM     84  C   UNL A   1      33.787  27.750  24.063  1.00  0.00     0.027 A 
ATOM     85  C   UNL A   1      32.855  26.359  25.778  1.00  0.00     0.027 A 
ATOM     86  C   UNL A   1      33.332  26.482  24.461  1.00  0.00     0.051 A 
BRANCH  86  87
ATOM     87  N   UNL A   1      33.449  25.334  23.602  1.00  0.00    -0.261 N 
ATOM     88  C   UNL A   1      34.282  24.270  23.961  1.00  0.00     0.270 C 
ATOM     89  C   UNL A   1      32.817  25.171  22.375  1.00  0.00     0.152 C 
ATOM     90  O   UNL A   1      35.296  24.292  24.634  1.00  0.00    -0.268 OA
ATOM     91  C   UNL A   1      33.836  23.042  23.242  1.00  0.00     0.081 C 
ATOM     92  S   UNL A   1      33.117  23.534  21.754  1.00  0.00    -0.054 SA
ATOM     93  S   UNL A   1      31.965  26.258  21.429  1.00  0.00    -0.051 S 
ATOM     94  C   UNL A   1      33.745  21.778  23.684  1.00  0.00     0.028 C 
BRANCH  94  95
ATOM     95  C   UNL A   1      33.887  21.244  25.046  1.00  0.00    -0.009 C 
ATOM     96  C   UNL A   1      33.020  20.386  25.620  1.00  0.00     0.019 C 
ATOM     97  C   UNL A   1      35.337  20.864  25.333  1.00  0.00     0.265 C 
ATOM     98  C   UNL A   1      33.374  18.974  25.282  1.00  0.00     0.017 A 
ATOM     99  O   UNL A   1      35.661  19.613  24.687  1.00  0.00    -0.488 OA
ATOM    100  C   UNL A   1      32.407  17.970  25.363  1.00  0.00     0.012 A 
ATOM    101  C   UNL A   1      34.657  18.671  24.785  1.00  0.00     0.127 A 
ATOM    102  C   UNL A   1      32.700  16.687  24.900  1.00  0.00     0.001 A 
ATOM    103  C   UNL A   1      34.939  17.395  24.307  1.00  0.00     0.047 A 
ATOM    104  C   UNL A   1      33.957  16.405  24.360  1.00  0.00     0.004 A 
ENDBRANCH  94  95
ENDBRANCH  86  87
ENDBRANCH  78  81
ENDBRANCH  76  77
ENDBRANCH  75  76
ENDBRANCH   1  75
TORSDOF 16
ENDMDL
