MODEL 1
REMARK VINA RESULT:     -12.2      0.000      0.000
REMARK SMILES Cc1c(C)c2cc(Cl)c(O[C@@H](C)C(=O)NCCCCNC(=O)c3ccc(-c4c5nc(c(-c6c(F)cc(S(=O)(=O)[O-])cc6F)c6ccc([nH]6)c(-c6c(F)cc(S(=O)(=O)[O-])cc6F)c6nc(c(-c7c(F)cc(S(=O)(=O)[O-])cc7F)c7ccc4[nH]7)C=C6)C=C5)cc3)cc2oc1=O
REMARK SMILES IDX 18 1 17 2 16 3 15 4 13 5 14 6 11 8 12 9 10 10 9 11 1 12 2 13
REMARK SMILES IDX 3 14 92 15 4 16 5 17 91 18 93 19 6 20 90 21 7 22 89 23 8 24
REMARK SMILES IDX 19 25 20 26 21 27 22 29 23 30 24 31 88 32 25 33 87 34 26 35
REMARK SMILES IDX 27 36 28 37 81 38 29 39 86 40 80 41 82 42 30 43 85 44 79 45
REMARK SMILES IDX 78 46 31 48 65 49 44 50 64 51 45 52 48 53 63 54 83 55 46 56
REMARK SMILES IDX 47 57 62 59 84 60 49 61 32 62 33 63 42 64 34 65 35 66 41 67
REMARK SMILES IDX 43 68 36 69 37 70 38 71 39 72 40 73 66 74 67 75 76 76 68 77
REMARK SMILES IDX 69 78 75 79 77 80 70 81 71 82 72 83 73 84 74 85 50 86 51 87
REMARK SMILES IDX 60 88 52 89 53 90 59 91 61 92 54 93 55 94 56 95 57 96 58 97
REMARK H PARENT 15 7 20 28 82 47 48 58
REMARK Flexibility Score: inf
ROOT
ATOM      1  C   UNL A   1      33.920  28.470  25.787  1.00  0.00     0.023 C 
ENDROOT
BRANCH   1   2
ATOM      2  C   UNL A   1      33.112  29.420  24.908  1.00  0.00     0.023 C 
BRANCH   2   3
ATOM      3  C   UNL A   1      31.596  29.245  24.993  1.00  0.00     0.116 C 
BRANCH   3   4
ATOM      4  N   UNL A   1      30.938  29.876  23.872  1.00  0.00    -0.353 N 
ATOM      5  C   UNL A   1      30.242  29.414  22.808  1.00  0.00     0.260 C 
ATOM      6  O   UNL A   1      29.840  30.282  22.020  1.00  0.00    -0.271 OA
ATOM      7  H   UNL A   1      31.013  30.857  23.886  1.00  0.00     0.163 HD
BRANCH   5   8
ATOM      8  C   UNL A   1      29.884  27.921  22.558  1.00  0.00     0.258 C 
ATOM      9  C   UNL A   1      28.828  27.336  23.493  1.00  0.00     0.064 C 
BRANCH   8  10
ATOM     10  O   UNL A   1      30.812  26.950  22.088  1.00  0.00    -0.479 OA
BRANCH  10  11
ATOM     11  C   UNL A   1      31.574  26.204  22.934  1.00  0.00     0.142 A 
ATOM     12  C   UNL A   1      34.030  22.070  27.321  1.00  0.00     0.052 C 
ATOM     13  C   UNL A   1      33.480  23.019  26.305  1.00  0.00     0.038 A 
ATOM     14  C   UNL A   1      34.120  23.632  25.291  1.00  0.00    -0.030 A 
ATOM     15  C   UNL A   1      32.070  23.388  26.524  1.00  0.00     0.339 A 
ATOM     16  C   UNL A   1      35.580  23.464  25.003  1.00  0.00     0.046 C 
ATOM     17  C   UNL A   1      33.314  24.548  24.457  1.00  0.00     0.023 A 
ATOM     18  O   UNL A   1      31.321  23.496  25.371  1.00  0.00    -0.422 OA
ATOM     19  O   UNL A   1      31.627  23.547  27.657  1.00  0.00    -0.246 OA
ATOM     20  C   UNL A   1      33.831  25.571  23.664  1.00  0.00     0.036 A 
ATOM     21  C   UNL A   1      31.925  24.382  24.467  1.00  0.00     0.142 A 
ATOM     22  C   UNL A   1      32.967  26.403  22.928  1.00  0.00     0.083 A 
ATOM     23  C   UNL A   1      31.064  25.144  23.669  1.00  0.00     0.096 A 
ATOM     24  Cl  UNL A   1      33.678  27.682  22.005  1.00  0.00    -0.080 Cl
ENDBRANCH  10  11
ENDBRANCH   8  10
ENDBRANCH   5   8
ENDBRANCH   3   4
ENDBRANCH   2   3
ENDBRANCH   1   2
BRANCH   1  25
ATOM     25  C   UNL A   1      33.667  28.567  27.289  1.00  0.00     0.116 C 
BRANCH  25  26
ATOM     26  N   UNL A   1      33.613  29.918  27.836  1.00  0.00    -0.352 N 
ATOM     27  C   UNL A   1      34.605  30.700  28.399  1.00  0.00     0.251 C 
ATOM     28  H   UNL A   1      32.725  30.342  27.799  1.00  0.00     0.163 HD
ATOM     29  O   UNL A   1      34.342  31.821  28.828  1.00  0.00    -0.269 OA
BRANCH  27  30
ATOM     30  C   UNL A   1      35.979  30.165  28.509  1.00  0.00     0.039 A 
ATOM     31  C   UNL A   1      36.413  29.666  29.729  1.00  0.00     0.014 A 
ATOM     32  C   UNL A   1      36.854  30.192  27.416  1.00  0.00     0.014 A 
ATOM     33  C   UNL A   1      37.763  29.439  29.928  1.00  0.00     0.010 A 
ATOM     34  C   UNL A   1      38.192  29.800  27.580  1.00  0.00     0.010 A 
ATOM     35  C   UNL A   1      38.671  29.464  28.853  1.00  0.00    -0.014 A 
BRANCH  35  36
ATOM     36  C   UNL A   1      40.076  29.067  29.149  1.00  0.00     0.031 A 
ATOM     37  C   UNL A   1      40.639  27.742  28.719  1.00  0.00     0.074 A 
ATOM     38  C   UNL A   1      40.889  30.019  29.658  1.00  0.00     0.049 A 
ATOM     39  N   UNL A   1      41.890  27.355  28.696  1.00  0.00    -0.248 NA
ATOM     40  C   UNL A   1      39.691  26.712  28.266  1.00  0.00     0.031 C 
ATOM     41  C   UNL A   1      40.439  31.338  30.120  1.00  0.00     0.029 A 
ATOM     42  N   UNL A   1      42.254  30.083  29.768  1.00  0.00    -0.354 N 
ATOM     43  C   UNL A   1      41.881  26.041  28.245  1.00  0.00     0.074 A 
ATOM     44  C   UNL A   1      40.496  25.684  28.026  1.00  0.00     0.031 C 
ATOM     45  C   UNL A   1      41.505  32.127  30.299  1.00  0.00     0.029 A 
ATOM     46  C   UNL A   1      42.713  31.346  30.070  1.00  0.00     0.049 A 
ATOM     47  H   UNL A   1      42.846  29.305  29.644  1.00  0.00     0.167 HD
ATOM     48  C   UNL A   1      42.934  25.215  28.028  1.00  0.00     0.037 A 
ATOM     49  C   UNL A   1      43.966  31.835  30.139  1.00  0.00     0.037 A 
ATOM     50  C   UNL A   1      44.310  25.592  28.233  1.00  0.00     0.049 A 
ATOM     51  C   UNL A   1      45.113  30.904  29.888  1.00  0.00     0.074 A 
ATOM     52  C   UNL A   1      45.450  24.825  28.062  1.00  0.00     0.029 A 
ATOM     53  N   UNL A   1      44.736  26.848  28.646  1.00  0.00    -0.354 N 
ATOM     54  N   UNL A   1      45.081  29.655  29.491  1.00  0.00    -0.248 NA
ATOM     55  C   UNL A   1      46.461  31.432  30.128  1.00  0.00     0.031 C 
ATOM     56  C   UNL A   1      46.560  25.606  28.402  1.00  0.00     0.029 A 
ATOM     57  C   UNL A   1      46.117  26.873  28.747  1.00  0.00     0.049 A 
ATOM     58  H   UNL A   1      44.142  27.610  28.839  1.00  0.00     0.167 HD
ATOM     59  C   UNL A   1      46.404  29.239  29.446  1.00  0.00     0.074 A 
ATOM     60  C   UNL A   1      47.213  30.382  29.826  1.00  0.00     0.031 C 
ATOM     61  C   UNL A   1      46.902  28.017  29.138  1.00  0.00     0.037 A 
BRANCH  48  62
ATOM     62  C   UNL A   1      42.645  23.814  27.560  1.00  0.00     0.058 A 
ATOM     63  C   UNL A   1      42.560  23.494  26.196  1.00  0.00     0.135 A 
ATOM     64  C   UNL A   1      42.501  22.767  28.486  1.00  0.00     0.135 A 
ATOM     65  F   UNL A   1      42.677  24.457  25.268  1.00  0.00    -0.206 F 
ATOM     66  C   UNL A   1      42.321  22.192  25.766  1.00  0.00     0.059 A 
ATOM     67  C   UNL A   1      42.284  21.453  28.078  1.00  0.00     0.059 A 
ATOM     68  F   UNL A   1      42.576  23.015  29.802  1.00  0.00    -0.206 F 
ATOM     69  C   UNL A   1      42.183  21.178  26.715  1.00  0.00     0.060 A 
BRANCH  69  70
ATOM     70  S   UNL A   1      41.873  19.493  26.141  1.00  0.00     0.124 S 
ATOM     71  O   UNL A   1      42.306  18.708  27.294  1.00  0.00    -0.237 OA
ATOM     72  O   UNL A   1      40.435  19.508  25.891  1.00  0.00    -0.237 OA
ATOM     73  O   UNL A   1      42.712  19.377  24.953  1.00  0.00    -0.744 OA
ENDBRANCH  69  70
ENDBRANCH  48  62
BRANCH  49  74
ATOM     74  C   UNL A   1      44.180  33.273  30.451  1.00  0.00     0.058 A 
ATOM     75  C   UNL A   1      44.282  34.228  29.430  1.00  0.00     0.135 A 
ATOM     76  C   UNL A   1      44.213  33.729  31.779  1.00  0.00     0.135 A 
ATOM     77  F   UNL A   1      44.263  33.842  28.145  1.00  0.00    -0.206 F 
ATOM     78  C   UNL A   1      44.395  35.587  29.713  1.00  0.00     0.059 A 
ATOM     79  C   UNL A   1      44.295  35.083  32.086  1.00  0.00     0.059 A 
ATOM     80  F   UNL A   1      44.104  32.856  32.793  1.00  0.00    -0.206 F 
ATOM     81  C   UNL A   1      44.390  36.004  31.046  1.00  0.00     0.060 A 
BRANCH  81  82
ATOM     82  S   UNL A   1      44.442  37.774  31.404  1.00  0.00     0.124 S 
ATOM     83  O   UNL A   1      45.877  38.019  31.463  1.00  0.00    -0.237 OA
ATOM     84  O   UNL A   1      43.743  38.342  30.255  1.00  0.00    -0.237 OA
ATOM     85  O   UNL A   1      43.729  37.879  32.674  1.00  0.00    -0.744 OA
ENDBRANCH  81  82
ENDBRANCH  49  74
BRANCH  61  86
ATOM     86  C   UNL A   1      48.391  27.850  29.209  1.00  0.00     0.058 A 
ATOM     87  C   UNL A   1      49.206  28.120  28.098  1.00  0.00     0.135 A 
ATOM     88  C   UNL A   1      49.014  27.478  30.409  1.00  0.00     0.135 A 
ATOM     89  F   UNL A   1      48.655  28.471  26.925  1.00  0.00    -0.206 F 
ATOM     90  C   UNL A   1      50.589  28.016  28.173  1.00  0.00     0.059 A 
ATOM     91  C   UNL A   1      50.398  27.386  30.513  1.00  0.00     0.059 A 
ATOM     92  F   UNL A   1      48.276  27.214  31.499  1.00  0.00    -0.206 F 
ATOM     93  C   UNL A   1      51.177  27.653  29.388  1.00  0.00     0.060 A 
BRANCH  93  94
ATOM     94  S   UNL A   1      52.977  27.568  29.483  1.00  0.00     0.124 S 
ATOM     95  O   UNL A   1      53.294  26.742  28.323  1.00  0.00    -0.237 OA
ATOM     96  O   UNL A   1      53.361  28.973  29.385  1.00  0.00    -0.237 OA
ATOM     97  O   UNL A   1      53.220  26.946  30.781  1.00  0.00    -0.744 OA
ENDBRANCH  93  94
ENDBRANCH  61  86
ENDBRANCH  35  36
ENDBRANCH  27  30
ENDBRANCH  25  26
ENDBRANCH   1  25
TORSDOF 16
ENDMDL
MODEL 2
REMARK VINA RESULT:     -12.2      1.767      2.536
REMARK SMILES Cc1c(C)c2cc(Cl)c(O[C@@H](C)C(=O)NCCCCNC(=O)c3ccc(-c4c5nc(c(-c6c(F)cc(S(=O)(=O)[O-])cc6F)c6ccc([nH]6)c(-c6c(F)cc(S(=O)(=O)[O-])cc6F)c6nc(c(-c7c(F)cc(S(=O)(=O)[O-])cc7F)c7ccc4[nH]7)C=C6)C=C5)cc3)cc2oc1=O
REMARK SMILES IDX 18 1 17 2 16 3 15 4 13 5 14 6 11 8 12 9 10 10 9 11 1 12 2 13
REMARK SMILES IDX 3 14 92 15 4 16 5 17 91 18 93 19 6 20 90 21 7 22 89 23 8 24
REMARK SMILES IDX 19 25 20 26 21 27 22 29 23 30 24 31 88 32 25 33 87 34 26 35
REMARK SMILES IDX 27 36 28 37 81 38 29 39 86 40 80 41 82 42 30 43 85 44 79 45
REMARK SMILES IDX 78 46 31 48 65 49 44 50 64 51 45 52 48 53 63 54 83 55 46 56
REMARK SMILES IDX 47 57 62 59 84 60 49 61 32 62 33 63 42 64 34 65 35 66 41 67
REMARK SMILES IDX 43 68 36 69 37 70 38 71 39 72 40 73 66 74 67 75 76 76 68 77
REMARK SMILES IDX 69 78 75 79 77 80 70 81 71 82 72 83 73 84 74 85 50 86 51 87
REMARK SMILES IDX 60 88 52 89 53 90 59 91 61 92 54 93 55 94 56 95 57 96 58 97
REMARK H PARENT 15 7 20 28 82 47 48 58
REMARK Flexibility Score: inf
ROOT
ATOM      1  C   UNL A   1      33.601  27.442  25.350  1.00  0.00     0.023 C 
ENDROOT
BRANCH   1   2
ATOM      2  C   UNL A   1      33.752  28.172  24.019  1.00  0.00     0.023 C 
BRANCH   2   3
ATOM      3  C   UNL A   1      32.674  27.853  22.983  1.00  0.00     0.116 C 
BRANCH   3   4
ATOM      4  N   UNL A   1      33.068  26.739  22.152  1.00  0.00    -0.353 N 
ATOM      5  C   UNL A   1      32.840  25.406  22.195  1.00  0.00     0.260 C 
ATOM      6  O   UNL A   1      33.379  24.746  21.297  1.00  0.00    -0.271 OA
ATOM      7  H   UNL A   1      33.625  27.008  21.387  1.00  0.00     0.163 HD
BRANCH   5   8
ATOM      8  C   UNL A   1      31.927  24.692  23.233  1.00  0.00     0.258 C 
ATOM      9  C   UNL A   1      30.485  25.192  23.290  1.00  0.00     0.064 C 
BRANCH   8  10
ATOM     10  O   UNL A   1      32.390  24.182  24.478  1.00  0.00    -0.479 OA
BRANCH  10  11
ATOM     11  C   UNL A   1      32.950  22.948  24.595  1.00  0.00     0.142 A 
ATOM     12  C   UNL A   1      34.493  16.624  24.539  1.00  0.00     0.052 C 
ATOM     13  C   UNL A   1      34.155  18.080  24.551  1.00  0.00     0.038 A 
ATOM     14  C   UNL A   1      34.982  19.137  24.664  1.00  0.00    -0.030 A 
ATOM     15  C   UNL A   1      32.708  18.364  24.531  1.00  0.00     0.339 A 
ATOM     16  C   UNL A   1      36.467  19.020  24.817  1.00  0.00     0.046 C 
ATOM     17  C   UNL A   1      34.351  20.473  24.673  1.00  0.00     0.023 A 
ATOM     18  O   UNL A   1      32.348  19.445  23.754  1.00  0.00    -0.422 OA
ATOM     19  O   UNL A   1      31.916  17.656  25.144  1.00  0.00    -0.246 OA
ATOM     20  C   UNL A   1      34.935  21.629  25.189  1.00  0.00     0.036 A 
ATOM     21  C   UNL A   1      33.068  20.589  24.128  1.00  0.00     0.142 A 
ATOM     22  C   UNL A   1      34.231  22.848  25.168  1.00  0.00     0.083 A 
ATOM     23  C   UNL A   1      32.397  21.813  24.020  1.00  0.00     0.096 A 
ATOM     24  Cl  UNL A   1      35.000  24.230  25.871  1.00  0.00    -0.080 Cl
ENDBRANCH  10  11
ENDBRANCH   8  10
ENDBRANCH   5   8
ENDBRANCH   3   4
ENDBRANCH   2   3
ENDBRANCH   1   2
BRANCH   1  25
ATOM     25  C   UNL A   1      34.381  28.023  26.526  1.00  0.00     0.116 C 
BRANCH  25  26
ATOM     26  N   UNL A   1      33.913  29.311  27.022  1.00  0.00    -0.352 N 
ATOM     27  C   UNL A   1      34.556  30.268  27.787  1.00  0.00     0.251 C 
ATOM     28  H   UNL A   1      32.988  29.537  26.772  1.00  0.00     0.163 HD
ATOM     29  O   UNL A   1      33.967  31.292  28.123  1.00  0.00    -0.269 OA
BRANCH  27  30
ATOM     30  C   UNL A   1      35.950  30.035  28.223  1.00  0.00     0.039 A 
ATOM     31  C   UNL A   1      36.986  30.281  27.334  1.00  0.00     0.014 A 
ATOM     32  C   UNL A   1      36.231  29.534  29.501  1.00  0.00     0.014 A 
ATOM     33  C   UNL A   1      38.251  29.797  27.615  1.00  0.00     0.010 A 
ATOM     34  C   UNL A   1      37.550  29.197  29.846  1.00  0.00     0.010 A 
ATOM     35  C   UNL A   1      38.567  29.281  28.885  1.00  0.00    -0.014 A 
BRANCH  35  36
ATOM     36  C   UNL A   1      39.991  28.918  29.129  1.00  0.00     0.031 A 
ATOM     37  C   UNL A   1      40.568  27.603  28.685  1.00  0.00     0.074 A 
ATOM     38  C   UNL A   1      40.801  29.892  29.602  1.00  0.00     0.049 A 
ATOM     39  N   UNL A   1      41.826  27.246  28.616  1.00  0.00    -0.248 NA
ATOM     40  C   UNL A   1      39.628  26.549  28.273  1.00  0.00     0.031 C 
ATOM     41  C   UNL A   1      40.338  31.202  30.073  1.00  0.00     0.029 A 
ATOM     42  N   UNL A   1      42.167  29.987  29.659  1.00  0.00    -0.354 N 
ATOM     43  C   UNL A   1      41.830  25.929  28.172  1.00  0.00     0.074 A 
ATOM     44  C   UNL A   1      40.446  25.539  28.009  1.00  0.00     0.031 C 
ATOM     45  C   UNL A   1      41.391  32.017  30.208  1.00  0.00     0.029 A 
ATOM     46  C   UNL A   1      42.608  31.263  29.938  1.00  0.00     0.049 A 
ATOM     47  H   UNL A   1      42.772  29.222  29.517  1.00  0.00     0.167 HD
ATOM     48  C   UNL A   1      42.893  25.126  27.920  1.00  0.00     0.037 A 
ATOM     49  C   UNL A   1      43.851  31.780  29.956  1.00  0.00     0.037 A 
ATOM     50  C   UNL A   1      44.267  25.536  28.070  1.00  0.00     0.049 A 
ATOM     51  C   UNL A   1      45.008  30.874  29.666  1.00  0.00     0.074 A 
ATOM     52  C   UNL A   1      45.417  24.794  27.860  1.00  0.00     0.029 A 
ATOM     53  N   UNL A   1      44.679  26.804  28.460  1.00  0.00    -0.354 N 
ATOM     54  N   UNL A   1      44.991  29.623  29.277  1.00  0.00    -0.248 NA
ATOM     55  C   UNL A   1      46.352  31.434  29.852  1.00  0.00     0.031 C 
ATOM     56  C   UNL A   1      46.520  25.602  28.153  1.00  0.00     0.029 A 
ATOM     57  C   UNL A   1      46.062  26.861  28.508  1.00  0.00     0.049 A 
ATOM     58  H   UNL A   1      44.075  27.552  28.672  1.00  0.00     0.167 HD
ATOM     59  C   UNL A   1      46.320  29.237  29.184  1.00  0.00     0.074 A 
ATOM     60  C   UNL A   1      47.117  30.400  29.526  1.00  0.00     0.031 C 
ATOM     61  C   UNL A   1      46.834  28.025  28.863  1.00  0.00     0.037 A 
BRANCH  48  62
ATOM     62  C   UNL A   1      42.619  23.716  27.470  1.00  0.00     0.058 A 
ATOM     63  C   UNL A   1      42.534  23.378  26.111  1.00  0.00     0.135 A 
ATOM     64  C   UNL A   1      42.488  22.679  28.409  1.00  0.00     0.135 A 
ATOM     65  F   UNL A   1      42.638  24.330  25.170  1.00  0.00    -0.206 F 
ATOM     66  C   UNL A   1      42.309  22.067  25.698  1.00  0.00     0.059 A 
ATOM     67  C   UNL A   1      42.285  21.358  28.019  1.00  0.00     0.059 A 
ATOM     68  F   UNL A   1      42.563  22.944  29.722  1.00  0.00    -0.206 F 
ATOM     69  C   UNL A   1      42.185  21.064  26.660  1.00  0.00     0.060 A 
BRANCH  69  70
ATOM     70  S   UNL A   1      41.893  19.369  26.108  1.00  0.00     0.124 S 
ATOM     71  O   UNL A   1      40.455  19.390  25.851  1.00  0.00    -0.237 OA
ATOM     72  O   UNL A   1      42.745  19.272  24.928  1.00  0.00    -0.237 OA
ATOM     73  O   UNL A   1      42.313  18.561  27.249  1.00  0.00    -0.744 OA
ENDBRANCH  69  70
ENDBRANCH  48  62
BRANCH  49  74
ATOM     74  C   UNL A   1      44.043  33.225  30.253  1.00  0.00     0.058 A 
ATOM     75  C   UNL A   1      44.128  34.171  29.221  1.00  0.00     0.135 A 
ATOM     76  C   UNL A   1      44.072  33.695  31.575  1.00  0.00     0.135 A 
ATOM     77  F   UNL A   1      44.112  33.771  27.940  1.00  0.00    -0.206 F 
ATOM     78  C   UNL A   1      44.220  35.534  29.489  1.00  0.00     0.059 A 
ATOM     79  C   UNL A   1      44.134  35.053  31.868  1.00  0.00     0.059 A 
ATOM     80  F   UNL A   1      43.979  32.831  32.599  1.00  0.00    -0.206 F 
ATOM     81  C   UNL A   1      44.212  35.965  30.817  1.00  0.00     0.060 A 
BRANCH  81  82
ATOM     82  S   UNL A   1      44.237  37.739  31.157  1.00  0.00     0.124 S 
ATOM     83  O   UNL A   1      43.663  37.789  32.495  1.00  0.00    -0.237 OA
ATOM     84  O   UNL A   1      45.660  38.051  31.060  1.00  0.00    -0.237 OA
ATOM     85  O   UNL A   1      43.409  38.295  30.090  1.00  0.00    -0.744 OA
ENDBRANCH  81  82
ENDBRANCH  49  74
BRANCH  61  86
ATOM     86  C   UNL A   1      48.328  27.893  28.878  1.00  0.00     0.058 A 
ATOM     87  C   UNL A   1      49.008  27.464  30.028  1.00  0.00     0.135 A 
ATOM     88  C   UNL A   1      49.080  28.136  27.719  1.00  0.00     0.135 A 
ATOM     89  F   UNL A   1      48.332  27.227  31.164  1.00  0.00    -0.206 F 
ATOM     90  C   UNL A   1      50.387  27.291  30.033  1.00  0.00     0.059 A 
ATOM     91  C   UNL A   1      50.459  27.951  27.694  1.00  0.00     0.059 A 
ATOM     92  F   UNL A   1      48.473  28.544  26.593  1.00  0.00    -0.206 F 
ATOM     93  C   UNL A   1      51.103  27.532  28.857  1.00  0.00     0.060 A 
BRANCH  93  94
ATOM     94  S   UNL A   1      52.887  27.258  28.864  1.00  0.00     0.124 S 
ATOM     95  O   UNL A   1      53.046  26.328  27.751  1.00  0.00    -0.237 OA
ATOM     96  O   UNL A   1      53.410  28.603  28.646  1.00  0.00    -0.237 OA
ATOM     97  O   UNL A   1      53.140  26.700  30.189  1.00  0.00    -0.744 OA
ENDBRANCH  93  94
ENDBRANCH  61  86
ENDBRANCH  35  36
ENDBRANCH  27  30
ENDBRANCH  25  26
ENDBRANCH   1  25
TORSDOF 16
ENDMDL
MODEL 3
REMARK VINA RESULT:     -12.0      2.354      8.590
REMARK SMILES Cc1c(C)c2cc(Cl)c(O[C@@H](C)C(=O)NCCCCNC(=O)c3ccc(-c4c5nc(c(-c6c(F)cc(S(=O)(=O)[O-])cc6F)c6ccc([nH]6)c(-c6c(F)cc(S(=O)(=O)[O-])cc6F)c6nc(c(-c7c(F)cc(S(=O)(=O)[O-])cc7F)c7ccc4[nH]7)C=C6)C=C5)cc3)cc2oc1=O
REMARK SMILES IDX 18 1 17 2 16 3 15 4 13 5 14 6 11 8 12 9 10 10 9 11 1 12 2 13
REMARK SMILES IDX 3 14 92 15 4 16 5 17 91 18 93 19 6 20 90 21 7 22 89 23 8 24
REMARK SMILES IDX 19 25 20 26 21 27 22 29 23 30 24 31 88 32 25 33 87 34 26 35
REMARK SMILES IDX 27 36 28 37 81 38 29 39 86 40 80 41 82 42 30 43 85 44 79 45
REMARK SMILES IDX 78 46 31 48 65 49 44 50 64 51 45 52 48 53 63 54 83 55 46 56
REMARK SMILES IDX 47 57 62 59 84 60 49 61 32 62 33 63 42 64 34 65 35 66 41 67
REMARK SMILES IDX 43 68 36 69 37 70 38 71 39 72 40 73 66 74 67 75 76 76 68 77
REMARK SMILES IDX 69 78 75 79 77 80 70 81 71 82 72 83 73 84 74 85 50 86 51 87
REMARK SMILES IDX 60 88 52 89 53 90 59 91 61 92 54 93 55 94 56 95 57 96 58 97
REMARK H PARENT 15 7 20 28 82 47 48 58
REMARK Flexibility Score: inf
ROOT
ATOM      1  C   UNL A   1      34.110  29.420  26.890  1.00  0.00     0.023 C 
ENDROOT
BRANCH   1   2
ATOM      2  C   UNL A   1      33.340  28.104  26.825  1.00  0.00     0.023 C 
BRANCH   2   3
ATOM      3  C   UNL A   1      31.874  28.235  26.412  1.00  0.00     0.116 C 
BRANCH   3   4
ATOM      4  N   UNL A   1      31.160  27.000  26.638  1.00  0.00    -0.353 N 
ATOM      5  C   UNL A   1      30.390  26.202  25.863  1.00  0.00     0.260 C 
ATOM      6  O   UNL A   1      29.912  25.211  26.431  1.00  0.00    -0.271 OA
ATOM      7  H   UNL A   1      31.253  26.666  27.560  1.00  0.00     0.163 HD
BRANCH   5   8
ATOM      8  C   UNL A   1      30.129  26.420  24.345  1.00  0.00     0.258 C 
ATOM      9  C   UNL A   1      28.673  26.673  23.960  1.00  0.00     0.064 C 
BRANCH   8  10
ATOM     10  O   UNL A   1      30.877  25.789  23.312  1.00  0.00    -0.479 OA
BRANCH  10  11
ATOM     11  C   UNL A   1      31.954  25.000  23.573  1.00  0.00     0.142 A 
ATOM     12  C   UNL A   1      36.174  20.248  24.986  1.00  0.00     0.052 C 
ATOM     13  C   UNL A   1      35.216  21.347  24.652  1.00  0.00     0.038 A 
ATOM     14  C   UNL A   1      35.453  22.504  24.004  1.00  0.00    -0.030 A 
ATOM     15  C   UNL A   1      33.862  21.155  25.201  1.00  0.00     0.339 A 
ATOM     16  C   UNL A   1      36.799  22.911  23.489  1.00  0.00     0.046 C 
ATOM     17  C   UNL A   1      34.303  23.419  23.843  1.00  0.00     0.023 A 
ATOM     18  O   UNL A   1      32.842  21.545  24.358  1.00  0.00    -0.422 OA
ATOM     19  O   UNL A   1      33.693  20.657  26.309  1.00  0.00    -0.246 OA
ATOM     20  C   UNL A   1      34.400  24.789  23.603  1.00  0.00     0.036 A 
ATOM     21  C   UNL A   1      33.020  22.873  23.944  1.00  0.00     0.142 A 
ATOM     22  C   UNL A   1      33.237  25.572  23.491  1.00  0.00     0.083 A 
ATOM     23  C   UNL A   1      31.857  23.626  23.744  1.00  0.00     0.096 A 
ATOM     24  Cl  UNL A   1      33.436  27.273  23.242  1.00  0.00    -0.080 Cl
ENDBRANCH  10  11
ENDBRANCH   8  10
ENDBRANCH   5   8
ENDBRANCH   3   4
ENDBRANCH   2   3
ENDBRANCH   1   2
BRANCH   1  25
ATOM     25  C   UNL A   1      35.449  29.377  27.622  1.00  0.00     0.116 C 
BRANCH  25  26
ATOM     26  N   UNL A   1      35.389  29.579  29.064  1.00  0.00    -0.352 N 
ATOM     27  C   UNL A   1      36.402  29.683  30.001  1.00  0.00     0.251 C 
ATOM     28  H   UNL A   1      34.479  29.654  29.432  1.00  0.00     0.163 HD
ATOM     29  O   UNL A   1      36.134  29.830  31.190  1.00  0.00    -0.269 OA
BRANCH  27  30
ATOM     30  C   UNL A   1      37.811  29.584  29.562  1.00  0.00     0.039 A 
ATOM     31  C   UNL A   1      38.125  29.847  28.237  1.00  0.00     0.014 A 
ATOM     32  C   UNL A   1      38.818  29.192  30.453  1.00  0.00     0.014 A 
ATOM     33  C   UNL A   1      39.366  29.478  27.747  1.00  0.00     0.010 A 
ATOM     34  C   UNL A   1      40.124  28.978  29.983  1.00  0.00     0.010 A 
ATOM     35  C   UNL A   1      40.398  29.074  28.613  1.00  0.00    -0.014 A 
BRANCH  35  36
ATOM     36  C   UNL A   1      41.736  28.835  28.001  1.00  0.00     0.031 A 
ATOM     37  C   UNL A   1      42.860  29.824  28.129  1.00  0.00     0.074 A 
ATOM     38  C   UNL A   1      41.963  27.609  27.480  1.00  0.00     0.049 A 
ATOM     39  N   UNL A   1      44.131  29.654  27.858  1.00  0.00    -0.248 NA
ATOM     40  C   UNL A   1      42.531  31.175  28.611  1.00  0.00     0.031 C 
ATOM     41  C   UNL A   1      40.934  26.579  27.299  1.00  0.00     0.029 A 
ATOM     42  N   UNL A   1      43.126  26.978  27.120  1.00  0.00    -0.354 N 
ATOM     43  C   UNL A   1      44.748  30.872  28.119  1.00  0.00     0.074 A 
ATOM     44  C   UNL A   1      43.709  31.783  28.549  1.00  0.00     0.031 C 
ATOM     45  C   UNL A   1      41.526  25.410  27.027  1.00  0.00     0.029 A 
ATOM     46  C   UNL A   1      42.963  25.625  26.911  1.00  0.00     0.049 A 
ATOM     47  H   UNL A   1      43.988  27.443  27.020  1.00  0.00     0.167 HD
ATOM     48  C   UNL A   1      46.061  31.193  28.014  1.00  0.00     0.037 A 
ATOM     49  C   UNL A   1      43.867  24.657  26.670  1.00  0.00     0.037 A 
ATOM     50  C   UNL A   1      47.086  30.268  27.602  1.00  0.00     0.049 A 
ATOM     51  C   UNL A   1      45.312  25.036  26.566  1.00  0.00     0.074 A 
ATOM     52  C   UNL A   1      48.443  30.497  27.444  1.00  0.00     0.029 A 
ATOM     53  N   UNL A   1      46.872  28.931  27.291  1.00  0.00    -0.354 N 
ATOM     54  N   UNL A   1      45.871  26.201  26.788  1.00  0.00    -0.248 NA
ATOM     55  C   UNL A   1      46.245  23.984  26.146  1.00  0.00     0.031 C 
ATOM     56  C   UNL A   1      49.041  29.310  27.008  1.00  0.00     0.029 A 
ATOM     57  C   UNL A   1      48.066  28.328  26.931  1.00  0.00     0.049 A 
ATOM     58  H   UNL A   1      45.998  28.479  27.322  1.00  0.00     0.167 HD
ATOM     59  C   UNL A   1      47.221  26.029  26.520  1.00  0.00     0.074 A 
ATOM     60  C   UNL A   1      47.400  24.637  26.152  1.00  0.00     0.031 C 
ATOM     61  C   UNL A   1      48.219  26.945  26.557  1.00  0.00     0.037 A 
BRANCH  48  62
ATOM     62  C   UNL A   1      46.467  32.606  28.333  1.00  0.00     0.058 A 
ATOM     63  C   UNL A   1      46.456  33.616  27.359  1.00  0.00     0.135 A 
ATOM     64  C   UNL A   1      46.827  32.968  29.643  1.00  0.00     0.135 A 
ATOM     65  F   UNL A   1      46.133  33.324  26.089  1.00  0.00    -0.206 F 
ATOM     66  C   UNL A   1      46.805  34.929  27.664  1.00  0.00     0.059 A 
ATOM     67  C   UNL A   1      47.158  34.279  29.976  1.00  0.00     0.059 A 
ATOM     68  F   UNL A   1      46.852  32.044  30.616  1.00  0.00    -0.206 F 
ATOM     69  C   UNL A   1      47.155  35.250  28.976  1.00  0.00     0.060 A 
BRANCH  69  70
ATOM     70  S   UNL A   1      47.607  36.958  29.357  1.00  0.00     0.124 S 
ATOM     71  O   UNL A   1      48.941  36.787  29.925  1.00  0.00    -0.237 OA
ATOM     72  O   UNL A   1      47.555  37.595  28.044  1.00  0.00    -0.237 OA
ATOM     73  O   UNL A   1      46.575  37.382  30.298  1.00  0.00    -0.744 OA
ENDBRANCH  69  70
ENDBRANCH  48  62
BRANCH  49  74
ATOM     74  C   UNL A   1      43.414  23.248  26.522  1.00  0.00     0.058 A 
ATOM     75  C   UNL A   1      43.438  22.606  25.276  1.00  0.00     0.135 A 
ATOM     76  C   UNL A   1      43.017  22.494  27.638  1.00  0.00     0.135 A 
ATOM     77  F   UNL A   1      43.802  23.286  24.177  1.00  0.00    -0.206 F 
ATOM     78  C   UNL A   1      43.098  21.263  25.142  1.00  0.00     0.059 A 
ATOM     79  C   UNL A   1      42.702  21.143  27.534  1.00  0.00     0.059 A 
ATOM     80  F   UNL A   1      42.991  23.057  28.856  1.00  0.00    -0.206 F 
ATOM     81  C   UNL A   1      42.742  20.538  26.281  1.00  0.00     0.060 A 
BRANCH  81  82
ATOM     82  S   UNL A   1      42.394  18.773  26.115  1.00  0.00     0.124 S 
ATOM     83  O   UNL A   1      43.333  18.386  25.070  1.00  0.00    -0.237 OA
ATOM     84  O   UNL A   1      42.687  18.273  27.455  1.00  0.00    -0.237 OA
ATOM     85  O   UNL A   1      40.983  18.744  25.741  1.00  0.00    -0.744 OA
ENDBRANCH  81  82
ENDBRANCH  49  74
BRANCH  61  86
ATOM     86  C   UNL A   1      49.592  26.473  26.179  1.00  0.00     0.058 A 
ATOM     87  C   UNL A   1      50.107  26.691  24.892  1.00  0.00     0.135 A 
ATOM     88  C   UNL A   1      50.422  25.854  27.125  1.00  0.00     0.135 A 
ATOM     89  F   UNL A   1      49.346  27.272  23.949  1.00  0.00    -0.206 F 
ATOM     90  C   UNL A   1      51.396  26.301  24.551  1.00  0.00     0.059 A 
ATOM     91  C   UNL A   1      51.723  25.473  26.814  1.00  0.00     0.059 A 
ATOM     92  F   UNL A   1      49.975  25.628  28.371  1.00  0.00    -0.206 F 
ATOM     93  C   UNL A   1      52.199  25.697  25.522  1.00  0.00     0.060 A 
BRANCH  93  94
ATOM     94  S   UNL A   1      53.888  25.239  25.080  1.00  0.00     0.124 S 
ATOM     95  O   UNL A   1      54.639  25.740  26.226  1.00  0.00    -0.237 OA
ATOM     96  O   UNL A   1      53.797  23.786  24.967  1.00  0.00    -0.237 OA
ATOM     97  O   UNL A   1      54.114  25.947  23.824  1.00  0.00    -0.744 OA
ENDBRANCH  93  94
ENDBRANCH  61  86
ENDBRANCH  35  36
ENDBRANCH  27  30
ENDBRANCH  25  26
ENDBRANCH   1  25
TORSDOF 16
ENDMDL
