MODEL 1
REMARK VINA RESULT:     -11.7      0.000      0.000
REMARK SMILES O=C(/C=C/C(=O)NNC(=O)CSc1ccc2ccccc2n1)NCCCCNC(=O)c1ccc(-c2c3nc(c(-c4c(F)cc(S(=O)(=O)[O-])cc4F)c4ccc([nH]4)c(-c4c(F)cc(S(=O)(=O)[O-])cc4F)c4nc(c(-c5c(F)cc(S(=O)(=O)[O-])cc5F)c5ccc2[nH]5)C=C4)C=C3)cc1
REMARK SMILES IDX 24 1 23 2 1 3 2 4 3 6 4 7 5 8 6 9 7 10 8 12 9 13 10 15 11 16
REMARK SMILES IDX 12 17 13 18 14 19 22 20 15 21 21 22 16 23 20 24 17 25 19 26
REMARK SMILES IDX 18 27 25 28 26 29 27 30 28 31 29 32 30 34 31 35 32 36 96 37
REMARK SMILES IDX 33 38 95 39 34 40 35 41 36 42 89 43 37 44 94 45 88 46 90 47
REMARK SMILES IDX 38 48 93 49 87 50 86 51 39 53 73 54 52 55 72 56 53 57 56 58
REMARK SMILES IDX 71 59 91 60 54 61 55 62 70 64 92 65 57 66 40 67 41 68 50 69
REMARK SMILES IDX 42 70 43 71 49 72 51 73 44 74 45 75 46 76 47 77 48 78 74 79
REMARK SMILES IDX 75 80 84 81 76 82 77 83 83 84 85 85 78 86 79 87 80 88 81 89
REMARK SMILES IDX 82 90 58 91 59 92 68 93 60 94 61 95 67 96 69 97 62 98 63 99
REMARK SMILES IDX 64 100 65 101 66 102
REMARK H PARENT 23 5 7 11 8 14 28 33 90 52 56 63
REMARK Flexibility Score: inf
ROOT
ATOM      1  C   UNL A   1      38.247  21.823  25.737  1.00  0.00     0.116 C 
ENDROOT
BRANCH   1   2
ATOM      2  N   UNL A   1      36.860  22.242  25.638  1.00  0.00    -0.353 N 
ATOM      3  O   UNL A   1      36.959  22.823  23.413  1.00  0.00    -0.270 OA
ATOM      4  C   UNL A   1      36.331  22.692  24.458  1.00  0.00     0.244 C 
ATOM      5  H   UNL A   1      36.287  22.202  26.437  1.00  0.00     0.163 HD
BRANCH   4   6
ATOM      6  C   UNL A   1      34.874  22.959  24.452  1.00  0.00     0.077 C 
ATOM      7  C   UNL A   1      34.004  22.292  23.683  1.00  0.00     0.078 C 
BRANCH   7   8
ATOM      8  C   UNL A   1      32.536  22.502  23.689  1.00  0.00     0.262 C 
ATOM      9  O   UNL A   1      31.870  21.935  24.553  1.00  0.00    -0.268 OA
ATOM     10  N   UNL A   1      31.929  23.364  22.814  1.00  0.00    -0.264 N 
ATOM     11  H   UNL A   1      30.955  23.473  22.907  1.00  0.00     0.191 HD
BRANCH  10  12
ATOM     12  N   UNL A   1      32.546  24.099  21.810  1.00  0.00    -0.267 N 
ATOM     13  C   UNL A   1      32.920  25.419  21.910  1.00  0.00     0.248 C 
ATOM     14  H   UNL A   1      32.731  23.638  20.960  1.00  0.00     0.191 HD
ATOM     15  O   UNL A   1      33.394  25.960  20.905  1.00  0.00    -0.272 OA
BRANCH  13  16
ATOM     16  C   UNL A   1      32.944  26.127  23.255  1.00  0.00     0.178 C 
BRANCH  16  17
ATOM     17  S   UNL A   1      31.404  26.942  23.763  1.00  0.00    -0.096 SA
BRANCH  17  18
ATOM     18  C   UNL A   1      32.001  28.197  24.877  1.00  0.00     0.097 A 
ATOM     19  C   UNL A   1      31.287  29.382  24.977  1.00  0.00     0.036 A 
ATOM     20  N   UNL A   1      33.139  27.967  25.561  1.00  0.00    -0.241 NA
ATOM     21  C   UNL A   1      31.770  30.384  25.810  1.00  0.00     0.013 A 
ATOM     22  C   UNL A   1      33.613  28.939  26.363  1.00  0.00     0.072 A 
ATOM     23  C   UNL A   1      32.958  30.179  26.518  1.00  0.00     0.000 A 
ATOM     24  C   UNL A   1      34.794  28.735  27.063  1.00  0.00     0.029 A 
ATOM     25  C   UNL A   1      33.498  31.173  27.353  1.00  0.00     0.010 A 
ATOM     26  C   UNL A   1      35.337  29.721  27.895  1.00  0.00     0.002 A 
ATOM     27  C   UNL A   1      34.688  30.942  28.038  1.00  0.00     0.001 A 
ENDBRANCH  17  18
ENDBRANCH  16  17
ENDBRANCH  13  16
ENDBRANCH  10  12
ENDBRANCH   7   8
ENDBRANCH   4   6
ENDBRANCH   1   2
BRANCH   1  28
ATOM     28  C   UNL A   1      39.132  22.842  26.451  1.00  0.00     0.023 C 
BRANCH  28  29
ATOM     29  C   UNL A   1      40.313  22.251  27.224  1.00  0.00     0.023 C 
BRANCH  29  30
ATOM     30  C   UNL A   1      41.499  23.188  27.437  1.00  0.00     0.116 C 
BRANCH  30  31
ATOM     31  N   UNL A   1      41.926  23.857  26.219  1.00  0.00    -0.352 N 
ATOM     32  C   UNL A   1      41.968  25.204  25.935  1.00  0.00     0.251 C 
ATOM     33  H   UNL A   1      42.228  23.264  25.494  1.00  0.00     0.163 HD
ATOM     34  O   UNL A   1      42.233  25.582  24.800  1.00  0.00    -0.269 OA
BRANCH  32  35
ATOM     35  C   UNL A   1      41.657  26.193  26.995  1.00  0.00     0.039 A 
ATOM     36  C   UNL A   1      40.602  25.932  27.872  1.00  0.00     0.014 A 
ATOM     37  C   UNL A   1      42.409  27.363  27.132  1.00  0.00     0.014 A 
ATOM     38  C   UNL A   1      40.348  26.808  28.930  1.00  0.00     0.010 A 
ATOM     39  C   UNL A   1      42.205  28.193  28.232  1.00  0.00     0.010 A 
ATOM     40  C   UNL A   1      41.173  27.925  29.145  1.00  0.00    -0.014 A 
BRANCH  40  41
ATOM     41  C   UNL A   1      40.979  28.814  30.323  1.00  0.00     0.031 A 
ATOM     42  C   UNL A   1      41.820  28.632  31.558  1.00  0.00     0.074 A 
ATOM     43  C   UNL A   1      40.004  29.743  30.303  1.00  0.00     0.049 A 
ATOM     44  N   UNL A   1      41.753  29.263  32.702  1.00  0.00    -0.248 NA
ATOM     45  C   UNL A   1      42.857  27.588  31.510  1.00  0.00     0.031 C 
ATOM     46  C   UNL A   1      39.089  29.986  29.185  1.00  0.00     0.029 A 
ATOM     47  N   UNL A   1      39.608  30.651  31.254  1.00  0.00    -0.354 N 
ATOM     48  C   UNL A   1      42.728  28.688  33.511  1.00  0.00     0.074 A 
ATOM     49  C   UNL A   1      43.331  27.618  32.746  1.00  0.00     0.031 C 
ATOM     50  C   UNL A   1      38.255  30.987  29.506  1.00  0.00     0.029 A 
ATOM     51  C   UNL A   1      38.544  31.432  30.866  1.00  0.00     0.049 A 
ATOM     52  H   UNL A   1      40.045  30.735  32.132  1.00  0.00     0.167 HD
ATOM     53  C   UNL A   1      43.103  29.036  34.766  1.00  0.00     0.037 A 
ATOM     54  C   UNL A   1      37.868  32.390  31.532  1.00  0.00     0.037 A 
ATOM     55  C   UNL A   1      42.507  30.112  35.516  1.00  0.00     0.049 A 
ATOM     56  C   UNL A   1      38.293  32.749  32.931  1.00  0.00     0.074 A 
ATOM     57  C   UNL A   1      42.850  30.574  36.775  1.00  0.00     0.029 A 
ATOM     58  N   UNL A   1      41.444  30.890  35.082  1.00  0.00    -0.354 N 
ATOM     59  N   UNL A   1      39.260  32.238  33.655  1.00  0.00    -0.248 NA
ATOM     60  C   UNL A   1      37.542  33.819  33.600  1.00  0.00     0.031 C 
ATOM     61  C   UNL A   1      41.962  31.596  37.123  1.00  0.00     0.029 A 
ATOM     62  C   UNL A   1      41.102  31.813  36.058  1.00  0.00     0.049 A 
ATOM     63  H   UNL A   1      40.998  30.800  34.209  1.00  0.00     0.167 HD
ATOM     64  C   UNL A   1      39.251  32.943  34.855  1.00  0.00     0.074 A 
ATOM     65  C   UNL A   1      38.191  33.925  34.752  1.00  0.00     0.031 C 
ATOM     66  C   UNL A   1      40.049  32.791  35.941  1.00  0.00     0.037 A 
BRANCH  53  67
ATOM     67  C   UNL A   1      44.212  28.245  35.408  1.00  0.00     0.058 A 
ATOM     68  C   UNL A   1      43.949  27.107  36.188  1.00  0.00     0.135 A 
ATOM     69  C   UNL A   1      45.555  28.605  35.212  1.00  0.00     0.135 A 
ATOM     70  F   UNL A   1      42.684  26.722  36.421  1.00  0.00    -0.206 F 
ATOM     71  C   UNL A   1      44.975  26.375  36.778  1.00  0.00     0.059 A 
ATOM     72  C   UNL A   1      46.599  27.868  35.766  1.00  0.00     0.059 A 
ATOM     73  F   UNL A   1      45.866  29.683  34.475  1.00  0.00    -0.206 F 
ATOM     74  C   UNL A   1      46.297  26.764  36.561  1.00  0.00     0.060 A 
BRANCH  74  75
ATOM     75  S   UNL A   1      47.615  25.801  37.332  1.00  0.00     0.124 S 
ATOM     76  O   UNL A   1      46.865  24.682  37.894  1.00  0.00    -0.237 OA
ATOM     77  O   UNL A   1      48.474  25.483  36.197  1.00  0.00    -0.237 OA
ATOM     78  O   UNL A   1      48.186  26.725  38.308  1.00  0.00    -0.744 OA
ENDBRANCH  74  75
ENDBRANCH  53  67
BRANCH  54  79
ATOM     79  C   UNL A   1      36.728  33.086  30.878  1.00  0.00     0.058 A 
ATOM     80  C   UNL A   1      35.404  32.826  31.262  1.00  0.00     0.135 A 
ATOM     81  C   UNL A   1      36.937  34.033  29.863  1.00  0.00     0.135 A 
ATOM     82  F   UNL A   1      35.148  31.924  32.221  1.00  0.00    -0.206 F 
ATOM     83  C   UNL A   1      34.328  33.466  30.654  1.00  0.00     0.059 A 
ATOM     84  C   UNL A   1      35.881  34.708  29.260  1.00  0.00     0.059 A 
ATOM     85  F   UNL A   1      38.186  34.331  29.468  1.00  0.00    -0.206 F 
ATOM     86  C   UNL A   1      34.577  34.410  29.656  1.00  0.00     0.060 A 
BRANCH  86  87
ATOM     87  S   UNL A   1      33.177  35.271  28.909  1.00  0.00     0.124 S 
ATOM     88  O   UNL A   1      32.564  34.208  28.121  1.00  0.00    -0.237 OA
ATOM     89  O   UNL A   1      32.428  35.711  30.082  1.00  0.00    -0.237 OA
ATOM     90  O   UNL A   1      33.810  36.340  28.143  1.00  0.00    -0.744 OA
ENDBRANCH  86  87
ENDBRANCH  54  79
BRANCH  66  91
ATOM     91  C   UNL A   1      39.837  33.732  37.096  1.00  0.00     0.058 A 
ATOM     92  C   UNL A   1      40.451  34.993  37.150  1.00  0.00     0.135 A 
ATOM     93  C   UNL A   1      38.961  33.387  38.140  1.00  0.00     0.135 A 
ATOM     94  F   UNL A   1      41.303  35.371  36.183  1.00  0.00    -0.206 F 
ATOM     95  C   UNL A   1      40.225  35.867  38.208  1.00  0.00     0.059 A 
ATOM     96  C   UNL A   1      38.695  34.258  39.191  1.00  0.00     0.059 A 
ATOM     97  F   UNL A   1      38.337  32.198  38.133  1.00  0.00    -0.206 F 
ATOM     98  C   UNL A   1      39.341  35.492  39.222  1.00  0.00     0.060 A 
BRANCH  98  99
ATOM     99  S   UNL A   1      39.030  36.653  40.571  1.00  0.00     0.124 S 
ATOM    100  O   UNL A   1      38.527  37.816  39.847  1.00  0.00    -0.237 OA
ATOM    101  O   UNL A   1      38.047  35.935  41.378  1.00  0.00    -0.237 OA
ATOM    102  O   UNL A   1      40.341  36.817  41.189  1.00  0.00    -0.744 OA
ENDBRANCH  98  99
ENDBRANCH  66  91
ENDBRANCH  40  41
ENDBRANCH  32  35
ENDBRANCH  30  31
ENDBRANCH  29  30
ENDBRANCH  28  29
ENDBRANCH   1  28
TORSDOF 19
ENDMDL
MODEL 2
REMARK VINA RESULT:     -11.6      6.207     11.963
REMARK SMILES O=C(/C=C/C(=O)NNC(=O)CSc1ccc2ccccc2n1)NCCCCNC(=O)c1ccc(-c2c3nc(c(-c4c(F)cc(S(=O)(=O)[O-])cc4F)c4ccc([nH]4)c(-c4c(F)cc(S(=O)(=O)[O-])cc4F)c4nc(c(-c5c(F)cc(S(=O)(=O)[O-])cc5F)c5ccc2[nH]5)C=C4)C=C3)cc1
REMARK SMILES IDX 24 1 23 2 1 3 2 4 3 6 4 7 5 8 6 9 7 10 8 12 9 13 10 15 11 16
REMARK SMILES IDX 12 17 13 18 14 19 22 20 15 21 21 22 16 23 20 24 17 25 19 26
REMARK SMILES IDX 18 27 25 28 26 29 27 30 28 31 29 32 30 34 31 35 32 36 96 37
REMARK SMILES IDX 33 38 95 39 34 40 35 41 36 42 89 43 37 44 94 45 88 46 90 47
REMARK SMILES IDX 38 48 93 49 87 50 86 51 39 53 73 54 52 55 72 56 53 57 56 58
REMARK SMILES IDX 71 59 91 60 54 61 55 62 70 64 92 65 57 66 40 67 41 68 50 69
REMARK SMILES IDX 42 70 43 71 49 72 51 73 44 74 45 75 46 76 47 77 48 78 74 79
REMARK SMILES IDX 75 80 84 81 76 82 77 83 83 84 85 85 78 86 79 87 80 88 81 89
REMARK SMILES IDX 82 90 58 91 59 92 68 93 60 94 61 95 67 96 69 97 62 98 63 99
REMARK SMILES IDX 64 100 65 101 66 102
REMARK H PARENT 23 5 7 11 8 14 28 33 90 52 56 63
REMARK Flexibility Score: inf
ROOT
ATOM      1  C   UNL A   1      34.607  31.847  27.637  1.00  0.00     0.116 C 
ENDROOT
BRANCH   1   2
ATOM      2  N   UNL A   1      33.922  30.567  27.686  1.00  0.00    -0.353 N 
ATOM      3  O   UNL A   1      31.969  31.321  26.729  1.00  0.00    -0.270 OA
ATOM      4  C   UNL A   1      32.650  30.417  27.200  1.00  0.00     0.244 C 
ATOM      5  H   UNL A   1      34.381  29.790  28.078  1.00  0.00     0.163 HD
BRANCH   4   6
ATOM      6  C   UNL A   1      32.114  29.037  27.181  1.00  0.00     0.077 C 
ATOM      7  C   UNL A   1      31.606  28.456  26.087  1.00  0.00     0.078 C 
BRANCH   7   8
ATOM      8  C   UNL A   1      31.106  27.061  26.024  1.00  0.00     0.262 C 
ATOM      9  O   UNL A   1      31.341  26.314  26.973  1.00  0.00    -0.268 OA
ATOM     10  N   UNL A   1      30.332  26.620  24.983  1.00  0.00    -0.264 N 
ATOM     11  H   UNL A   1      30.011  25.691  25.035  1.00  0.00     0.191 HD
BRANCH  10  12
ATOM     12  N   UNL A   1      29.954  27.349  23.863  1.00  0.00    -0.267 N 
ATOM     13  C   UNL A   1      30.816  27.855  22.918  1.00  0.00     0.248 C 
ATOM     14  H   UNL A   1      28.992  27.516  23.735  1.00  0.00     0.191 HD
ATOM     15  O   UNL A   1      30.336  28.547  22.014  1.00  0.00    -0.272 OA
BRANCH  13  16
ATOM     16  C   UNL A   1      32.270  27.412  22.867  1.00  0.00     0.178 C 
BRANCH  16  17
ATOM     17  S   UNL A   1      32.585  25.769  22.163  1.00  0.00    -0.096 SA
BRANCH  17  18
ATOM     18  C   UNL A   1      33.743  25.084  23.330  1.00  0.00     0.097 A 
ATOM     19  C   UNL A   1      33.802  25.637  24.600  1.00  0.00     0.036 A 
ATOM     20  N   UNL A   1      34.539  24.072  22.934  1.00  0.00    -0.241 NA
ATOM     21  C   UNL A   1      34.734  25.138  25.503  1.00  0.00     0.013 A 
ATOM     22  C   UNL A   1      35.448  23.592  23.803  1.00  0.00     0.072 A 
ATOM     23  C   UNL A   1      35.585  24.101  25.112  1.00  0.00     0.000 A 
ATOM     24  C   UNL A   1      36.294  22.563  23.413  1.00  0.00     0.029 A 
ATOM     25  C   UNL A   1      36.559  23.581  25.982  1.00  0.00     0.010 A 
ATOM     26  C   UNL A   1      37.266  22.042  24.275  1.00  0.00     0.002 A 
ATOM     27  C   UNL A   1      37.400  22.554  25.560  1.00  0.00     0.001 A 
ENDBRANCH  17  18
ENDBRANCH  16  17
ENDBRANCH  13  16
ENDBRANCH  10  12
ENDBRANCH   7   8
ENDBRANCH   4   6
ENDBRANCH   1   2
BRANCH   1  28
ATOM     28  C   UNL A   1      34.422  32.674  28.907  1.00  0.00     0.023 C 
BRANCH  28  29
ATOM     29  C   UNL A   1      35.583  33.610  29.250  1.00  0.00     0.023 C 
BRANCH  29  30
ATOM     30  C   UNL A   1      36.598  33.063  30.250  1.00  0.00     0.116 C 
BRANCH  30  31
ATOM     31  N   UNL A   1      36.117  31.901  30.979  1.00  0.00    -0.352 N 
ATOM     32  C   UNL A   1      36.693  30.657  31.112  1.00  0.00     0.251 C 
ATOM     33  H   UNL A   1      35.255  32.018  31.441  1.00  0.00     0.163 HD
ATOM     34  O   UNL A   1      36.075  29.752  31.657  1.00  0.00    -0.269 OA
BRANCH  32  35
ATOM     35  C   UNL A   1      38.048  30.409  30.565  1.00  0.00     0.039 A 
ATOM     36  C   UNL A   1      39.137  30.394  31.440  1.00  0.00     0.014 A 
ATOM     37  C   UNL A   1      38.244  30.179  29.200  1.00  0.00     0.014 A 
ATOM     38  C   UNL A   1      40.409  30.076  30.958  1.00  0.00     0.010 A 
ATOM     39  C   UNL A   1      39.497  29.786  28.736  1.00  0.00     0.010 A 
ATOM     40  C   UNL A   1      40.595  29.728  29.609  1.00  0.00    -0.014 A 
BRANCH  40  41
ATOM     41  C   UNL A   1      41.923  29.292  29.099  1.00  0.00     0.031 A 
ATOM     42  C   UNL A   1      43.046  30.285  28.961  1.00  0.00     0.074 A 
ATOM     43  C   UNL A   1      42.098  28.016  28.701  1.00  0.00     0.049 A 
ATOM     44  N   UNL A   1      44.248  30.109  28.476  1.00  0.00    -0.248 NA
ATOM     45  C   UNL A   1      42.775  31.662  29.404  1.00  0.00     0.031 C 
ATOM     46  C   UNL A   1      41.074  26.970  28.738  1.00  0.00     0.029 A 
ATOM     47  N   UNL A   1      43.197  27.382  28.175  1.00  0.00    -0.354 N 
ATOM     48  C   UNL A   1      44.872  31.350  28.546  1.00  0.00     0.074 A 
ATOM     49  C   UNL A   1      43.895  32.282  29.065  1.00  0.00     0.031 C 
ATOM     50  C   UNL A   1      41.597  25.823  28.276  1.00  0.00     0.029 A 
ATOM     51  C   UNL A   1      42.979  26.058  27.871  1.00  0.00     0.049 A 
ATOM     52  H   UNL A   1      44.060  27.833  28.031  1.00  0.00     0.167 HD
ATOM     53  C   UNL A   1      46.149  31.676  28.231  1.00  0.00     0.037 A 
ATOM     54  C   UNL A   1      43.795  25.140  27.315  1.00  0.00     0.037 A 
ATOM     55  C   UNL A   1      47.120  30.739  27.729  1.00  0.00     0.049 A 
ATOM     56  C   UNL A   1      45.205  25.529  26.959  1.00  0.00     0.074 A 
ATOM     57  C   UNL A   1      48.453  30.961  27.426  1.00  0.00     0.029 A 
ATOM     58  N   UNL A   1      46.867  29.404  27.449  1.00  0.00    -0.354 N 
ATOM     59  N   UNL A   1      45.796  26.693  27.093  1.00  0.00    -0.248 NA
ATOM     60  C   UNL A   1      46.060  24.483  26.385  1.00  0.00     0.031 C 
ATOM     61  C   UNL A   1      48.990  29.776  26.915  1.00  0.00     0.029 A 
ATOM     62  C   UNL A   1      48.010  28.797  26.955  1.00  0.00     0.049 A 
ATOM     63  H   UNL A   1      46.001  28.955  27.581  1.00  0.00     0.167 HD
ATOM     64  C   UNL A   1      47.101  26.510  26.645  1.00  0.00     0.074 A 
ATOM     65  C   UNL A   1      47.214  25.121  26.250  1.00  0.00     0.031 C 
ATOM     66  C   UNL A   1      48.113  27.410  26.571  1.00  0.00     0.037 A 
BRANCH  53  67
ATOM     67  C   UNL A   1      46.570  33.109  28.422  1.00  0.00     0.058 A 
ATOM     68  C   UNL A   1      47.086  33.570  29.645  1.00  0.00     0.135 A 
ATOM     69  C   UNL A   1      46.493  34.026  27.361  1.00  0.00     0.135 A 
ATOM     70  F   UNL A   1      47.171  32.742  30.699  1.00  0.00    -0.206 F 
ATOM     71  C   UNL A   1      47.478  34.894  29.819  1.00  0.00     0.059 A 
ATOM     72  C   UNL A   1      46.910  35.347  27.502  1.00  0.00     0.059 A 
ATOM     73  F   UNL A   1      46.010  33.642  26.168  1.00  0.00    -0.206 F 
ATOM     74  C   UNL A   1      47.385  35.775  28.741  1.00  0.00     0.060 A 
BRANCH  74  75
ATOM     75  S   UNL A   1      47.900  37.488  28.984  1.00  0.00     0.124 S 
ATOM     76  O   UNL A   1      48.784  37.690  27.840  1.00  0.00    -0.237 OA
ATOM     77  O   UNL A   1      46.631  38.205  28.939  1.00  0.00    -0.237 OA
ATOM     78  O   UNL A   1      48.559  37.465  30.287  1.00  0.00    -0.744 OA
ENDBRANCH  74  75
ENDBRANCH  53  67
BRANCH  54  79
ATOM     79  C   UNL A   1      43.301  23.757  27.075  1.00  0.00     0.058 A 
ATOM     80  C   UNL A   1      42.984  23.315  25.782  1.00  0.00     0.135 A 
ATOM     81  C   UNL A   1      43.147  22.844  28.131  1.00  0.00     0.135 A 
ATOM     82  F   UNL A   1      43.105  24.150  24.739  1.00  0.00    -0.206 F 
ATOM     83  C   UNL A   1      42.516  22.027  25.545  1.00  0.00     0.059 A 
ATOM     84  C   UNL A   1      42.710  21.541  27.917  1.00  0.00     0.059 A 
ATOM     85  F   UNL A   1      43.453  23.210  29.387  1.00  0.00    -0.206 F 
ATOM     86  C   UNL A   1      42.386  21.144  26.619  1.00  0.00     0.060 A 
BRANCH  86  87
ATOM     87  S   UNL A   1      41.826  19.459  26.294  1.00  0.00     0.124 S 
ATOM     88  O   UNL A   1      42.548  19.140  25.068  1.00  0.00    -0.237 OA
ATOM     89  O   UNL A   1      42.264  18.754  27.496  1.00  0.00    -0.237 OA
ATOM     90  O   UNL A   1      40.380  19.606  26.156  1.00  0.00    -0.744 OA
ENDBRANCH  86  87
ENDBRANCH  54  79
BRANCH  66  91
ATOM     91  C   UNL A   1      49.447  26.918  26.077  1.00  0.00     0.058 A 
ATOM     92  C   UNL A   1      49.801  26.969  24.720  1.00  0.00     0.135 A 
ATOM     93  C   UNL A   1      50.405  26.437  26.986  1.00  0.00     0.135 A 
ATOM     94  F   UNL A   1      48.921  27.413  23.808  1.00  0.00    -0.206 F 
ATOM     95  C   UNL A   1      51.048  26.539  24.278  1.00  0.00     0.059 A 
ATOM     96  C   UNL A   1      51.669  26.031  26.570  1.00  0.00     0.059 A 
ATOM     97  F   UNL A   1      50.122  26.377  28.297  1.00  0.00    -0.206 F 
ATOM     98  C   UNL A   1      51.977  26.075  25.212  1.00  0.00     0.060 A 
BRANCH  98  99
ATOM     99  S   UNL A   1      53.604  25.553  24.628  1.00  0.00     0.124 S 
ATOM    100  O   UNL A   1      53.503  24.101  24.732  1.00  0.00    -0.237 OA
ATOM    101  O   UNL A   1      53.634  26.091  23.271  1.00  0.00    -0.237 OA
ATOM    102  O   UNL A   1      54.523  26.188  25.567  1.00  0.00    -0.744 OA
ENDBRANCH  98  99
ENDBRANCH  66  91
ENDBRANCH  40  41
ENDBRANCH  32  35
ENDBRANCH  30  31
ENDBRANCH  29  30
ENDBRANCH  28  29
ENDBRANCH   1  28
TORSDOF 19
ENDMDL
MODEL 3
REMARK VINA RESULT:     -11.5      6.319     11.999
REMARK SMILES O=C(/C=C/C(=O)NNC(=O)CSc1ccc2ccccc2n1)NCCCCNC(=O)c1ccc(-c2c3nc(c(-c4c(F)cc(S(=O)(=O)[O-])cc4F)c4ccc([nH]4)c(-c4c(F)cc(S(=O)(=O)[O-])cc4F)c4nc(c(-c5c(F)cc(S(=O)(=O)[O-])cc5F)c5ccc2[nH]5)C=C4)C=C3)cc1
REMARK SMILES IDX 24 1 23 2 1 3 2 4 3 6 4 7 5 8 6 9 7 10 8 12 9 13 10 15 11 16
REMARK SMILES IDX 12 17 13 18 14 19 22 20 15 21 21 22 16 23 20 24 17 25 19 26
REMARK SMILES IDX 18 27 25 28 26 29 27 30 28 31 29 32 30 34 31 35 32 36 96 37
REMARK SMILES IDX 33 38 95 39 34 40 35 41 36 42 89 43 37 44 94 45 88 46 90 47
REMARK SMILES IDX 38 48 93 49 87 50 86 51 39 53 73 54 52 55 72 56 53 57 56 58
REMARK SMILES IDX 71 59 91 60 54 61 55 62 70 64 92 65 57 66 40 67 41 68 50 69
REMARK SMILES IDX 42 70 43 71 49 72 51 73 44 74 45 75 46 76 47 77 48 78 74 79
REMARK SMILES IDX 75 80 84 81 76 82 77 83 83 84 85 85 78 86 79 87 80 88 81 89
REMARK SMILES IDX 82 90 58 91 59 92 68 93 60 94 61 95 67 96 69 97 62 98 63 99
REMARK SMILES IDX 64 100 65 101 66 102
REMARK H PARENT 23 5 7 11 8 14 28 33 90 52 56 63
REMARK Flexibility Score: inf
ROOT
ATOM      1  C   UNL A   1      32.870  29.608  25.621  1.00  0.00     0.116 C 
ENDROOT
BRANCH   1   2
ATOM      2  N   UNL A   1      32.896  28.457  24.736  1.00  0.00    -0.353 N 
ATOM      3  O   UNL A   1      33.976  29.528  23.008  1.00  0.00    -0.270 OA
ATOM      4  C   UNL A   1      33.476  28.521  23.496  1.00  0.00     0.244 C 
ATOM      5  H   UNL A   1      32.488  27.612  25.032  1.00  0.00     0.163 HD
BRANCH   4   6
ATOM      6  C   UNL A   1      33.561  27.247  22.746  1.00  0.00     0.077 C 
ATOM      7  C   UNL A   1      32.592  26.800  21.937  1.00  0.00     0.078 C 
BRANCH   7   8
ATOM      8  C   UNL A   1      32.666  25.554  21.137  1.00  0.00     0.262 C 
ATOM      9  O   UNL A   1      33.219  25.597  20.039  1.00  0.00    -0.268 OA
ATOM     10  N   UNL A   1      32.209  24.357  21.624  1.00  0.00    -0.264 N 
ATOM     11  H   UNL A   1      32.327  23.571  21.044  1.00  0.00     0.191 HD
BRANCH  10  12
ATOM     12  N   UNL A   1      31.595  24.141  22.851  1.00  0.00    -0.267 N 
ATOM     13  C   UNL A   1      31.675  22.979  23.582  1.00  0.00     0.248 C 
ATOM     14  H   UNL A   1      31.063  24.878  23.228  1.00  0.00     0.191 HD
ATOM     15  O   UNL A   1      31.014  22.909  24.624  1.00  0.00    -0.272 OA
BRANCH  13  16
ATOM     16  C   UNL A   1      32.692  21.903  23.237  1.00  0.00     0.178 C 
BRANCH  16  17
ATOM     17  S   UNL A   1      33.290  20.889  24.618  1.00  0.00    -0.096 SA
BRANCH  17  18
ATOM     18  C   UNL A   1      34.681  21.838  25.197  1.00  0.00     0.097 A 
ATOM     19  C   UNL A   1      34.473  23.164  25.548  1.00  0.00     0.036 A 
ATOM     20  N   UNL A   1      35.892  21.249  25.248  1.00  0.00    -0.241 NA
ATOM     21  C   UNL A   1      35.562  23.925  25.958  1.00  0.00     0.013 A 
ATOM     22  C   UNL A   1      36.949  21.985  25.637  1.00  0.00     0.072 A 
ATOM     23  C   UNL A   1      36.832  23.343  26.003  1.00  0.00     0.000 A 
ATOM     24  C   UNL A   1      38.210  21.407  25.679  1.00  0.00     0.029 A 
ATOM     25  C   UNL A   1      37.966  24.080  26.388  1.00  0.00     0.010 A 
ATOM     26  C   UNL A   1      39.343  22.135  26.060  1.00  0.00     0.002 A 
ATOM     27  C   UNL A   1      39.219  23.474  26.413  1.00  0.00     0.001 A 
ENDBRANCH  17  18
ENDBRANCH  16  17
ENDBRANCH  13  16
ENDBRANCH  10  12
ENDBRANCH   7   8
ENDBRANCH   4   6
ENDBRANCH   1   2
BRANCH   1  28
ATOM     28  C   UNL A   1      33.853  29.493  26.784  1.00  0.00     0.023 C 
BRANCH  28  29
ATOM     29  C   UNL A   1      34.317  30.824  27.379  1.00  0.00     0.023 C 
BRANCH  29  30
ATOM     30  C   UNL A   1      35.653  30.789  28.115  1.00  0.00     0.116 C 
BRANCH  30  31
ATOM     31  N   UNL A   1      35.517  30.516  29.537  1.00  0.00    -0.352 N 
ATOM     32  C   UNL A   1      36.450  30.023  30.421  1.00  0.00     0.251 C 
ATOM     33  H   UNL A   1      34.631  30.709  29.922  1.00  0.00     0.163 HD
ATOM     34  O   UNL A   1      36.116  29.729  31.562  1.00  0.00    -0.269 OA
BRANCH  32  35
ATOM     35  C   UNL A   1      37.850  29.817  29.980  1.00  0.00     0.039 A 
ATOM     36  C   UNL A   1      38.852  29.705  30.946  1.00  0.00     0.014 A 
ATOM     37  C   UNL A   1      38.172  29.721  28.623  1.00  0.00     0.014 A 
ATOM     38  C   UNL A   1      40.164  29.424  30.555  1.00  0.00     0.010 A 
ATOM     39  C   UNL A   1      39.463  29.364  28.241  1.00  0.00     0.010 A 
ATOM     40  C   UNL A   1      40.474  29.210  29.202  1.00  0.00    -0.014 A 
BRANCH  40  41
ATOM     41  C   UNL A   1      41.843  28.814  28.776  1.00  0.00     0.031 A 
ATOM     42  C   UNL A   1      42.936  29.844  28.681  1.00  0.00     0.074 A 
ATOM     43  C   UNL A   1      42.087  27.538  28.415  1.00  0.00     0.049 A 
ATOM     44  N   UNL A   1      44.170  29.704  28.267  1.00  0.00    -0.248 NA
ATOM     45  C   UNL A   1      42.592  31.219  29.078  1.00  0.00     0.031 C 
ATOM     46  C   UNL A   1      41.101  26.455  28.416  1.00  0.00     0.029 A 
ATOM     47  N   UNL A   1      43.236  26.935  27.965  1.00  0.00    -0.354 N 
ATOM     48  C   UNL A   1      44.744  30.968  28.346  1.00  0.00     0.074 A 
ATOM     49  C   UNL A   1      43.706  31.874  28.790  1.00  0.00     0.031 C 
ATOM     50  C   UNL A   1      41.690  25.320  28.009  1.00  0.00     0.029 A 
ATOM     51  C   UNL A   1      43.083  25.599  27.677  1.00  0.00     0.049 A 
ATOM     52  H   UNL A   1      44.089  27.415  27.859  1.00  0.00     0.167 HD
ATOM     53  C   UNL A   1      46.024  31.336  28.096  1.00  0.00     0.037 A 
ATOM     54  C   UNL A   1      43.962  24.701  27.187  1.00  0.00     0.037 A 
ATOM     55  C   UNL A   1      47.055  30.426  27.668  1.00  0.00     0.049 A 
ATOM     56  C   UNL A   1      45.375  25.136  26.902  1.00  0.00     0.074 A 
ATOM     57  C   UNL A   1      48.394  30.692  27.436  1.00  0.00     0.029 A 
ATOM     58  N   UNL A   1      46.866  29.078  27.403  1.00  0.00    -0.354 N 
ATOM     59  N   UNL A   1      45.916  26.323  27.044  1.00  0.00    -0.248 NA
ATOM     60  C   UNL A   1      46.298  24.111  26.398  1.00  0.00     0.031 C 
ATOM     61  C   UNL A   1      49.001  29.518  26.981  1.00  0.00     0.029 A 
ATOM     62  C   UNL A   1      48.056  28.504  26.986  1.00  0.00     0.049 A 
ATOM     63  H   UNL A   1      46.011  28.599  27.496  1.00  0.00     0.167 HD
ATOM     64  C   UNL A   1      47.249  26.180  26.674  1.00  0.00     0.074 A 
ATOM     65  C   UNL A   1      47.435  24.788  26.315  1.00  0.00     0.031 C 
ATOM     66  C   UNL A   1      48.231  27.116  26.638  1.00  0.00     0.037 A 
BRANCH  53  67
ATOM     67  C   UNL A   1      46.382  32.787  28.280  1.00  0.00     0.058 A 
ATOM     68  C   UNL A   1      46.252  33.717  27.235  1.00  0.00     0.135 A 
ATOM     69  C   UNL A   1      46.825  33.264  29.524  1.00  0.00     0.135 A 
ATOM     70  F   UNL A   1      45.846  33.317  26.019  1.00  0.00    -0.206 F 
ATOM     71  C   UNL A   1      46.580  35.058  27.407  1.00  0.00     0.059 A 
ATOM     72  C   UNL A   1      47.128  34.607  29.729  1.00  0.00     0.059 A 
ATOM     73  F   UNL A   1      46.967  32.421  30.560  1.00  0.00    -0.206 F 
ATOM     74  C   UNL A   1      47.017  35.493  28.658  1.00  0.00     0.060 A 
BRANCH  74  75
ATOM     75  S   UNL A   1      47.436  37.237  28.864  1.00  0.00     0.124 S 
ATOM     76  O   UNL A   1      46.677  37.848  27.777  1.00  0.00    -0.237 OA
ATOM     77  O   UNL A   1      46.951  37.518  30.211  1.00  0.00    -0.237 OA
ATOM     78  O   UNL A   1      48.888  37.261  28.705  1.00  0.00    -0.744 OA
ENDBRANCH  74  75
ENDBRANCH  53  67
BRANCH  54  79
ATOM     79  C   UNL A   1      43.532  23.296  26.949  1.00  0.00     0.058 A 
ATOM     80  C   UNL A   1      43.283  22.825  25.651  1.00  0.00     0.135 A 
ATOM     81  C   UNL A   1      43.374  22.392  28.011  1.00  0.00     0.135 A 
ATOM     82  F   UNL A   1      43.411  23.651  24.601  1.00  0.00    -0.206 F 
ATOM     83  C   UNL A   1      42.875  21.516  25.415  1.00  0.00     0.059 A 
ATOM     84  C   UNL A   1      42.997  21.070  27.799  1.00  0.00     0.059 A 
ATOM     85  F   UNL A   1      43.617  22.787  29.272  1.00  0.00    -0.206 F 
ATOM     86  C   UNL A   1      42.739  20.643  26.496  1.00  0.00     0.060 A 
BRANCH  86  87
ATOM     87  S   UNL A   1      42.259  18.933  26.175  1.00  0.00     0.124 S 
ATOM     88  O   UNL A   1      42.494  18.312  27.473  1.00  0.00    -0.237 OA
ATOM     89  O   UNL A   1      40.861  19.078  25.779  1.00  0.00    -0.237 OA
ATOM     90  O   UNL A   1      43.165  18.525  25.105  1.00  0.00    -0.744 OA
ENDBRANCH  86  87
ENDBRANCH  54  79
BRANCH  66  91
ATOM     91  C   UNL A   1      49.607  26.664  26.230  1.00  0.00     0.058 A 
ATOM     92  C   UNL A   1      50.111  26.889  24.940  1.00  0.00     0.135 A 
ATOM     93  C   UNL A   1      50.455  26.042  27.163  1.00  0.00     0.135 A 
ATOM     94  F   UNL A   1      49.341  27.472  24.006  1.00  0.00    -0.206 F 
ATOM     95  C   UNL A   1      51.396  26.494  24.582  1.00  0.00     0.059 A 
ATOM     96  C   UNL A   1      51.754  25.668  26.837  1.00  0.00     0.059 A 
ATOM     97  F   UNL A   1      50.027  25.812  28.416  1.00  0.00    -0.206 F 
ATOM     98  C   UNL A   1      52.212  25.887  25.539  1.00  0.00     0.060 A 
BRANCH  98  99
ATOM     99  S   UNL A   1      53.889  25.412  25.070  1.00  0.00     0.124 S 
ATOM    100  O   UNL A   1      53.887  23.985  25.375  1.00  0.00    -0.237 OA
ATOM    101  O   UNL A   1      53.925  25.757  23.652  1.00  0.00    -0.237 OA
ATOM    102  O   UNL A   1      54.730  26.237  25.932  1.00  0.00    -0.744 OA
ENDBRANCH  98  99
ENDBRANCH  66  91
ENDBRANCH  40  41
ENDBRANCH  32  35
ENDBRANCH  30  31
ENDBRANCH  29  30
ENDBRANCH  28  29
ENDBRANCH   1  28
TORSDOF 19
ENDMDL
