MODEL 1
REMARK VINA RESULT:     -10.9      0.000      0.000
REMARK SMILES CNC(=O)C[N@H+]1CC[C@@H](C(=O)NCCCCNC(=O)c2ccc(-c3c4nc(c(-c5c(F)cc(S(=O)(=O)[O-])cc5F)c5ccc([nH]5)c(-c5c(F)cc(S(=O)(=O)[O-])cc5F)c5nc(c(-c6c(F)cc(S(=O)(=O)[O-])cc6F)c6ccc3[nH]6)C=C5)C=C4)cc2)[C@H]1C
REMARK SMILES IDX 15 1 14 2 13 3 12 4 10 5 11 6 9 8 6 9 7 10 86 11 8 13 87 14
REMARK SMILES IDX 5 15 3 16 1 17 2 18 4 20 16 21 17 22 18 23 19 25 20 26 21 27
REMARK SMILES IDX 85 28 22 29 84 30 23 31 24 32 25 33 78 34 26 35 83 36 77 37
REMARK SMILES IDX 79 38 27 39 82 40 76 41 75 42 28 44 62 45 41 46 61 47 42 48
REMARK SMILES IDX 45 49 60 50 80 51 43 52 44 53 59 55 81 56 46 57 29 58 30 59
REMARK SMILES IDX 39 60 31 61 32 62 38 63 40 64 33 65 34 66 35 67 36 68 37 69
REMARK SMILES IDX 63 70 64 71 73 72 65 73 66 74 72 75 74 76 67 77 68 78 69 79
REMARK SMILES IDX 70 80 71 81 47 82 48 83 57 84 49 85 50 86 56 87 58 88 51 89
REMARK SMILES IDX 52 90 53 91 54 92 55 93
REMARK H PARENT 12 7 6 12 2 19 17 24 79 43 45 54
REMARK Flexibility Score: inf
ROOT
ATOM      1  C   UNL A   1      32.183  27.727  27.098  1.00  0.00     0.023 C 
ENDROOT
BRANCH   1   2
ATOM      2  C   UNL A   1      31.500  27.714  25.735  1.00  0.00     0.023 C 
BRANCH   2   3
ATOM      3  C   UNL A   1      30.678  26.461  25.432  1.00  0.00     0.116 C 
BRANCH   3   4
ATOM      4  N   UNL A   1      30.845  25.459  26.466  1.00  0.00    -0.356 N 
ATOM      5  C   UNL A   1      31.341  24.195  26.415  1.00  0.00     0.229 C 
ATOM      6  O   UNL A   1      31.286  23.530  27.455  1.00  0.00    -0.275 OA
ATOM      7  H   UNL A   1      30.547  25.743  27.360  1.00  0.00     0.163 HD
BRANCH   5   8
ATOM      8  C   UNL A   1      31.986  23.599  25.172  1.00  0.00     0.142 C 
ATOM      9  N   UNL A   1      34.016  22.576  24.497  1.00  0.00    -0.324 N 
ATOM     10  C   UNL A   1      32.991  21.579  24.298  1.00  0.00     0.263 C 
ATOM     11  C   UNL A   1      33.470  23.879  24.866  1.00  0.00     0.194 C 
ATOM     12  H   UNL A   1      34.431  22.817  23.597  1.00  0.00     0.348 HD
ATOM     13  C   UNL A   1      31.777  22.092  25.042  1.00  0.00     0.081 C 
ATOM     14  C   UNL A   1      34.260  24.698  25.881  1.00  0.00     0.076 C 
BRANCH   9  15
ATOM     15  C   UNL A   1      35.372  22.160  24.796  1.00  0.00     0.363 C 
BRANCH  15  16
ATOM     16  C   UNL A   1      36.384  22.897  23.914  1.00  0.00     0.274 C 
ATOM     17  C   UNL A   1      37.795  23.580  25.895  1.00  0.00     0.143 C 
ATOM     18  N   UNL A   1      37.428  23.559  24.501  1.00  0.00    -0.354 N 
ATOM     19  H   UNL A   1      37.998  24.086  23.897  1.00  0.00     0.163 HD
ATOM     20  O   UNL A   1      36.275  22.938  22.688  1.00  0.00    -0.269 OA
ENDBRANCH  15  16
ENDBRANCH   9  15
ENDBRANCH   5   8
ENDBRANCH   3   4
ENDBRANCH   2   3
ENDBRANCH   1   2
BRANCH   1  21
ATOM     21  C   UNL A   1      33.538  28.414  27.132  1.00  0.00     0.116 C 
BRANCH  21  22
ATOM     22  N   UNL A   1      33.455  29.819  27.506  1.00  0.00    -0.352 N 
ATOM     23  C   UNL A   1      34.405  30.617  28.104  1.00  0.00     0.251 C 
ATOM     24  H   UNL A   1      32.599  30.261  27.302  1.00  0.00     0.163 HD
ATOM     25  O   UNL A   1      34.119  31.747  28.473  1.00  0.00    -0.269 OA
BRANCH  23  26
ATOM     26  C   UNL A   1      35.762  30.073  28.321  1.00  0.00     0.039 A 
ATOM     27  C   UNL A   1      36.687  30.115  27.275  1.00  0.00     0.014 A 
ATOM     28  C   UNL A   1      36.128  29.575  29.573  1.00  0.00     0.014 A 
ATOM     29  C   UNL A   1      38.008  29.729  27.513  1.00  0.00     0.010 A 
ATOM     30  C   UNL A   1      37.461  29.280  29.831  1.00  0.00     0.010 A 
ATOM     31  C   UNL A   1      38.414  29.349  28.803  1.00  0.00    -0.014 A 
BRANCH  31  32
ATOM     32  C   UNL A   1      39.825  29.003  29.105  1.00  0.00     0.031 A 
ATOM     33  C   UNL A   1      40.727  30.036  29.726  1.00  0.00     0.074 A 
ATOM     34  C   UNL A   1      40.313  27.800  28.745  1.00  0.00     0.049 A 
ATOM     35  N   UNL A   1      42.010  29.974  29.967  1.00  0.00    -0.248 NA
ATOM     36  C   UNL A   1      40.110  31.324  30.086  1.00  0.00     0.031 C 
ATOM     37  C   UNL A   1      39.554  26.739  28.079  1.00  0.00     0.029 A 
ATOM     38  N   UNL A   1      41.573  27.271  28.875  1.00  0.00    -0.354 N 
ATOM     39  C   UNL A   1      42.357  31.218  30.479  1.00  0.00     0.074 A 
ATOM     40  C   UNL A   1      41.163  32.033  30.461  1.00  0.00     0.031 C 
ATOM     41  C   UNL A   1      40.356  25.679  27.882  1.00  0.00     0.029 A 
ATOM     42  C   UNL A   1      41.693  25.996  28.374  1.00  0.00     0.049 A 
ATOM     43  H   UNL A   1      42.321  27.759  29.289  1.00  0.00     0.167 HD
ATOM     44  C   UNL A   1      43.556  31.637  30.947  1.00  0.00     0.037 A 
ATOM     45  C   UNL A   1      42.760  25.177  28.317  1.00  0.00     0.037 A 
ATOM     46  C   UNL A   1      44.728  30.805  31.008  1.00  0.00     0.049 A 
ATOM     47  C   UNL A   1      44.074  25.649  28.878  1.00  0.00     0.074 A 
ATOM     48  C   UNL A   1      45.972  31.106  31.532  1.00  0.00     0.029 A 
ATOM     49  N   UNL A   1      44.796  29.504  30.533  1.00  0.00    -0.354 N 
ATOM     50  N   UNL A   1      44.370  26.809  29.415  1.00  0.00    -0.248 NA
ATOM     51  C   UNL A   1      45.197  24.703  28.830  1.00  0.00     0.031 C 
ATOM     52  C   UNL A   1      46.803  29.995  31.348  1.00  0.00     0.029 A 
ATOM     53  C   UNL A   1      46.065  28.990  30.742  1.00  0.00     0.049 A 
ATOM     54  H   UNL A   1      44.053  29.017  30.110  1.00  0.00     0.167 HD
ATOM     55  C   UNL A   1      45.706  26.724  29.791  1.00  0.00     0.074 A 
ATOM     56  C   UNL A   1      46.156  25.396  29.430  1.00  0.00     0.031 C 
ATOM     57  C   UNL A   1      46.489  27.661  30.379  1.00  0.00     0.037 A 
BRANCH  44  58
ATOM     58  C   UNL A   1      43.649  33.053  31.445  1.00  0.00     0.058 A 
ATOM     59  C   UNL A   1      43.966  34.116  30.582  1.00  0.00     0.135 A 
ATOM     60  C   UNL A   1      43.411  33.355  32.795  1.00  0.00     0.135 A 
ATOM     61  F   UNL A   1      44.221  33.881  29.286  1.00  0.00    -0.206 F 
ATOM     62  C   UNL A   1      44.082  35.421  31.048  1.00  0.00     0.059 A 
ATOM     63  C   UNL A   1      43.494  34.658  33.276  1.00  0.00     0.059 A 
ATOM     64  F   UNL A   1      43.106  32.377  33.662  1.00  0.00    -0.206 F 
ATOM     65  C   UNL A   1      43.848  35.682  32.399  1.00  0.00     0.060 A 
BRANCH  65  66
ATOM     66  S   UNL A   1      44.011  37.379  32.991  1.00  0.00     0.124 S 
ATOM     67  O   UNL A   1      45.351  37.356  33.570  1.00  0.00    -0.237 OA
ATOM     68  O   UNL A   1      43.865  38.156  31.763  1.00  0.00    -0.237 OA
ATOM     69  O   UNL A   1      42.916  37.512  33.946  1.00  0.00    -0.744 OA
ENDBRANCH  65  66
ENDBRANCH  44  58
BRANCH  45  70
ATOM     70  C   UNL A   1      42.623  23.815  27.736  1.00  0.00     0.058 A 
ATOM     71  C   UNL A   1      42.720  23.613  26.351  1.00  0.00     0.135 A 
ATOM     72  C   UNL A   1      42.415  22.690  28.549  1.00  0.00     0.135 A 
ATOM     73  F   UNL A   1      42.913  24.659  25.534  1.00  0.00    -0.206 F 
ATOM     74  C   UNL A   1      42.602  22.347  25.790  1.00  0.00     0.059 A 
ATOM     75  C   UNL A   1      42.316  21.409  28.012  1.00  0.00     0.059 A 
ATOM     76  F   UNL A   1      42.334  22.829  29.881  1.00  0.00    -0.206 F 
ATOM     77  C   UNL A   1      42.402  21.249  26.629  1.00  0.00     0.060 A 
BRANCH  77  78
ATOM     78  S   UNL A   1      42.304  19.602  25.895  1.00  0.00     0.124 S 
ATOM     79  O   UNL A   1      42.680  18.755  27.021  1.00  0.00    -0.237 OA
ATOM     80  O   UNL A   1      40.905  19.532  25.482  1.00  0.00    -0.237 OA
ATOM     81  O   UNL A   1      43.268  19.666  24.801  1.00  0.00    -0.744 OA
ENDBRANCH  77  78
ENDBRANCH  45  70
BRANCH  57  82
ATOM     82  C   UNL A   1      47.907  27.275  30.695  1.00  0.00     0.058 A 
ATOM     83  C   UNL A   1      48.236  26.602  31.881  1.00  0.00     0.135 A 
ATOM     84  C   UNL A   1      48.935  27.532  29.775  1.00  0.00     0.135 A 
ATOM     85  F   UNL A   1      47.289  26.339  32.795  1.00  0.00    -0.206 F 
ATOM     86  C   UNL A   1      49.543  26.212  32.153  1.00  0.00     0.059 A 
ATOM     87  C   UNL A   1      50.245  27.130  30.015  1.00  0.00     0.059 A 
ATOM     88  F   UNL A   1      48.668  28.164  28.621  1.00  0.00    -0.206 F 
ATOM     89  C   UNL A   1      50.540  26.480  31.213  1.00  0.00     0.060 A 
BRANCH  89  90
ATOM     90  S   UNL A   1      52.226  25.935  31.558  1.00  0.00     0.124 S 
ATOM     91  O   UNL A   1      52.632  26.876  32.597  1.00  0.00    -0.237 OA
ATOM     92  O   UNL A   1      52.028  24.556  31.996  1.00  0.00    -0.237 OA
ATOM     93  O   UNL A   1      52.901  26.086  30.273  1.00  0.00    -0.744 OA
ENDBRANCH  89  90
ENDBRANCH  57  82
ENDBRANCH  31  32
ENDBRANCH  23  26
ENDBRANCH  21  22
ENDBRANCH   1  21
TORSDOF 16
ENDMDL
MODEL 2
REMARK VINA RESULT:     -10.7      1.351      2.170
REMARK SMILES CNC(=O)C[N@H+]1CC[C@@H](C(=O)NCCCCNC(=O)c2ccc(-c3c4nc(c(-c5c(F)cc(S(=O)(=O)[O-])cc5F)c5ccc([nH]5)c(-c5c(F)cc(S(=O)(=O)[O-])cc5F)c5nc(c(-c6c(F)cc(S(=O)(=O)[O-])cc6F)c6ccc3[nH]6)C=C5)C=C4)cc2)[C@H]1C
REMARK SMILES IDX 15 1 14 2 13 3 12 4 10 5 11 6 9 8 6 9 7 10 86 11 8 13 87 14
REMARK SMILES IDX 5 15 3 16 1 17 2 18 4 20 16 21 17 22 18 23 19 25 20 26 21 27
REMARK SMILES IDX 85 28 22 29 84 30 23 31 24 32 25 33 78 34 26 35 83 36 77 37
REMARK SMILES IDX 79 38 27 39 82 40 76 41 75 42 28 44 62 45 41 46 61 47 42 48
REMARK SMILES IDX 45 49 60 50 80 51 43 52 44 53 59 55 81 56 46 57 29 58 30 59
REMARK SMILES IDX 39 60 31 61 32 62 38 63 40 64 33 65 34 66 35 67 36 68 37 69
REMARK SMILES IDX 63 70 64 71 73 72 65 73 66 74 72 75 74 76 67 77 68 78 69 79
REMARK SMILES IDX 70 80 71 81 47 82 48 83 57 84 49 85 50 86 56 87 58 88 51 89
REMARK SMILES IDX 52 90 53 91 54 92 55 93
REMARK H PARENT 12 7 6 12 2 19 17 24 79 43 45 54
REMARK Flexibility Score: inf
ROOT
ATOM      1  C   UNL A   1      33.745  27.870  25.943  1.00  0.00     0.023 C 
ENDROOT
BRANCH   1   2
ATOM      2  C   UNL A   1      33.195  26.512  25.520  1.00  0.00     0.023 C 
BRANCH   2   3
ATOM      3  C   UNL A   1      34.209  25.368  25.533  1.00  0.00     0.116 C 
BRANCH   3   4
ATOM      4  N   UNL A   1      34.359  24.782  24.216  1.00  0.00    -0.356 N 
ATOM      5  C   UNL A   1      34.692  23.523  23.830  1.00  0.00     0.229 C 
ATOM      6  O   UNL A   1      34.826  23.325  22.617  1.00  0.00    -0.275 OA
ATOM      7  H   UNL A   1      34.191  25.404  23.472  1.00  0.00     0.163 HD
BRANCH   5   8
ATOM      8  C   UNL A   1      34.858  22.365  24.804  1.00  0.00     0.142 C 
ATOM      9  N   UNL A   1      34.534  20.019  24.902  1.00  0.00    -0.324 N 
ATOM     10  C   UNL A   1      35.949  20.225  25.093  1.00  0.00     0.263 C 
ATOM     11  C   UNL A   1      33.779  21.268  24.886  1.00  0.00     0.194 C 
ATOM     12  H   UNL A   1      34.139  19.595  25.742  1.00  0.00     0.348 HD
ATOM     13  C   UNL A   1      36.208  21.661  24.688  1.00  0.00     0.081 C 
ATOM     14  C   UNL A   1      32.606  21.355  23.916  1.00  0.00     0.076 C 
BRANCH   9  15
ATOM     15  C   UNL A   1      34.065  18.789  24.293  1.00  0.00     0.363 C 
BRANCH  15  16
ATOM     16  C   UNL A   1      33.315  17.921  25.306  1.00  0.00     0.274 C 
ATOM     17  C   UNL A   1      35.093  16.128  25.271  1.00  0.00     0.143 C 
ATOM     18  N   UNL A   1      33.828  16.702  25.657  1.00  0.00    -0.354 N 
ATOM     19  H   UNL A   1      33.265  16.149  26.245  1.00  0.00     0.163 HD
ATOM     20  O   UNL A   1      32.242  18.273  25.800  1.00  0.00    -0.269 OA
ENDBRANCH  15  16
ENDBRANCH   9  15
ENDBRANCH   5   8
ENDBRANCH   3   4
ENDBRANCH   2   3
ENDBRANCH   1   2
BRANCH   1  21
ATOM     21  C   UNL A   1      33.392  28.294  27.360  1.00  0.00     0.116 C 
BRANCH  21  22
ATOM     22  N   UNL A   1      33.363  29.739  27.531  1.00  0.00    -0.352 N 
ATOM     23  C   UNL A   1      34.358  30.582  27.974  1.00  0.00     0.251 C 
ATOM     24  H   UNL A   1      32.512  30.176  27.296  1.00  0.00     0.163 HD
ATOM     25  O   UNL A   1      34.119  31.762  28.187  1.00  0.00    -0.269 OA
BRANCH  23  26
ATOM     26  C   UNL A   1      35.707  30.030  28.218  1.00  0.00     0.039 A 
ATOM     27  C   UNL A   1      36.643  30.037  27.182  1.00  0.00     0.014 A 
ATOM     28  C   UNL A   1      36.055  29.557  29.485  1.00  0.00     0.014 A 
ATOM     29  C   UNL A   1      37.957  29.644  27.443  1.00  0.00     0.010 A 
ATOM     30  C   UNL A   1      37.381  29.255  29.764  1.00  0.00     0.010 A 
ATOM     31  C   UNL A   1      38.346  29.290  28.746  1.00  0.00    -0.014 A 
BRANCH  31  32
ATOM     32  C   UNL A   1      39.750  28.937  29.071  1.00  0.00     0.031 A 
ATOM     33  C   UNL A   1      40.650  29.969  29.695  1.00  0.00     0.074 A 
ATOM     34  C   UNL A   1      40.235  27.726  28.730  1.00  0.00     0.049 A 
ATOM     35  N   UNL A   1      41.930  29.901  29.955  1.00  0.00    -0.248 NA
ATOM     36  C   UNL A   1      40.038  31.264  30.033  1.00  0.00     0.031 C 
ATOM     37  C   UNL A   1      39.477  26.665  28.063  1.00  0.00     0.029 A 
ATOM     38  N   UNL A   1      41.488  27.190  28.883  1.00  0.00    -0.354 N 
ATOM     39  C   UNL A   1      42.278  31.147  30.459  1.00  0.00     0.074 A 
ATOM     40  C   UNL A   1      41.090  31.970  30.416  1.00  0.00     0.031 C 
ATOM     41  C   UNL A   1      40.273  25.597  27.888  1.00  0.00     0.029 A 
ATOM     42  C   UNL A   1      41.605  25.909  28.396  1.00  0.00     0.049 A 
ATOM     43  H   UNL A   1      42.234  27.676  29.303  1.00  0.00     0.167 HD
ATOM     44  C   UNL A   1      43.474  31.561  30.941  1.00  0.00     0.037 A 
ATOM     45  C   UNL A   1      42.668  25.082  28.362  1.00  0.00     0.037 A 
ATOM     46  C   UNL A   1      44.639  30.722  31.026  1.00  0.00     0.049 A 
ATOM     47  C   UNL A   1      43.976  25.550  28.937  1.00  0.00     0.074 A 
ATOM     48  C   UNL A   1      45.878  31.019  31.564  1.00  0.00     0.029 A 
ATOM     49  N   UNL A   1      44.704  29.415  30.564  1.00  0.00    -0.354 N 
ATOM     50  N   UNL A   1      44.273  26.713  29.467  1.00  0.00    -0.248 NA
ATOM     51  C   UNL A   1      45.093  24.596  28.914  1.00  0.00     0.031 C 
ATOM     52  C   UNL A   1      46.703  29.900  31.403  1.00  0.00     0.029 A 
ATOM     53  C   UNL A   1      45.966  28.894  30.796  1.00  0.00     0.049 A 
ATOM     54  H   UNL A   1      43.963  28.929  30.136  1.00  0.00     0.167 HD
ATOM     55  C   UNL A   1      45.603  26.622  29.862  1.00  0.00     0.074 A 
ATOM     56  C   UNL A   1      46.049  25.287  29.521  1.00  0.00     0.031 C 
ATOM     57  C   UNL A   1      46.385  27.559  30.453  1.00  0.00     0.037 A 
BRANCH  44  58
ATOM     58  C   UNL A   1      43.571  32.982  31.426  1.00  0.00     0.058 A 
ATOM     59  C   UNL A   1      43.845  34.042  30.546  1.00  0.00     0.135 A 
ATOM     60  C   UNL A   1      43.378  33.290  32.782  1.00  0.00     0.135 A 
ATOM     61  F   UNL A   1      44.056  33.801  29.242  1.00  0.00    -0.206 F 
ATOM     62  C   UNL A   1      43.964  35.351  30.999  1.00  0.00     0.059 A 
ATOM     63  C   UNL A   1      43.465  34.597  33.252  1.00  0.00     0.059 A 
ATOM     64  F   UNL A   1      43.115  32.315  33.665  1.00  0.00    -0.206 F 
ATOM     65  C   UNL A   1      43.777  35.618  32.355  1.00  0.00     0.060 A 
BRANCH  65  66
ATOM     66  S   UNL A   1      43.944  37.321  32.931  1.00  0.00     0.124 S 
ATOM     67  O   UNL A   1      42.817  37.427  33.853  1.00  0.00    -0.237 OA
ATOM     68  O   UNL A   1      45.267  37.316  33.548  1.00  0.00    -0.237 OA
ATOM     69  O   UNL A   1      43.830  38.106  31.706  1.00  0.00    -0.744 OA
ENDBRANCH  65  66
ENDBRANCH  44  58
BRANCH  45  70
ATOM     70  C   UNL A   1      42.528  23.715  27.793  1.00  0.00     0.058 A 
ATOM     71  C   UNL A   1      42.552  23.511  26.405  1.00  0.00     0.135 A 
ATOM     72  C   UNL A   1      42.392  22.588  28.617  1.00  0.00     0.135 A 
ATOM     73  F   UNL A   1      42.675  24.558  25.576  1.00  0.00    -0.206 F 
ATOM     74  C   UNL A   1      42.431  22.241  25.853  1.00  0.00     0.059 A 
ATOM     75  C   UNL A   1      42.291  21.305  28.090  1.00  0.00     0.059 A 
ATOM     76  F   UNL A   1      42.382  22.730  29.952  1.00  0.00    -0.206 F 
ATOM     77  C   UNL A   1      42.303  21.142  26.704  1.00  0.00     0.060 A 
BRANCH  77  78
ATOM     78  S   UNL A   1      42.201  19.491  25.980  1.00  0.00     0.124 S 
ATOM     79  O   UNL A   1      42.677  18.658  27.079  1.00  0.00    -0.237 OA
ATOM     80  O   UNL A   1      40.780  19.381  25.664  1.00  0.00    -0.237 OA
ATOM     81  O   UNL A   1      43.086  19.578  24.823  1.00  0.00    -0.744 OA
ENDBRANCH  77  78
ENDBRANCH  45  70
BRANCH  57  82
ATOM     82  C   UNL A   1      47.795  27.166  30.792  1.00  0.00     0.058 A 
ATOM     83  C   UNL A   1      48.135  26.681  32.064  1.00  0.00     0.135 A 
ATOM     84  C   UNL A   1      48.803  27.222  29.817  1.00  0.00     0.135 A 
ATOM     85  F   UNL A   1      47.208  26.614  33.032  1.00  0.00    -0.206 F 
ATOM     86  C   UNL A   1      49.433  26.282  32.363  1.00  0.00     0.059 A 
ATOM     87  C   UNL A   1      50.103  26.806  30.088  1.00  0.00     0.059 A 
ATOM     88  F   UNL A   1      48.525  27.669  28.582  1.00  0.00    -0.206 F 
ATOM     89  C   UNL A   1      50.410  26.348  31.368  1.00  0.00     0.060 A 
BRANCH  89  90
ATOM     90  S   UNL A   1      52.082  25.790  31.756  1.00  0.00     0.124 S 
ATOM     91  O   UNL A   1      52.384  26.576  32.948  1.00  0.00    -0.237 OA
ATOM     92  O   UNL A   1      51.895  24.358  31.972  1.00  0.00    -0.237 OA
ATOM     93  O   UNL A   1      52.843  26.142  30.561  1.00  0.00    -0.744 OA
ENDBRANCH  89  90
ENDBRANCH  57  82
ENDBRANCH  31  32
ENDBRANCH  23  26
ENDBRANCH  21  22
ENDBRANCH   1  21
TORSDOF 16
ENDMDL
MODEL 3
REMARK VINA RESULT:     -10.5      2.619      3.152
REMARK SMILES CNC(=O)C[N@H+]1CC[C@@H](C(=O)NCCCCNC(=O)c2ccc(-c3c4nc(c(-c5c(F)cc(S(=O)(=O)[O-])cc5F)c5ccc([nH]5)c(-c5c(F)cc(S(=O)(=O)[O-])cc5F)c5nc(c(-c6c(F)cc(S(=O)(=O)[O-])cc6F)c6ccc3[nH]6)C=C5)C=C4)cc2)[C@H]1C
REMARK SMILES IDX 15 1 14 2 13 3 12 4 10 5 11 6 9 8 6 9 7 10 86 11 8 13 87 14
REMARK SMILES IDX 5 15 3 16 1 17 2 18 4 20 16 21 17 22 18 23 19 25 20 26 21 27
REMARK SMILES IDX 85 28 22 29 84 30 23 31 24 32 25 33 78 34 26 35 83 36 77 37
REMARK SMILES IDX 79 38 27 39 82 40 76 41 75 42 28 44 62 45 41 46 61 47 42 48
REMARK SMILES IDX 45 49 60 50 80 51 43 52 44 53 59 55 81 56 46 57 29 58 30 59
REMARK SMILES IDX 39 60 31 61 32 62 38 63 40 64 33 65 34 66 35 67 36 68 37 69
REMARK SMILES IDX 63 70 64 71 73 72 65 73 66 74 72 75 74 76 67 77 68 78 69 79
REMARK SMILES IDX 70 80 71 81 47 82 48 83 57 84 49 85 50 86 56 87 58 88 51 89
REMARK SMILES IDX 52 90 53 91 54 92 55 93
REMARK H PARENT 12 7 6 12 2 19 17 24 79 43 45 54
REMARK Flexibility Score: inf
ROOT
ATOM      1  C   UNL A   1      33.322  27.775  26.763  1.00  0.00     0.023 C 
ENDROOT
BRANCH   1   2
ATOM      2  C   UNL A   1      31.801  27.862  26.823  1.00  0.00     0.023 C 
BRANCH   2   3
ATOM      3  C   UNL A   1      31.057  26.752  26.080  1.00  0.00     0.116 C 
BRANCH   3   4
ATOM      4  N   UNL A   1      31.076  25.512  26.830  1.00  0.00    -0.356 N 
ATOM      5  C   UNL A   1      31.445  24.255  26.472  1.00  0.00     0.229 C 
ATOM      6  O   UNL A   1      31.277  23.361  27.308  1.00  0.00    -0.275 OA
ATOM      7  H   UNL A   1      30.767  25.594  27.762  1.00  0.00     0.163 HD
BRANCH   5   8
ATOM      8  C   UNL A   1      32.083  23.920  25.131  1.00  0.00     0.142 C 
ATOM      9  N   UNL A   1      33.947  22.747  24.253  1.00  0.00    -0.324 N 
ATOM     10  C   UNL A   1      32.781  22.076  23.730  1.00  0.00     0.263 C 
ATOM     11  C   UNL A   1      33.616  23.973  24.974  1.00  0.00     0.194 C 
ATOM     12  H   UNL A   1      34.480  23.146  23.481  1.00  0.00     0.348 HD
ATOM     13  C   UNL A   1      31.616  22.588  24.550  1.00  0.00     0.081 C 
ATOM     14  C   UNL A   1      34.443  24.292  26.213  1.00  0.00     0.076 C 
BRANCH   9  15
ATOM     15  C   UNL A   1      35.171  21.999  24.461  1.00  0.00     0.363 C 
BRANCH  15  16
ATOM     16  C   UNL A   1      36.350  22.656  23.739  1.00  0.00     0.274 C 
ATOM     17  C   UNL A   1      37.875  22.397  25.737  1.00  0.00     0.143 C 
ATOM     18  N   UNL A   1      37.528  22.844  24.411  1.00  0.00    -0.354 N 
ATOM     19  H   UNL A   1      38.224  23.347  23.930  1.00  0.00     0.163 HD
ATOM     20  O   UNL A   1      36.267  23.050  22.575  1.00  0.00    -0.269 OA
ENDBRANCH  15  16
ENDBRANCH   9  15
ENDBRANCH   5   8
ENDBRANCH   3   4
ENDBRANCH   2   3
ENDBRANCH   1   2
BRANCH   1  21
ATOM     21  C   UNL A   1      33.994  28.843  25.916  1.00  0.00     0.116 C 
BRANCH  21  22
ATOM     22  N   UNL A   1      33.759  30.193  26.409  1.00  0.00    -0.352 N 
ATOM     23  C   UNL A   1      34.437  30.894  27.380  1.00  0.00     0.251 C 
ATOM     24  H   UNL A   1      33.009  30.672  25.987  1.00  0.00     0.163 HD
ATOM     25  O   UNL A   1      34.019  31.975  27.768  1.00  0.00    -0.269 OA
BRANCH  23  26
ATOM     26  C   UNL A   1      35.658  30.303  27.967  1.00  0.00     0.039 A 
ATOM     27  C   UNL A   1      36.875  30.447  27.296  1.00  0.00     0.014 A 
ATOM     28  C   UNL A   1      35.603  29.656  29.204  1.00  0.00     0.014 A 
ATOM     29  C   UNL A   1      38.052  30.012  27.908  1.00  0.00     0.010 A 
ATOM     30  C   UNL A   1      36.782  29.309  29.849  1.00  0.00     0.010 A 
ATOM     31  C   UNL A   1      38.019  29.477  29.207  1.00  0.00    -0.014 A 
BRANCH  31  32
ATOM     32  C   UNL A   1      39.258  29.072  29.915  1.00  0.00     0.031 A 
ATOM     33  C   UNL A   1      39.679  29.808  31.158  1.00  0.00     0.074 A 
ATOM     34  C   UNL A   1      40.043  28.108  29.395  1.00  0.00     0.049 A 
ATOM     35  N   UNL A   1      40.776  29.687  31.860  1.00  0.00    -0.248 NA
ATOM     36  C   UNL A   1      38.762  30.848  31.655  1.00  0.00     0.031 C 
ATOM     37  C   UNL A   1      39.774  27.366  28.162  1.00  0.00     0.029 A 
ATOM     38  N   UNL A   1      41.239  27.596  29.833  1.00  0.00    -0.354 N 
ATOM     39  C   UNL A   1      40.692  30.648  32.859  1.00  0.00     0.074 A 
ATOM     40  C   UNL A   1      39.466  31.383  32.640  1.00  0.00     0.031 C 
ATOM     41  C   UNL A   1      40.762  26.478  27.955  1.00  0.00     0.029 A 
ATOM     42  C   UNL A   1      41.750  26.611  29.021  1.00  0.00     0.049 A 
ATOM     43  H   UNL A   1      41.688  27.905  30.653  1.00  0.00     0.167 HD
ATOM     44  C   UNL A   1      41.547  30.881  33.883  1.00  0.00     0.037 A 
ATOM     45  C   UNL A   1      42.889  25.899  29.123  1.00  0.00     0.037 A 
ATOM     46  C   UNL A   1      42.739  30.114  34.123  1.00  0.00     0.049 A 
ATOM     47  C   UNL A   1      43.804  26.149  30.290  1.00  0.00     0.074 A 
ATOM     48  C   UNL A   1      43.634  30.218  35.172  1.00  0.00     0.029 A 
ATOM     49  N   UNL A   1      43.199  29.094  33.303  1.00  0.00    -0.354 N 
ATOM     50  N   UNL A   1      43.679  27.022  31.262  1.00  0.00    -0.248 NA
ATOM     51  C   UNL A   1      45.011  25.316  30.379  1.00  0.00     0.031 C 
ATOM     52  C   UNL A   1      44.652  29.279  34.971  1.00  0.00     0.029 A 
ATOM     53  C   UNL A   1      44.371  28.566  33.816  1.00  0.00     0.049 A 
ATOM     54  H   UNL A   1      42.757  28.790  32.477  1.00  0.00     0.167 HD
ATOM     55  C   UNL A   1      44.779  26.827  32.090  1.00  0.00     0.074 A 
ATOM     56  C   UNL A   1      45.551  25.747  31.512  1.00  0.00     0.031 C 
ATOM     57  C   UNL A   1      45.120  27.485  33.226  1.00  0.00     0.037 A 
BRANCH  44  58
ATOM     58  C   UNL A   1      41.207  32.002  34.826  1.00  0.00     0.058 A 
ATOM     59  C   UNL A   1      41.742  33.290  34.660  1.00  0.00     0.135 A 
ATOM     60  C   UNL A   1      40.331  31.791  35.903  1.00  0.00     0.135 A 
ATOM     61  F   UNL A   1      42.598  33.543  33.658  1.00  0.00    -0.206 F 
ATOM     62  C   UNL A   1      41.451  34.319  35.550  1.00  0.00     0.059 A 
ATOM     63  C   UNL A   1      40.005  32.814  36.789  1.00  0.00     0.059 A 
ATOM     64  F   UNL A   1      39.793  30.579  36.109  1.00  0.00    -0.206 F 
ATOM     65  C   UNL A   1      40.584  34.069  36.614  1.00  0.00     0.060 A 
BRANCH  65  66
ATOM     66  S   UNL A   1      40.224  35.411  37.767  1.00  0.00     0.124 S 
ATOM     67  O   UNL A   1      41.496  35.537  38.471  1.00  0.00    -0.237 OA
ATOM     68  O   UNL A   1      39.886  36.513  36.870  1.00  0.00    -0.237 OA
ATOM     69  O   UNL A   1      39.115  34.890  38.559  1.00  0.00    -0.744 OA
ENDBRANCH  65  66
ENDBRANCH  44  58
BRANCH  45  70
ATOM     70  C   UNL A   1      43.209  24.859  28.110  1.00  0.00     0.058 A 
ATOM     71  C   UNL A   1      43.898  25.192  26.933  1.00  0.00     0.135 A 
ATOM     72  C   UNL A   1      42.856  23.514  28.303  1.00  0.00     0.135 A 
ATOM     73  F   UNL A   1      44.252  26.465  26.703  1.00  0.00    -0.206 F 
ATOM     74  C   UNL A   1      44.213  24.233  25.977  1.00  0.00     0.059 A 
ATOM     75  C   UNL A   1      43.180  22.533  27.371  1.00  0.00     0.059 A 
ATOM     76  F   UNL A   1      42.212  23.143  29.419  1.00  0.00    -0.206 F 
ATOM     77  C   UNL A   1      43.852  22.904  26.205  1.00  0.00     0.060 A 
BRANCH  77  78
ATOM     78  S   UNL A   1      44.314  21.657  24.984  1.00  0.00     0.124 S 
ATOM     79  O   UNL A   1      44.153  22.394  23.736  1.00  0.00    -0.237 OA
ATOM     80  O   UNL A   1      45.688  21.345  25.368  1.00  0.00    -0.237 OA
ATOM     81  O   UNL A   1      43.350  20.587  25.216  1.00  0.00    -0.744 OA
ENDBRANCH  77  78
ENDBRANCH  45  70
BRANCH  57  82
ATOM     82  C   UNL A   1      46.368  27.038  33.933  1.00  0.00     0.058 A 
ATOM     83  C   UNL A   1      46.338  26.021  34.899  1.00  0.00     0.135 A 
ATOM     84  C   UNL A   1      47.612  27.595  33.601  1.00  0.00     0.135 A 
ATOM     85  F   UNL A   1      45.171  25.461  35.256  1.00  0.00    -0.206 F 
ATOM     86  C   UNL A   1      47.500  25.582  35.525  1.00  0.00     0.059 A 
ATOM     87  C   UNL A   1      48.790  27.155  34.196  1.00  0.00     0.059 A 
ATOM     88  F   UNL A   1      47.694  28.564  32.675  1.00  0.00    -0.206 F 
ATOM     89  C   UNL A   1      48.721  26.156  35.165  1.00  0.00     0.060 A 
BRANCH  89  90
ATOM     90  S   UNL A   1      50.228  25.551  35.956  1.00  0.00     0.124 S 
ATOM     91  O   UNL A   1      50.189  24.133  35.615  1.00  0.00    -0.237 OA
ATOM     92  O   UNL A   1      51.267  26.333  35.292  1.00  0.00    -0.237 OA
ATOM     93  O   UNL A   1      50.021  25.866  37.366  1.00  0.00    -0.744 OA
ENDBRANCH  89  90
ENDBRANCH  57  82
ENDBRANCH  31  32
ENDBRANCH  23  26
ENDBRANCH  21  22
ENDBRANCH   1  21
TORSDOF 16
ENDMDL
