MODEL 1
REMARK VINA RESULT:     -12.1      0.000      0.000
REMARK SMILES [NH3+]Cc1ccc(C(=O)N2[C@@H](C(=O)NCCCCNC(=O)c3ccc(-c4c5nc(c(-c6c(F)cc(S(=O)(=O)[O-])cc6F)c6ccc([nH]6)c(-c6c(F)cc(S(=O)(=O)[O-])cc6F)c6nc(c(-c7c(F)cc(S(=O)(=O)[O-])cc7F)c7ccc4[nH]7)C=C6)C=C5)cc3)C[C@H]3CCCC[C@@H]32)o1
REMARK SMILES IDX 15 1 14 2 13 3 11 4 12 5 10 7 9 8 93 9 87 10 88 11 92 12
REMARK SMILES IDX 89 13 91 14 90 15 7 16 8 17 6 18 3 19 4 20 94 21 5 22 2 23
REMARK SMILES IDX 1 24 16 28 17 29 18 30 19 31 20 33 21 34 22 35 86 36 23 37
REMARK SMILES IDX 85 38 24 39 25 40 26 41 79 42 27 43 84 44 78 45 80 46 28 47
REMARK SMILES IDX 83 48 77 49 76 50 29 52 63 53 42 54 62 55 43 56 46 57 61 58
REMARK SMILES IDX 81 59 44 60 45 61 60 63 82 64 47 65 30 66 31 67 40 68 32 69
REMARK SMILES IDX 33 70 39 71 41 72 34 73 35 74 36 75 37 76 38 77 64 78 65 79
REMARK SMILES IDX 74 80 66 81 67 82 73 83 75 84 68 85 69 86 70 87 71 88 72 89
REMARK SMILES IDX 48 90 49 91 58 92 50 93 51 94 57 95 59 96 52 97 53 98 54 99
REMARK SMILES IDX 55 100 56 101
REMARK H PARENT 13 6 1 25 1 26 1 27 18 32 80 51 46 62
REMARK Flexibility Score: inf
ROOT
ATOM      1  C   UNL A   1      36.051  23.410  25.687  1.00  0.00     0.023 C 
ENDROOT
BRANCH   1   2
ATOM      2  C   UNL A   1      35.181  24.620  25.382  1.00  0.00     0.116 C 
BRANCH   2   3
ATOM      3  N   UNL A   1      34.750  24.749  24.000  1.00  0.00    -0.354 N 
ATOM      4  C   UNL A   1      33.827  25.614  23.456  1.00  0.00     0.242 C 
ATOM      5  O   UNL A   1      33.693  25.601  22.230  1.00  0.00    -0.273 OA
ATOM      6  H   UNL A   1      35.178  24.131  23.364  1.00  0.00     0.163 HD
BRANCH   4   7
ATOM      7  C   UNL A   1      32.908  26.473  24.379  1.00  0.00     0.175 C 
ATOM      8  N   UNL A   1      31.537  25.915  24.528  1.00  0.00    -0.321 N 
ATOM      9  C   UNL A   1      30.612  26.636  23.675  1.00  0.00     0.089 C 
ATOM     10  C   UNL A   1      32.647  27.865  23.769  1.00  0.00     0.041 C 
ATOM     11  C   UNL A   1      31.149  28.053  23.855  1.00  0.00     0.014 C 
ATOM     12  C   UNL A   1      29.120  26.668  24.013  1.00  0.00     0.025 C 
ATOM     13  C   UNL A   1      30.547  29.012  22.852  1.00  0.00     0.006 C 
ATOM     14  C   UNL A   1      28.390  27.687  23.119  1.00  0.00     0.002 C 
ATOM     15  C   UNL A   1      29.041  29.075  23.088  1.00  0.00     0.000 C 
BRANCH   8  16
ATOM     16  C   UNL A   1      31.116  24.871  25.338  1.00  0.00     0.290 C 
ATOM     17  O   UNL A   1      30.623  25.103  26.446  1.00  0.00    -0.265 OA
BRANCH  16  18
ATOM     18  C   UNL A   1      31.513  23.522  24.942  1.00  0.00     0.192 A 
ATOM     19  C   UNL A   1      32.678  21.648  25.198  1.00  0.00     0.159 A 
ATOM     20  C   UNL A   1      32.183  21.626  23.913  1.00  0.00     0.052 A 
ATOM     21  O   UNL A   1      32.257  22.781  25.835  1.00  0.00    -0.450 OA
ATOM     22  C   UNL A   1      31.464  22.831  23.742  1.00  0.00     0.057 A 
BRANCH  19  23
ATOM     23  C   UNL A   1      33.598  20.726  25.924  1.00  0.00     0.335 C 
BRANCH  23  24
ATOM     24  N   UNL A   1      32.971  19.462  26.298  1.00  0.00    -0.351 N 
ATOM     25  H   UNL A   1      32.383  19.134  25.531  1.00  0.00     0.344 HD
ATOM     26  H   UNL A   1      32.399  19.599  27.130  1.00  0.00     0.344 HD
ATOM     27  H   UNL A   1      33.693  18.768  26.492  1.00  0.00     0.344 HD
ENDBRANCH  23  24
ENDBRANCH  19  23
ENDBRANCH  16  18
ENDBRANCH   8  16
ENDBRANCH   4   7
ENDBRANCH   2   3
ENDBRANCH   1   2
BRANCH   1  28
ATOM     28  C   UNL A   1      37.532  23.541  25.351  1.00  0.00     0.023 C 
BRANCH  28  29
ATOM     29  C   UNL A   1      38.446  23.967  26.497  1.00  0.00     0.116 C 
BRANCH  29  30
ATOM     30  N   UNL A   1      39.863  23.912  26.165  1.00  0.00    -0.352 N 
ATOM     31  C   UNL A   1      40.895  24.738  26.551  1.00  0.00     0.251 C 
ATOM     32  H   UNL A   1      40.124  23.168  25.574  1.00  0.00     0.163 HD
ATOM     33  O   UNL A   1      42.011  24.584  26.059  1.00  0.00    -0.269 OA
BRANCH  31  34
ATOM     34  C   UNL A   1      40.656  25.830  27.521  1.00  0.00     0.039 A 
ATOM     35  C   UNL A   1      39.676  25.663  28.503  1.00  0.00     0.014 A 
ATOM     36  C   UNL A   1      41.408  27.006  27.479  1.00  0.00     0.014 A 
ATOM     37  C   UNL A   1      39.516  26.635  29.494  1.00  0.00     0.010 A 
ATOM     38  C   UNL A   1      41.312  27.928  28.520  1.00  0.00     0.010 A 
ATOM     39  C   UNL A   1      40.366  27.752  29.542  1.00  0.00    -0.014 A 
BRANCH  39  40
ATOM     40  C   UNL A   1      40.283  28.744  30.648  1.00  0.00     0.031 A 
ATOM     41  C   UNL A   1      41.158  28.597  31.864  1.00  0.00     0.074 A 
ATOM     42  C   UNL A   1      39.377  29.741  30.585  1.00  0.00     0.049 A 
ATOM     43  N   UNL A   1      41.182  29.318  32.957  1.00  0.00    -0.248 NA
ATOM     44  C   UNL A   1      42.115  27.478  31.866  1.00  0.00     0.031 C 
ATOM     45  C   UNL A   1      38.433  29.961  29.486  1.00  0.00     0.029 A 
ATOM     46  N   UNL A   1      39.093  30.755  31.468  1.00  0.00    -0.354 N 
ATOM     47  C   UNL A   1      42.151  28.742  33.770  1.00  0.00     0.074 A 
ATOM     48  C   UNL A   1      42.640  27.570  33.078  1.00  0.00     0.031 C 
ATOM     49  C   UNL A   1      37.691  31.049  29.751  1.00  0.00     0.029 A 
ATOM     50  C   UNL A   1      38.076  31.583  31.053  1.00  0.00     0.049 A 
ATOM     51  H   UNL A   1      39.573  30.876  32.319  1.00  0.00     0.167 HD
ATOM     52  C   UNL A   1      42.616  29.167  34.969  1.00  0.00     0.037 A 
ATOM     53  C   UNL A   1      37.507  32.646  31.657  1.00  0.00     0.037 A 
ATOM     54  C   UNL A   1      42.134  30.341  35.650  1.00  0.00     0.049 A 
ATOM     55  C   UNL A   1      38.028  33.088  33.001  1.00  0.00     0.074 A 
ATOM     56  C   UNL A   1      42.561  30.873  36.853  1.00  0.00     0.029 A 
ATOM     57  N   UNL A   1      41.120  31.166  35.185  1.00  0.00    -0.354 N 
ATOM     58  N   UNL A   1      38.987  32.563  33.727  1.00  0.00    -0.248 NA
ATOM     59  C   UNL A   1      37.398  34.271  33.602  1.00  0.00     0.031 C 
ATOM     60  C   UNL A   1      41.776  31.994  37.139  1.00  0.00     0.029 A 
ATOM     61  C   UNL A   1      40.898  32.195  36.086  1.00  0.00     0.049 A 
ATOM     62  H   UNL A   1      40.631  31.040  34.341  1.00  0.00     0.167 HD
ATOM     63  C   UNL A   1      39.095  33.371  34.855  1.00  0.00     0.074 A 
ATOM     64  C   UNL A   1      38.115  34.427  34.707  1.00  0.00     0.031 C 
ATOM     65  C   UNL A   1      39.929  33.249  35.917  1.00  0.00     0.037 A 
BRANCH  52  66
ATOM     66  C   UNL A   1      43.718  28.368  35.613  1.00  0.00     0.058 A 
ATOM     67  C   UNL A   1      45.069  28.613  35.315  1.00  0.00     0.135 A 
ATOM     68  C   UNL A   1      43.428  27.379  36.565  1.00  0.00     0.135 A 
ATOM     69  F   UNL A   1      45.404  29.536  34.400  1.00  0.00    -0.206 F 
ATOM     70  C   UNL A   1      46.091  27.887  35.918  1.00  0.00     0.059 A 
ATOM     71  C   UNL A   1      44.437  26.661  37.204  1.00  0.00     0.059 A 
ATOM     72  F   UNL A   1      42.155  27.101  36.889  1.00  0.00    -0.206 F 
ATOM     73  C   UNL A   1      45.764  26.914  36.863  1.00  0.00     0.060 A 
BRANCH  73  74
ATOM     74  S   UNL A   1      47.106  25.992  37.642  1.00  0.00     0.124 S 
ATOM     75  O   UNL A   1      48.155  27.004  37.709  1.00  0.00    -0.237 OA
ATOM     76  O   UNL A   1      46.517  25.605  38.920  1.00  0.00    -0.237 OA
ATOM     77  O   UNL A   1      47.351  24.895  36.710  1.00  0.00    -0.744 OA
ENDBRANCH  73  74
ENDBRANCH  52  66
BRANCH  53  78
ATOM     78  C   UNL A   1      36.387  33.374  30.999  1.00  0.00     0.058 A 
ATOM     79  C   UNL A   1      36.606  34.179  29.872  1.00  0.00     0.135 A 
ATOM     80  C   UNL A   1      35.076  33.290  31.494  1.00  0.00     0.135 A 
ATOM     81  F   UNL A   1      37.841  34.296  29.361  1.00  0.00    -0.206 F 
ATOM     82  C   UNL A   1      35.574  34.898  29.276  1.00  0.00     0.059 A 
ATOM     83  C   UNL A   1      34.021  33.976  30.898  1.00  0.00     0.059 A 
ATOM     84  F   UNL A   1      34.806  32.519  32.560  1.00  0.00    -0.206 F 
ATOM     85  C   UNL A   1      34.285  34.790  29.799  1.00  0.00     0.060 A 
BRANCH  85  86
ATOM     86  S   UNL A   1      32.948  35.711  29.005  1.00  0.00     0.124 S 
ATOM     87  O   UNL A   1      33.683  36.777  28.336  1.00  0.00    -0.237 OA
ATOM     88  O   UNL A   1      32.354  34.700  28.135  1.00  0.00    -0.237 OA
ATOM     89  O   UNL A   1      32.114  36.127  30.130  1.00  0.00    -0.744 OA
ENDBRANCH  85  86
ENDBRANCH  53  78
BRANCH  65  90
ATOM     90  C   UNL A   1      39.857  34.309  36.982  1.00  0.00     0.058 A 
ATOM     91  C   UNL A   1      40.521  35.539  36.850  1.00  0.00     0.135 A 
ATOM     92  C   UNL A   1      39.068  34.110  38.127  1.00  0.00     0.135 A 
ATOM     93  F   UNL A   1      41.293  35.780  35.779  1.00  0.00    -0.206 F 
ATOM     94  C   UNL A   1      40.424  36.525  37.827  1.00  0.00     0.059 A 
ATOM     95  C   UNL A   1      38.931  35.093  39.101  1.00  0.00     0.059 A 
ATOM     96  F   UNL A   1      38.403  32.956  38.297  1.00  0.00    -0.206 F 
ATOM     97  C   UNL A   1      39.623  36.293  38.948  1.00  0.00     0.060 A 
BRANCH  97  98
ATOM     98  S   UNL A   1      39.478  37.595  40.191  1.00  0.00     0.124 S 
ATOM     99  O   UNL A   1      38.520  38.498  39.560  1.00  0.00    -0.237 OA
ATOM    100  O   UNL A   1      38.987  36.861  41.354  1.00  0.00    -0.237 OA
ATOM    101  O   UNL A   1      40.840  38.107  40.309  1.00  0.00    -0.744 OA
ENDBRANCH  97  98
ENDBRANCH  65  90
ENDBRANCH  39  40
ENDBRANCH  31  34
ENDBRANCH  29  30
ENDBRANCH  28  29
ENDBRANCH   1  28
TORSDOF 18
ENDMDL
MODEL 2
REMARK VINA RESULT:     -12.0      0.977      2.105
REMARK SMILES [NH3+]Cc1ccc(C(=O)N2[C@@H](C(=O)NCCCCNC(=O)c3ccc(-c4c5nc(c(-c6c(F)cc(S(=O)(=O)[O-])cc6F)c6ccc([nH]6)c(-c6c(F)cc(S(=O)(=O)[O-])cc6F)c6nc(c(-c7c(F)cc(S(=O)(=O)[O-])cc7F)c7ccc4[nH]7)C=C6)C=C5)cc3)C[C@H]3CCCC[C@@H]32)o1
REMARK SMILES IDX 15 1 14 2 13 3 11 4 12 5 10 7 9 8 93 9 87 10 88 11 92 12
REMARK SMILES IDX 89 13 91 14 90 15 7 16 8 17 6 18 3 19 4 20 94 21 5 22 2 23
REMARK SMILES IDX 1 24 16 28 17 29 18 30 19 31 20 33 21 34 22 35 86 36 23 37
REMARK SMILES IDX 85 38 24 39 25 40 26 41 79 42 27 43 84 44 78 45 80 46 28 47
REMARK SMILES IDX 83 48 77 49 76 50 29 52 63 53 42 54 62 55 43 56 46 57 61 58
REMARK SMILES IDX 81 59 44 60 45 61 60 63 82 64 47 65 30 66 31 67 40 68 32 69
REMARK SMILES IDX 33 70 39 71 41 72 34 73 35 74 36 75 37 76 38 77 64 78 65 79
REMARK SMILES IDX 74 80 66 81 67 82 73 83 75 84 68 85 69 86 70 87 71 88 72 89
REMARK SMILES IDX 48 90 49 91 58 92 50 93 51 94 57 95 59 96 52 97 53 98 54 99
REMARK SMILES IDX 55 100 56 101
REMARK H PARENT 13 6 1 25 1 26 1 27 18 32 80 51 46 62
REMARK Flexibility Score: inf
ROOT
ATOM      1  C   UNL A   1      38.153  23.769  26.209  1.00  0.00     0.023 C 
ENDROOT
BRANCH   1   2
ATOM      2  C   UNL A   1      36.729  23.252  26.068  1.00  0.00     0.116 C 
BRANCH   2   3
ATOM      3  N   UNL A   1      36.178  23.293  24.724  1.00  0.00    -0.354 N 
ATOM      4  C   UNL A   1      35.099  24.006  24.250  1.00  0.00     0.242 C 
ATOM      5  O   UNL A   1      34.873  23.951  23.039  1.00  0.00    -0.273 OA
ATOM      6  H   UNL A   1      36.640  22.733  24.060  1.00  0.00     0.163 HD
BRANCH   4   7
ATOM      7  C   UNL A   1      34.139  24.738  25.238  1.00  0.00     0.175 C 
ATOM      8  N   UNL A   1      32.734  24.256  25.159  1.00  0.00    -0.321 N 
ATOM      9  C   UNL A   1      31.933  25.184  24.383  1.00  0.00     0.089 C 
ATOM     10  C   UNL A   1      34.009  26.234  24.886  1.00  0.00     0.041 C 
ATOM     11  C   UNL A   1      32.521  26.503  24.877  1.00  0.00     0.014 C 
ATOM     12  C   UNL A   1      30.419  25.254  24.591  1.00  0.00     0.025 C 
ATOM     13  C   UNL A   1      32.069  27.671  24.028  1.00  0.00     0.006 C 
ATOM     14  C   UNL A   1      29.831  26.468  23.849  1.00  0.00     0.002 C 
ATOM     15  C   UNL A   1      30.552  27.791  24.142  1.00  0.00     0.000 C 
BRANCH   8  16
ATOM     16  C   UNL A   1      32.184  23.111  25.714  1.00  0.00     0.290 C 
ATOM     17  O   UNL A   1      31.931  23.064  26.922  1.00  0.00    -0.265 OA
BRANCH  16  18
ATOM     18  C   UNL A   1      32.164  21.912  24.881  1.00  0.00     0.192 A 
ATOM     19  C   UNL A   1      32.447  19.734  24.540  1.00  0.00     0.159 A 
ATOM     20  C   UNL A   1      32.375  20.317  23.295  1.00  0.00     0.052 A 
ATOM     21  O   UNL A   1      32.297  20.690  25.505  1.00  0.00    -0.450 OA
ATOM     22  C   UNL A   1      32.221  21.705  23.511  1.00  0.00     0.057 A 
BRANCH  19  23
ATOM     23  C   UNL A   1      32.718  18.332  24.966  1.00  0.00     0.335 C 
BRANCH  23  24
ATOM     24  N   UNL A   1      32.785  18.172  26.416  1.00  0.00    -0.351 N 
ATOM     25  H   UNL A   1      33.680  17.756  26.671  1.00  0.00     0.344 HD
ATOM     26  H   UNL A   1      32.027  17.566  26.726  1.00  0.00     0.344 HD
ATOM     27  H   UNL A   1      32.694  19.085  26.863  1.00  0.00     0.344 HD
ENDBRANCH  23  24
ENDBRANCH  19  23
ENDBRANCH  16  18
ENDBRANCH   8  16
ENDBRANCH   4   7
ENDBRANCH   2   3
ENDBRANCH   1   2
BRANCH   1  28
ATOM     28  C   UNL A   1      39.225  22.725  26.499  1.00  0.00     0.023 C 
BRANCH  28  29
ATOM     29  C   UNL A   1      40.581  23.261  26.950  1.00  0.00     0.116 C 
BRANCH  29  30
ATOM     30  N   UNL A   1      41.261  24.059  25.938  1.00  0.00    -0.352 N 
ATOM     31  C   UNL A   1      41.702  25.361  25.988  1.00  0.00     0.251 C 
ATOM     32  H   UNL A   1      41.431  23.593  25.087  1.00  0.00     0.163 HD
ATOM     33  O   UNL A   1      42.152  25.888  24.972  1.00  0.00    -0.269 OA
BRANCH  31  34
ATOM     34  C   UNL A   1      41.602  26.138  27.243  1.00  0.00     0.039 A 
ATOM     35  C   UNL A   1      42.572  27.103  27.524  1.00  0.00     0.014 A 
ATOM     36  C   UNL A   1      40.545  25.933  28.133  1.00  0.00     0.014 A 
ATOM     37  C   UNL A   1      42.431  27.922  28.648  1.00  0.00     0.010 A 
ATOM     38  C   UNL A   1      40.356  26.810  29.199  1.00  0.00     0.010 A 
ATOM     39  C   UNL A   1      41.296  27.817  29.468  1.00  0.00    -0.014 A 
BRANCH  39  40
ATOM     40  C   UNL A   1      41.074  28.749  30.608  1.00  0.00     0.031 A 
ATOM     41  C   UNL A   1      41.901  28.624  31.860  1.00  0.00     0.074 A 
ATOM     42  C   UNL A   1      40.089  29.667  30.538  1.00  0.00     0.049 A 
ATOM     43  N   UNL A   1      41.810  29.295  32.979  1.00  0.00    -0.248 NA
ATOM     44  C   UNL A   1      42.950  27.590  31.865  1.00  0.00     0.031 C 
ATOM     45  C   UNL A   1      39.182  29.854  29.402  1.00  0.00     0.029 A 
ATOM     46  N   UNL A   1      39.677  30.613  31.444  1.00  0.00    -0.354 N 
ATOM     47  C   UNL A   1      42.786  28.768  33.818  1.00  0.00     0.074 A 
ATOM     48  C   UNL A   1      43.407  27.674  33.106  1.00  0.00     0.031 C 
ATOM     49  C   UNL A   1      38.338  30.863  29.672  1.00  0.00     0.029 A 
ATOM     50  C   UNL A   1      38.612  31.370  31.012  1.00  0.00     0.049 A 
ATOM     51  H   UNL A   1      40.104  30.738  32.323  1.00  0.00     0.167 HD
ATOM     52  C   UNL A   1      43.155  29.178  35.055  1.00  0.00     0.037 A 
ATOM     53  C   UNL A   1      37.926  32.354  31.628  1.00  0.00     0.037 A 
ATOM     54  C   UNL A   1      42.542  30.277  35.756  1.00  0.00     0.049 A 
ATOM     55  C   UNL A   1      38.342  32.779  33.012  1.00  0.00     0.074 A 
ATOM     56  C   UNL A   1      42.864  30.790  36.999  1.00  0.00     0.029 A 
ATOM     57  N   UNL A   1      41.483  31.033  35.273  1.00  0.00    -0.354 N 
ATOM     58  N   UNL A   1      39.308  32.306  33.765  1.00  0.00    -0.248 NA
ATOM     59  C   UNL A   1      37.584  33.877  33.627  1.00  0.00     0.031 C 
ATOM     60  C   UNL A   1      41.971  31.827  37.289  1.00  0.00     0.029 A 
ATOM     61  C   UNL A   1      41.130  31.999  36.201  1.00  0.00     0.049 A 
ATOM     62  H   UNL A   1      41.047  30.902  34.401  1.00  0.00     0.167 HD
ATOM     63  C   UNL A   1      39.292  33.070  34.928  1.00  0.00     0.074 A 
ATOM     64  C   UNL A   1      38.232  34.045  34.772  1.00  0.00     0.031 C 
ATOM     65  C   UNL A   1      40.083  32.973  36.025  1.00  0.00     0.037 A 
BRANCH  52  66
ATOM     66  C   UNL A   1      44.290  28.449  35.721  1.00  0.00     0.058 A 
ATOM     67  C   UNL A   1      44.064  27.312  36.517  1.00  0.00     0.135 A 
ATOM     68  C   UNL A   1      45.620  28.858  35.532  1.00  0.00     0.135 A 
ATOM     69  F   UNL A   1      42.812  26.885  36.745  1.00  0.00    -0.206 F 
ATOM     70  C   UNL A   1      45.112  26.627  37.123  1.00  0.00     0.059 A 
ATOM     71  C   UNL A   1      46.687  28.168  36.104  1.00  0.00     0.059 A 
ATOM     72  F   UNL A   1      45.896  29.937  34.782  1.00  0.00    -0.206 F 
ATOM     73  C   UNL A   1      46.420  27.062  36.909  1.00  0.00     0.060 A 
BRANCH  73  74
ATOM     74  S   UNL A   1      47.765  26.151  37.695  1.00  0.00     0.124 S 
ATOM     75  O   UNL A   1      47.036  25.087  38.377  1.00  0.00    -0.237 OA
ATOM     76  O   UNL A   1      48.570  25.734  36.550  1.00  0.00    -0.237 OA
ATOM     77  O   UNL A   1      48.386  27.145  38.566  1.00  0.00    -0.744 OA
ENDBRANCH  73  74
ENDBRANCH  52  66
BRANCH  53  78
ATOM     78  C   UNL A   1      36.779  33.012  30.943  1.00  0.00     0.058 A 
ATOM     79  C   UNL A   1      35.454  32.713  31.294  1.00  0.00     0.135 A 
ATOM     80  C   UNL A   1      36.984  33.944  29.913  1.00  0.00     0.135 A 
ATOM     81  F   UNL A   1      35.203  31.826  32.269  1.00  0.00    -0.206 F 
ATOM     82  C   UNL A   1      34.375  33.288  30.630  1.00  0.00     0.059 A 
ATOM     83  C   UNL A   1      35.922  34.556  29.254  1.00  0.00     0.059 A 
ATOM     84  F   UNL A   1      38.232  34.281  29.549  1.00  0.00    -0.206 F 
ATOM     85  C   UNL A   1      34.620  34.208  29.610  1.00  0.00     0.060 A 
BRANCH  85  86
ATOM     86  S   UNL A   1      33.213  34.967  28.770  1.00  0.00     0.124 S 
ATOM     87  O   UNL A   1      32.779  33.887  27.892  1.00  0.00    -0.237 OA
ATOM     88  O   UNL A   1      32.323  35.282  29.884  1.00  0.00    -0.237 OA
ATOM     89  O   UNL A   1      33.804  36.124  28.104  1.00  0.00    -0.744 OA
ENDBRANCH  85  86
ENDBRANCH  53  78
BRANCH  65  90
ATOM     90  C   UNL A   1      39.869  33.976  37.126  1.00  0.00     0.058 A 
ATOM     91  C   UNL A   1      39.041  33.704  38.227  1.00  0.00     0.135 A 
ATOM     92  C   UNL A   1      40.547  35.206  37.105  1.00  0.00     0.135 A 
ATOM     93  F   UNL A   1      38.365  32.545  38.295  1.00  0.00    -0.206 F 
ATOM     94  C   UNL A   1      38.873  34.625  39.255  1.00  0.00     0.059 A 
ATOM     95  C   UNL A   1      40.418  36.130  38.137  1.00  0.00     0.059 A 
ATOM     96  F   UNL A   1      41.360  35.512  36.082  1.00  0.00    -0.206 F 
ATOM     97  C   UNL A   1      39.569  35.835  39.202  1.00  0.00     0.060 A 
BRANCH  97  98
ATOM     98  S   UNL A   1      39.369  37.007  40.561  1.00  0.00     0.124 S 
ATOM     99  O   UNL A   1      38.644  38.093  39.908  1.00  0.00    -0.237 OA
ATOM    100  O   UNL A   1      38.606  36.229  41.533  1.00  0.00    -0.237 OA
ATOM    101  O   UNL A   1      40.742  37.315  40.951  1.00  0.00    -0.744 OA
ENDBRANCH  97  98
ENDBRANCH  65  90
ENDBRANCH  39  40
ENDBRANCH  31  34
ENDBRANCH  29  30
ENDBRANCH  28  29
ENDBRANCH   1  28
TORSDOF 18
ENDMDL
MODEL 3
REMARK VINA RESULT:     -12.0      6.691     11.622
REMARK SMILES [NH3+]Cc1ccc(C(=O)N2[C@@H](C(=O)NCCCCNC(=O)c3ccc(-c4c5nc(c(-c6c(F)cc(S(=O)(=O)[O-])cc6F)c6ccc([nH]6)c(-c6c(F)cc(S(=O)(=O)[O-])cc6F)c6nc(c(-c7c(F)cc(S(=O)(=O)[O-])cc7F)c7ccc4[nH]7)C=C6)C=C5)cc3)C[C@H]3CCCC[C@@H]32)o1
REMARK SMILES IDX 15 1 14 2 13 3 11 4 12 5 10 7 9 8 93 9 87 10 88 11 92 12
REMARK SMILES IDX 89 13 91 14 90 15 7 16 8 17 6 18 3 19 4 20 94 21 5 22 2 23
REMARK SMILES IDX 1 24 16 28 17 29 18 30 19 31 20 33 21 34 22 35 86 36 23 37
REMARK SMILES IDX 85 38 24 39 25 40 26 41 79 42 27 43 84 44 78 45 80 46 28 47
REMARK SMILES IDX 83 48 77 49 76 50 29 52 63 53 42 54 62 55 43 56 46 57 61 58
REMARK SMILES IDX 81 59 44 60 45 61 60 63 82 64 47 65 30 66 31 67 40 68 32 69
REMARK SMILES IDX 33 70 39 71 41 72 34 73 35 74 36 75 37 76 38 77 64 78 65 79
REMARK SMILES IDX 74 80 66 81 67 82 73 83 75 84 68 85 69 86 70 87 71 88 72 89
REMARK SMILES IDX 48 90 49 91 58 92 50 93 51 94 57 95 59 96 52 97 53 98 54 99
REMARK SMILES IDX 55 100 56 101
REMARK H PARENT 13 6 1 25 1 26 1 27 18 32 80 51 46 62
REMARK Flexibility Score: inf
ROOT
ATOM      1  C   UNL A   1      34.510  29.052  27.323  1.00  0.00     0.023 C 
ENDROOT
BRANCH   1   2
ATOM      2  C   UNL A   1      33.665  28.480  26.194  1.00  0.00     0.116 C 
BRANCH   2   3
ATOM      3  N   UNL A   1      32.598  27.582  26.604  1.00  0.00    -0.354 N 
ATOM      4  C   UNL A   1      32.478  26.225  26.400  1.00  0.00     0.242 C 
ATOM      5  O   UNL A   1      31.519  25.657  26.925  1.00  0.00    -0.273 OA
ATOM      6  H   UNL A   1      31.857  28.003  27.097  1.00  0.00     0.163 HD
BRANCH   4   7
ATOM      7  C   UNL A   1      33.453  25.482  25.434  1.00  0.00     0.175 C 
ATOM      8  N   UNL A   1      32.793  24.993  24.194  1.00  0.00    -0.321 N 
ATOM      9  C   UNL A   1      32.520  23.572  24.305  1.00  0.00     0.089 C 
ATOM     10  C   UNL A   1      33.991  24.186  26.072  1.00  0.00     0.041 C 
ATOM     11  C   UNL A   1      33.793  23.122  25.016  1.00  0.00     0.014 C 
ATOM     12  C   UNL A   1      32.375  22.716  23.046  1.00  0.00     0.025 C 
ATOM     13  C   UNL A   1      33.679  21.702  25.526  1.00  0.00     0.006 C 
ATOM     14  C   UNL A   1      32.340  21.222  23.414  1.00  0.00     0.002 C 
ATOM     15  C   UNL A   1      33.486  20.774  24.330  1.00  0.00     0.000 C 
BRANCH   8  16
ATOM     16  C   UNL A   1      32.457  25.710  23.057  1.00  0.00     0.290 C 
ATOM     17  O   UNL A   1      33.301  25.917  22.180  1.00  0.00    -0.265 OA
BRANCH  16  18
ATOM     18  C   UNL A   1      31.176  26.410  23.067  1.00  0.00     0.192 A 
ATOM     19  C   UNL A   1      29.888  28.186  22.713  1.00  0.00     0.159 A 
ATOM     20  C   UNL A   1      29.164  27.335  23.517  1.00  0.00     0.052 A 
ATOM     21  O   UNL A   1      31.098  27.623  22.418  1.00  0.00    -0.450 OA
ATOM     22  C   UNL A   1      29.992  26.216  23.764  1.00  0.00     0.057 A 
BRANCH  19  23
ATOM     23  C   UNL A   1      29.605  29.562  22.214  1.00  0.00     0.335 C 
BRANCH  23  24
ATOM     24  N   UNL A   1      30.720  30.148  21.475  1.00  0.00    -0.351 N 
ATOM     25  H   UNL A   1      31.436  30.459  22.132  1.00  0.00     0.344 HD
ATOM     26  H   UNL A   1      30.387  30.944  20.933  1.00  0.00     0.344 HD
ATOM     27  H   UNL A   1      31.116  29.450  20.846  1.00  0.00     0.344 HD
ENDBRANCH  23  24
ENDBRANCH  19  23
ENDBRANCH  16  18
ENDBRANCH   8  16
ENDBRANCH   4   7
ENDBRANCH   2   3
ENDBRANCH   1   2
BRANCH   1  28
ATOM     28  C   UNL A   1      34.568  30.572  27.420  1.00  0.00     0.023 C 
BRANCH  28  29
ATOM     29  C   UNL A   1      35.649  31.147  28.331  1.00  0.00     0.116 C 
BRANCH  29  30
ATOM     30  N   UNL A   1      35.576  30.662  29.703  1.00  0.00    -0.352 N 
ATOM     31  C   UNL A   1      36.548  30.088  30.491  1.00  0.00     0.251 C 
ATOM     32  H   UNL A   1      34.696  30.760  30.132  1.00  0.00     0.163 HD
ATOM     33  O   UNL A   1      36.246  29.638  31.594  1.00  0.00    -0.269 OA
BRANCH  31  34
ATOM     34  C   UNL A   1      37.940  29.980  30.002  1.00  0.00     0.039 A 
ATOM     35  C   UNL A   1      38.980  29.871  30.929  1.00  0.00     0.014 A 
ATOM     36  C   UNL A   1      38.223  29.963  28.634  1.00  0.00     0.014 A 
ATOM     37  C   UNL A   1      40.287  29.655  30.484  1.00  0.00     0.010 A 
ATOM     38  C   UNL A   1      39.509  29.655  28.195  1.00  0.00     0.010 A 
ATOM     39  C   UNL A   1      40.556  29.494  29.115  1.00  0.00    -0.014 A 
BRANCH  39  40
ATOM     40  C   UNL A   1      41.922  29.158  28.628  1.00  0.00     0.031 A 
ATOM     41  C   UNL A   1      42.254  27.748  28.219  1.00  0.00     0.074 A 
ATOM     42  C   UNL A   1      42.878  30.109  28.611  1.00  0.00     0.049 A 
ATOM     43  N   UNL A   1      43.401  27.248  27.835  1.00  0.00    -0.248 NA
ATOM     44  C   UNL A   1      41.161  26.763  28.275  1.00  0.00     0.031 C 
ATOM     45  C   UNL A   1      42.698  31.501  29.033  1.00  0.00     0.029 A 
ATOM     46  N   UNL A   1      44.197  30.051  28.231  1.00  0.00    -0.354 N 
ATOM     47  C   UNL A   1      43.168  25.897  27.604  1.00  0.00     0.074 A 
ATOM     48  C   UNL A   1      41.790  25.640  27.961  1.00  0.00     0.031 C 
ATOM     49  C   UNL A   1      43.854  32.165  28.870  1.00  0.00     0.029 A 
ATOM     50  C   UNL A   1      44.868  31.243  28.370  1.00  0.00     0.049 A 
ATOM     51  H   UNL A   1      44.622  29.230  27.890  1.00  0.00     0.167 HD
ATOM     52  C   UNL A   1      44.013  24.962  27.108  1.00  0.00     0.037 A 
ATOM     53  C   UNL A   1      46.158  31.558  28.135  1.00  0.00     0.037 A 
ATOM     54  C   UNL A   1      45.381  25.225  26.742  1.00  0.00     0.049 A 
ATOM     55  C   UNL A   1      47.084  30.495  27.603  1.00  0.00     0.074 A 
ATOM     56  C   UNL A   1      46.309  24.353  26.202  1.00  0.00     0.029 A 
ATOM     57  N   UNL A   1      46.015  26.451  26.876  1.00  0.00    -0.354 N 
ATOM     58  N   UNL A   1      46.827  29.237  27.335  1.00  0.00    -0.248 NA
ATOM     59  C   UNL A   1      48.471  30.897  27.331  1.00  0.00     0.031 C 
ATOM     60  C   UNL A   1      47.518  25.039  26.051  1.00  0.00     0.029 A 
ATOM     61  C   UNL A   1      47.328  26.355  26.443  1.00  0.00     0.049 A 
ATOM     62  H   UNL A   1      45.595  27.269  27.227  1.00  0.00     0.167 HD
ATOM     63  C   UNL A   1      48.012  28.706  26.834  1.00  0.00     0.074 A 
ATOM     64  C   UNL A   1      48.980  29.783  26.822  1.00  0.00     0.031 C 
ATOM     65  C   UNL A   1      48.275  27.441  26.422  1.00  0.00     0.037 A 
BRANCH  52  66
ATOM     66  C   UNL A   1      43.474  23.570  26.911  1.00  0.00     0.058 A 
ATOM     67  C   UNL A   1      43.103  23.101  25.639  1.00  0.00     0.135 A 
ATOM     68  C   UNL A   1      43.366  22.680  27.991  1.00  0.00     0.135 A 
ATOM     69  F   UNL A   1      43.170  23.914  24.573  1.00  0.00    -0.206 F 
ATOM     70  C   UNL A   1      42.618  21.812  25.451  1.00  0.00     0.059 A 
ATOM     71  C   UNL A   1      42.912  21.374  27.821  1.00  0.00     0.059 A 
ATOM     72  F   UNL A   1      43.706  23.073  29.229  1.00  0.00    -0.206 F 
ATOM     73  C   UNL A   1      42.528  20.955  26.548  1.00  0.00     0.060 A 
BRANCH  73  74
ATOM     74  S   UNL A   1      41.908  19.281  26.280  1.00  0.00     0.124 S 
ATOM     75  O   UNL A   1      40.468  19.513  26.206  1.00  0.00    -0.237 OA
ATOM     76  O   UNL A   1      42.553  18.907  25.025  1.00  0.00    -0.237 OA
ATOM     77  O   UNL A   1      42.367  18.554  27.459  1.00  0.00    -0.744 OA
ENDBRANCH  73  74
ENDBRANCH  52  66
BRANCH  53  78
ATOM     78  C   UNL A   1      46.653  32.939  28.391  1.00  0.00     0.058 A 
ATOM     79  C   UNL A   1      46.623  33.920  27.389  1.00  0.00     0.135 A 
ATOM     80  C   UNL A   1      47.179  33.302  29.641  1.00  0.00     0.135 A 
ATOM     81  F   UNL A   1      46.134  33.624  26.175  1.00  0.00    -0.206 F 
ATOM     82  C   UNL A   1      47.124  35.200  27.604  1.00  0.00     0.059 A 
ATOM     83  C   UNL A   1      47.659  34.585  29.891  1.00  0.00     0.059 A 
ATOM     84  F   UNL A   1      47.214  32.408  30.643  1.00  0.00    -0.206 F 
ATOM     85  C   UNL A   1      47.641  35.522  28.860  1.00  0.00     0.060 A 
BRANCH  85  86
ATOM     86  S   UNL A   1      48.269  37.193  29.137  1.00  0.00     0.124 S 
ATOM     87  O   UNL A   1      47.147  38.006  28.683  1.00  0.00    -0.237 OA
ATOM     88  O   UNL A   1      48.517  37.193  30.576  1.00  0.00    -0.237 OA
ATOM     89  O   UNL A   1      49.466  37.244  28.302  1.00  0.00    -0.744 OA
ENDBRANCH  85  86
ENDBRANCH  53  78
BRANCH  65  90
ATOM     90  C   UNL A   1      49.648  27.159  25.875  1.00  0.00     0.058 A 
ATOM     91  C   UNL A   1      50.690  26.692  26.692  1.00  0.00     0.135 A 
ATOM     92  C   UNL A   1      49.908  27.308  24.503  1.00  0.00     0.135 A 
ATOM     93  F   UNL A   1      50.497  26.538  28.012  1.00  0.00    -0.206 F 
ATOM     94  C   UNL A   1      51.948  26.407  26.172  1.00  0.00     0.059 A 
ATOM     95  C   UNL A   1      51.149  26.998  23.956  1.00  0.00     0.059 A 
ATOM     96  F   UNL A   1      48.944  27.741  23.675  1.00  0.00    -0.206 F 
ATOM     97  C   UNL A   1      52.167  26.560  24.801  1.00  0.00     0.060 A 
BRANCH  97  98
ATOM     98  S   UNL A   1      53.794  26.151  24.134  1.00  0.00     0.124 S 
ATOM     99  O   UNL A   1      54.069  24.877  24.790  1.00  0.00    -0.237 OA
ATOM    100  O   UNL A   1      53.534  26.083  22.699  1.00  0.00    -0.237 OA
ATOM    101  O   UNL A   1      54.629  27.270  24.561  1.00  0.00    -0.744 OA
ENDBRANCH  97  98
ENDBRANCH  65  90
ENDBRANCH  39  40
ENDBRANCH  31  34
ENDBRANCH  29  30
ENDBRANCH  28  29
ENDBRANCH   1  28
TORSDOF 18
ENDMDL
