MODEL 1
REMARK VINA RESULT:     -11.0      0.000      0.000
REMARK SMILES O=C(CCCC(=O)Nc1ccc(C(=O)N2CCOCC2)cc1)NCCCCNC(=O)c1ccc(-c2c3nc(c(-c4c(F)cc(S(=O)(=O)[O-])cc4F)c4ccc([nH]4)c(-c4c(F)cc(S(=O)(=O)[O-])cc4F)c4nc(c(-c5c(F)cc(S(=O)(=O)[O-])cc5F)c5ccc2[nH]5)C=C4)C=C3)cc1
REMARK SMILES IDX 24 1 23 2 1 3 2 4 3 6 4 7 5 8 6 9 7 10 8 11 9 13 10 14 22 15
REMARK SMILES IDX 11 16 21 17 12 18 13 19 14 20 15 21 16 22 20 23 17 24 19 25
REMARK SMILES IDX 18 26 25 27 26 28 27 29 28 30 29 31 30 33 31 34 32 35 96 36
REMARK SMILES IDX 33 37 95 38 34 39 35 40 36 41 89 42 37 43 94 44 88 45 90 46
REMARK SMILES IDX 38 47 93 48 87 49 86 50 39 52 73 53 52 54 72 55 53 56 56 57
REMARK SMILES IDX 71 58 91 59 54 60 55 61 70 63 92 64 57 65 40 66 41 67 50 68
REMARK SMILES IDX 42 69 43 70 49 71 51 72 44 73 45 74 46 75 47 76 48 77 74 78
REMARK SMILES IDX 75 79 84 80 76 81 77 82 83 83 85 84 78 85 79 86 80 87 81 88
REMARK SMILES IDX 82 89 58 90 59 91 68 92 60 93 61 94 67 95 69 96 62 97 63 98
REMARK SMILES IDX 64 99 65 100 66 101
REMARK H PARENT 23 5 8 12 28 32 90 51 56 62
REMARK Flexibility Score: inf
ROOT
ATOM      1  C   UNL A   1      34.312  25.673  25.734  1.00  0.00     0.116 C 
ENDROOT
BRANCH   1   2
ATOM      2  N   UNL A   1      34.412  24.458  24.948  1.00  0.00    -0.356 N 
ATOM      3  O   UNL A   1      36.526  23.987  25.644  1.00  0.00    -0.275 OA
ATOM      4  C   UNL A   1      35.527  23.660  25.008  1.00  0.00     0.220 C 
ATOM      5  H   UNL A   1      33.666  24.202  24.360  1.00  0.00     0.163 HD
BRANCH   4   6
ATOM      6  C   UNL A   1      35.541  22.407  24.141  1.00  0.00     0.100 C 
BRANCH   6   7
ATOM      7  C   UNL A   1      35.094  21.036  24.670  1.00  0.00     0.020 C 
BRANCH   7   8
ATOM      8  C   UNL A   1      34.059  20.895  25.783  1.00  0.00     0.101 C 
BRANCH   8   9
ATOM      9  C   UNL A   1      32.636  20.384  25.497  1.00  0.00     0.224 C 
ATOM     10  O   UNL A   1      32.438  19.185  25.297  1.00  0.00    -0.275 OA
ATOM     11  N   UNL A   1      31.558  21.206  25.722  1.00  0.00    -0.326 N 
ATOM     12  H   UNL A   1      30.826  20.814  26.250  1.00  0.00     0.169 HD
BRANCH  11  13
ATOM     13  C   UNL A   1      31.365  22.523  25.301  1.00  0.00     0.041 A 
ATOM     14  C   UNL A   1      31.449  22.841  23.950  1.00  0.00     0.027 A 
ATOM     15  C   UNL A   1      31.074  23.528  26.208  1.00  0.00     0.027 A 
ATOM     16  C   UNL A   1      30.977  24.088  23.506  1.00  0.00     0.016 A 
ATOM     17  C   UNL A   1      30.604  24.771  25.765  1.00  0.00     0.016 A 
ATOM     18  C   UNL A   1      30.452  25.033  24.406  1.00  0.00     0.040 A 
BRANCH  18  19
ATOM     19  C   UNL A   1      29.568  26.111  23.832  1.00  0.00     0.254 C 
ATOM     20  O   UNL A   1      28.363  26.060  24.085  1.00  0.00    -0.269 OA
ATOM     21  N   UNL A   1      30.123  27.247  23.249  1.00  0.00    -0.334 N 
ATOM     22  C   UNL A   1      31.067  27.277  22.133  1.00  0.00     0.148 C 
ATOM     23  C   UNL A   1      29.444  28.533  23.447  1.00  0.00     0.148 C 
ATOM     24  C   UNL A   1      32.068  28.418  22.340  1.00  0.00     0.181 C 
ATOM     25  C   UNL A   1      30.461  29.683  23.531  1.00  0.00     0.181 C 
ATOM     26  O   UNL A   1      31.372  29.674  22.416  1.00  0.00    -0.378 OA
ENDBRANCH  18  19
ENDBRANCH  11  13
ENDBRANCH   8   9
ENDBRANCH   7   8
ENDBRANCH   6   7
ENDBRANCH   4   6
ENDBRANCH   1   2
BRANCH   1  27
ATOM     27  C   UNL A   1      33.592  26.822  25.027  1.00  0.00     0.023 C 
BRANCH  27  28
ATOM     28  C   UNL A   1      33.841  28.223  25.593  1.00  0.00     0.023 C 
BRANCH  28  29
ATOM     29  C   UNL A   1      33.665  28.361  27.100  1.00  0.00     0.116 C 
BRANCH  29  30
ATOM     30  N   UNL A   1      33.553  29.746  27.524  1.00  0.00    -0.352 N 
ATOM     31  C   UNL A   1      34.458  30.551  28.176  1.00  0.00     0.251 C 
ATOM     32  H   UNL A   1      32.695  30.177  27.309  1.00  0.00     0.163 HD
ATOM     33  O   UNL A   1      34.096  31.653  28.578  1.00  0.00    -0.269 OA
BRANCH  31  34
ATOM     34  C   UNL A   1      35.847  30.095  28.418  1.00  0.00     0.039 A 
ATOM     35  C   UNL A   1      36.751  30.106  27.350  1.00  0.00     0.014 A 
ATOM     36  C   UNL A   1      36.261  29.635  29.669  1.00  0.00     0.014 A 
ATOM     37  C   UNL A   1      38.077  29.717  27.553  1.00  0.00     0.010 A 
ATOM     38  C   UNL A   1      37.603  29.324  29.890  1.00  0.00     0.010 A 
ATOM     39  C   UNL A   1      38.526  29.359  28.834  1.00  0.00    -0.014 A 
BRANCH  39  40
ATOM     40  C   UNL A   1      39.953  29.022  29.089  1.00  0.00     0.031 A 
ATOM     41  C   UNL A   1      40.894  30.060  29.639  1.00  0.00     0.074 A 
ATOM     42  C   UNL A   1      40.415  27.798  28.765  1.00  0.00     0.049 A 
ATOM     43  N   UNL A   1      42.182  29.978  29.852  1.00  0.00    -0.248 NA
ATOM     44  C   UNL A   1      40.315  31.373  29.969  1.00  0.00     0.031 C 
ATOM     45  C   UNL A   1      39.616  26.718  28.181  1.00  0.00     0.029 A 
ATOM     46  N   UNL A   1      41.674  27.257  28.865  1.00  0.00    -0.354 N 
ATOM     47  C   UNL A   1      42.569  31.225  30.330  1.00  0.00     0.074 A 
ATOM     48  C   UNL A   1      41.390  32.063  30.322  1.00  0.00     0.031 C 
ATOM     49  C   UNL A   1      40.397  25.644  27.992  1.00  0.00     0.029 A 
ATOM     50  C   UNL A   1      41.761  25.967  28.398  1.00  0.00     0.049 A 
ATOM     51  H   UNL A   1      42.442  27.750  29.234  1.00  0.00     0.167 HD
ATOM     52  C   UNL A   1      43.790  31.628  30.758  1.00  0.00     0.037 A 
ATOM     53  C   UNL A   1      42.820  25.139  28.296  1.00  0.00     0.037 A 
ATOM     54  C   UNL A   1      44.957  30.784  30.779  1.00  0.00     0.049 A 
ATOM     55  C   UNL A   1      44.169  25.613  28.769  1.00  0.00     0.074 A 
ATOM     56  C   UNL A   1      46.227  31.084  31.240  1.00  0.00     0.029 A 
ATOM     57  N   UNL A   1      44.998  29.475  30.321  1.00  0.00    -0.354 N 
ATOM     58  N   UNL A   1      44.504  26.777  29.274  1.00  0.00    -0.248 NA
ATOM     59  C   UNL A   1      45.282  24.659  28.668  1.00  0.00     0.031 C 
ATOM     60  C   UNL A   1      47.048  29.973  31.017  1.00  0.00     0.029 A 
ATOM     61  C   UNL A   1      46.277  28.961  30.468  1.00  0.00     0.049 A 
ATOM     62  H   UNL A   1      44.232  28.984  29.945  1.00  0.00     0.167 HD
ATOM     63  C   UNL A   1      45.858  26.685  29.574  1.00  0.00     0.074 A 
ATOM     64  C   UNL A   1      46.277  25.348  29.209  1.00  0.00     0.031 C 
ATOM     65  C   UNL A   1      46.680  27.624  30.107  1.00  0.00     0.037 A 
BRANCH  52  66
ATOM     66  C   UNL A   1      43.927  33.046  31.245  1.00  0.00     0.058 A 
ATOM     67  C   UNL A   1      43.719  33.385  32.593  1.00  0.00     0.135 A 
ATOM     68  C   UNL A   1      44.309  34.073  30.367  1.00  0.00     0.135 A 
ATOM     69  F   UNL A   1      43.339  32.447  33.476  1.00  0.00    -0.206 F 
ATOM     70  C   UNL A   1      43.855  34.693  33.045  1.00  0.00     0.059 A 
ATOM     71  C   UNL A   1      44.480  35.384  30.803  1.00  0.00     0.059 A 
ATOM     72  F   UNL A   1      44.521  33.808  29.068  1.00  0.00    -0.206 F 
ATOM     73  C   UNL A   1      44.237  35.686  32.142  1.00  0.00     0.060 A 
BRANCH  73  74
ATOM     74  S   UNL A   1      44.414  37.378  32.747  1.00  0.00     0.124 S 
ATOM     75  O   UNL A   1      43.409  37.415  33.806  1.00  0.00    -0.237 OA
ATOM     76  O   UNL A   1      45.803  37.406  33.191  1.00  0.00    -0.237 OA
ATOM     77  O   UNL A   1      44.117  38.193  31.574  1.00  0.00    -0.744 OA
ENDBRANCH  73  74
ENDBRANCH  52  66
BRANCH  53  78
ATOM     78  C   UNL A   1      42.644  23.774  27.732  1.00  0.00     0.058 A 
ATOM     79  C   UNL A   1      42.452  22.664  28.568  1.00  0.00     0.135 A 
ATOM     80  C   UNL A   1      42.652  23.553  26.346  1.00  0.00     0.135 A 
ATOM     81  F   UNL A   1      42.442  22.822  29.900  1.00  0.00    -0.206 F 
ATOM     82  C   UNL A   1      42.293  21.382  28.052  1.00  0.00     0.059 A 
ATOM     83  C   UNL A   1      42.468  22.285  25.805  1.00  0.00     0.059 A 
ATOM     84  F   UNL A   1      42.814  24.584  25.501  1.00  0.00    -0.206 F 
ATOM     85  C   UNL A   1      42.299  21.203  26.668  1.00  0.00     0.060 A 
BRANCH  85  86
ATOM     86  S   UNL A   1      42.043  19.541  26.007  1.00  0.00     0.124 S 
ATOM     87  O   UNL A   1      42.860  19.575  24.801  1.00  0.00    -0.237 OA
ATOM     88  O   UNL A   1      42.537  18.701  27.093  1.00  0.00    -0.237 OA
ATOM     89  O   UNL A   1      40.599  19.487  25.792  1.00  0.00    -0.744 OA
ENDBRANCH  85  86
ENDBRANCH  53  78
BRANCH  65  90
ATOM     90  C   UNL A   1      48.109  27.231  30.362  1.00  0.00     0.058 A 
ATOM     91  C   UNL A   1      49.109  27.398  29.391  1.00  0.00     0.135 A 
ATOM     92  C   UNL A   1      48.493  26.729  31.617  1.00  0.00     0.135 A 
ATOM     93  F   UNL A   1      48.795  27.868  28.173  1.00  0.00    -0.206 F 
ATOM     94  C   UNL A   1      50.433  27.060  29.645  1.00  0.00     0.059 A 
ATOM     95  C   UNL A   1      49.817  26.411  31.903  1.00  0.00     0.059 A 
ATOM     96  F   UNL A   1      47.579  26.558  32.585  1.00  0.00    -0.206 F 
ATOM     97  C   UNL A   1      50.779  26.570  30.907  1.00  0.00     0.060 A 
BRANCH  97  98
ATOM     98  S   UNL A   1      52.508  26.166  31.235  1.00  0.00     0.124 S 
ATOM     99  O   UNL A   1      53.074  26.180  29.890  1.00  0.00    -0.237 OA
ATOM    100  O   UNL A   1      52.922  27.261  32.109  1.00  0.00    -0.237 OA
ATOM    101  O   UNL A   1      52.436  24.856  31.874  1.00  0.00    -0.744 OA
ENDBRANCH  97  98
ENDBRANCH  65  90
ENDBRANCH  39  40
ENDBRANCH  31  34
ENDBRANCH  29  30
ENDBRANCH  28  29
ENDBRANCH  27  28
ENDBRANCH   1  27
TORSDOF 19
ENDMDL
MODEL 2
REMARK VINA RESULT:     -10.9      2.775      4.966
REMARK SMILES O=C(CCCC(=O)Nc1ccc(C(=O)N2CCOCC2)cc1)NCCCCNC(=O)c1ccc(-c2c3nc(c(-c4c(F)cc(S(=O)(=O)[O-])cc4F)c4ccc([nH]4)c(-c4c(F)cc(S(=O)(=O)[O-])cc4F)c4nc(c(-c5c(F)cc(S(=O)(=O)[O-])cc5F)c5ccc2[nH]5)C=C4)C=C3)cc1
REMARK SMILES IDX 24 1 23 2 1 3 2 4 3 6 4 7 5 8 6 9 7 10 8 11 9 13 10 14 22 15
REMARK SMILES IDX 11 16 21 17 12 18 13 19 14 20 15 21 16 22 20 23 17 24 19 25
REMARK SMILES IDX 18 26 25 27 26 28 27 29 28 30 29 31 30 33 31 34 32 35 96 36
REMARK SMILES IDX 33 37 95 38 34 39 35 40 36 41 89 42 37 43 94 44 88 45 90 46
REMARK SMILES IDX 38 47 93 48 87 49 86 50 39 52 73 53 52 54 72 55 53 56 56 57
REMARK SMILES IDX 71 58 91 59 54 60 55 61 70 63 92 64 57 65 40 66 41 67 50 68
REMARK SMILES IDX 42 69 43 70 49 71 51 72 44 73 45 74 46 75 47 76 48 77 74 78
REMARK SMILES IDX 75 79 84 80 76 81 77 82 83 83 85 84 78 85 79 86 80 87 81 88
REMARK SMILES IDX 82 89 58 90 59 91 68 92 60 93 61 94 67 95 69 96 62 97 63 98
REMARK SMILES IDX 64 99 65 100 66 101
REMARK H PARENT 23 5 8 12 28 32 90 51 56 62
REMARK Flexibility Score: inf
ROOT
ATOM      1  C   UNL A   1      34.015  31.888  27.975  1.00  0.00     0.116 C 
ENDROOT
BRANCH   1   2
ATOM      2  N   UNL A   1      33.729  30.467  27.985  1.00  0.00    -0.356 N 
ATOM      3  O   UNL A   1      32.279  30.579  26.236  1.00  0.00    -0.275 OA
ATOM      4  C   UNL A   1      32.898  29.899  27.052  1.00  0.00     0.220 C 
ATOM      5  H   UNL A   1      34.140  29.898  28.676  1.00  0.00     0.163 HD
BRANCH   4   6
ATOM      6  C   UNL A   1      32.654  28.398  27.148  1.00  0.00     0.100 C 
BRANCH   6   7
ATOM      7  C   UNL A   1      31.817  27.633  26.112  1.00  0.00     0.020 C 
BRANCH   7   8
ATOM      8  C   UNL A   1      32.182  27.614  24.630  1.00  0.00     0.101 C 
BRANCH   8   9
ATOM      9  C   UNL A   1      31.132  27.310  23.547  1.00  0.00     0.224 C 
ATOM     10  O   UNL A   1      30.196  28.088  23.359  1.00  0.00    -0.275 OA
ATOM     11  N   UNL A   1      31.373  26.325  22.620  1.00  0.00    -0.326 N 
ATOM     12  H   UNL A   1      31.230  26.580  21.680  1.00  0.00     0.169 HD
BRANCH  11  13
ATOM     13  C   UNL A   1      31.795  25.012  22.835  1.00  0.00     0.041 A 
ATOM     14  C   UNL A   1      33.013  24.579  22.323  1.00  0.00     0.027 A 
ATOM     15  C   UNL A   1      31.025  24.125  23.569  1.00  0.00     0.027 A 
ATOM     16  C   UNL A   1      33.560  23.368  22.777  1.00  0.00     0.016 A 
ATOM     17  C   UNL A   1      31.571  22.917  24.021  1.00  0.00     0.016 A 
ATOM     18  C   UNL A   1      32.883  22.567  23.716  1.00  0.00     0.040 A 
BRANCH  18  19
ATOM     19  C   UNL A   1      33.705  21.562  24.480  1.00  0.00     0.254 C 
ATOM     20  O   UNL A   1      33.360  20.379  24.427  1.00  0.00    -0.269 OA
ATOM     21  N   UNL A   1      34.938  21.917  25.020  1.00  0.00    -0.334 N 
ATOM     22  C   UNL A   1      35.192  23.003  25.965  1.00  0.00     0.148 C 
ATOM     23  C   UNL A   1      36.019  20.924  25.001  1.00  0.00     0.148 C 
ATOM     24  C   UNL A   1      36.546  23.648  25.654  1.00  0.00     0.181 C 
ATOM     25  C   UNL A   1      37.385  21.603  24.809  1.00  0.00     0.181 C 
ATOM     26  O   UNL A   1      37.592  22.667  25.757  1.00  0.00    -0.378 OA
ENDBRANCH  18  19
ENDBRANCH  11  13
ENDBRANCH   8   9
ENDBRANCH   7   8
ENDBRANCH   6   7
ENDBRANCH   4   6
ENDBRANCH   1   2
BRANCH   1  27
ATOM     27  C   UNL A   1      35.488  32.232  27.752  1.00  0.00     0.023 C 
BRANCH  27  28
ATOM     28  C   UNL A   1      36.027  33.434  28.533  1.00  0.00     0.023 C 
BRANCH  28  29
ATOM     29  C   UNL A   1      36.898  33.094  29.736  1.00  0.00     0.116 C 
BRANCH  29  30
ATOM     30  N   UNL A   1      36.286  32.102  30.605  1.00  0.00    -0.352 N 
ATOM     31  C   UNL A   1      36.680  30.819  30.904  1.00  0.00     0.251 C 
ATOM     32  H   UNL A   1      35.459  32.396  31.050  1.00  0.00     0.163 HD
ATOM     33  O   UNL A   1      35.925  30.096  31.546  1.00  0.00    -0.269 OA
BRANCH  31  34
ATOM     34  C   UNL A   1      37.988  30.297  30.440  1.00  0.00     0.039 A 
ATOM     35  C   UNL A   1      38.193  30.128  29.067  1.00  0.00     0.014 A 
ATOM     36  C   UNL A   1      38.999  29.947  31.338  1.00  0.00     0.014 A 
ATOM     37  C   UNL A   1      39.426  29.673  28.595  1.00  0.00     0.010 A 
ATOM     38  C   UNL A   1      40.254  29.570  30.864  1.00  0.00     0.010 A 
ATOM     39  C   UNL A   1      40.482  29.426  29.487  1.00  0.00    -0.014 A 
BRANCH  39  40
ATOM     40  C   UNL A   1      41.828  29.021  28.999  1.00  0.00     0.031 A 
ATOM     41  C   UNL A   1      42.932  30.037  28.877  1.00  0.00     0.074 A 
ATOM     42  C   UNL A   1      42.038  27.748  28.606  1.00  0.00     0.049 A 
ATOM     43  N   UNL A   1      44.142  29.891  28.401  1.00  0.00    -0.248 NA
ATOM     44  C   UNL A   1      42.628  31.405  29.327  1.00  0.00     0.031 C 
ATOM     45  C   UNL A   1      41.037  26.679  28.630  1.00  0.00     0.029 A 
ATOM     46  N   UNL A   1      43.157  27.139  28.093  1.00  0.00    -0.354 N 
ATOM     47  C   UNL A   1      44.738  31.144  28.483  1.00  0.00     0.074 A 
ATOM     48  C   UNL A   1      43.739  32.052  29.004  1.00  0.00     0.031 C 
ATOM     49  C   UNL A   1      41.591  25.546  28.171  1.00  0.00     0.029 A 
ATOM     50  C   UNL A   1      42.972  25.813  27.780  1.00  0.00     0.049 A 
ATOM     51  H   UNL A   1      44.012  27.609  27.962  1.00  0.00     0.167 HD
ATOM     52  C   UNL A   1      46.008  31.501  28.177  1.00  0.00     0.037 A 
ATOM     53  C   UNL A   1      43.811  24.915  27.228  1.00  0.00     0.037 A 
ATOM     54  C   UNL A   1      47.005  30.589  27.675  1.00  0.00     0.049 A 
ATOM     55  C   UNL A   1      45.215  25.338  26.886  1.00  0.00     0.074 A 
ATOM     56  C   UNL A   1      48.332  30.843  27.381  1.00  0.00     0.029 A 
ATOM     57  N   UNL A   1      46.783  29.249  27.394  1.00  0.00    -0.354 N 
ATOM     58  N   UNL A   1      45.780  26.514  27.026  1.00  0.00    -0.248 NA
ATOM     59  C   UNL A   1      46.100  24.311  26.319  1.00  0.00     0.031 C 
ATOM     60  C   UNL A   1      48.902  29.669  26.877  1.00  0.00     0.029 A 
ATOM     61  C   UNL A   1      47.945  28.668  26.909  1.00  0.00     0.049 A 
ATOM     62  H   UNL A   1      45.927  28.780  27.519  1.00  0.00     0.167 HD
ATOM     63  C   UNL A   1      47.091  26.361  26.591  1.00  0.00     0.074 A 
ATOM     64  C   UNL A   1      47.241  24.976  26.196  1.00  0.00     0.031 C 
ATOM     65  C   UNL A   1      48.082  27.285  26.526  1.00  0.00     0.037 A 
BRANCH  52  66
ATOM     66  C   UNL A   1      46.398  32.941  28.380  1.00  0.00     0.058 A 
ATOM     67  C   UNL A   1      46.237  33.898  27.363  1.00  0.00     0.135 A 
ATOM     68  C   UNL A   1      46.902  33.381  29.614  1.00  0.00     0.135 A 
ATOM     69  F   UNL A   1      45.773  33.532  26.158  1.00  0.00    -0.206 F 
ATOM     70  C   UNL A   1      46.589  35.230  27.554  1.00  0.00     0.059 A 
ATOM     71  C   UNL A   1      47.233  34.715  29.838  1.00  0.00     0.059 A 
ATOM     72  F   UNL A   1      47.077  32.511  30.622  1.00  0.00    -0.206 F 
ATOM     73  C   UNL A   1      47.086  35.629  28.795  1.00  0.00     0.060 A 
BRANCH  73  74
ATOM     74  S   UNL A   1      47.532  37.363  29.027  1.00  0.00     0.124 S 
ATOM     75  O   UNL A   1      47.831  37.398  30.455  1.00  0.00    -0.237 OA
ATOM     76  O   UNL A   1      48.679  37.511  28.136  1.00  0.00    -0.237 OA
ATOM     77  O   UNL A   1      46.330  38.082  28.620  1.00  0.00    -0.744 OA
ENDBRANCH  73  74
ENDBRANCH  52  66
BRANCH  53  78
ATOM     78  C   UNL A   1      43.349  23.524  26.973  1.00  0.00     0.058 A 
ATOM     79  C   UNL A   1      43.115  23.066  25.668  1.00  0.00     0.135 A 
ATOM     80  C   UNL A   1      43.144  22.621  28.028  1.00  0.00     0.135 A 
ATOM     81  F   UNL A   1      43.291  23.893  24.625  1.00  0.00    -0.206 F 
ATOM     82  C   UNL A   1      42.677  21.770  25.418  1.00  0.00     0.059 A 
ATOM     83  C   UNL A   1      42.733  21.312  27.801  1.00  0.00     0.059 A 
ATOM     84  F   UNL A   1      43.371  23.003  29.295  1.00  0.00    -0.206 F 
ATOM     85  C   UNL A   1      42.491  20.898  26.492  1.00  0.00     0.060 A 
BRANCH  85  86
ATOM     86  S   UNL A   1      41.969  19.202  26.153  1.00  0.00     0.124 S 
ATOM     87  O   UNL A   1      40.545  19.379  25.897  1.00  0.00    -0.237 OA
ATOM     88  O   UNL A   1      42.789  18.856  24.996  1.00  0.00    -0.237 OA
ATOM     89  O   UNL A   1      42.308  18.496  27.385  1.00  0.00    -0.744 OA
ENDBRANCH  85  86
ENDBRANCH  53  78
BRANCH  65  90
ATOM     90  C   UNL A   1      49.430  26.823  26.043  1.00  0.00     0.058 A 
ATOM     91  C   UNL A   1      49.820  26.950  24.700  1.00  0.00     0.135 A 
ATOM     92  C   UNL A   1      50.365  26.294  26.949  1.00  0.00     0.135 A 
ATOM     93  F   UNL A   1      48.963  27.443  23.792  1.00  0.00    -0.206 F 
ATOM     94  C   UNL A   1      51.080  26.548  24.268  1.00  0.00     0.059 A 
ATOM     95  C   UNL A   1      51.641  25.913  26.544  1.00  0.00     0.059 A 
ATOM     96  F   UNL A   1      50.048  26.160  28.247  1.00  0.00    -0.206 F 
ATOM     97  C   UNL A   1      51.985  26.033  25.199  1.00  0.00     0.060 A 
BRANCH  97  98
ATOM     98  S   UNL A   1      53.628  25.547  24.631  1.00  0.00     0.124 S 
ATOM     99  O   UNL A   1      53.526  24.091  24.643  1.00  0.00    -0.237 OA
ATOM    100  O   UNL A   1      53.697  26.167  23.310  1.00  0.00    -0.237 OA
ATOM    101  O   UNL A   1      54.519  26.123  25.633  1.00  0.00    -0.744 OA
ENDBRANCH  97  98
ENDBRANCH  65  90
ENDBRANCH  39  40
ENDBRANCH  31  34
ENDBRANCH  29  30
ENDBRANCH  28  29
ENDBRANCH  27  28
ENDBRANCH   1  27
TORSDOF 19
ENDMDL
MODEL 3
REMARK VINA RESULT:     -10.8      2.972      4.942
REMARK SMILES O=C(CCCC(=O)Nc1ccc(C(=O)N2CCOCC2)cc1)NCCCCNC(=O)c1ccc(-c2c3nc(c(-c4c(F)cc(S(=O)(=O)[O-])cc4F)c4ccc([nH]4)c(-c4c(F)cc(S(=O)(=O)[O-])cc4F)c4nc(c(-c5c(F)cc(S(=O)(=O)[O-])cc5F)c5ccc2[nH]5)C=C4)C=C3)cc1
REMARK SMILES IDX 24 1 23 2 1 3 2 4 3 6 4 7 5 8 6 9 7 10 8 11 9 13 10 14 22 15
REMARK SMILES IDX 11 16 21 17 12 18 13 19 14 20 15 21 16 22 20 23 17 24 19 25
REMARK SMILES IDX 18 26 25 27 26 28 27 29 28 30 29 31 30 33 31 34 32 35 96 36
REMARK SMILES IDX 33 37 95 38 34 39 35 40 36 41 89 42 37 43 94 44 88 45 90 46
REMARK SMILES IDX 38 47 93 48 87 49 86 50 39 52 73 53 52 54 72 55 53 56 56 57
REMARK SMILES IDX 71 58 91 59 54 60 55 61 70 63 92 64 57 65 40 66 41 67 50 68
REMARK SMILES IDX 42 69 43 70 49 71 51 72 44 73 45 74 46 75 47 76 48 77 74 78
REMARK SMILES IDX 75 79 84 80 76 81 77 82 83 83 85 84 78 85 79 86 80 87 81 88
REMARK SMILES IDX 82 89 58 90 59 91 68 92 60 93 61 94 67 95 69 96 62 97 63 98
REMARK SMILES IDX 64 99 65 100 66 101
REMARK H PARENT 23 5 8 12 28 32 90 51 56 62
REMARK Flexibility Score: inf
ROOT
ATOM      1  C   UNL A   1      33.541  27.548  22.189  1.00  0.00     0.116 C 
ENDROOT
BRANCH   1   2
ATOM      2  N   UNL A   1      32.544  26.553  22.535  1.00  0.00    -0.356 N 
ATOM      3  O   UNL A   1      34.038  24.838  22.592  1.00  0.00    -0.275 OA
ATOM      4  C   UNL A   1      32.891  25.246  22.768  1.00  0.00     0.220 C 
ATOM      5  H   UNL A   1      31.600  26.822  22.604  1.00  0.00     0.163 HD
BRANCH   4   6
ATOM      6  C   UNL A   1      31.772  24.274  23.120  1.00  0.00     0.100 C 
BRANCH   6   7
ATOM      7  C   UNL A   1      30.718  24.586  24.192  1.00  0.00     0.020 C 
BRANCH   7   8
ATOM      8  C   UNL A   1      31.048  24.569  25.683  1.00  0.00     0.101 C 
BRANCH   8   9
ATOM      9  C   UNL A   1      30.715  23.354  26.565  1.00  0.00     0.224 C 
ATOM     10  O   UNL A   1      29.724  23.374  27.296  1.00  0.00    -0.275 OA
ATOM     11  N   UNL A   1      31.357  22.158  26.350  1.00  0.00    -0.326 N 
ATOM     12  H   UNL A   1      30.774  21.368  26.279  1.00  0.00     0.169 HD
BRANCH  11  13
ATOM     13  C   UNL A   1      32.726  21.916  26.220  1.00  0.00     0.041 A 
ATOM     14  C   UNL A   1      33.252  21.542  24.988  1.00  0.00     0.027 A 
ATOM     15  C   UNL A   1      33.582  22.056  27.299  1.00  0.00     0.027 A 
ATOM     16  C   UNL A   1      34.642  21.580  24.793  1.00  0.00     0.016 A 
ATOM     17  C   UNL A   1      34.969  22.093  27.104  1.00  0.00     0.016 A 
ATOM     18  C   UNL A   1      35.515  21.957  25.831  1.00  0.00     0.040 A 
BRANCH  18  19
ATOM     19  C   UNL A   1      36.896  22.412  25.435  1.00  0.00     0.254 C 
ATOM     20  O   UNL A   1      37.083  23.623  25.293  1.00  0.00    -0.269 OA
ATOM     21  N   UNL A   1      37.971  21.529  25.467  1.00  0.00    -0.334 N 
ATOM     22  C   UNL A   1      38.070  20.255  24.755  1.00  0.00     0.148 C 
ATOM     23  C   UNL A   1      39.280  22.039  25.891  1.00  0.00     0.148 C 
ATOM     24  C   UNL A   1      38.818  19.239  25.624  1.00  0.00     0.181 C 
ATOM     25  C   UNL A   1      40.066  20.963  26.658  1.00  0.00     0.181 C 
ATOM     26  O   UNL A   1      40.137  19.727  25.923  1.00  0.00    -0.378 OA
ENDBRANCH  18  19
ENDBRANCH  11  13
ENDBRANCH   8   9
ENDBRANCH   7   8
ENDBRANCH   6   7
ENDBRANCH   4   6
ENDBRANCH   1   2
BRANCH   1  27
ATOM     27  C   UNL A   1      34.066  28.354  23.378  1.00  0.00     0.023 C 
BRANCH  27  28
ATOM     28  C   UNL A   1      33.273  28.227  24.682  1.00  0.00     0.023 C 
BRANCH  28  29
ATOM     29  C   UNL A   1      34.036  28.597  25.948  1.00  0.00     0.116 C 
BRANCH  29  30
ATOM     30  N   UNL A   1      33.775  29.961  26.377  1.00  0.00    -0.352 N 
ATOM     31  C   UNL A   1      34.401  30.727  27.332  1.00  0.00     0.251 C 
ATOM     32  H   UNL A   1      33.034  30.408  25.908  1.00  0.00     0.163 HD
ATOM     33  O   UNL A   1      33.915  31.810  27.643  1.00  0.00    -0.269 OA
BRANCH  31  34
ATOM     34  C   UNL A   1      35.634  30.250  28.003  1.00  0.00     0.039 A 
ATOM     35  C   UNL A   1      36.861  30.428  27.355  1.00  0.00     0.014 A 
ATOM     36  C   UNL A   1      35.594  29.608  29.243  1.00  0.00     0.014 A 
ATOM     37  C   UNL A   1      38.045  30.022  27.976  1.00  0.00     0.010 A 
ATOM     38  C   UNL A   1      36.781  29.278  29.897  1.00  0.00     0.010 A 
ATOM     39  C   UNL A   1      38.020  29.478  29.270  1.00  0.00    -0.014 A 
BRANCH  39  40
ATOM     40  C   UNL A   1      39.275  29.118  29.982  1.00  0.00     0.031 A 
ATOM     41  C   UNL A   1      39.698  29.876  31.212  1.00  0.00     0.074 A 
ATOM     42  C   UNL A   1      40.067  28.147  29.484  1.00  0.00     0.049 A 
ATOM     43  N   UNL A   1      40.793  29.760  31.919  1.00  0.00    -0.248 NA
ATOM     44  C   UNL A   1      38.781  30.921  31.696  1.00  0.00     0.031 C 
ATOM     45  C   UNL A   1      39.793  27.369  28.273  1.00  0.00     0.029 A 
ATOM     46  N   UNL A   1      41.272  27.657  29.923  1.00  0.00    -0.354 N 
ATOM     47  C   UNL A   1      40.702  30.719  32.922  1.00  0.00     0.074 A 
ATOM     48  C   UNL A   1      39.471  31.446  32.698  1.00  0.00     0.031 C 
ATOM     49  C   UNL A   1      40.789  26.491  28.078  1.00  0.00     0.029 A 
ATOM     50  C   UNL A   1      41.795  26.670  29.121  1.00  0.00     0.049 A 
ATOM     51  H   UNL A   1      41.721  27.983  30.737  1.00  0.00     0.167 HD
ATOM     52  C   UNL A   1      41.553  30.956  33.949  1.00  0.00     0.037 A 
ATOM     53  C   UNL A   1      42.957  25.992  29.206  1.00  0.00     0.037 A 
ATOM     54  C   UNL A   1      42.769  30.216  34.177  1.00  0.00     0.049 A 
ATOM     55  C   UNL A   1      43.892  26.280  30.350  1.00  0.00     0.074 A 
ATOM     56  C   UNL A   1      43.673  30.348  35.215  1.00  0.00     0.029 A 
ATOM     57  N   UNL A   1      43.250  29.208  33.354  1.00  0.00    -0.354 N 
ATOM     58  N   UNL A   1      43.761  27.150  31.323  1.00  0.00    -0.248 NA
ATOM     59  C   UNL A   1      45.128  25.489  30.414  1.00  0.00     0.031 C 
ATOM     60  C   UNL A   1      44.725  29.453  34.997  1.00  0.00     0.029 A 
ATOM     61  C   UNL A   1      44.450  28.724  33.852  1.00  0.00     0.049 A 
ATOM     62  H   UNL A   1      42.806  28.886  32.537  1.00  0.00     0.167 HD
ATOM     63  C   UNL A   1      44.883  26.993  32.128  1.00  0.00     0.074 A 
ATOM     64  C   UNL A   1      45.675  25.934  31.537  1.00  0.00     0.031 C 
ATOM     65  C   UNL A   1      45.225  27.663  33.257  1.00  0.00     0.037 A 
BRANCH  52  66
ATOM     66  C   UNL A   1      41.199  32.058  34.911  1.00  0.00     0.058 A 
ATOM     67  C   UNL A   1      40.352  31.832  36.010  1.00  0.00     0.135 A 
ATOM     68  C   UNL A   1      41.740  33.345  34.758  1.00  0.00     0.135 A 
ATOM     69  F   UNL A   1      39.794  30.626  36.198  1.00  0.00    -0.206 F 
ATOM     70  C   UNL A   1      40.032  32.849  36.904  1.00  0.00     0.059 A 
ATOM     71  C   UNL A   1      41.458  34.370  35.658  1.00  0.00     0.059 A 
ATOM     72  F   UNL A   1      42.555  33.618  33.727  1.00  0.00    -0.206 F 
ATOM     73  C   UNL A   1      40.591  34.115  36.720  1.00  0.00     0.060 A 
BRANCH  73  74
ATOM     74  S   UNL A   1      40.169  35.421  37.893  1.00  0.00     0.124 S 
ATOM     75  O   UNL A   1      41.331  35.404  38.776  1.00  0.00    -0.237 OA
ATOM     76  O   UNL A   1      40.048  36.589  37.027  1.00  0.00    -0.237 OA
ATOM     77  O   UNL A   1      38.922  34.954  38.489  1.00  0.00    -0.744 OA
ENDBRANCH  73  74
ENDBRANCH  52  66
BRANCH  53  78
ATOM     78  C   UNL A   1      43.296  24.968  28.181  1.00  0.00     0.058 A 
ATOM     79  C   UNL A   1      42.982  23.614  28.379  1.00  0.00     0.135 A 
ATOM     80  C   UNL A   1      43.928  25.322  26.979  1.00  0.00     0.135 A 
ATOM     81  F   UNL A   1      42.383  23.224  29.514  1.00  0.00    -0.206 F 
ATOM     82  C   UNL A   1      43.299  22.647  27.431  1.00  0.00     0.059 A 
ATOM     83  C   UNL A   1      44.230  24.377  26.005  1.00  0.00     0.059 A 
ATOM     84  F   UNL A   1      44.233  26.606  26.732  1.00  0.00    -0.206 F 
ATOM     85  C   UNL A   1      43.921  23.039  26.245  1.00  0.00     0.060 A 
BRANCH  85  86
ATOM     86  S   UNL A   1      44.285  21.781  25.000  1.00  0.00     0.124 S 
ATOM     87  O   UNL A   1      45.692  21.506  25.262  1.00  0.00    -0.237 OA
ATOM     88  O   UNL A   1      43.348  20.720  25.355  1.00  0.00    -0.237 OA
ATOM     89  O   UNL A   1      43.997  22.464  23.741  1.00  0.00    -0.744 OA
ENDBRANCH  85  86
ENDBRANCH  53  78
BRANCH  65  90
ATOM     90  C   UNL A   1      46.495  27.251  33.951  1.00  0.00     0.058 A 
ATOM     91  C   UNL A   1      46.514  26.235  34.919  1.00  0.00     0.135 A 
ATOM     92  C   UNL A   1      47.719  27.846  33.601  1.00  0.00     0.135 A 
ATOM     93  F   UNL A   1      45.372  25.638  35.294  1.00  0.00    -0.206 F 
ATOM     94  C   UNL A   1      47.697  25.840  35.534  1.00  0.00     0.059 A 
ATOM     95  C   UNL A   1      48.919  27.446  34.183  1.00  0.00     0.059 A 
ATOM     96  F   UNL A   1      47.759  28.816  32.674  1.00  0.00    -0.206 F 
ATOM     97  C   UNL A   1      48.896  26.450  35.157  1.00  0.00     0.060 A 
BRANCH  97  98
ATOM     98  S   UNL A   1      50.429  25.903  35.938  1.00  0.00     0.124 S 
ATOM     99  O   UNL A   1      51.170  27.156  36.041  1.00  0.00    -0.237 OA
ATOM    100  O   UNL A   1      49.952  25.343  37.200  1.00  0.00    -0.237 OA
ATOM    101  O   UNL A   1      50.966  24.931  34.992  1.00  0.00    -0.744 OA
ENDBRANCH  97  98
ENDBRANCH  65  90
ENDBRANCH  39  40
ENDBRANCH  31  34
ENDBRANCH  29  30
ENDBRANCH  28  29
ENDBRANCH  27  28
ENDBRANCH   1  27
TORSDOF 19
ENDMDL
