MODEL 1
REMARK VINA RESULT:     -13.4      0.000      0.000
REMARK SMILES O=C(COc1ccc(Cl)c2ccccc12)N[C@@H](Cc1c[nH]c2ccccc12)C(=O)NCCCCNC(=O)c1ccc(-c2c3nc(c(-c4c(F)cc(S(=O)(=O)[O-])cc4F)c4ccc([nH]4)c(-c4c(F)cc(S(=O)(=O)[O-])cc4F)c4nc(c(-c5c(F)cc(S(=O)(=O)[O-])cc5F)c5ccc2[nH]5)C=C4)C=C3)cc1
REMARK SMILES IDX 32 1 31 2 30 3 28 4 29 5 17 7 16 8 1 9 2 10 3 12 4 13 5 14
REMARK SMILES IDX 6 15 15 16 7 17 10 18 14 19 8 20 11 21 13 22 9 23 12 24
REMARK SMILES IDX 18 25 19 26 20 27 27 28 21 29 22 30 26 31 23 33 25 34 24 35
REMARK SMILES IDX 33 36 34 37 35 38 36 39 37 41 38 42 39 43 103 44 40 45
REMARK SMILES IDX 102 46 41 47 42 48 43 49 96 50 44 51 101 52 95 53 97 54
REMARK SMILES IDX 45 55 100 56 94 57 93 58 46 60 80 61 59 62 79 63 60 64 63 65
REMARK SMILES IDX 78 66 98 67 61 68 62 69 77 71 99 72 64 73 47 74 48 75 57 76
REMARK SMILES IDX 49 77 50 78 56 79 58 80 51 81 52 82 53 83 54 84 55 85 81 86
REMARK SMILES IDX 82 87 91 88 83 89 84 90 90 91 92 92 85 93 86 94 87 95 88 96
REMARK SMILES IDX 89 97 65 98 66 99 75 100 67 101 68 102 74 103 76 104 69 105
REMARK SMILES IDX 70 106 71 107 72 108 73 109
REMARK H PARENT 30 6 16 11 21 32 35 40 97 59 63 70
REMARK Flexibility Score: inf
ROOT
ATOM      1  C   UNL A   1      39.589  21.809  26.155  1.00  0.00     0.023 C 
ENDROOT
BRANCH   1   2
ATOM      2  C   UNL A   1      38.293  22.589  26.013  1.00  0.00     0.116 C 
BRANCH   2   3
ATOM      3  N   UNL A   1      37.782  22.691  24.667  1.00  0.00    -0.354 N 
ATOM      4  C   UNL A   1      36.495  22.942  24.270  1.00  0.00     0.242 C 
ATOM      5  O   UNL A   1      36.329  23.381  23.127  1.00  0.00    -0.273 OA
ATOM      6  H   UNL A   1      38.438  22.564  23.944  1.00  0.00     0.163 HD
BRANCH   4   7
ATOM      7  C   UNL A   1      35.276  22.704  25.199  1.00  0.00     0.175 C 
BRANCH   7   8
ATOM      8  N   UNL A   1      34.124  23.491  24.759  1.00  0.00    -0.341 N 
ATOM      9  O   UNL A   1      33.243  23.895  26.839  1.00  0.00    -0.271 OA
ATOM     10  C   UNL A   1      33.268  24.120  25.633  1.00  0.00     0.258 C 
ATOM     11  H   UNL A   1      33.952  23.575  23.793  1.00  0.00     0.164 HD
BRANCH  10  12
ATOM     12  C   UNL A   1      32.342  25.142  24.967  1.00  0.00     0.329 C 
BRANCH  12  13
ATOM     13  O   UNL A   1      33.018  26.255  24.376  1.00  0.00    -0.483 OA
BRANCH  13  14
ATOM     14  C   UNL A   1      32.232  27.376  24.221  1.00  0.00     0.128 A 
ATOM     15  C   UNL A   1      31.238  27.417  23.238  1.00  0.00     0.048 A 
ATOM     16  C   UNL A   1      32.373  28.435  25.152  1.00  0.00     0.025 A 
ATOM     17  C   UNL A   1      30.387  28.512  23.155  1.00  0.00     0.025 A 
ATOM     18  C   UNL A   1      31.502  29.554  25.072  1.00  0.00     0.004 A 
ATOM     19  C   UNL A   1      33.361  28.415  26.162  1.00  0.00     0.012 A 
ATOM     20  C   UNL A   1      30.513  29.569  24.057  1.00  0.00     0.049 A 
ATOM     21  C   UNL A   1      31.660  30.599  26.015  1.00  0.00     0.010 A 
ATOM     22  C   UNL A   1      33.498  29.462  27.073  1.00  0.00     0.001 A 
ATOM     23  Cl  UNL A   1      29.401  30.885  23.866  1.00  0.00    -0.084 Cl
ATOM     24  C   UNL A   1      32.645  30.553  27.002  1.00  0.00     0.001 A 
ENDBRANCH  13  14
ENDBRANCH  12  13
ENDBRANCH  10  12
ENDBRANCH   7   8
BRANCH   7  25
ATOM     25  C   UNL A   1      34.994  21.240  25.598  1.00  0.00     0.072 C 
BRANCH  25  26
ATOM     26  C   UNL A   1      33.993  20.452  24.796  1.00  0.00    -0.020 A 
ATOM     27  C   UNL A   1      32.782  20.900  24.296  1.00  0.00     0.087 A 
ATOM     28  C   UNL A   1      34.074  19.059  24.452  1.00  0.00     0.003 A 
ATOM     29  N   UNL A   1      32.235  19.909  23.525  1.00  0.00    -0.361 N 
ATOM     30  C   UNL A   1      32.996  18.770  23.612  1.00  0.00     0.046 A 
ATOM     31  C   UNL A   1      34.968  18.013  24.767  1.00  0.00     0.010 A 
ATOM     32  H   UNL A   1      31.417  20.000  22.986  1.00  0.00     0.166 HD
ATOM     33  C   UNL A   1      32.804  17.513  23.023  1.00  0.00     0.026 A 
ATOM     34  C   UNL A   1      34.760  16.737  24.230  1.00  0.00     0.001 A 
ATOM     35  C   UNL A   1      33.702  16.497  23.357  1.00  0.00     0.002 A 
ENDBRANCH  25  26
ENDBRANCH   7  25
ENDBRANCH   4   7
ENDBRANCH   2   3
ENDBRANCH   1   2
BRANCH   1  36
ATOM     36  C   UNL A   1      40.417  22.128  27.391  1.00  0.00     0.023 C 
BRANCH  36  37
ATOM     37  C   UNL A   1      41.667  22.974  27.161  1.00  0.00     0.116 C 
BRANCH  37  38
ATOM     38  N   UNL A   1      41.574  23.893  26.032  1.00  0.00    -0.352 N 
ATOM     39  C   UNL A   1      41.475  25.266  26.044  1.00  0.00     0.251 C 
ATOM     40  H   UNL A   1      41.583  23.474  25.141  1.00  0.00     0.163 HD
ATOM     41  O   UNL A   1      41.357  25.889  24.991  1.00  0.00    -0.269 OA
BRANCH  39  42
ATOM     42  C   UNL A   1      41.466  25.974  27.342  1.00  0.00     0.039 A 
ATOM     43  C   UNL A   1      42.562  26.766  27.695  1.00  0.00     0.014 A 
ATOM     44  C   UNL A   1      40.335  25.930  28.161  1.00  0.00     0.014 A 
ATOM     45  C   UNL A   1      42.477  27.599  28.815  1.00  0.00     0.010 A 
ATOM     46  C   UNL A   1      40.222  26.818  29.226  1.00  0.00     0.010 A 
ATOM     47  C   UNL A   1      41.284  27.675  29.555  1.00  0.00    -0.014 A 
BRANCH  47  48
ATOM     48  C   UNL A   1      41.108  28.667  30.649  1.00  0.00     0.031 A 
ATOM     49  C   UNL A   1      41.955  28.583  31.889  1.00  0.00     0.074 A 
ATOM     50  C   UNL A   1      40.122  29.584  30.569  1.00  0.00     0.049 A 
ATOM     51  N   UNL A   1      41.876  29.283  32.992  1.00  0.00    -0.248 NA
ATOM     52  C   UNL A   1      43.006  27.553  31.907  1.00  0.00     0.031 C 
ATOM     53  C   UNL A   1      39.185  29.727  29.452  1.00  0.00     0.029 A 
ATOM     54  N   UNL A   1      39.731  30.560  31.454  1.00  0.00    -0.354 N 
ATOM     55  C   UNL A   1      42.846  28.766  33.840  1.00  0.00     0.074 A 
ATOM     56  C   UNL A   1      43.471  27.662  33.143  1.00  0.00     0.031 C 
ATOM     57  C   UNL A   1      38.342  30.741  29.710  1.00  0.00     0.029 A 
ATOM     58  C   UNL A   1      38.652  31.298  31.022  1.00  0.00     0.049 A 
ATOM     59  H   UNL A   1      40.179  30.716  32.315  1.00  0.00     0.167 HD
ATOM     60  C   UNL A   1      43.202  29.185  35.078  1.00  0.00     0.037 A 
ATOM     61  C   UNL A   1      37.983  32.306  31.617  1.00  0.00     0.037 A 
ATOM     62  C   UNL A   1      42.608  30.309  35.752  1.00  0.00     0.049 A 
ATOM     63  C   UNL A   1      38.426  32.785  32.971  1.00  0.00     0.074 A 
ATOM     64  C   UNL A   1      42.948  30.853  36.978  1.00  0.00     0.029 A 
ATOM     65  N   UNL A   1      41.558  31.066  35.256  1.00  0.00    -0.354 N 
ATOM     66  N   UNL A   1      39.387  32.320  33.734  1.00  0.00    -0.248 NA
ATOM     67  C   UNL A   1      37.705  33.931  33.542  1.00  0.00     0.031 C 
ATOM     68  C   UNL A   1      42.084  31.922  37.238  1.00  0.00     0.029 A 
ATOM     69  C   UNL A   1      41.231  32.069  36.156  1.00  0.00     0.049 A 
ATOM     70  H   UNL A   1      41.110  30.915  34.393  1.00  0.00     0.167 HD
ATOM     71  C   UNL A   1      39.397  33.127  34.866  1.00  0.00     0.074 A 
ATOM     72  C   UNL A   1      38.356  34.118  34.683  1.00  0.00     0.031 C 
ATOM     73  C   UNL A   1      40.197  33.052  35.957  1.00  0.00     0.037 A 
BRANCH  60  74
ATOM     74  C   UNL A   1      44.300  28.435  35.778  1.00  0.00     0.058 A 
ATOM     75  C   UNL A   1      45.650  28.770  35.594  1.00  0.00     0.135 A 
ATOM     76  C   UNL A   1      43.998  27.397  36.676  1.00  0.00     0.135 A 
ATOM     77  F   UNL A   1      45.994  29.742  34.734  1.00  0.00    -0.206 F 
ATOM     78  C   UNL A   1      46.665  28.090  36.257  1.00  0.00     0.059 A 
ATOM     79  C   UNL A   1      44.997  26.720  37.369  1.00  0.00     0.059 A 
ATOM     80  F   UNL A   1      42.723  27.035  36.886  1.00  0.00    -0.206 F 
ATOM     81  C   UNL A   1      46.328  27.065  37.144  1.00  0.00     0.060 A 
BRANCH  81  82
ATOM     82  S   UNL A   1      47.657  26.204  38.009  1.00  0.00     0.124 S 
ATOM     83  O   UNL A   1      47.653  26.887  39.299  1.00  0.00    -0.237 OA
ATOM     84  O   UNL A   1      47.181  24.825  38.021  1.00  0.00    -0.237 OA
ATOM     85  O   UNL A   1      48.826  26.454  37.171  1.00  0.00    -0.744 OA
ENDBRANCH  81  82
ENDBRANCH  60  74
BRANCH  61  86
ATOM     86  C   UNL A   1      36.840  32.947  30.916  1.00  0.00     0.058 A 
ATOM     87  C   UNL A   1      35.519  32.697  31.315  1.00  0.00     0.135 A 
ATOM     88  C   UNL A   1      37.045  33.848  29.860  1.00  0.00     0.135 A 
ATOM     89  F   UNL A   1      35.273  31.837  32.315  1.00  0.00    -0.206 F 
ATOM     90  C   UNL A   1      34.440  33.311  30.689  1.00  0.00     0.059 A 
ATOM     91  C   UNL A   1      35.982  34.492  29.233  1.00  0.00     0.059 A 
ATOM     92  F   UNL A   1      38.291  34.134  29.452  1.00  0.00    -0.206 F 
ATOM     93  C   UNL A   1      34.682  34.212  29.651  1.00  0.00     0.060 A 
BRANCH  93  94
ATOM     94  S   UNL A   1      33.278  35.062  28.895  1.00  0.00     0.124 S 
ATOM     95  O   UNL A   1      33.927  36.222  28.294  1.00  0.00    -0.237 OA
ATOM     96  O   UNL A   1      32.775  34.056  27.963  1.00  0.00    -0.237 OA
ATOM     97  O   UNL A   1      32.406  35.342  30.032  1.00  0.00    -0.744 OA
ENDBRANCH  93  94
ENDBRANCH  61  86
BRANCH  73  98
ATOM     98  C   UNL A   1      40.002  34.083  37.032  1.00  0.00     0.058 A 
ATOM     99  C   UNL A   1      40.654  35.325  36.989  1.00  0.00     0.135 A 
ATOM    100  C   UNL A   1      39.103  33.849  38.086  1.00  0.00     0.135 A 
ATOM    101  F   UNL A   1      41.526  35.594  36.004  1.00  0.00    -0.206 F 
ATOM    102  C   UNL A   1      40.435  36.294  37.962  1.00  0.00     0.059 A 
ATOM    103  C   UNL A   1      38.852  34.813  39.058  1.00  0.00     0.059 A 
ATOM    104  F   UNL A   1      38.446  32.681  38.168  1.00  0.00    -0.206 F 
ATOM    105  C   UNL A   1      39.531  36.029  38.993  1.00  0.00     0.060 A 
BRANCH 105 106
ATOM    106  S   UNL A   1      39.226  37.308  40.229  1.00  0.00     0.124 S 
ATOM    107  O   UNL A   1      38.598  36.539  41.298  1.00  0.00    -0.237 OA
ATOM    108  O   UNL A   1      40.572  37.802  40.510  1.00  0.00    -0.237 OA
ATOM    109  O   UNL A   1      38.352  38.250  39.535  1.00  0.00    -0.744 OA
ENDBRANCH 105 106
ENDBRANCH  73  98
ENDBRANCH  47  48
ENDBRANCH  39  42
ENDBRANCH  37  38
ENDBRANCH  36  37
ENDBRANCH   1  36
TORSDOF 20
ENDMDL
MODEL 2
REMARK VINA RESULT:     -13.0      6.246     12.039
REMARK SMILES O=C(COc1ccc(Cl)c2ccccc12)N[C@@H](Cc1c[nH]c2ccccc12)C(=O)NCCCCNC(=O)c1ccc(-c2c3nc(c(-c4c(F)cc(S(=O)(=O)[O-])cc4F)c4ccc([nH]4)c(-c4c(F)cc(S(=O)(=O)[O-])cc4F)c4nc(c(-c5c(F)cc(S(=O)(=O)[O-])cc5F)c5ccc2[nH]5)C=C4)C=C3)cc1
REMARK SMILES IDX 32 1 31 2 30 3 28 4 29 5 17 7 16 8 1 9 2 10 3 12 4 13 5 14
REMARK SMILES IDX 6 15 15 16 7 17 10 18 14 19 8 20 11 21 13 22 9 23 12 24
REMARK SMILES IDX 18 25 19 26 20 27 27 28 21 29 22 30 26 31 23 33 25 34 24 35
REMARK SMILES IDX 33 36 34 37 35 38 36 39 37 41 38 42 39 43 103 44 40 45
REMARK SMILES IDX 102 46 41 47 42 48 43 49 96 50 44 51 101 52 95 53 97 54
REMARK SMILES IDX 45 55 100 56 94 57 93 58 46 60 80 61 59 62 79 63 60 64 63 65
REMARK SMILES IDX 78 66 98 67 61 68 62 69 77 71 99 72 64 73 47 74 48 75 57 76
REMARK SMILES IDX 49 77 50 78 56 79 58 80 51 81 52 82 53 83 54 84 55 85 81 86
REMARK SMILES IDX 82 87 91 88 83 89 84 90 90 91 92 92 85 93 86 94 87 95 88 96
REMARK SMILES IDX 89 97 65 98 66 99 75 100 67 101 68 102 74 103 76 104 69 105
REMARK SMILES IDX 70 106 71 107 72 108 73 109
REMARK H PARENT 30 6 16 11 21 32 35 40 97 59 63 70
REMARK Flexibility Score: inf
ROOT
ATOM      1  C   UNL A   1      35.102  29.329  27.022  1.00  0.00     0.023 C 
ENDROOT
BRANCH   1   2
ATOM      2  C   UNL A   1      34.122  28.567  26.146  1.00  0.00     0.116 C 
BRANCH   2   3
ATOM      3  N   UNL A   1      32.783  28.455  26.675  1.00  0.00    -0.354 N 
ATOM      4  C   UNL A   1      31.881  27.443  26.478  1.00  0.00     0.242 C 
ATOM      5  O   UNL A   1      30.972  27.325  27.307  1.00  0.00    -0.273 OA
ATOM      6  H   UNL A   1      32.482  29.196  27.247  1.00  0.00     0.163 HD
BRANCH   4   7
ATOM      7  C   UNL A   1      31.976  26.464  25.279  1.00  0.00     0.175 C 
BRANCH   7   8
ATOM      8  N   UNL A   1      32.300  25.112  25.735  1.00  0.00    -0.341 N 
ATOM      9  O   UNL A   1      30.174  24.504  26.353  1.00  0.00    -0.271 OA
ATOM     10  C   UNL A   1      31.342  24.205  26.125  1.00  0.00     0.258 C 
ATOM     11  H   UNL A   1      33.245  24.839  25.764  1.00  0.00     0.164 HD
BRANCH  10  12
ATOM     12  C   UNL A   1      31.863  22.769  26.248  1.00  0.00     0.329 C 
BRANCH  12  13
ATOM     13  O   UNL A   1      33.126  22.543  25.618  1.00  0.00    -0.483 OA
BRANCH  13  14
ATOM     14  C   UNL A   1      33.364  21.227  25.285  1.00  0.00     0.128 A 
ATOM     15  C   UNL A   1      32.307  20.376  24.952  1.00  0.00     0.048 A 
ATOM     16  C   UNL A   1      34.708  20.790  25.175  1.00  0.00     0.025 A 
ATOM     17  C   UNL A   1      32.567  19.079  24.524  1.00  0.00     0.025 A 
ATOM     18  C   UNL A   1      34.976  19.466  24.733  1.00  0.00     0.004 A 
ATOM     19  C   UNL A   1      35.797  21.632  25.494  1.00  0.00     0.012 A 
ATOM     20  C   UNL A   1      33.881  18.626  24.414  1.00  0.00     0.049 A 
ATOM     21  C   UNL A   1      36.327  19.054  24.628  1.00  0.00     0.010 A 
ATOM     22  C   UNL A   1      37.116  21.195  25.387  1.00  0.00     0.001 A 
ATOM     23  Cl  UNL A   1      34.094  16.993  23.871  1.00  0.00    -0.084 Cl
ATOM     24  C   UNL A   1      37.383  19.907  24.951  1.00  0.00     0.001 A 
ENDBRANCH  13  14
ENDBRANCH  12  13
ENDBRANCH  10  12
ENDBRANCH   7   8
BRANCH   7  25
ATOM     25  C   UNL A   1      30.869  26.581  24.210  1.00  0.00     0.072 C 
BRANCH  25  26
ATOM     26  C   UNL A   1      30.780  27.845  23.396  1.00  0.00    -0.020 A 
ATOM     27  C   UNL A   1      31.832  28.588  22.886  1.00  0.00     0.087 A 
ATOM     28  C   UNL A   1      29.583  28.560  23.049  1.00  0.00     0.003 A 
ATOM     29  N   UNL A   1      31.320  29.591  22.108  1.00  0.00    -0.361 N 
ATOM     30  C   UNL A   1      29.950  29.606  22.199  1.00  0.00     0.046 A 
ATOM     31  C   UNL A   1      28.217  28.415  23.368  1.00  0.00     0.010 A 
ATOM     32  H   UNL A   1      31.856  30.210  21.562  1.00  0.00     0.166 HD
ATOM     33  C   UNL A   1      29.020  30.468  21.604  1.00  0.00     0.026 A 
ATOM     34  C   UNL A   1      27.279  29.302  22.825  1.00  0.00     0.001 A 
ATOM     35  C   UNL A   1      27.675  30.302  21.942  1.00  0.00     0.002 A 
ENDBRANCH  25  26
ENDBRANCH   7  25
ENDBRANCH   4   7
ENDBRANCH   2   3
ENDBRANCH   1   2
BRANCH   1  36
ATOM     36  C   UNL A   1      34.557  30.594  27.671  1.00  0.00     0.023 C 
BRANCH  36  37
ATOM     37  C   UNL A   1      35.560  31.425  28.468  1.00  0.00     0.116 C 
BRANCH  37  38
ATOM     38  N   UNL A   1      35.455  31.271  29.915  1.00  0.00    -0.352 N 
ATOM     39  C   UNL A   1      36.305  30.614  30.776  1.00  0.00     0.251 C 
ATOM     40  H   UNL A   1      34.670  31.694  30.331  1.00  0.00     0.163 HD
ATOM     41  O   UNL A   1      36.041  30.540  31.974  1.00  0.00    -0.269 OA
BRANCH  39  42
ATOM     42  C   UNL A   1      37.515  29.960  30.230  1.00  0.00     0.039 A 
ATOM     43  C   UNL A   1      38.003  30.359  28.983  1.00  0.00     0.014 A 
ATOM     44  C   UNL A   1      38.216  29.025  30.996  1.00  0.00     0.014 A 
ATOM     45  C   UNL A   1      39.252  29.901  28.554  1.00  0.00     0.010 A 
ATOM     46  C   UNL A   1      39.493  28.635  30.605  1.00  0.00     0.010 A 
ATOM     47  C   UNL A   1      40.033  29.082  29.389  1.00  0.00    -0.014 A 
BRANCH  47  48
ATOM     48  C   UNL A   1      41.428  28.712  29.031  1.00  0.00     0.031 A 
ATOM     49  C   UNL A   1      42.511  29.756  29.028  1.00  0.00     0.074 A 
ATOM     50  C   UNL A   1      41.702  27.458  28.613  1.00  0.00     0.049 A 
ATOM     51  N   UNL A   1      43.756  29.653  28.641  1.00  0.00    -0.248 NA
ATOM     52  C   UNL A   1      42.136  31.103  29.489  1.00  0.00     0.031 C 
ATOM     53  C   UNL A   1      40.729  26.370  28.502  1.00  0.00     0.029 A 
ATOM     54  N   UNL A   1      42.880  26.892  28.189  1.00  0.00    -0.354 N 
ATOM     55  C   UNL A   1      44.306  30.920  28.789  1.00  0.00     0.074 A 
ATOM     56  C   UNL A   1      43.246  31.788  29.256  1.00  0.00     0.031 C 
ATOM     57  C   UNL A   1      41.350  25.265  28.057  1.00  0.00     0.029 A 
ATOM     58  C   UNL A   1      42.756  25.572  27.819  1.00  0.00     0.049 A 
ATOM     59  H   UNL A   1      43.731  27.384  28.151  1.00  0.00     0.167 HD
ATOM     60  C   UNL A   1      45.581  31.322  28.576  1.00  0.00     0.037 A 
ATOM     61  C   UNL A   1      43.670  24.707  27.335  1.00  0.00     0.037 A 
ATOM     62  C   UNL A   1      46.644  30.449  28.151  1.00  0.00     0.049 A 
ATOM     63  C   UNL A   1      45.091  25.162  27.153  1.00  0.00     0.074 A 
ATOM     64  C   UNL A   1      47.983  30.748  27.975  1.00  0.00     0.029 A 
ATOM     65  N   UNL A   1      46.490  29.106  27.843  1.00  0.00    -0.354 N 
ATOM     66  N   UNL A   1      45.605  26.353  27.353  1.00  0.00    -0.248 NA
ATOM     67  C   UNL A   1      46.059  24.159  26.688  1.00  0.00     0.031 C 
ATOM     68  C   UNL A   1      48.636  29.592  27.532  1.00  0.00     0.029 A 
ATOM     69  C   UNL A   1      47.710  28.563  27.470  1.00  0.00     0.049 A 
ATOM     70  H   UNL A   1      45.641  28.610  27.883  1.00  0.00     0.167 HD
ATOM     71  C   UNL A   1      46.959  26.236  27.058  1.00  0.00     0.074 A 
ATOM     72  C   UNL A   1      47.187  24.858  26.677  1.00  0.00     0.031 C 
ATOM     73  C   UNL A   1      47.924  27.187  27.099  1.00  0.00     0.037 A 
BRANCH  60  74
ATOM     74  C   UNL A   1      45.905  32.769  28.819  1.00  0.00     0.058 A 
ATOM     75  C   UNL A   1      45.796  33.726  27.798  1.00  0.00     0.135 A 
ATOM     76  C   UNL A   1      46.287  33.213  30.096  1.00  0.00     0.135 A 
ATOM     77  F   UNL A   1      45.452  33.353  26.555  1.00  0.00    -0.206 F 
ATOM     78  C   UNL A   1      46.076  35.069  28.027  1.00  0.00     0.059 A 
ATOM     79  C   UNL A   1      46.548  34.555  30.354  1.00  0.00     0.059 A 
ATOM     80  F   UNL A   1      46.409  32.338  31.106  1.00  0.00    -0.206 F 
ATOM     81  C   UNL A   1      46.452  35.474  29.310  1.00  0.00     0.060 A 
BRANCH  81  82
ATOM     82  S   UNL A   1      46.795  37.223  29.594  1.00  0.00     0.124 S 
ATOM     83  O   UNL A   1      45.674  37.854  28.904  1.00  0.00    -0.237 OA
ATOM     84  O   UNL A   1      46.774  37.313  31.050  1.00  0.00    -0.237 OA
ATOM     85  O   UNL A   1      48.102  37.418  28.974  1.00  0.00    -0.744 OA
ENDBRANCH  81  82
ENDBRANCH  60  74
BRANCH  61  86
ATOM     86  C   UNL A   1      43.269  23.311  27.020  1.00  0.00     0.058 A 
ATOM     87  C   UNL A   1      43.191  22.867  25.691  1.00  0.00     0.135 A 
ATOM     88  C   UNL A   1      42.992  22.384  28.036  1.00  0.00     0.135 A 
ATOM     89  F   UNL A   1      43.440  23.719  24.685  1.00  0.00    -0.206 F 
ATOM     90  C   UNL A   1      42.846  21.557  25.380  1.00  0.00     0.059 A 
ATOM     91  C   UNL A   1      42.665  21.061  27.750  1.00  0.00     0.059 A 
ATOM     92  F   UNL A   1      43.070  22.755  29.324  1.00  0.00    -0.206 F 
ATOM     93  C   UNL A   1      42.590  20.659  26.417  1.00  0.00     0.060 A 
BRANCH  93  94
ATOM     94  S   UNL A   1      42.217  18.940  26.004  1.00  0.00     0.124 S 
ATOM     95  O   UNL A   1      40.782  19.004  25.751  1.00  0.00    -0.237 OA
ATOM     96  O   UNL A   1      43.062  18.714  24.835  1.00  0.00    -0.237 OA
ATOM     97  O   UNL A   1      42.617  18.213  27.206  1.00  0.00    -0.744 OA
ENDBRANCH  93  94
ENDBRANCH  61  86
BRANCH  73  98
ATOM     98  C   UNL A   1      49.323  26.771  26.749  1.00  0.00     0.058 A 
ATOM     99  C   UNL A   1      50.224  26.322  27.727  1.00  0.00     0.135 A 
ATOM    100  C   UNL A   1      49.748  26.761  25.410  1.00  0.00     0.135 A 
ATOM    101  F   UNL A   1      49.868  26.316  29.022  1.00  0.00    -0.206 F 
ATOM    102  C   UNL A   1      51.505  25.894  27.393  1.00  0.00     0.059 A 
ATOM    103  C   UNL A   1      51.016  26.316  25.051  1.00  0.00     0.059 A 
ATOM    104  F   UNL A   1      48.921  27.171  24.436  1.00  0.00    -0.206 F 
ATOM    105  C   UNL A   1      51.891  25.893  26.051  1.00  0.00     0.060 A 
BRANCH 105 106
ATOM    106  S   UNL A   1      53.542  25.299  25.624  1.00  0.00     0.124 S 
ATOM    107  O   UNL A   1      53.864  26.135  24.472  1.00  0.00    -0.237 OA
ATOM    108  O   UNL A   1      54.300  25.577  26.841  1.00  0.00    -0.237 OA
ATOM    109  O   UNL A   1      53.329  23.884  25.335  1.00  0.00    -0.744 OA
ENDBRANCH 105 106
ENDBRANCH  73  98
ENDBRANCH  47  48
ENDBRANCH  39  42
ENDBRANCH  37  38
ENDBRANCH  36  37
ENDBRANCH   1  36
TORSDOF 20
ENDMDL
MODEL 3
REMARK VINA RESULT:     -12.9      1.680      2.938
REMARK SMILES O=C(COc1ccc(Cl)c2ccccc12)N[C@@H](Cc1c[nH]c2ccccc12)C(=O)NCCCCNC(=O)c1ccc(-c2c3nc(c(-c4c(F)cc(S(=O)(=O)[O-])cc4F)c4ccc([nH]4)c(-c4c(F)cc(S(=O)(=O)[O-])cc4F)c4nc(c(-c5c(F)cc(S(=O)(=O)[O-])cc5F)c5ccc2[nH]5)C=C4)C=C3)cc1
REMARK SMILES IDX 32 1 31 2 30 3 28 4 29 5 17 7 16 8 1 9 2 10 3 12 4 13 5 14
REMARK SMILES IDX 6 15 15 16 7 17 10 18 14 19 8 20 11 21 13 22 9 23 12 24
REMARK SMILES IDX 18 25 19 26 20 27 27 28 21 29 22 30 26 31 23 33 25 34 24 35
REMARK SMILES IDX 33 36 34 37 35 38 36 39 37 41 38 42 39 43 103 44 40 45
REMARK SMILES IDX 102 46 41 47 42 48 43 49 96 50 44 51 101 52 95 53 97 54
REMARK SMILES IDX 45 55 100 56 94 57 93 58 46 60 80 61 59 62 79 63 60 64 63 65
REMARK SMILES IDX 78 66 98 67 61 68 62 69 77 71 99 72 64 73 47 74 48 75 57 76
REMARK SMILES IDX 49 77 50 78 56 79 58 80 51 81 52 82 53 83 54 84 55 85 81 86
REMARK SMILES IDX 82 87 91 88 83 89 84 90 90 91 92 92 85 93 86 94 87 95 88 96
REMARK SMILES IDX 89 97 65 98 66 99 75 100 67 101 68 102 74 103 76 104 69 105
REMARK SMILES IDX 70 106 71 107 72 108 73 109
REMARK H PARENT 30 6 16 11 21 32 35 40 97 59 63 70
REMARK Flexibility Score: inf
ROOT
ATOM      1  C   UNL A   1      37.791  22.712  25.735  1.00  0.00     0.023 C 
ENDROOT
BRANCH   1   2
ATOM      2  C   UNL A   1      36.341  23.164  25.720  1.00  0.00     0.116 C 
BRANCH   2   3
ATOM      3  N   UNL A   1      35.527  22.650  26.797  1.00  0.00    -0.354 N 
ATOM      4  C   UNL A   1      34.310  22.028  26.710  1.00  0.00     0.242 C 
ATOM      5  O   UNL A   1      33.967  21.319  27.662  1.00  0.00    -0.273 OA
ATOM      6  H   UNL A   1      35.891  22.761  27.704  1.00  0.00     0.163 HD
BRANCH   4   7
ATOM      7  C   UNL A   1      33.383  22.179  25.475  1.00  0.00     0.175 C 
BRANCH   7   8
ATOM      8  N   UNL A   1      32.398  23.239  25.691  1.00  0.00    -0.341 N 
ATOM      9  O   UNL A   1      30.551  21.884  25.841  1.00  0.00    -0.271 OA
ATOM     10  C   UNL A   1      31.076  22.985  25.973  1.00  0.00     0.258 C 
ATOM     11  H   UNL A   1      32.693  24.176  25.631  1.00  0.00     0.164 HD
BRANCH  10  12
ATOM     12  C   UNL A   1      30.304  24.208  26.480  1.00  0.00     0.329 C 
BRANCH  12  13
ATOM     13  O   UNL A   1      30.030  25.190  25.477  1.00  0.00    -0.483 OA
BRANCH  13  14
ATOM     14  C   UNL A   1      30.558  26.435  25.747  1.00  0.00     0.128 A 
ATOM     15  C   UNL A   1      31.340  26.643  26.886  1.00  0.00     0.048 A 
ATOM     16  C   UNL A   1      30.389  27.463  24.786  1.00  0.00     0.025 A 
ATOM     17  C   UNL A   1      31.947  27.876  27.096  1.00  0.00     0.025 A 
ATOM     18  C   UNL A   1      31.012  28.723  24.997  1.00  0.00     0.004 A 
ATOM     19  C   UNL A   1      29.613  27.277  23.620  1.00  0.00     0.012 A 
ATOM     20  C   UNL A   1      31.788  28.904  26.168  1.00  0.00     0.049 A 
ATOM     21  C   UNL A   1      30.831  29.734  24.022  1.00  0.00     0.010 A 
ATOM     22  C   UNL A   1      29.446  28.294  22.681  1.00  0.00     0.001 A 
ATOM     23  Cl  UNL A   1      32.589  30.400  26.526  1.00  0.00    -0.084 Cl
ATOM     24  C   UNL A   1      30.058  29.522  22.879  1.00  0.00     0.001 A 
ENDBRANCH  13  14
ENDBRANCH  12  13
ENDBRANCH  10  12
ENDBRANCH   7   8
BRANCH   7  25
ATOM     25  C   UNL A   1      34.072  22.153  24.094  1.00  0.00     0.072 C 
BRANCH  25  26
ATOM     26  C   UNL A   1      33.627  23.139  23.047  1.00  0.00    -0.020 A 
ATOM     27  C   UNL A   1      33.159  22.854  21.774  1.00  0.00     0.087 A 
ATOM     28  C   UNL A   1      33.667  24.572  23.143  1.00  0.00     0.003 A 
ATOM     29  N   UNL A   1      32.750  24.022  21.189  1.00  0.00    -0.361 N 
ATOM     30  C   UNL A   1      33.060  25.088  21.997  1.00  0.00     0.046 A 
ATOM     31  C   UNL A   1      34.154  25.484  24.103  1.00  0.00     0.010 A 
ATOM     32  H   UNL A   1      32.299  24.088  20.317  1.00  0.00     0.166 HD
ATOM     33  C   UNL A   1      32.858  26.459  21.791  1.00  0.00     0.026 A 
ATOM     34  C   UNL A   1      34.009  26.861  23.888  1.00  0.00     0.001 A 
ATOM     35  C   UNL A   1      33.354  27.338  22.756  1.00  0.00     0.002 A 
ENDBRANCH  25  26
ENDBRANCH   7  25
ENDBRANCH   4   7
ENDBRANCH   2   3
ENDBRANCH   1   2
BRANCH   1  36
ATOM     36  C   UNL A   1      38.801  23.755  26.193  1.00  0.00     0.023 C 
BRANCH  36  37
ATOM     37  C   UNL A   1      39.993  23.232  26.990  1.00  0.00     0.116 C 
BRANCH  37  38
ATOM     38  N   UNL A   1      41.290  23.498  26.380  1.00  0.00    -0.352 N 
ATOM     39  C   UNL A   1      42.098  24.605  26.519  1.00  0.00     0.251 C 
ATOM     40  H   UNL A   1      41.634  22.791  25.787  1.00  0.00     0.163 HD
ATOM     41  O   UNL A   1      43.150  24.688  25.890  1.00  0.00    -0.269 OA
BRANCH  39  42
ATOM     42  C   UNL A   1      41.658  25.708  27.400  1.00  0.00     0.039 A 
ATOM     43  C   UNL A   1      40.676  25.462  28.363  1.00  0.00     0.014 A 
ATOM     44  C   UNL A   1      42.286  26.954  27.335  1.00  0.00     0.014 A 
ATOM     45  C   UNL A   1      40.403  26.433  29.331  1.00  0.00     0.010 A 
ATOM     46  C   UNL A   1      42.072  27.885  28.347  1.00  0.00     0.010 A 
ATOM     47  C   UNL A   1      41.142  27.629  29.366  1.00  0.00    -0.014 A 
BRANCH  47  48
ATOM     48  C   UNL A   1      40.988  28.606  30.476  1.00  0.00     0.031 A 
ATOM     49  C   UNL A   1      41.838  28.489  31.712  1.00  0.00     0.074 A 
ATOM     50  C   UNL A   1      40.017  29.542  30.415  1.00  0.00     0.049 A 
ATOM     51  N   UNL A   1      41.776  29.173  32.825  1.00  0.00    -0.248 NA
ATOM     52  C   UNL A   1      42.872  27.441  31.709  1.00  0.00     0.031 C 
ATOM     53  C   UNL A   1      39.078  29.718  29.304  1.00  0.00     0.029 A 
ATOM     54  N   UNL A   1      39.647  30.510  31.316  1.00  0.00    -0.354 N 
ATOM     55  C   UNL A   1      42.741  28.626  33.661  1.00  0.00     0.074 A 
ATOM     56  C   UNL A   1      43.344  27.522  32.945  1.00  0.00     0.031 C 
ATOM     57  C   UNL A   1      38.254  30.741  29.582  1.00  0.00     0.029 A 
ATOM     58  C   UNL A   1      38.580  31.273  30.900  1.00  0.00     0.049 A 
ATOM     59  H   UNL A   1      40.101  30.645  32.178  1.00  0.00     0.167 HD
ATOM     60  C   UNL A   1      43.109  29.020  34.903  1.00  0.00     0.037 A 
ATOM     61  C   UNL A   1      37.930  32.283  31.513  1.00  0.00     0.037 A 
ATOM     62  C   UNL A   1      42.538  30.144  35.598  1.00  0.00     0.049 A 
ATOM     63  C   UNL A   1      38.387  32.734  32.873  1.00  0.00     0.074 A 
ATOM     64  C   UNL A   1      42.892  30.663  36.830  1.00  0.00     0.029 A 
ATOM     65  N   UNL A   1      41.498  30.927  35.118  1.00  0.00    -0.354 N 
ATOM     66  N   UNL A   1      39.343  32.240  33.625  1.00  0.00    -0.248 NA
ATOM     67  C   UNL A   1      37.689  33.883  33.465  1.00  0.00     0.031 C 
ATOM     68  C   UNL A   1      42.047  31.742  37.110  1.00  0.00     0.029 A 
ATOM     69  C   UNL A   1      41.193  31.920  36.034  1.00  0.00     0.049 A 
ATOM     70  H   UNL A   1      41.044  30.796  34.254  1.00  0.00     0.167 HD
ATOM     71  C   UNL A   1      39.371  33.030  34.769  1.00  0.00     0.074 A 
ATOM     72  C   UNL A   1      38.348  34.041  34.606  1.00  0.00     0.031 C 
ATOM     73  C   UNL A   1      40.175  32.925  35.856  1.00  0.00     0.037 A 
BRANCH  60  74
ATOM     74  C   UNL A   1      44.197  28.240  35.587  1.00  0.00     0.058 A 
ATOM     75  C   UNL A   1      45.550  28.573  35.425  1.00  0.00     0.135 A 
ATOM     76  C   UNL A   1      43.881  27.177  36.449  1.00  0.00     0.135 A 
ATOM     77  F   UNL A   1      45.907  29.570  34.599  1.00  0.00    -0.206 F 
ATOM     78  C   UNL A   1      46.556  27.865  36.073  1.00  0.00     0.059 A 
ATOM     79  C   UNL A   1      44.870  26.470  37.127  1.00  0.00     0.059 A 
ATOM     80  F   UNL A   1      42.603  26.816  36.637  1.00  0.00    -0.206 F 
ATOM     81  C   UNL A   1      46.205  26.814  36.923  1.00  0.00     0.060 A 
BRANCH  81  82
ATOM     82  S   UNL A   1      47.523  25.917  37.770  1.00  0.00     0.124 S 
ATOM     83  O   UNL A   1      47.093  26.019  39.162  1.00  0.00    -0.237 OA
ATOM     84  O   UNL A   1      47.429  24.588  37.175  1.00  0.00    -0.237 OA
ATOM     85  O   UNL A   1      48.723  26.672  37.427  1.00  0.00    -0.744 OA
ENDBRANCH  81  82
ENDBRANCH  60  74
BRANCH  61  86
ATOM     86  C   UNL A   1      36.796  32.955  30.828  1.00  0.00     0.058 A 
ATOM     87  C   UNL A   1      37.022  33.987  29.905  1.00  0.00     0.135 A 
ATOM     88  C   UNL A   1      35.469  32.557  31.052  1.00  0.00     0.135 A 
ATOM     89  F   UNL A   1      38.274  34.406  29.663  1.00  0.00    -0.206 F 
ATOM     90  C   UNL A   1      35.974  34.607  29.233  1.00  0.00     0.059 A 
ATOM     91  C   UNL A   1      34.405  33.148  30.376  1.00  0.00     0.059 A 
ATOM     92  F   UNL A   1      35.202  31.563  31.913  1.00  0.00    -0.206 F 
ATOM     93  C   UNL A   1      34.668  34.176  29.472  1.00  0.00     0.060 A 
BRANCH  93  94
ATOM     94  S   UNL A   1      33.320  34.935  28.538  1.00  0.00     0.124 S 
ATOM     95  O   UNL A   1      32.544  35.563  29.601  1.00  0.00    -0.237 OA
ATOM     96  O   UNL A   1      34.038  35.844  27.648  1.00  0.00    -0.237 OA
ATOM     97  O   UNL A   1      32.688  33.796  27.879  1.00  0.00    -0.744 OA
ENDBRANCH  93  94
ENDBRANCH  61  86
BRANCH  73  98
ATOM     98  C   UNL A   1      40.002  33.942  36.947  1.00  0.00     0.058 A 
ATOM     99  C   UNL A   1      40.687  35.167  36.927  1.00  0.00     0.135 A 
ATOM    100  C   UNL A   1      39.092  33.714  37.993  1.00  0.00     0.135 A 
ATOM    101  F   UNL A   1      41.571  35.430  35.951  1.00  0.00    -0.206 F 
ATOM    102  C   UNL A   1      40.489  36.125  37.916  1.00  0.00     0.059 A 
ATOM    103  C   UNL A   1      38.863  34.668  38.980  1.00  0.00     0.059 A 
ATOM    104  F   UNL A   1      38.405  32.563  38.052  1.00  0.00    -0.206 F 
ATOM    105  C   UNL A   1      39.574  35.867  38.938  1.00  0.00     0.060 A 
BRANCH 105 106
ATOM    106  S   UNL A   1      39.296  37.133  40.195  1.00  0.00     0.124 S 
ATOM    107  O   UNL A   1      40.663  37.525  40.521  1.00  0.00    -0.237 OA
ATOM    108  O   UNL A   1      38.507  38.126  39.471  1.00  0.00    -0.237 OA
ATOM    109  O   UNL A   1      38.579  36.416  41.246  1.00  0.00    -0.744 OA
ENDBRANCH 105 106
ENDBRANCH  73  98
ENDBRANCH  47  48
ENDBRANCH  39  42
ENDBRANCH  37  38
ENDBRANCH  36  37
ENDBRANCH   1  36
TORSDOF 20
ENDMDL
