MODEL 1
REMARK VINA RESULT:     -11.3      0.000      0.000
REMARK SMILES O=C(NCCCCNC(=O)c1cccc(S(=O)(=O)Nc2cccc(I)c2)c1)c1ccc(-c2c3nc(c(-c4c(F)cc(S(=O)(=O)[O-])cc4F)c4ccc([nH]4)c(-c4c(F)cc(S(=O)(=O)[O-])cc4F)c4nc(c(-c5c(F)cc(S(=O)(=O)[O-])cc5F)c5ccc2[nH]5)C=C4)C=C3)cc1
REMARK SMILES IDX 5 1 4 2 3 3 1 4 2 5 28 7 29 8 93 9 30 10 92 11 31 12 32 13
REMARK SMILES IDX 33 14 86 15 34 16 91 17 85 18 87 19 35 20 90 21 84 22 83 23
REMARK SMILES IDX 36 25 70 26 49 27 69 28 50 29 53 30 68 31 88 32 51 33 52 34
REMARK SMILES IDX 67 36 89 37 54 38 37 39 38 40 47 41 39 42 40 43 46 44 48 45
REMARK SMILES IDX 41 46 42 47 43 48 44 49 45 50 71 51 72 52 81 53 73 54 74 55
REMARK SMILES IDX 80 56 82 57 75 58 76 59 77 60 78 61 79 62 55 63 56 64 65 65
REMARK SMILES IDX 57 66 58 67 64 68 66 69 59 70 60 71 61 72 62 73 63 74 6 75
REMARK SMILES IDX 7 76 8 77 9 78 10 80 11 81 12 82 27 83 13 84 15 85 14 86
REMARK SMILES IDX 16 87 17 88 18 89 19 90 20 92 21 93 26 94 22 95 24 96 23 97
REMARK SMILES IDX 25 98
REMARK H PARENT 3 6 87 24 53 35 8 79 19 91
REMARK Flexibility Score: inf
ROOT
ATOM      1  C   UNL A   1      35.614  23.444  24.803  1.00  0.00     0.023 C 
ENDROOT
BRANCH   1   2
ATOM      2  C   UNL A   1      36.871  24.057  25.413  1.00  0.00     0.116 C 
BRANCH   2   3
ATOM      3  N   UNL A   1      37.960  23.099  25.512  1.00  0.00    -0.352 N 
ATOM      4  O   UNL A   1      40.052  22.373  25.893  1.00  0.00    -0.269 OA
ATOM      5  C   UNL A   1      39.204  23.241  26.078  1.00  0.00     0.251 C 
ATOM      6  H   UNL A   1      37.779  22.216  25.114  1.00  0.00     0.163 HD
BRANCH   5   7
ATOM      7  C   UNL A   1      39.523  24.432  26.896  1.00  0.00     0.039 A 
ATOM      8  C   UNL A   1      39.092  24.527  28.222  1.00  0.00     0.014 A 
ATOM      9  C   UNL A   1      40.310  25.447  26.342  1.00  0.00     0.014 A 
ATOM     10  C   UNL A   1      39.356  25.680  28.959  1.00  0.00     0.010 A 
ATOM     11  C   UNL A   1      40.625  26.577  27.102  1.00  0.00     0.010 A 
ATOM     12  C   UNL A   1      40.137  26.710  28.411  1.00  0.00    -0.014 A 
BRANCH  12  13
ATOM     13  C   UNL A   1      40.512  27.876  29.250  1.00  0.00     0.031 A 
ATOM     14  C   UNL A   1      39.577  29.040  29.428  1.00  0.00     0.074 A 
ATOM     15  C   UNL A   1      41.724  27.882  29.840  1.00  0.00     0.049 A 
ATOM     16  N   UNL A   1      39.764  30.145  30.104  1.00  0.00    -0.248 NA
ATOM     17  C   UNL A   1      38.269  28.960  28.759  1.00  0.00     0.031 C 
ATOM     18  C   UNL A   1      42.726  26.820  29.714  1.00  0.00     0.029 A 
ATOM     19  N   UNL A   1      42.325  28.809  30.652  1.00  0.00    -0.354 N 
ATOM     20  C   UNL A   1      38.612  30.902  29.927  1.00  0.00     0.074 A 
ATOM     21  C   UNL A   1      37.732  30.134  29.071  1.00  0.00     0.031 C 
ATOM     22  C   UNL A   1      43.812  27.152  30.427  1.00  0.00     0.029 A 
ATOM     23  C   UNL A   1      43.604  28.467  31.023  1.00  0.00     0.049 A 
ATOM     24  H   UNL A   1      41.882  29.639  30.943  1.00  0.00     0.167 HD
ATOM     25  C   UNL A   1      38.319  32.122  30.438  1.00  0.00     0.037 A 
ATOM     26  C   UNL A   1      44.522  29.148  31.734  1.00  0.00     0.037 A 
ATOM     27  C   UNL A   1      39.187  32.862  31.317  1.00  0.00     0.049 A 
ATOM     28  C   UNL A   1      44.176  30.506  32.270  1.00  0.00     0.074 A 
ATOM     29  C   UNL A   1      38.931  34.056  31.970  1.00  0.00     0.029 A 
ATOM     30  N   UNL A   1      40.480  32.494  31.652  1.00  0.00    -0.354 N 
ATOM     31  N   UNL A   1      43.048  31.168  32.161  1.00  0.00    -0.248 NA
ATOM     32  C   UNL A   1      45.223  31.215  33.017  1.00  0.00     0.031 C 
ATOM     33  C   UNL A   1      40.087  34.431  32.664  1.00  0.00     0.029 A 
ATOM     34  C   UNL A   1      41.050  33.455  32.468  1.00  0.00     0.049 A 
ATOM     35  H   UNL A   1      40.928  31.669  31.352  1.00  0.00     0.167 HD
ATOM     36  C   UNL A   1      43.252  32.372  32.822  1.00  0.00     0.074 A 
ATOM     37  C   UNL A   1      44.601  32.339  33.349  1.00  0.00     0.031 C 
ATOM     38  C   UNL A   1      42.399  33.414  32.973  1.00  0.00     0.037 A 
BRANCH  25  39
ATOM     39  C   UNL A   1      37.007  32.752  30.064  1.00  0.00     0.058 A 
ATOM     40  C   UNL A   1      35.849  32.550  30.827  1.00  0.00     0.135 A 
ATOM     41  C   UNL A   1      36.936  33.647  28.983  1.00  0.00     0.135 A 
ATOM     42  F   UNL A   1      35.861  31.697  31.863  1.00  0.00    -0.206 F 
ATOM     43  C   UNL A   1      34.660  33.210  30.530  1.00  0.00     0.059 A 
ATOM     44  C   UNL A   1      35.763  34.331  28.678  1.00  0.00     0.059 A 
ATOM     45  F   UNL A   1      38.018  33.874  28.222  1.00  0.00    -0.206 F 
ATOM     46  C   UNL A   1      34.628  34.101  29.455  1.00  0.00     0.060 A 
BRANCH  46  47
ATOM     47  S   UNL A   1      33.088  34.978  29.103  1.00  0.00     0.124 S 
ATOM     48  O   UNL A   1      33.589  36.269  28.639  1.00  0.00    -0.237 OA
ATOM     49  O   UNL A   1      32.473  34.135  28.083  1.00  0.00    -0.237 OA
ATOM     50  O   UNL A   1      32.404  34.996  30.392  1.00  0.00    -0.744 OA
ENDBRANCH  46  47
ENDBRANCH  25  39
BRANCH  26  51
ATOM     51  C   UNL A   1      45.873  28.567  31.939  1.00  0.00     0.058 A 
ATOM     52  C   UNL A   1      46.916  28.818  31.039  1.00  0.00     0.135 A 
ATOM     53  C   UNL A   1      46.147  27.763  33.057  1.00  0.00     0.135 A 
ATOM     54  F   UNL A   1      46.698  29.577  29.954  1.00  0.00    -0.206 F 
ATOM     55  C   UNL A   1      48.186  28.283  31.232  1.00  0.00     0.059 A 
ATOM     56  C   UNL A   1      47.413  27.236  33.283  1.00  0.00     0.059 A 
ATOM     57  F   UNL A   1      45.183  27.509  33.956  1.00  0.00    -0.206 F 
ATOM     58  C   UNL A   1      48.424  27.493  32.358  1.00  0.00     0.060 A 
BRANCH  58  59
ATOM     59  S   UNL A   1      50.085  26.840  32.633  1.00  0.00     0.124 S 
ATOM     60  O   UNL A   1      50.825  27.456  31.537  1.00  0.00    -0.237 OA
ATOM     61  O   UNL A   1      50.396  27.333  33.971  1.00  0.00    -0.237 OA
ATOM     62  O   UNL A   1      49.894  25.395  32.536  1.00  0.00    -0.744 OA
ENDBRANCH  58  59
ENDBRANCH  26  51
BRANCH  38  63
ATOM     63  C   UNL A   1      42.902  34.608  33.729  1.00  0.00     0.058 A 
ATOM     64  C   UNL A   1      42.815  34.670  35.128  1.00  0.00     0.135 A 
ATOM     65  C   UNL A   1      43.522  35.674  33.058  1.00  0.00     0.135 A 
ATOM     66  F   UNL A   1      42.220  33.680  35.812  1.00  0.00    -0.206 F 
ATOM     67  C   UNL A   1      43.318  35.754  35.837  1.00  0.00     0.059 A 
ATOM     68  C   UNL A   1      44.050  36.759  33.750  1.00  0.00     0.059 A 
ATOM     69  F   UNL A   1      43.633  35.658  31.720  1.00  0.00    -0.206 F 
ATOM     70  C   UNL A   1      43.937  36.793  35.140  1.00  0.00     0.060 A 
BRANCH  70  71
ATOM     71  S   UNL A   1      44.630  38.174  36.074  1.00  0.00     0.124 S 
ATOM     72  O   UNL A   1      44.247  39.311  35.243  1.00  0.00    -0.237 OA
ATOM     73  O   UNL A   1      43.941  38.065  37.356  1.00  0.00    -0.237 OA
ATOM     74  O   UNL A   1      46.058  37.874  36.110  1.00  0.00    -0.744 OA
ENDBRANCH  70  71
ENDBRANCH  38  63
ENDBRANCH  12  13
ENDBRANCH   5   7
ENDBRANCH   2   3
ENDBRANCH   1   2
BRANCH   1  75
ATOM     75  C   UNL A   1      35.543  21.914  24.835  1.00  0.00     0.023 C 
BRANCH  75  76
ATOM     76  C   UNL A   1      34.893  21.310  26.077  1.00  0.00     0.116 C 
BRANCH  76  77
ATOM     77  N   UNL A   1      34.070  20.155  25.770  1.00  0.00    -0.352 N 
ATOM     78  C   UNL A   1      32.803  20.087  25.253  1.00  0.00     0.251 C 
ATOM     79  H   UNL A   1      34.488  19.285  25.963  1.00  0.00     0.163 HD
ATOM     80  O   UNL A   1      32.221  19.005  25.221  1.00  0.00    -0.269 OA
BRANCH  78  81
ATOM     81  C   UNL A   1      32.117  21.285  24.711  1.00  0.00     0.041 A 
ATOM     82  C   UNL A   1      32.210  21.549  23.340  1.00  0.00     0.014 A 
ATOM     83  C   UNL A   1      31.519  22.223  25.558  1.00  0.00     0.036 A 
ATOM     84  C   UNL A   1      31.681  22.731  22.816  1.00  0.00     0.002 A 
ATOM     85  C   UNL A   1      31.037  23.428  25.043  1.00  0.00     0.088 A 
ATOM     86  C   UNL A   1      31.098  23.673  23.666  1.00  0.00     0.022 A 
BRANCH  85  87
ATOM     87  S   UNL A   1      30.413  24.735  26.082  1.00  0.00     0.261 S 
ATOM     88  O   UNL A   1      29.780  25.703  25.214  1.00  0.00    -0.201 OA
ATOM     89  O   UNL A   1      29.668  24.081  27.139  1.00  0.00    -0.201 OA
BRANCH  87  90
ATOM     90  N   UNL A   1      31.716  25.442  26.853  1.00  0.00    -0.280 N 
ATOM     91  H   UNL A   1      31.924  25.112  27.757  1.00  0.00     0.180 HD
BRANCH  90  92
ATOM     92  C   UNL A   1      32.557  26.471  26.343  1.00  0.00     0.050 A 
ATOM     93  C   UNL A   1      33.055  26.286  25.047  1.00  0.00     0.027 A 
ATOM     94  C   UNL A   1      32.800  27.680  27.001  1.00  0.00     0.041 A 
ATOM     95  C   UNL A   1      33.722  27.320  24.387  1.00  0.00     0.003 A 
ATOM     96  C   UNL A   1      33.442  28.720  26.324  1.00  0.00     0.015 A 
ATOM     97  C   UNL A   1      33.897  28.548  25.017  1.00  0.00     0.015 A 
ATOM     98  I   UNL A   1      33.642  30.573  27.249  1.00  0.00    -0.044 I 
ENDBRANCH  90  92
ENDBRANCH  87  90
ENDBRANCH  85  87
ENDBRANCH  78  81
ENDBRANCH  76  77
ENDBRANCH  75  76
ENDBRANCH   1  75
TORSDOF 17
ENDMDL
MODEL 2
REMARK VINA RESULT:     -11.3      3.149      7.250
REMARK SMILES O=C(NCCCCNC(=O)c1cccc(S(=O)(=O)Nc2cccc(I)c2)c1)c1ccc(-c2c3nc(c(-c4c(F)cc(S(=O)(=O)[O-])cc4F)c4ccc([nH]4)c(-c4c(F)cc(S(=O)(=O)[O-])cc4F)c4nc(c(-c5c(F)cc(S(=O)(=O)[O-])cc5F)c5ccc2[nH]5)C=C4)C=C3)cc1
REMARK SMILES IDX 5 1 4 2 3 3 1 4 2 5 28 7 29 8 93 9 30 10 92 11 31 12 32 13
REMARK SMILES IDX 33 14 86 15 34 16 91 17 85 18 87 19 35 20 90 21 84 22 83 23
REMARK SMILES IDX 36 25 70 26 49 27 69 28 50 29 53 30 68 31 88 32 51 33 52 34
REMARK SMILES IDX 67 36 89 37 54 38 37 39 38 40 47 41 39 42 40 43 46 44 48 45
REMARK SMILES IDX 41 46 42 47 43 48 44 49 45 50 71 51 72 52 81 53 73 54 74 55
REMARK SMILES IDX 80 56 82 57 75 58 76 59 77 60 78 61 79 62 55 63 56 64 65 65
REMARK SMILES IDX 57 66 58 67 64 68 66 69 59 70 60 71 61 72 62 73 63 74 6 75
REMARK SMILES IDX 7 76 8 77 9 78 10 80 11 81 12 82 27 83 13 84 15 85 14 86
REMARK SMILES IDX 16 87 17 88 18 89 19 90 20 92 21 93 26 94 22 95 24 96 23 97
REMARK SMILES IDX 25 98
REMARK H PARENT 3 6 87 24 53 35 8 79 19 91
REMARK Flexibility Score: inf
ROOT
ATOM      1  C   UNL A   1      32.824  26.920  25.848  1.00  0.00     0.023 C 
ENDROOT
BRANCH   1   2
ATOM      2  C   UNL A   1      33.954  27.732  26.474  1.00  0.00     0.116 C 
BRANCH   2   3
ATOM      3  N   UNL A   1      33.668  29.157  26.486  1.00  0.00    -0.352 N 
ATOM      4  O   UNL A   1      33.782  31.286  27.196  1.00  0.00    -0.269 OA
ATOM      5  C   UNL A   1      34.293  30.171  27.173  1.00  0.00     0.251 C 
ATOM      6  H   UNL A   1      32.915  29.439  25.918  1.00  0.00     0.163 HD
BRANCH   5   7
ATOM      7  C   UNL A   1      35.565  29.919  27.885  1.00  0.00     0.039 A 
ATOM      8  C   UNL A   1      35.571  29.509  29.221  1.00  0.00     0.014 A 
ATOM      9  C   UNL A   1      36.772  30.046  27.187  1.00  0.00     0.014 A 
ATOM     10  C   UNL A   1      36.780  29.330  29.889  1.00  0.00     0.010 A 
ATOM     11  C   UNL A   1      37.984  29.809  27.843  1.00  0.00     0.010 A 
ATOM     12  C   UNL A   1      37.998  29.464  29.203  1.00  0.00    -0.014 A 
BRANCH  12  13
ATOM     13  C   UNL A   1      39.273  29.151  29.897  1.00  0.00     0.031 A 
ATOM     14  C   UNL A   1      39.731  29.951  31.085  1.00  0.00     0.074 A 
ATOM     15  C   UNL A   1      40.029  28.138  29.428  1.00  0.00     0.049 A 
ATOM     16  N   UNL A   1      40.829  29.824  31.784  1.00  0.00    -0.248 NA
ATOM     17  C   UNL A   1      38.850  31.037  31.544  1.00  0.00     0.031 C 
ATOM     18  C   UNL A   1      39.699  27.311  28.264  1.00  0.00     0.029 A 
ATOM     19  N   UNL A   1      41.230  27.638  29.860  1.00  0.00    -0.354 N 
ATOM     20  C   UNL A   1      40.786  30.822  32.750  1.00  0.00     0.074 A 
ATOM     21  C   UNL A   1      39.554  31.555  32.543  1.00  0.00     0.031 C 
ATOM     22  C   UNL A   1      40.669  26.404  28.080  1.00  0.00     0.029 A 
ATOM     23  C   UNL A   1      41.710  26.612  29.080  1.00  0.00     0.049 A 
ATOM     24  H   UNL A   1      41.703  27.978  30.654  1.00  0.00     0.167 HD
ATOM     25  C   UNL A   1      41.690  31.094  33.722  1.00  0.00     0.037 A 
ATOM     26  C   UNL A   1      42.872  25.936  29.139  1.00  0.00     0.037 A 
ATOM     27  C   UNL A   1      42.896  30.337  33.941  1.00  0.00     0.049 A 
ATOM     28  C   UNL A   1      43.864  26.273  30.214  1.00  0.00     0.074 A 
ATOM     29  C   UNL A   1      43.818  30.469  34.966  1.00  0.00     0.029 A 
ATOM     30  N   UNL A   1      43.356  29.321  33.119  1.00  0.00    -0.354 N 
ATOM     31  N   UNL A   1      43.765  27.166  31.170  1.00  0.00    -0.248 NA
ATOM     32  C   UNL A   1      45.126  25.522  30.216  1.00  0.00     0.031 C 
ATOM     33  C   UNL A   1      44.860  29.564  34.737  1.00  0.00     0.029 A 
ATOM     34  C   UNL A   1      44.570  28.846  33.588  1.00  0.00     0.049 A 
ATOM     35  H   UNL A   1      42.890  28.987  32.319  1.00  0.00     0.167 HD
ATOM     36  C   UNL A   1      44.952  27.085  31.886  1.00  0.00     0.074 A 
ATOM     37  C   UNL A   1      45.745  26.041  31.268  1.00  0.00     0.031 C 
ATOM     38  C   UNL A   1      45.352  27.816  32.954  1.00  0.00     0.037 A 
BRANCH  25  39
ATOM     39  C   UNL A   1      41.429  32.262  34.629  1.00  0.00     0.058 A 
ATOM     40  C   UNL A   1      41.782  33.570  34.268  1.00  0.00     0.135 A 
ATOM     41  C   UNL A   1      40.727  32.079  35.833  1.00  0.00     0.135 A 
ATOM     42  F   UNL A   1      42.462  33.798  33.134  1.00  0.00    -0.206 F 
ATOM     43  C   UNL A   1      41.454  34.658  35.071  1.00  0.00     0.059 A 
ATOM     44  C   UNL A   1      40.374  33.154  36.643  1.00  0.00     0.059 A 
ATOM     45  F   UNL A   1      40.367  30.846  36.223  1.00  0.00    -0.206 F 
ATOM     46  C   UNL A   1      40.747  34.440  36.256  1.00  0.00     0.060 A 
BRANCH  46  47
ATOM     47  S   UNL A   1      40.297  35.866  37.269  1.00  0.00     0.124 S 
ATOM     48  O   UNL A   1      39.863  36.819  36.252  1.00  0.00    -0.237 OA
ATOM     49  O   UNL A   1      39.241  35.325  38.120  1.00  0.00    -0.237 OA
ATOM     50  O   UNL A   1      41.540  36.202  37.956  1.00  0.00    -0.744 OA
ENDBRANCH  46  47
ENDBRANCH  25  39
BRANCH  26  51
ATOM     51  C   UNL A   1      43.175  24.901  28.118  1.00  0.00     0.058 A 
ATOM     52  C   UNL A   1      43.777  25.238  26.899  1.00  0.00     0.135 A 
ATOM     53  C   UNL A   1      42.882  23.549  28.357  1.00  0.00     0.135 A 
ATOM     54  F   UNL A   1      44.070  26.518  26.626  1.00  0.00    -0.206 F 
ATOM     55  C   UNL A   1      44.070  24.271  25.943  1.00  0.00     0.059 A 
ATOM     56  C   UNL A   1      43.185  22.562  27.426  1.00  0.00     0.059 A 
ATOM     57  F   UNL A   1      42.320  23.177  29.517  1.00  0.00    -0.206 F 
ATOM     58  C   UNL A   1      43.770  22.935  26.216  1.00  0.00     0.060 A 
BRANCH  58  59
ATOM     59  S   UNL A   1      44.196  21.675  24.995  1.00  0.00     0.124 S 
ATOM     60  O   UNL A   1      45.573  21.367  25.363  1.00  0.00    -0.237 OA
ATOM     61  O   UNL A   1      43.213  20.631  25.268  1.00  0.00    -0.237 OA
ATOM     62  O   UNL A   1      44.019  22.371  23.724  1.00  0.00    -0.744 OA
ENDBRANCH  58  59
ENDBRANCH  26  51
BRANCH  38  63
ATOM     63  C   UNL A   1      46.711  27.520  33.519  1.00  0.00     0.058 A 
ATOM     64  C   UNL A   1      46.891  26.524  34.489  1.00  0.00     0.135 A 
ATOM     65  C   UNL A   1      47.846  28.198  33.049  1.00  0.00     0.135 A 
ATOM     66  F   UNL A   1      45.833  25.856  34.977  1.00  0.00    -0.206 F 
ATOM     67  C   UNL A   1      48.153  26.215  34.984  1.00  0.00     0.059 A 
ATOM     68  C   UNL A   1      49.120  27.891  33.516  1.00  0.00     0.059 A 
ATOM     69  F   UNL A   1      47.724  29.157  32.117  1.00  0.00    -0.206 F 
ATOM     70  C   UNL A   1      49.263  26.903  34.489  1.00  0.00     0.060 A 
BRANCH  70  71
ATOM     71  S   UNL A   1      50.902  26.461  35.103  1.00  0.00     0.124 S 
ATOM     72  O   UNL A   1      50.926  27.145  36.392  1.00  0.00    -0.237 OA
ATOM     73  O   UNL A   1      50.836  25.004  35.160  1.00  0.00    -0.237 OA
ATOM     74  O   UNL A   1      51.800  27.002  34.087  1.00  0.00    -0.744 OA
ENDBRANCH  70  71
ENDBRANCH  38  63
ENDBRANCH  12  13
ENDBRANCH   5   7
ENDBRANCH   2   3
ENDBRANCH   1   2
BRANCH   1  75
ATOM     75  C   UNL A   1      31.449  27.089  26.502  1.00  0.00     0.023 C 
BRANCH  75  76
ATOM     76  C   UNL A   1      30.307  26.315  25.847  1.00  0.00     0.116 C 
BRANCH  76  77
ATOM     77  N   UNL A   1      29.837  25.214  26.667  1.00  0.00    -0.352 N 
ATOM     78  C   UNL A   1      30.303  23.929  26.769  1.00  0.00     0.251 C 
ATOM     79  H   UNL A   1      29.065  25.423  27.240  1.00  0.00     0.163 HD
ATOM     80  O   UNL A   1      29.656  23.102  27.407  1.00  0.00    -0.269 OA
BRANCH  78  81
ATOM     81  C   UNL A   1      31.580  23.510  26.141  1.00  0.00     0.041 A 
ATOM     82  C   UNL A   1      32.719  23.401  26.946  1.00  0.00     0.014 A 
ATOM     83  C   UNL A   1      31.696  23.374  24.755  1.00  0.00     0.036 A 
ATOM     84  C   UNL A   1      33.962  23.130  26.370  1.00  0.00     0.002 A 
ATOM     85  C   UNL A   1      32.946  23.155  24.173  1.00  0.00     0.088 A 
ATOM     86  C   UNL A   1      34.078  23.010  24.983  1.00  0.00     0.022 A 
BRANCH  85  87
ATOM     87  S   UNL A   1      33.193  23.135  22.407  1.00  0.00     0.261 S 
ATOM     88  O   UNL A   1      34.606  23.332  22.174  1.00  0.00    -0.201 OA
ATOM     89  O   UNL A   1      32.514  21.948  21.924  1.00  0.00    -0.201 OA
BRANCH  87  90
ATOM     90  N   UNL A   1      32.335  24.412  21.756  1.00  0.00    -0.280 N 
ATOM     91  H   UNL A   1      31.747  24.203  20.994  1.00  0.00     0.180 HD
BRANCH  90  92
ATOM     92  C   UNL A   1      32.363  25.770  22.183  1.00  0.00     0.050 A 
ATOM     93  C   UNL A   1      33.619  26.390  22.210  1.00  0.00     0.027 A 
ATOM     94  C   UNL A   1      31.221  26.530  22.448  1.00  0.00     0.041 A 
ATOM     95  C   UNL A   1      33.728  27.766  22.424  1.00  0.00     0.003 A 
ATOM     96  C   UNL A   1      31.335  27.911  22.630  1.00  0.00     0.015 A 
ATOM     97  C   UNL A   1      32.582  28.533  22.612  1.00  0.00     0.015 A 
ATOM     98  I   UNL A   1      29.614  29.059  22.847  1.00  0.00    -0.044 I 
ENDBRANCH  90  92
ENDBRANCH  87  90
ENDBRANCH  85  87
ENDBRANCH  78  81
ENDBRANCH  76  77
ENDBRANCH  75  76
ENDBRANCH   1  75
TORSDOF 17
ENDMDL
MODEL 3
REMARK VINA RESULT:     -11.2      3.385      9.346
REMARK SMILES O=C(NCCCCNC(=O)c1cccc(S(=O)(=O)Nc2cccc(I)c2)c1)c1ccc(-c2c3nc(c(-c4c(F)cc(S(=O)(=O)[O-])cc4F)c4ccc([nH]4)c(-c4c(F)cc(S(=O)(=O)[O-])cc4F)c4nc(c(-c5c(F)cc(S(=O)(=O)[O-])cc5F)c5ccc2[nH]5)C=C4)C=C3)cc1
REMARK SMILES IDX 5 1 4 2 3 3 1 4 2 5 28 7 29 8 93 9 30 10 92 11 31 12 32 13
REMARK SMILES IDX 33 14 86 15 34 16 91 17 85 18 87 19 35 20 90 21 84 22 83 23
REMARK SMILES IDX 36 25 70 26 49 27 69 28 50 29 53 30 68 31 88 32 51 33 52 34
REMARK SMILES IDX 67 36 89 37 54 38 37 39 38 40 47 41 39 42 40 43 46 44 48 45
REMARK SMILES IDX 41 46 42 47 43 48 44 49 45 50 71 51 72 52 81 53 73 54 74 55
REMARK SMILES IDX 80 56 82 57 75 58 76 59 77 60 78 61 79 62 55 63 56 64 65 65
REMARK SMILES IDX 57 66 58 67 64 68 66 69 59 70 60 71 61 72 62 73 63 74 6 75
REMARK SMILES IDX 7 76 8 77 9 78 10 80 11 81 12 82 27 83 13 84 15 85 14 86
REMARK SMILES IDX 16 87 17 88 18 89 19 90 20 92 21 93 26 94 22 95 24 96 23 97
REMARK SMILES IDX 25 98
REMARK H PARENT 3 6 87 24 53 35 8 79 19 91
REMARK Flexibility Score: inf
ROOT
ATOM      1  C   UNL A   1      33.671  27.923  25.427  1.00  0.00     0.023 C 
ENDROOT
BRANCH   1   2
ATOM      2  C   UNL A   1      33.872  28.134  26.924  1.00  0.00     0.116 C 
BRANCH   2   3
ATOM      3  N   UNL A   1      33.676  29.519  27.319  1.00  0.00    -0.352 N 
ATOM      4  O   UNL A   1      34.102  31.448  28.390  1.00  0.00    -0.269 OA
ATOM      5  C   UNL A   1      34.526  30.371  27.983  1.00  0.00     0.251 C 
ATOM      6  H   UNL A   1      32.804  29.906  27.074  1.00  0.00     0.163 HD
BRANCH   5   7
ATOM      7  C   UNL A   1      35.937  29.990  28.213  1.00  0.00     0.039 A 
ATOM      8  C   UNL A   1      36.895  30.144  27.207  1.00  0.00     0.014 A 
ATOM      9  C   UNL A   1      36.318  29.520  29.475  1.00  0.00     0.014 A 
ATOM     10  C   UNL A   1      38.207  29.729  27.426  1.00  0.00     0.010 A 
ATOM     11  C   UNL A   1      37.648  29.160  29.712  1.00  0.00     0.010 A 
ATOM     12  C   UNL A   1      38.600  29.247  28.685  1.00  0.00    -0.014 A 
BRANCH  12  13
ATOM     13  C   UNL A   1      40.027  28.924  28.938  1.00  0.00     0.031 A 
ATOM     14  C   UNL A   1      40.605  27.591  28.554  1.00  0.00     0.074 A 
ATOM     15  C   UNL A   1      40.799  29.851  29.541  1.00  0.00     0.049 A 
ATOM     16  N   UNL A   1      41.821  27.143  28.731  1.00  0.00    -0.248 NA
ATOM     17  C   UNL A   1      39.703  26.633  27.894  1.00  0.00     0.031 C 
ATOM     18  C   UNL A   1      40.339  31.169  29.985  1.00  0.00     0.029 A 
ATOM     19  N   UNL A   1      42.123  29.826  29.894  1.00  0.00    -0.354 N 
ATOM     20  C   UNL A   1      41.830  25.848  28.227  1.00  0.00     0.074 A 
ATOM     21  C   UNL A   1      40.493  25.576  27.743  1.00  0.00     0.031 C 
ATOM     22  C   UNL A   1      41.364  31.828  30.543  1.00  0.00     0.029 A 
ATOM     23  C   UNL A   1      42.541  30.966  30.540  1.00  0.00     0.049 A 
ATOM     24  H   UNL A   1      42.720  29.066  29.702  1.00  0.00     0.167 HD
ATOM     25  C   UNL A   1      42.863  24.973  28.170  1.00  0.00     0.037 A 
ATOM     26  C   UNL A   1      43.726  31.273  31.099  1.00  0.00     0.037 A 
ATOM     27  C   UNL A   1      44.199  25.267  28.622  1.00  0.00     0.049 A 
ATOM     28  C   UNL A   1      44.846  30.275  31.039  1.00  0.00     0.074 A 
ATOM     29  C   UNL A   1      45.335  24.484  28.507  1.00  0.00     0.029 A 
ATOM     30  N   UNL A   1      44.576  26.421  29.289  1.00  0.00    -0.354 N 
ATOM     31  N   UNL A   1      44.857  29.087  30.482  1.00  0.00    -0.248 NA
ATOM     32  C   UNL A   1      46.109  30.651  31.686  1.00  0.00     0.031 C 
ATOM     33  C   UNL A   1      46.389  25.146  29.145  1.00  0.00     0.029 A 
ATOM     34  C   UNL A   1      45.917  26.355  29.628  1.00  0.00     0.049 A 
ATOM     35  H   UNL A   1      43.979  27.177  29.491  1.00  0.00     0.167 HD
ATOM     36  C   UNL A   1      46.126  28.573  30.715  1.00  0.00     0.074 A 
ATOM     37  C   UNL A   1      46.863  29.587  31.442  1.00  0.00     0.031 C 
ATOM     38  C   UNL A   1      46.632  27.367  30.364  1.00  0.00     0.037 A 
BRANCH  25  39
ATOM     39  C   UNL A   1      42.606  23.605  27.605  1.00  0.00     0.058 A 
ATOM     40  C   UNL A   1      42.686  23.348  26.230  1.00  0.00     0.135 A 
ATOM     41  C   UNL A   1      42.370  22.519  28.465  1.00  0.00     0.135 A 
ATOM     42  F   UNL A   1      42.899  24.354  25.366  1.00  0.00    -0.206 F 
ATOM     43  C   UNL A   1      42.539  22.062  25.722  1.00  0.00     0.059 A 
ATOM     44  C   UNL A   1      42.236  21.221  27.981  1.00  0.00     0.059 A 
ATOM     45  F   UNL A   1      42.284  22.712  29.790  1.00  0.00    -0.206 F 
ATOM     46  C   UNL A   1      42.317  21.003  26.606  1.00  0.00     0.060 A 
BRANCH  46  47
ATOM     47  S   UNL A   1      42.163  19.333  25.935  1.00  0.00     0.124 S 
ATOM     48  O   UNL A   1      40.724  19.245  25.704  1.00  0.00    -0.237 OA
ATOM     49  O   UNL A   1      42.993  19.399  24.736  1.00  0.00    -0.237 OA
ATOM     50  O   UNL A   1      42.680  18.487  27.006  1.00  0.00    -0.744 OA
ENDBRANCH  46  47
ENDBRANCH  25  39
BRANCH  26  51
ATOM     51  C   UNL A   1      43.895  32.569  31.803  1.00  0.00     0.058 A 
ATOM     52  C   UNL A   1      44.256  33.731  31.109  1.00  0.00     0.135 A 
ATOM     53  C   UNL A   1      43.676  32.669  33.186  1.00  0.00     0.135 A 
ATOM     54  F   UNL A   1      44.480  33.681  29.787  1.00  0.00    -0.206 F 
ATOM     55  C   UNL A   1      44.407  34.949  31.763  1.00  0.00     0.059 A 
ATOM     56  C   UNL A   1      43.799  33.880  33.858  1.00  0.00     0.059 A 
ATOM     57  F   UNL A   1      43.311  31.586  33.890  1.00  0.00    -0.206 F 
ATOM     58  C   UNL A   1      44.177  35.013  33.139  1.00  0.00     0.060 A 
BRANCH  58  59
ATOM     59  S   UNL A   1      44.324  36.605  33.978  1.00  0.00     0.124 S 
ATOM     60  O   UNL A   1      44.459  36.190  35.369  1.00  0.00    -0.237 OA
ATOM     61  O   UNL A   1      45.519  37.173  33.361  1.00  0.00    -0.237 OA
ATOM     62  O   UNL A   1      43.074  37.278  33.634  1.00  0.00    -0.744 OA
ENDBRANCH  58  59
ENDBRANCH  26  51
BRANCH  38  63
ATOM     63  C   UNL A   1      48.046  27.071  30.769  1.00  0.00     0.058 A 
ATOM     64  C   UNL A   1      48.330  26.371  31.951  1.00  0.00     0.135 A 
ATOM     65  C   UNL A   1      49.121  27.443  29.947  1.00  0.00     0.135 A 
ATOM     66  F   UNL A   1      47.335  26.004  32.775  1.00  0.00    -0.206 F 
ATOM     67  C   UNL A   1      49.636  26.056  32.310  1.00  0.00     0.059 A 
ATOM     68  C   UNL A   1      50.433  27.121  30.278  1.00  0.00     0.059 A 
ATOM     69  F   UNL A   1      48.899  28.110  28.804  1.00  0.00    -0.206 F 
ATOM     70  C   UNL A   1      50.681  26.433  31.466  1.00  0.00     0.060 A 
BRANCH  70  71
ATOM     71  S   UNL A   1      52.369  25.977  31.917  1.00  0.00     0.124 S 
ATOM     72  O   UNL A   1      52.200  24.581  32.308  1.00  0.00    -0.237 OA
ATOM     73  O   UNL A   1      53.100  26.204  30.675  1.00  0.00    -0.237 OA
ATOM     74  O   UNL A   1      52.689  26.900  33.003  1.00  0.00    -0.744 OA
ENDBRANCH  70  71
ENDBRANCH  38  63
ENDBRANCH  12  13
ENDBRANCH   5   7
ENDBRANCH   2   3
ENDBRANCH   1   2
BRANCH   1  75
ATOM     75  C   UNL A   1      33.322  29.181  24.625  1.00  0.00     0.023 C 
BRANCH  75  76
ATOM     76  C   UNL A   1      33.285  29.007  23.108  1.00  0.00     0.116 C 
BRANCH  76  77
ATOM     77  N   UNL A   1      31.989  29.333  22.542  1.00  0.00    -0.352 N 
ATOM     78  C   UNL A   1      30.861  28.563  22.420  1.00  0.00     0.251 C 
ATOM     79  H   UNL A   1      31.907  30.248  22.191  1.00  0.00     0.163 HD
ATOM     80  O   UNL A   1      29.915  28.981  21.758  1.00  0.00    -0.269 OA
BRANCH  78  81
ATOM     81  C   UNL A   1      30.744  27.241  23.083  1.00  0.00     0.041 A 
ATOM     82  C   UNL A   1      30.096  27.166  24.321  1.00  0.00     0.014 A 
ATOM     83  C   UNL A   1      31.394  26.115  22.572  1.00  0.00     0.036 A 
ATOM     84  C   UNL A   1      30.075  25.963  25.030  1.00  0.00     0.002 A 
ATOM     85  C   UNL A   1      31.418  24.926  23.304  1.00  0.00     0.088 A 
ATOM     86  C   UNL A   1      30.738  24.843  24.525  1.00  0.00     0.022 A 
BRANCH  85  87
ATOM     87  S   UNL A   1      32.363  23.503  22.794  1.00  0.00     0.261 S 
ATOM     88  O   UNL A   1      31.423  22.431  22.556  1.00  0.00    -0.201 OA
ATOM     89  O   UNL A   1      33.247  23.969  21.744  1.00  0.00    -0.201 OA
BRANCH  87  90
ATOM     90  N   UNL A   1      33.380  23.086  24.053  1.00  0.00    -0.280 N 
ATOM     91  H   UNL A   1      33.536  23.775  24.739  1.00  0.00     0.180 HD
BRANCH  90  92
ATOM     92  C   UNL A   1      34.044  21.840  24.241  1.00  0.00     0.050 A 
ATOM     93  C   UNL A   1      35.416  21.899  24.515  1.00  0.00     0.027 A 
ATOM     94  C   UNL A   1      33.391  20.606  24.290  1.00  0.00     0.041 A 
ATOM     95  C   UNL A   1      36.113  20.755  24.907  1.00  0.00     0.003 A 
ATOM     96  C   UNL A   1      34.087  19.470  24.712  1.00  0.00     0.015 A 
ATOM     97  C   UNL A   1      35.443  19.541  25.028  1.00  0.00     0.015 A 
ATOM     98  I   UNL A   1      33.065  17.674  24.953  1.00  0.00    -0.044 I 
ENDBRANCH  90  92
ENDBRANCH  87  90
ENDBRANCH  85  87
ENDBRANCH  78  81
ENDBRANCH  76  77
ENDBRANCH  75  76
ENDBRANCH   1  75
TORSDOF 17
ENDMDL
