MODEL 1
REMARK VINA RESULT:     -12.2      0.000      0.000
REMARK SMILES Cc1cc(C)c2c(c1)C=C(C(=O)NCCCCNC(=O)c1ccc(-c3c4nc(c(-c5c(F)cc(S(=O)(=O)[O-])cc5F)c5ccc([nH]5)c(-c5c(F)cc(S(=O)(=O)[O-])cc5F)c5nc(c(-c6c(F)cc(S(=O)(=O)[O-])cc6F)c6ccc3[nH]6)C=C5)C=C4)cc1)[C@@H](C(F)(F)F)O2
REMARK SMILES IDX 16 1 15 2 14 3 13 4 11 5 12 6 10 8 1 9 2 10 3 11 8 12 4 13
REMARK SMILES IDX 7 14 5 15 6 16 9 17 92 18 87 19 88 20 89 21 90 22 91 23
REMARK SMILES IDX 17 24 18 25 19 26 20 28 21 29 22 30 86 31 23 32 85 33 24 34
REMARK SMILES IDX 25 35 26 36 79 37 27 38 84 39 78 40 80 41 28 42 83 43 77 44
REMARK SMILES IDX 76 45 29 47 63 48 42 49 62 50 43 51 46 52 61 53 81 54 44 55
REMARK SMILES IDX 45 56 60 58 82 59 47 60 30 61 31 62 40 63 32 64 33 65 39 66
REMARK SMILES IDX 41 67 34 68 35 69 36 70 37 71 38 72 64 73 65 74 74 75 66 76
REMARK SMILES IDX 67 77 73 78 75 79 68 80 69 81 70 82 71 83 72 84 48 85 49 86
REMARK SMILES IDX 58 87 50 88 51 89 57 90 59 91 52 92 53 93 54 94 55 95 56 96
REMARK H PARENT 13 7 18 27 80 46 46 57
REMARK Flexibility Score: inf
ROOT
ATOM      1  C   UNL A   1      33.931  28.241  25.782  1.00  0.00     0.023 C 
ENDROOT
BRANCH   1   2
ATOM      2  C   UNL A   1      33.172  29.084  24.754  1.00  0.00     0.023 C 
BRANCH   2   3
ATOM      3  C   UNL A   1      32.119  28.308  23.967  1.00  0.00     0.116 C 
BRANCH   3   4
ATOM      4  N   UNL A   1      32.691  27.626  22.820  1.00  0.00    -0.352 N 
ATOM      5  C   UNL A   1      33.253  26.420  22.569  1.00  0.00     0.251 C 
ATOM      6  O   UNL A   1      33.625  26.247  21.403  1.00  0.00    -0.270 OA
ATOM      7  H   UNL A   1      32.661  28.188  22.012  1.00  0.00     0.163 HD
BRANCH   5   8
ATOM      8  C   UNL A   1      33.445  25.330  23.571  1.00  0.00     0.067 C 
ATOM      9  C   UNL A   1      37.251  20.614  24.827  1.00  0.00     0.044 C 
ATOM     10  C   UNL A   1      36.116  21.571  25.044  1.00  0.00    -0.050 A 
ATOM     11  C   UNL A   1      35.306  21.445  26.182  1.00  0.00     0.010 A 
ATOM     12  C   UNL A   1      35.880  22.619  24.146  1.00  0.00     0.015 A 
ATOM     13  C   UNL A   1      34.258  22.344  26.421  1.00  0.00    -0.008 A 
ATOM     14  C   UNL A   1      34.832  23.517  24.366  1.00  0.00     0.018 A 
ATOM     15  C   UNL A   1      33.391  22.196  27.639  1.00  0.00     0.048 C 
ATOM     16  C   UNL A   1      34.024  23.371  25.497  1.00  0.00     0.130 A 
ATOM     17  C   UNL A   1      34.586  24.626  23.451  1.00  0.00     0.025 C 
ATOM     18  O   UNL A   1      33.011  24.248  25.773  1.00  0.00    -0.475 OA
ATOM     19  C   UNL A   1      32.452  24.961  24.635  1.00  0.00     0.314 C 
BRANCH  19  20
ATOM     20  C   UNL A   1      31.250  24.172  24.081  1.00  0.00     0.429 C 
ATOM     21  F   UNL A   1      30.342  25.018  23.534  1.00  0.00    -0.167 F 
ATOM     22  F   UNL A   1      31.605  23.305  23.104  1.00  0.00    -0.167 F 
ATOM     23  F   UNL A   1      30.611  23.454  25.031  1.00  0.00    -0.167 F 
ENDBRANCH  19  20
ENDBRANCH   5   8
ENDBRANCH   3   4
ENDBRANCH   2   3
ENDBRANCH   1   2
BRANCH   1  24
ATOM     24  C   UNL A   1      33.519  28.453  27.239  1.00  0.00     0.116 C 
BRANCH  24  25
ATOM     25  N   UNL A   1      33.436  29.853  27.629  1.00  0.00    -0.352 N 
ATOM     26  C   UNL A   1      34.432  30.643  28.154  1.00  0.00     0.251 C 
ATOM     27  H   UNL A   1      32.562  30.287  27.501  1.00  0.00     0.163 HD
ATOM     28  O   UNL A   1      34.196  31.794  28.507  1.00  0.00    -0.269 OA
BRANCH  26  29
ATOM     29  C   UNL A   1      35.776  30.061  28.326  1.00  0.00     0.039 A 
ATOM     30  C   UNL A   1      36.663  30.089  27.249  1.00  0.00     0.014 A 
ATOM     31  C   UNL A   1      36.175  29.569  29.571  1.00  0.00     0.014 A 
ATOM     32  C   UNL A   1      37.986  29.690  27.443  1.00  0.00     0.010 A 
ATOM     33  C   UNL A   1      37.507  29.225  29.776  1.00  0.00     0.010 A 
ATOM     34  C   UNL A   1      38.424  29.291  28.717  1.00  0.00    -0.014 A 
BRANCH  34  35
ATOM     35  C   UNL A   1      39.845  28.947  28.962  1.00  0.00     0.031 A 
ATOM     36  C   UNL A   1      40.771  29.971  29.550  1.00  0.00     0.074 A 
ATOM     37  C   UNL A   1      40.308  27.735  28.601  1.00  0.00     0.049 A 
ATOM     38  N   UNL A   1      42.055  29.885  29.779  1.00  0.00    -0.248 NA
ATOM     39  C   UNL A   1      40.180  31.272  29.906  1.00  0.00     0.031 C 
ATOM     40  C   UNL A   1      39.510  26.672  27.982  1.00  0.00     0.029 A 
ATOM     41  N   UNL A   1      41.563  27.190  28.699  1.00  0.00    -0.354 N 
ATOM     42  C   UNL A   1      42.428  31.119  30.297  1.00  0.00     0.074 A 
ATOM     43  C   UNL A   1      41.245  31.953  30.301  1.00  0.00     0.031 C 
ATOM     44  C   UNL A   1      40.289  25.597  27.784  1.00  0.00     0.029 A 
ATOM     45  C   UNL A   1      41.644  25.900  28.233  1.00  0.00     0.049 A 
ATOM     46  H   UNL A   1      42.334  27.678  29.070  1.00  0.00     0.167 HD
ATOM     47  C   UNL A   1      43.640  31.513  30.752  1.00  0.00     0.037 A 
ATOM     48  C   UNL A   1      42.694  25.057  28.176  1.00  0.00     0.037 A 
ATOM     49  C   UNL A   1      44.806  30.671  30.771  1.00  0.00     0.049 A 
ATOM     50  C   UNL A   1      44.031  25.516  28.689  1.00  0.00     0.074 A 
ATOM     51  C   UNL A   1      46.072  30.961  31.250  1.00  0.00     0.029 A 
ATOM     52  N   UNL A   1      44.848  29.368  30.296  1.00  0.00    -0.354 N 
ATOM     53  N   UNL A   1      44.358  26.675  29.207  1.00  0.00    -0.248 NA
ATOM     54  C   UNL A   1      45.139  24.555  28.609  1.00  0.00     0.031 C 
ATOM     55  C   UNL A   1      46.885  29.842  31.043  1.00  0.00     0.029 A 
ATOM     56  C   UNL A   1      46.118  28.844  30.461  1.00  0.00     0.049 A 
ATOM     57  H   UNL A   1      44.086  28.887  29.900  1.00  0.00     0.167 HD
ATOM     58  C   UNL A   1      45.706  26.579  29.531  1.00  0.00     0.074 A 
ATOM     59  C   UNL A   1      46.131  25.244  29.159  1.00  0.00     0.031 C 
ATOM     60  C   UNL A   1      46.519  27.511  30.084  1.00  0.00     0.037 A 
BRANCH  47  61
ATOM     61  C   UNL A   1      43.755  32.913  31.280  1.00  0.00     0.058 A 
ATOM     62  C   UNL A   1      44.066  33.988  30.432  1.00  0.00     0.135 A 
ATOM     63  C   UNL A   1      43.543  33.188  32.640  1.00  0.00     0.135 A 
ATOM     64  F   UNL A   1      44.296  33.774  29.127  1.00  0.00    -0.206 F 
ATOM     65  C   UNL A   1      44.192  35.284  30.919  1.00  0.00     0.059 A 
ATOM     66  C   UNL A   1      43.641  34.482  33.144  1.00  0.00     0.059 A 
ATOM     67  F   UNL A   1      43.248  32.195  33.494  1.00  0.00    -0.206 F 
ATOM     68  C   UNL A   1      43.982  35.520  32.278  1.00  0.00     0.060 A 
BRANCH  68  69
ATOM     69  S   UNL A   1      44.157  37.208  32.896  1.00  0.00     0.124 S 
ATOM     70  O   UNL A   1      43.991  37.983  31.671  1.00  0.00    -0.237 OA
ATOM     71  O   UNL A   1      43.064  37.304  33.859  1.00  0.00    -0.237 OA
ATOM     72  O   UNL A   1      45.498  37.221  33.471  1.00  0.00    -0.744 OA
ENDBRANCH  68  69
ENDBRANCH  47  61
BRANCH  48  73
ATOM     73  C   UNL A   1      42.507  23.682  27.651  1.00  0.00     0.058 A 
ATOM     74  C   UNL A   1      42.543  23.433  26.271  1.00  0.00     0.135 A 
ATOM     75  C   UNL A   1      42.326  22.587  28.509  1.00  0.00     0.135 A 
ATOM     76  F   UNL A   1      42.708  24.450  25.412  1.00  0.00    -0.206 F 
ATOM     77  C   UNL A   1      42.405  22.148  25.757  1.00  0.00     0.059 A 
ATOM     78  C   UNL A   1      42.203  21.289  28.022  1.00  0.00     0.059 A 
ATOM     79  F   UNL A   1      42.298  22.772  29.838  1.00  0.00    -0.206 F 
ATOM     80  C   UNL A   1      42.241  21.081  26.642  1.00  0.00     0.060 A 
BRANCH  80  81
ATOM     81  S   UNL A   1      42.133  19.409  25.969  1.00  0.00     0.124 S 
ATOM     82  O   UNL A   1      40.708  19.296  25.684  1.00  0.00    -0.237 OA
ATOM     83  O   UNL A   1      43.012  19.490  24.806  1.00  0.00    -0.237 OA
ATOM     84  O   UNL A   1      42.628  18.576  27.060  1.00  0.00    -0.744 OA
ENDBRANCH  80  81
ENDBRANCH  48  73
BRANCH  60  85
ATOM     85  C   UNL A   1      47.947  27.123  30.333  1.00  0.00     0.058 A 
ATOM     86  C   UNL A   1      48.953  27.411  29.399  1.00  0.00     0.135 A 
ATOM     87  C   UNL A   1      48.322  26.525  31.546  1.00  0.00     0.135 A 
ATOM     88  F   UNL A   1      48.642  27.974  28.222  1.00  0.00    -0.206 F 
ATOM     89  C   UNL A   1      50.287  27.111  29.657  1.00  0.00     0.059 A 
ATOM     90  C   UNL A   1      49.652  26.235  31.833  1.00  0.00     0.059 A 
ATOM     91  F   UNL A   1      47.395  26.238  32.473  1.00  0.00    -0.206 F 
ATOM     92  C   UNL A   1      50.626  26.526  30.879  1.00  0.00     0.060 A 
BRANCH  92  93
ATOM     93  S   UNL A   1      52.367  26.193  31.223  1.00  0.00     0.124 S 
ATOM     94  O   UNL A   1      52.943  26.229  29.884  1.00  0.00    -0.237 OA
ATOM     95  O   UNL A   1      52.733  27.301  32.100  1.00  0.00    -0.237 OA
ATOM     96  O   UNL A   1      52.340  24.879  31.861  1.00  0.00    -0.744 OA
ENDBRANCH  92  93
ENDBRANCH  60  85
ENDBRANCH  34  35
ENDBRANCH  26  29
ENDBRANCH  24  25
ENDBRANCH   1  24
TORSDOF 15
ENDMDL
MODEL 2
REMARK VINA RESULT:     -11.8      1.303      2.099
REMARK SMILES Cc1cc(C)c2c(c1)C=C(C(=O)NCCCCNC(=O)c1ccc(-c3c4nc(c(-c5c(F)cc(S(=O)(=O)[O-])cc5F)c5ccc([nH]5)c(-c5c(F)cc(S(=O)(=O)[O-])cc5F)c5nc(c(-c6c(F)cc(S(=O)(=O)[O-])cc6F)c6ccc3[nH]6)C=C5)C=C4)cc1)[C@@H](C(F)(F)F)O2
REMARK SMILES IDX 16 1 15 2 14 3 13 4 11 5 12 6 10 8 1 9 2 10 3 11 8 12 4 13
REMARK SMILES IDX 7 14 5 15 6 16 9 17 92 18 87 19 88 20 89 21 90 22 91 23
REMARK SMILES IDX 17 24 18 25 19 26 20 28 21 29 22 30 86 31 23 32 85 33 24 34
REMARK SMILES IDX 25 35 26 36 79 37 27 38 84 39 78 40 80 41 28 42 83 43 77 44
REMARK SMILES IDX 76 45 29 47 63 48 42 49 62 50 43 51 46 52 61 53 81 54 44 55
REMARK SMILES IDX 45 56 60 58 82 59 47 60 30 61 31 62 40 63 32 64 33 65 39 66
REMARK SMILES IDX 41 67 34 68 35 69 36 70 37 71 38 72 64 73 65 74 74 75 66 76
REMARK SMILES IDX 67 77 73 78 75 79 68 80 69 81 70 82 71 83 72 84 48 85 49 86
REMARK SMILES IDX 58 87 50 88 51 89 57 90 59 91 52 92 53 93 54 94 55 95 56 96
REMARK H PARENT 13 7 18 27 80 46 46 57
REMARK Flexibility Score: inf
ROOT
ATOM      1  C   UNL A   1      32.284  27.771  26.926  1.00  0.00     0.023 C 
ENDROOT
BRANCH   1   2
ATOM      2  C   UNL A   1      31.763  27.749  25.486  1.00  0.00     0.023 C 
BRANCH   2   3
ATOM      3  C   UNL A   1      31.507  26.349  24.936  1.00  0.00     0.116 C 
BRANCH   3   4
ATOM      4  N   UNL A   1      31.934  26.220  23.555  1.00  0.00    -0.352 N 
ATOM      5  C   UNL A   1      32.712  25.377  22.837  1.00  0.00     0.251 C 
ATOM      6  O   UNL A   1      32.815  25.650  21.637  1.00  0.00    -0.270 OA
ATOM      7  H   UNL A   1      31.559  26.936  22.992  1.00  0.00     0.163 HD
BRANCH   5   8
ATOM      8  C   UNL A   1      33.425  24.183  23.383  1.00  0.00     0.067 C 
ATOM      9  C   UNL A   1      32.400  18.252  24.822  1.00  0.00     0.044 C 
ATOM     10  C   UNL A   1      33.194  19.509  24.620  1.00  0.00    -0.050 A 
ATOM     11  C   UNL A   1      34.567  19.519  24.902  1.00  0.00     0.010 A 
ATOM     12  C   UNL A   1      32.590  20.664  24.109  1.00  0.00     0.015 A 
ATOM     13  C   UNL A   1      35.335  20.672  24.695  1.00  0.00    -0.008 A 
ATOM     14  C   UNL A   1      33.341  21.825  23.906  1.00  0.00     0.018 A 
ATOM     15  C   UNL A   1      36.805  20.675  25.008  1.00  0.00     0.048 C 
ATOM     16  C   UNL A   1      34.706  21.824  24.206  1.00  0.00     0.130 A 
ATOM     17  C   UNL A   1      32.731  23.030  23.356  1.00  0.00     0.025 C 
ATOM     18  O   UNL A   1      35.488  22.925  23.988  1.00  0.00    -0.475 OA
ATOM     19  C   UNL A   1      34.803  24.208  23.978  1.00  0.00     0.314 C 
BRANCH  19  20
ATOM     20  C   UNL A   1      34.829  24.809  25.397  1.00  0.00     0.429 C 
ATOM     21  F   UNL A   1      34.740  26.162  25.338  1.00  0.00    -0.167 F 
ATOM     22  F   UNL A   1      33.791  24.388  26.157  1.00  0.00    -0.167 F 
ATOM     23  F   UNL A   1      35.959  24.509  26.073  1.00  0.00    -0.167 F 
ENDBRANCH  19  20
ENDBRANCH   5   8
ENDBRANCH   3   4
ENDBRANCH   2   3
ENDBRANCH   1   2
BRANCH   1  24
ATOM     24  C   UNL A   1      33.625  28.476  27.129  1.00  0.00     0.116 C 
BRANCH  24  25
ATOM     25  N   UNL A   1      33.504  29.843  27.615  1.00  0.00    -0.352 N 
ATOM     26  C   UNL A   1      34.471  30.614  28.215  1.00  0.00     0.251 C 
ATOM     27  H   UNL A   1      32.623  30.268  27.497  1.00  0.00     0.163 HD
ATOM     28  O   UNL A   1      34.204  31.733  28.643  1.00  0.00    -0.269 OA
BRANCH  26  29
ATOM     29  C   UNL A   1      35.823  30.049  28.377  1.00  0.00     0.039 A 
ATOM     30  C   UNL A   1      36.701  30.084  27.292  1.00  0.00     0.014 A 
ATOM     31  C   UNL A   1      36.240  29.564  29.620  1.00  0.00     0.014 A 
ATOM     32  C   UNL A   1      38.030  29.701  27.475  1.00  0.00     0.010 A 
ATOM     33  C   UNL A   1      37.577  29.236  29.813  1.00  0.00     0.010 A 
ATOM     34  C   UNL A   1      38.484  29.311  28.746  1.00  0.00    -0.014 A 
BRANCH  34  35
ATOM     35  C   UNL A   1      39.911  28.984  28.979  1.00  0.00     0.031 A 
ATOM     36  C   UNL A   1      40.830  30.019  29.559  1.00  0.00     0.074 A 
ATOM     37  C   UNL A   1      40.385  27.776  28.616  1.00  0.00     0.049 A 
ATOM     38  N   UNL A   1      42.116  29.949  29.777  1.00  0.00    -0.248 NA
ATOM     39  C   UNL A   1      40.226  31.313  29.919  1.00  0.00     0.031 C 
ATOM     40  C   UNL A   1      39.594  26.704  28.005  1.00  0.00     0.029 A 
ATOM     41  N   UNL A   1      41.648  27.247  28.704  1.00  0.00    -0.354 N 
ATOM     42  C   UNL A   1      42.479  31.188  30.291  1.00  0.00     0.074 A 
ATOM     43  C   UNL A   1      41.286  32.008  30.304  1.00  0.00     0.031 C 
ATOM     44  C   UNL A   1      40.385  25.638  27.801  1.00  0.00     0.029 A 
ATOM     45  C   UNL A   1      41.740  25.958  28.238  1.00  0.00     0.049 A 
ATOM     46  H   UNL A   1      42.415  27.745  29.068  1.00  0.00     0.167 HD
ATOM     47  C   UNL A   1      43.690  31.596  30.735  1.00  0.00     0.037 A 
ATOM     48  C   UNL A   1      42.799  25.128  28.173  1.00  0.00     0.037 A 
ATOM     49  C   UNL A   1      44.867  30.769  30.744  1.00  0.00     0.049 A 
ATOM     50  C   UNL A   1      44.135  25.602  28.674  1.00  0.00     0.074 A 
ATOM     51  C   UNL A   1      46.132  31.075  31.213  1.00  0.00     0.029 A 
ATOM     52  N   UNL A   1      44.919  29.466  30.270  1.00  0.00    -0.354 N 
ATOM     53  N   UNL A   1      44.453  26.766  29.188  1.00  0.00    -0.248 NA
ATOM     54  C   UNL A   1      45.254  24.655  28.585  1.00  0.00     0.031 C 
ATOM     55  C   UNL A   1      46.957  29.965  30.999  1.00  0.00     0.029 A 
ATOM     56  C   UNL A   1      46.197  28.957  30.425  1.00  0.00     0.049 A 
ATOM     57  H   UNL A   1      44.160  28.975  29.881  1.00  0.00     0.167 HD
ATOM     58  C   UNL A   1      45.804  26.687  29.500  1.00  0.00     0.074 A 
ATOM     59  C   UNL A   1      46.242  25.357  29.126  1.00  0.00     0.031 C 
ATOM     60  C   UNL A   1      46.610  27.629  30.046  1.00  0.00     0.037 A 
BRANCH  47  61
ATOM     61  C   UNL A   1      43.792  32.998  31.261  1.00  0.00     0.058 A 
ATOM     62  C   UNL A   1      43.499  33.297  32.601  1.00  0.00     0.135 A 
ATOM     63  C   UNL A   1      44.197  34.052  30.426  1.00  0.00     0.135 A 
ATOM     64  F   UNL A   1      43.089  32.328  33.435  1.00  0.00    -0.206 F 
ATOM     65  C   UNL A   1      43.573  34.596  33.089  1.00  0.00     0.059 A 
ATOM     66  C   UNL A   1      44.301  35.357  30.900  1.00  0.00     0.059 A 
ATOM     67  F   UNL A   1      44.485  33.821  29.136  1.00  0.00    -0.206 F 
ATOM     68  C   UNL A   1      43.972  35.621  32.229  1.00  0.00     0.060 A 
BRANCH  68  69
ATOM     69  S   UNL A   1      44.057  37.305  32.876  1.00  0.00     0.124 S 
ATOM     70  O   UNL A   1      43.826  38.090  31.668  1.00  0.00    -0.237 OA
ATOM     71  O   UNL A   1      42.976  37.318  33.857  1.00  0.00    -0.237 OA
ATOM     72  O   UNL A   1      45.404  37.387  33.431  1.00  0.00    -0.744 OA
ENDBRANCH  68  69
ENDBRANCH  47  61
BRANCH  48  73
ATOM     73  C   UNL A   1      42.624  23.749  27.651  1.00  0.00     0.058 A 
ATOM     74  C   UNL A   1      42.491  22.664  28.529  1.00  0.00     0.135 A 
ATOM     75  C   UNL A   1      42.549  23.490  26.274  1.00  0.00     0.135 A 
ATOM     76  F   UNL A   1      42.562  22.863  29.854  1.00  0.00    -0.206 F 
ATOM     77  C   UNL A   1      42.292  21.369  28.064  1.00  0.00     0.059 A 
ATOM     78  C   UNL A   1      42.333  22.206  25.783  1.00  0.00     0.059 A 
ATOM     79  F   UNL A   1      42.657  24.498  25.393  1.00  0.00    -0.206 F 
ATOM     80  C   UNL A   1      42.209  21.151  26.687  1.00  0.00     0.060 A 
BRANCH  80  81
ATOM     81  S   UNL A   1      41.879  19.476  26.096  1.00  0.00     0.124 S 
ATOM     82  O   UNL A   1      42.267  18.674  27.249  1.00  0.00    -0.237 OA
ATOM     83  O   UNL A   1      40.449  19.530  25.808  1.00  0.00    -0.237 OA
ATOM     84  O   UNL A   1      42.741  19.360  24.924  1.00  0.00    -0.744 OA
ENDBRANCH  80  81
ENDBRANCH  48  73
BRANCH  60  85
ATOM     85  C   UNL A   1      48.046  27.259  30.283  1.00  0.00     0.058 A 
ATOM     86  C   UNL A   1      49.049  27.611  29.369  1.00  0.00     0.135 A 
ATOM     87  C   UNL A   1      48.428  26.610  31.467  1.00  0.00     0.135 A 
ATOM     88  F   UNL A   1      48.731  28.225  28.219  1.00  0.00    -0.206 F 
ATOM     89  C   UNL A   1      50.388  27.327  29.619  1.00  0.00     0.059 A 
ATOM     90  C   UNL A   1      49.762  26.333  31.747  1.00  0.00     0.059 A 
ATOM     91  F   UNL A   1      47.503  26.259  32.375  1.00  0.00    -0.206 F 
ATOM     92  C   UNL A   1      50.734  26.690  30.813  1.00  0.00     0.060 A 
BRANCH  92  93
ATOM     93  S   UNL A   1      52.480  26.376  31.150  1.00  0.00     0.124 S 
ATOM     94  O   UNL A   1      52.411  25.151  31.939  1.00  0.00    -0.237 OA
ATOM     95  O   UNL A   1      53.038  26.235  29.809  1.00  0.00    -0.237 OA
ATOM     96  O   UNL A   1      52.904  27.569  31.877  1.00  0.00    -0.744 OA
ENDBRANCH  92  93
ENDBRANCH  60  85
ENDBRANCH  34  35
ENDBRANCH  26  29
ENDBRANCH  24  25
ENDBRANCH   1  24
TORSDOF 15
ENDMDL
MODEL 3
REMARK VINA RESULT:     -11.7      4.674     10.388
REMARK SMILES Cc1cc(C)c2c(c1)C=C(C(=O)NCCCCNC(=O)c1ccc(-c3c4nc(c(-c5c(F)cc(S(=O)(=O)[O-])cc5F)c5ccc([nH]5)c(-c5c(F)cc(S(=O)(=O)[O-])cc5F)c5nc(c(-c6c(F)cc(S(=O)(=O)[O-])cc6F)c6ccc3[nH]6)C=C5)C=C4)cc1)[C@@H](C(F)(F)F)O2
REMARK SMILES IDX 16 1 15 2 14 3 13 4 11 5 12 6 10 8 1 9 2 10 3 11 8 12 4 13
REMARK SMILES IDX 7 14 5 15 6 16 9 17 92 18 87 19 88 20 89 21 90 22 91 23
REMARK SMILES IDX 17 24 18 25 19 26 20 28 21 29 22 30 86 31 23 32 85 33 24 34
REMARK SMILES IDX 25 35 26 36 79 37 27 38 84 39 78 40 80 41 28 42 83 43 77 44
REMARK SMILES IDX 76 45 29 47 63 48 42 49 62 50 43 51 46 52 61 53 81 54 44 55
REMARK SMILES IDX 45 56 60 58 82 59 47 60 30 61 31 62 40 63 32 64 33 65 39 66
REMARK SMILES IDX 41 67 34 68 35 69 36 70 37 71 38 72 64 73 65 74 74 75 66 76
REMARK SMILES IDX 67 77 73 78 75 79 68 80 69 81 70 82 71 83 72 84 48 85 49 86
REMARK SMILES IDX 58 87 50 88 51 89 57 90 59 91 52 92 53 93 54 94 55 95 56 96
REMARK H PARENT 13 7 18 27 80 46 46 57
REMARK Flexibility Score: inf
ROOT
ATOM      1  C   UNL A   1      37.105  23.454  25.456  1.00  0.00     0.023 C 
ENDROOT
BRANCH   1   2
ATOM      2  C   UNL A   1      35.979  22.616  26.067  1.00  0.00     0.023 C 
BRANCH   2   3
ATOM      3  C   UNL A   1      34.581  23.022  25.612  1.00  0.00     0.116 C 
BRANCH   3   4
ATOM      4  N   UNL A   1      34.477  23.085  24.165  1.00  0.00    -0.352 N 
ATOM      5  C   UNL A   1      33.953  23.933  23.249  1.00  0.00     0.251 C 
ATOM      6  O   UNL A   1      34.089  23.584  22.072  1.00  0.00    -0.270 OA
ATOM      7  H   UNL A   1      34.900  22.305  23.737  1.00  0.00     0.163 HD
BRANCH   5   8
ATOM      8  C   UNL A   1      33.248  25.213  23.559  1.00  0.00     0.067 C 
ATOM      9  C   UNL A   1      33.753  30.175  27.223  1.00  0.00     0.044 C 
ATOM     10  C   UNL A   1      33.182  29.308  26.140  1.00  0.00    -0.050 A 
ATOM     11  C   UNL A   1      32.049  29.732  25.431  1.00  0.00     0.010 A 
ATOM     12  C   UNL A   1      33.793  28.096  25.795  1.00  0.00     0.015 A 
ATOM     13  C   UNL A   1      31.515  28.953  24.397  1.00  0.00    -0.008 A 
ATOM     14  C   UNL A   1      33.266  27.303  24.772  1.00  0.00     0.018 A 
ATOM     15  C   UNL A   1      30.296  29.413  23.649  1.00  0.00     0.048 C 
ATOM     16  C   UNL A   1      32.128  27.732  24.084  1.00  0.00     0.130 A 
ATOM     17  C   UNL A   1      33.903  26.049  24.387  1.00  0.00     0.025 C 
ATOM     18  O   UNL A   1      31.598  27.009  23.051  1.00  0.00    -0.475 OA
ATOM     19  C   UNL A   1      31.883  25.582  23.054  1.00  0.00     0.314 C 
BRANCH  19  20
ATOM     20  C   UNL A   1      30.753  24.840  23.793  1.00  0.00     0.429 C 
ATOM     21  F   UNL A   1      31.082  24.659  25.097  1.00  0.00    -0.167 F 
ATOM     22  F   UNL A   1      29.588  25.529  23.784  1.00  0.00    -0.167 F 
ATOM     23  F   UNL A   1      30.495  23.622  23.270  1.00  0.00    -0.167 F 
ENDBRANCH  19  20
ENDBRANCH   5   8
ENDBRANCH   3   4
ENDBRANCH   2   3
ENDBRANCH   1   2
BRANCH   1  24
ATOM     24  C   UNL A   1      38.082  24.072  26.456  1.00  0.00     0.116 C 
BRANCH  24  25
ATOM     25  N   UNL A   1      39.482  23.887  26.102  1.00  0.00    -0.352 N 
ATOM     26  C   UNL A   1      40.563  24.631  26.516  1.00  0.00     0.251 C 
ATOM     27  H   UNL A   1      39.680  23.138  25.494  1.00  0.00     0.163 HD
ATOM     28  O   UNL A   1      41.685  24.403  26.075  1.00  0.00    -0.269 OA
BRANCH  26  29
ATOM     29  C   UNL A   1      40.335  25.738  27.463  1.00  0.00     0.039 A 
ATOM     30  C   UNL A   1      39.474  25.532  28.543  1.00  0.00     0.014 A 
ATOM     31  C   UNL A   1      41.035  26.939  27.324  1.00  0.00     0.014 A 
ATOM     32  C   UNL A   1      39.373  26.510  29.532  1.00  0.00     0.010 A 
ATOM     33  C   UNL A   1      40.974  27.888  28.338  1.00  0.00     0.010 A 
ATOM     34  C   UNL A   1      40.152  27.677  29.454  1.00  0.00    -0.014 A 
BRANCH  34  35
ATOM     35  C   UNL A   1      40.123  28.687  30.538  1.00  0.00     0.031 A 
ATOM     36  C   UNL A   1      41.060  28.559  31.705  1.00  0.00     0.074 A 
ATOM     37  C   UNL A   1      39.216  29.682  30.497  1.00  0.00     0.049 A 
ATOM     38  N   UNL A   1      41.144  29.300  32.778  1.00  0.00    -0.248 NA
ATOM     39  C   UNL A   1      42.010  27.436  31.669  1.00  0.00     0.031 C 
ATOM     40  C   UNL A   1      38.227  29.884  29.434  1.00  0.00     0.029 A 
ATOM     41  N   UNL A   1      38.975  30.711  31.373  1.00  0.00    -0.354 N 
ATOM     42  C   UNL A   1      42.149  28.729  33.549  1.00  0.00     0.074 A 
ATOM     43  C   UNL A   1      42.609  27.552  32.845  1.00  0.00     0.031 C 
ATOM     44  C   UNL A   1      37.507  30.985  29.707  1.00  0.00     0.029 A 
ATOM     45  C   UNL A   1      37.962  31.549  30.974  1.00  0.00     0.049 A 
ATOM     46  H   UNL A   1      39.481  30.836  32.208  1.00  0.00     0.167 HD
ATOM     47  C   UNL A   1      42.659  29.163  34.726  1.00  0.00     0.037 A 
ATOM     48  C   UNL A   1      37.459  32.651  31.565  1.00  0.00     0.037 A 
ATOM     49  C   UNL A   1      42.216  30.349  35.409  1.00  0.00     0.049 A 
ATOM     50  C   UNL A   1      38.042  33.115  32.870  1.00  0.00     0.074 A 
ATOM     51  C   UNL A   1      42.697  30.897  36.585  1.00  0.00     0.029 A 
ATOM     52  N   UNL A   1      41.192  31.176  34.971  1.00  0.00    -0.354 N 
ATOM     53  N   UNL A   1      39.016  32.583  33.570  1.00  0.00    -0.248 NA
ATOM     54  C   UNL A   1      37.460  34.325  33.467  1.00  0.00     0.031 C 
ATOM     55  C   UNL A   1      41.947  32.043  36.871  1.00  0.00     0.029 A 
ATOM     56  C   UNL A   1      41.019  32.225  35.858  1.00  0.00     0.049 A 
ATOM     57  H   UNL A   1      40.666  31.038  34.150  1.00  0.00     0.167 HD
ATOM     58  C   UNL A   1      39.176  33.401  34.681  1.00  0.00     0.074 A 
ATOM     59  C   UNL A   1      38.205  34.470  34.557  1.00  0.00     0.031 C 
ATOM     60  C   UNL A   1      40.046  33.279  35.712  1.00  0.00     0.037 A 
BRANCH  47  61
ATOM     61  C   UNL A   1      43.765  28.353  35.335  1.00  0.00     0.058 A 
ATOM     62  C   UNL A   1      43.495  27.331  36.260  1.00  0.00     0.135 A 
ATOM     63  C   UNL A   1      45.105  28.588  34.988  1.00  0.00     0.135 A 
ATOM     64  F   UNL A   1      42.233  27.079  36.639  1.00  0.00    -0.206 F 
ATOM     65  C   UNL A   1      44.517  26.589  36.842  1.00  0.00     0.059 A 
ATOM     66  C   UNL A   1      46.142  27.842  35.542  1.00  0.00     0.059 A 
ATOM     67  F   UNL A   1      45.417  29.556  34.113  1.00  0.00    -0.206 F 
ATOM     68  C   UNL A   1      45.838  26.856  36.479  1.00  0.00     0.060 A 
BRANCH  68  69
ATOM     69  S   UNL A   1      47.155  25.889  37.250  1.00  0.00     0.124 S 
ATOM     70  O   UNL A   1      46.470  25.350  38.420  1.00  0.00    -0.237 OA
ATOM     71  O   UNL A   1      47.485  24.922  36.208  1.00  0.00    -0.237 OA
ATOM     72  O   UNL A   1      48.186  26.883  37.528  1.00  0.00    -0.744 OA
ENDBRANCH  68  69
ENDBRANCH  47  61
BRANCH  48  73
ATOM     73  C   UNL A   1      36.370  33.411  30.900  1.00  0.00     0.058 A 
ATOM     74  C   UNL A   1      35.073  33.415  31.434  1.00  0.00     0.135 A 
ATOM     75  C   UNL A   1      36.607  34.175  29.748  1.00  0.00     0.135 A 
ATOM     76  F   UNL A   1      34.799  32.694  32.532  1.00  0.00    -0.206 F 
ATOM     77  C   UNL A   1      34.046  34.147  30.849  1.00  0.00     0.059 A 
ATOM     78  C   UNL A   1      35.601  34.931  29.153  1.00  0.00     0.059 A 
ATOM     79  F   UNL A   1      37.835  34.215  29.208  1.00  0.00    -0.206 F 
ATOM     80  C   UNL A   1      34.322  34.908  29.711  1.00  0.00     0.060 A 
BRANCH  80  81
ATOM     81  S   UNL A   1      32.998  35.910  29.000  1.00  0.00     0.124 S 
ATOM     82  O   UNL A   1      33.753  36.950  28.312  1.00  0.00    -0.237 OA
ATOM     83  O   UNL A   1      32.311  34.948  28.144  1.00  0.00    -0.237 OA
ATOM     84  O   UNL A   1      32.243  36.346  30.170  1.00  0.00    -0.744 OA
ENDBRANCH  80  81
ENDBRANCH  48  73
BRANCH  60  85
ATOM     85  C   UNL A   1      39.999  34.328  36.785  1.00  0.00     0.058 A 
ATOM     86  C   UNL A   1      40.762  35.501  36.690  1.00  0.00     0.135 A 
ATOM     87  C   UNL A   1      39.130  34.191  37.878  1.00  0.00     0.135 A 
ATOM     88  F   UNL A   1      41.613  35.673  35.668  1.00  0.00    -0.206 F 
ATOM     89  C   UNL A   1      40.670  36.504  37.651  1.00  0.00     0.059 A 
ATOM     90  C   UNL A   1      39.007  35.188  38.839  1.00  0.00     0.059 A 
ATOM     91  F   UNL A   1      38.375  33.089  38.007  1.00  0.00    -0.206 F 
ATOM     92  C   UNL A   1      39.786  36.339  38.720  1.00  0.00     0.060 A 
BRANCH  92  93
ATOM     93  S   UNL A   1      39.636  37.672  39.929  1.00  0.00     0.124 S 
ATOM     94  O   UNL A   1      38.398  38.315  39.505  1.00  0.00    -0.237 OA
ATOM     95  O   UNL A   1      39.572  36.944  41.192  1.00  0.00    -0.237 OA
ATOM     96  O   UNL A   1      40.853  38.453  39.723  1.00  0.00    -0.744 OA
ENDBRANCH  92  93
ENDBRANCH  60  85
ENDBRANCH  34  35
ENDBRANCH  26  29
ENDBRANCH  24  25
ENDBRANCH   1  24
TORSDOF 15
ENDMDL
