MODEL 1
REMARK VINA RESULT:     -11.7      0.000      0.000
REMARK SMILES Cc1cc(OC(F)(F)F)cc2c1O[C@H](C(F)(F)F)C(C(=O)NCCCCNC(=O)c1ccc(-c3c4nc(c(-c5c(F)cc(S(=O)(=O)[O-])cc5F)c5ccc([nH]5)c(-c5c(F)cc(S(=O)(=O)[O-])cc5F)c5nc(c(-c6c(F)cc(S(=O)(=O)[O-])cc6F)c6ccc3[nH]6)C=C5)C=C4)cc1)=C2
REMARK SMILES IDX 25 1 24 2 23 3 22 4 20 5 21 6 19 8 1 9 2 10 3 11 12 12 4 13
REMARK SMILES IDX 11 14 13 15 10 16 96 17 14 18 5 19 6 20 7 21 8 22 9 23 15 24
REMARK SMILES IDX 16 25 17 26 18 27 26 28 27 29 28 30 29 32 30 33 31 34 95 35
REMARK SMILES IDX 32 36 94 37 33 38 34 39 35 40 88 41 36 42 93 43 87 44 89 45
REMARK SMILES IDX 37 46 92 47 86 48 85 49 38 51 72 52 51 53 71 54 52 55 55 56
REMARK SMILES IDX 70 57 90 58 53 59 54 60 69 62 91 63 56 64 39 65 40 66 49 67
REMARK SMILES IDX 41 68 42 69 48 70 50 71 43 72 44 73 45 74 46 75 47 76 73 77
REMARK SMILES IDX 74 78 83 79 75 80 76 81 82 82 84 83 77 84 78 85 79 86 80 87
REMARK SMILES IDX 81 88 57 89 58 90 67 91 59 92 60 93 66 94 68 95 61 96 62 97
REMARK SMILES IDX 63 98 64 99 65 100
REMARK H PARENT 22 7 27 31 89 50 55 61
REMARK Flexibility Score: inf
ROOT
ATOM      1  C   UNL A   1      34.102  27.965  25.619  1.00  0.00     0.023 C 
ENDROOT
BRANCH   1   2
ATOM      2  C   UNL A   1      33.121  28.573  24.614  1.00  0.00     0.023 C 
BRANCH   2   3
ATOM      3  C   UNL A   1      32.021  27.613  24.167  1.00  0.00     0.116 C 
BRANCH   3   4
ATOM      4  N   UNL A   1      31.178  27.206  25.276  1.00  0.00    -0.352 N 
ATOM      5  C   UNL A   1      30.911  26.059  25.944  1.00  0.00     0.251 C 
ATOM      6  O   UNL A   1      30.087  26.161  26.858  1.00  0.00    -0.270 OA
ATOM      7  H   UNL A   1      30.665  27.963  25.638  1.00  0.00     0.163 HD
BRANCH   5   8
ATOM      8  C   UNL A   1      31.528  24.730  25.656  1.00  0.00     0.067 C 
ATOM      9  C   UNL A   1      32.618  19.807  24.590  1.00  0.00     0.048 C 
ATOM     10  C   UNL A   1      33.376  20.986  25.133  1.00  0.00    -0.005 A 
ATOM     11  C   UNL A   1      34.758  20.871  25.364  1.00  0.00     0.054 A 
ATOM     12  C   UNL A   1      32.754  22.222  25.350  1.00  0.00     0.131 A 
ATOM     13  C   UNL A   1      35.496  21.958  25.838  1.00  0.00     0.130 A 
ATOM     14  C   UNL A   1      33.480  23.315  25.824  1.00  0.00     0.021 A 
ATOM     15  O   UNL A   1      31.408  22.298  25.125  1.00  0.00    -0.475 OA
ATOM     16  C   UNL A   1      34.849  23.176  26.068  1.00  0.00     0.058 A 
ATOM     17  C   UNL A   1      32.792  24.571  26.093  1.00  0.00     0.025 C 
ATOM     18  C   UNL A   1      30.857  23.624  24.896  1.00  0.00     0.314 C 
BRANCH  13  19
ATOM     19  O   UNL A   1      36.835  21.969  26.114  1.00  0.00    -0.406 OA
BRANCH  19  20
ATOM     20  C   UNL A   1      37.730  21.714  25.046  1.00  0.00     0.573 C 
ATOM     21  F   UNL A   1      37.813  20.392  24.780  1.00  0.00    -0.132 F 
ATOM     22  F   UNL A   1      37.359  22.375  23.928  1.00  0.00    -0.132 F 
ATOM     23  F   UNL A   1      38.961  22.146  25.398  1.00  0.00    -0.132 F 
ENDBRANCH  19  20
ENDBRANCH  13  19
BRANCH  18  24
ATOM     24  C   UNL A   1      30.799  23.890  23.381  1.00  0.00     0.429 C 
ATOM     25  F   UNL A   1      29.751  24.698  23.082  1.00  0.00    -0.167 F 
ATOM     26  F   UNL A   1      31.909  24.512  22.919  1.00  0.00    -0.167 F 
ATOM     27  F   UNL A   1      30.653  22.756  22.658  1.00  0.00    -0.167 F 
ENDBRANCH  18  24
ENDBRANCH   5   8
ENDBRANCH   3   4
ENDBRANCH   2   3
ENDBRANCH   1   2
BRANCH   1  28
ATOM     28  C   UNL A   1      33.751  28.186  27.090  1.00  0.00     0.116 C 
BRANCH  28  29
ATOM     29  N   UNL A   1      33.506  29.584  27.417  1.00  0.00    -0.352 N 
ATOM     30  C   UNL A   1      34.370  30.476  28.001  1.00  0.00     0.251 C 
ATOM     31  H   UNL A   1      32.612  29.931  27.191  1.00  0.00     0.163 HD
ATOM     32  O   UNL A   1      33.995  31.601  28.314  1.00  0.00    -0.269 OA
BRANCH  30  33
ATOM     33  C   UNL A   1      35.751  30.041  28.268  1.00  0.00     0.039 A 
ATOM     34  C   UNL A   1      36.691  30.098  27.237  1.00  0.00     0.014 A 
ATOM     35  C   UNL A   1      36.114  29.632  29.555  1.00  0.00     0.014 A 
ATOM     36  C   UNL A   1      38.023  29.784  27.509  1.00  0.00     0.010 A 
ATOM     37  C   UNL A   1      37.449  29.359  29.832  1.00  0.00     0.010 A 
ATOM     38  C   UNL A   1      38.409  29.429  28.810  1.00  0.00    -0.014 A 
BRANCH  38  39
ATOM     39  C   UNL A   1      39.806  29.053  29.120  1.00  0.00     0.031 A 
ATOM     40  C   UNL A   1      40.710  30.076  29.742  1.00  0.00     0.074 A 
ATOM     41  C   UNL A   1      40.267  27.833  28.791  1.00  0.00     0.049 A 
ATOM     42  N   UNL A   1      41.993  30.010  29.978  1.00  0.00    -0.248 NA
ATOM     43  C   UNL A   1      40.088  31.352  30.131  1.00  0.00     0.031 C 
ATOM     44  C   UNL A   1      39.479  26.764  28.176  1.00  0.00     0.029 A 
ATOM     45  N   UNL A   1      41.521  27.292  28.918  1.00  0.00    -0.354 N 
ATOM     46  C   UNL A   1      42.335  31.236  30.534  1.00  0.00     0.074 A 
ATOM     47  C   UNL A   1      41.134  32.042  30.560  1.00  0.00     0.031 C 
ATOM     48  C   UNL A   1      40.268  25.692  27.985  1.00  0.00     0.029 A 
ATOM     49  C   UNL A   1      41.620  26.010  28.434  1.00  0.00     0.049 A 
ATOM     50  H   UNL A   1      42.279  27.778  29.317  1.00  0.00     0.167 HD
ATOM     51  C   UNL A   1      43.539  31.646  30.997  1.00  0.00     0.037 A 
ATOM     52  C   UNL A   1      42.687  25.193  28.355  1.00  0.00     0.037 A 
ATOM     53  C   UNL A   1      44.725  30.835  30.980  1.00  0.00     0.049 A 
ATOM     54  C   UNL A   1      44.021  25.680  28.854  1.00  0.00     0.074 A 
ATOM     55  C   UNL A   1      45.993  31.150  31.434  1.00  0.00     0.029 A 
ATOM     56  N   UNL A   1      44.787  29.539  30.484  1.00  0.00    -0.354 N 
ATOM     57  N   UNL A   1      44.331  26.843  29.375  1.00  0.00    -0.248 NA
ATOM     58  C   UNL A   1      45.149  24.745  28.751  1.00  0.00     0.031 C 
ATOM     59  C   UNL A   1      46.828  30.050  31.194  1.00  0.00     0.029 A 
ATOM     60  C   UNL A   1      46.072  29.042  30.618  1.00  0.00     0.049 A 
ATOM     61  H   UNL A   1      44.028  29.048  30.095  1.00  0.00     0.167 HD
ATOM     62  C   UNL A   1      45.686  26.775  29.678  1.00  0.00     0.074 A 
ATOM     63  C   UNL A   1      46.132  25.451  29.293  1.00  0.00     0.031 C 
ATOM     64  C   UNL A   1      46.490  27.722  30.223  1.00  0.00     0.037 A 
BRANCH  51  65
ATOM     65  C   UNL A   1      43.617  33.034  31.564  1.00  0.00     0.058 A 
ATOM     66  C   UNL A   1      43.275  33.295  32.901  1.00  0.00     0.135 A 
ATOM     67  C   UNL A   1      44.035  34.112  30.769  1.00  0.00     0.135 A 
ATOM     68  F   UNL A   1      42.845  32.302  33.695  1.00  0.00    -0.206 F 
ATOM     69  C   UNL A   1      43.319  34.583  33.423  1.00  0.00     0.059 A 
ATOM     70  C   UNL A   1      44.108  35.405  31.277  1.00  0.00     0.059 A 
ATOM     71  F   UNL A   1      44.363  33.915  29.482  1.00  0.00    -0.206 F 
ATOM     72  C   UNL A   1      43.734  35.633  32.602  1.00  0.00     0.060 A 
BRANCH  72  73
ATOM     73  S   UNL A   1      43.782  37.300  33.292  1.00  0.00     0.124 S 
ATOM     74  O   UNL A   1      45.092  37.311  33.936  1.00  0.00    -0.237 OA
ATOM     75  O   UNL A   1      43.656  38.135  32.102  1.00  0.00    -0.237 OA
ATOM     76  O   UNL A   1      42.637  37.326  34.196  1.00  0.00    -0.744 OA
ENDBRANCH  72  73
ENDBRANCH  51  65
BRANCH  52  77
ATOM     77  C   UNL A   1      42.538  23.824  27.798  1.00  0.00     0.058 A 
ATOM     78  C   UNL A   1      42.432  22.714  28.648  1.00  0.00     0.135 A 
ATOM     79  C   UNL A   1      42.485  23.599  26.414  1.00  0.00     0.135 A 
ATOM     80  F   UNL A   1      42.485  22.881  29.978  1.00  0.00    -0.206 F 
ATOM     81  C   UNL A   1      42.287  21.424  28.148  1.00  0.00     0.059 A 
ATOM     82  C   UNL A   1      42.323  22.320  25.890  1.00  0.00     0.059 A 
ATOM     83  F   UNL A   1      42.569  24.631  25.561  1.00  0.00    -0.206 F 
ATOM     84  C   UNL A   1      42.232  21.238  26.766  1.00  0.00     0.060 A 
BRANCH  84  85
ATOM     85  S   UNL A   1      41.988  19.565  26.128  1.00  0.00     0.124 S 
ATOM     86  O   UNL A   1      42.392  18.753  27.269  1.00  0.00    -0.237 OA
ATOM     87  O   UNL A   1      40.561  19.563  25.814  1.00  0.00    -0.237 OA
ATOM     88  O   UNL A   1      42.874  19.516  24.970  1.00  0.00    -0.744 OA
ENDBRANCH  84  85
ENDBRANCH  52  77
BRANCH  64  89
ATOM     89  C   UNL A   1      47.927  27.347  30.447  1.00  0.00     0.058 A 
ATOM     90  C   UNL A   1      48.889  27.503  29.439  1.00  0.00     0.135 A 
ATOM     91  C   UNL A   1      48.349  26.858  31.693  1.00  0.00     0.135 A 
ATOM     92  F   UNL A   1      48.533  27.963  28.228  1.00  0.00    -0.206 F 
ATOM     93  C   UNL A   1      50.221  27.161  29.649  1.00  0.00     0.059 A 
ATOM     94  C   UNL A   1      49.680  26.529  31.933  1.00  0.00     0.059 A 
ATOM     95  F   UNL A   1      47.466  26.701  32.692  1.00  0.00    -0.206 F 
ATOM     96  C   UNL A   1      50.606  26.672  30.899  1.00  0.00     0.060 A 
BRANCH  96  97
ATOM     97  S   UNL A   1      52.338  26.245  31.167  1.00  0.00     0.124 S 
ATOM     98  O   UNL A   1      52.779  27.337  32.028  1.00  0.00    -0.237 OA
ATOM     99  O   UNL A   1      52.245  24.934  31.804  1.00  0.00    -0.237 OA
ATOM    100  O   UNL A   1      52.899  26.240  29.818  1.00  0.00    -0.744 OA
ENDBRANCH  96  97
ENDBRANCH  64  89
ENDBRANCH  38  39
ENDBRANCH  30  33
ENDBRANCH  28  29
ENDBRANCH   1  28
TORSDOF 17
ENDMDL
MODEL 2
REMARK VINA RESULT:     -11.5      3.036      9.085
REMARK SMILES Cc1cc(OC(F)(F)F)cc2c1O[C@H](C(F)(F)F)C(C(=O)NCCCCNC(=O)c1ccc(-c3c4nc(c(-c5c(F)cc(S(=O)(=O)[O-])cc5F)c5ccc([nH]5)c(-c5c(F)cc(S(=O)(=O)[O-])cc5F)c5nc(c(-c6c(F)cc(S(=O)(=O)[O-])cc6F)c6ccc3[nH]6)C=C5)C=C4)cc1)=C2
REMARK SMILES IDX 25 1 24 2 23 3 22 4 20 5 21 6 19 8 1 9 2 10 3 11 12 12 4 13
REMARK SMILES IDX 11 14 13 15 10 16 96 17 14 18 5 19 6 20 7 21 8 22 9 23 15 24
REMARK SMILES IDX 16 25 17 26 18 27 26 28 27 29 28 30 29 32 30 33 31 34 95 35
REMARK SMILES IDX 32 36 94 37 33 38 34 39 35 40 88 41 36 42 93 43 87 44 89 45
REMARK SMILES IDX 37 46 92 47 86 48 85 49 38 51 72 52 51 53 71 54 52 55 55 56
REMARK SMILES IDX 70 57 90 58 53 59 54 60 69 62 91 63 56 64 39 65 40 66 49 67
REMARK SMILES IDX 41 68 42 69 48 70 50 71 43 72 44 73 45 74 46 75 47 76 73 77
REMARK SMILES IDX 74 78 83 79 75 80 76 81 82 82 84 83 77 84 78 85 79 86 80 87
REMARK SMILES IDX 81 88 57 89 58 90 67 91 59 92 60 93 66 94 68 95 61 96 62 97
REMARK SMILES IDX 63 98 64 99 65 100
REMARK H PARENT 22 7 27 31 89 50 55 61
REMARK Flexibility Score: inf
ROOT
ATOM      1  C   UNL A   1      35.027  23.611  25.822  1.00  0.00     0.023 C 
ENDROOT
BRANCH   1   2
ATOM      2  C   UNL A   1      34.438  22.594  26.804  1.00  0.00     0.023 C 
BRANCH   2   3
ATOM      3  C   UNL A   1      33.224  21.845  26.261  1.00  0.00     0.116 C 
BRANCH   3   4
ATOM      4  N   UNL A   1      31.979  22.424  26.731  1.00  0.00    -0.352 N 
ATOM      5  C   UNL A   1      31.333  23.607  26.608  1.00  0.00     0.251 C 
ATOM      6  O   UNL A   1      30.253  23.683  27.203  1.00  0.00    -0.270 OA
ATOM      7  H   UNL A   1      31.469  21.790  27.284  1.00  0.00     0.163 HD
BRANCH   5   8
ATOM      8  C   UNL A   1      31.825  24.782  25.828  1.00  0.00     0.067 C 
ATOM      9  C   UNL A   1      33.795  28.077  22.389  1.00  0.00     0.048 C 
ATOM     10  C   UNL A   1      33.425  28.130  23.846  1.00  0.00    -0.005 A 
ATOM     11  C   UNL A   1      33.506  29.353  24.533  1.00  0.00     0.054 A 
ATOM     12  C   UNL A   1      32.933  27.006  24.519  1.00  0.00     0.131 A 
ATOM     13  C   UNL A   1      33.139  29.443  25.878  1.00  0.00     0.130 A 
ATOM     14  C   UNL A   1      32.565  27.082  25.863  1.00  0.00     0.021 A 
ATOM     15  O   UNL A   1      32.876  25.830  23.825  1.00  0.00    -0.475 OA
ATOM     16  C   UNL A   1      32.672  28.302  26.536  1.00  0.00     0.058 A 
ATOM     17  C   UNL A   1      32.110  25.881  26.552  1.00  0.00     0.025 C 
ATOM     18  C   UNL A   1      31.969  24.814  24.334  1.00  0.00     0.314 C 
BRANCH  13  19
ATOM     19  O   UNL A   1      33.186  30.565  26.656  1.00  0.00    -0.406 OA
BRANCH  19  20
ATOM     20  C   UNL A   1      34.243  30.675  27.593  1.00  0.00     0.573 C 
ATOM     21  F   UNL A   1      33.815  31.213  28.756  1.00  0.00    -0.132 F 
ATOM     22  F   UNL A   1      34.809  29.472  27.835  1.00  0.00    -0.132 F 
ATOM     23  F   UNL A   1      35.194  31.488  27.083  1.00  0.00    -0.132 F 
ENDBRANCH  19  20
ENDBRANCH  13  19
BRANCH  18  24
ATOM     24  C   UNL A   1      30.617  24.936  23.607  1.00  0.00     0.429 C 
ATOM     25  F   UNL A   1      30.149  23.709  23.268  1.00  0.00    -0.167 F 
ATOM     26  F   UNL A   1      29.664  25.514  24.374  1.00  0.00    -0.167 F 
ATOM     27  F   UNL A   1      30.702  25.663  22.469  1.00  0.00    -0.167 F 
ENDBRANCH  18  24
ENDBRANCH   5   8
ENDBRANCH   3   4
ENDBRANCH   2   3
ENDBRANCH   1   2
BRANCH   1  28
ATOM     28  C   UNL A   1      36.455  24.062  26.128  1.00  0.00     0.116 C 
BRANCH  28  29
ATOM     29  N   UNL A   1      37.435  22.993  25.995  1.00  0.00    -0.352 N 
ATOM     30  C   UNL A   1      38.764  23.023  26.334  1.00  0.00     0.251 C 
ATOM     31  H   UNL A   1      37.103  22.147  25.617  1.00  0.00     0.163 HD
ATOM     32  O   UNL A   1      39.501  22.078  26.070  1.00  0.00    -0.269 OA
BRANCH  30  33
ATOM     33  C   UNL A   1      39.292  24.227  26.996  1.00  0.00     0.039 A 
ATOM     34  C   UNL A   1      40.019  25.152  26.243  1.00  0.00     0.014 A 
ATOM     35  C   UNL A   1      39.015  24.455  28.347  1.00  0.00     0.014 A 
ATOM     36  C   UNL A   1      40.435  26.342  26.840  1.00  0.00     0.010 A 
ATOM     37  C   UNL A   1      39.396  25.660  28.928  1.00  0.00     0.010 A 
ATOM     38  C   UNL A   1      40.112  26.606  28.179  1.00  0.00    -0.014 A 
BRANCH  38  39
ATOM     39  C   UNL A   1      40.573  27.842  28.849  1.00  0.00     0.031 A 
ATOM     40  C   UNL A   1      41.966  27.889  29.404  1.00  0.00     0.074 A 
ATOM     41  C   UNL A   1      39.731  28.878  29.011  1.00  0.00     0.049 A 
ATOM     42  N   UNL A   1      42.533  28.809  30.137  1.00  0.00    -0.248 NA
ATOM     43  C   UNL A   1      42.830  26.734  29.108  1.00  0.00     0.031 C 
ATOM     44  C   UNL A   1      38.353  28.937  28.519  1.00  0.00     0.029 A 
ATOM     45  N   UNL A   1      39.910  30.080  29.647  1.00  0.00    -0.354 N 
ATOM     46  C   UNL A   1      43.815  28.343  30.399  1.00  0.00     0.074 A 
ATOM     47  C   UNL A   1      43.928  27.038  29.784  1.00  0.00     0.031 C 
ATOM     48  C   UNL A   1      37.814  30.119  28.868  1.00  0.00     0.029 A 
ATOM     49  C   UNL A   1      38.796  30.884  29.632  1.00  0.00     0.049 A 
ATOM     50  H   UNL A   1      40.758  30.341  30.075  1.00  0.00     0.167 HD
ATOM     51  C   UNL A   1      44.814  28.955  31.078  1.00  0.00     0.037 A 
ATOM     52  C   UNL A   1      38.593  32.095  30.184  1.00  0.00     0.037 A 
ATOM     53  C   UNL A   1      44.698  30.257  31.676  1.00  0.00     0.049 A 
ATOM     54  C   UNL A   1      39.710  32.745  30.955  1.00  0.00     0.074 A 
ATOM     55  C   UNL A   1      45.652  30.973  32.375  1.00  0.00     0.029 A 
ATOM     56  N   UNL A   1      43.554  31.043  31.638  1.00  0.00    -0.354 N 
ATOM     57  N   UNL A   1      40.917  32.291  31.197  1.00  0.00    -0.248 NA
ATOM     58  C   UNL A   1      39.437  34.070  31.528  1.00  0.00     0.031 C 
ATOM     59  C   UNL A   1      45.078  32.185  32.780  1.00  0.00     0.029 A 
ATOM     60  C   UNL A   1      43.777  32.235  32.305  1.00  0.00     0.049 A 
ATOM     61  H   UNL A   1      42.710  30.789  31.201  1.00  0.00     0.167 HD
ATOM     62  C   UNL A   1      41.553  33.280  31.938  1.00  0.00     0.074 A 
ATOM     63  C   UNL A   1      40.601  34.362  32.091  1.00  0.00     0.031 C 
ATOM     64  C   UNL A   1      42.811  33.294  32.447  1.00  0.00     0.037 A 
BRANCH  51  65
ATOM     65  C   UNL A   1      46.114  28.214  31.196  1.00  0.00     0.058 A 
ATOM     66  C   UNL A   1      46.387  27.393  32.302  1.00  0.00     0.135 A 
ATOM     67  C   UNL A   1      47.096  28.325  30.200  1.00  0.00     0.135 A 
ATOM     68  F   UNL A   1      45.489  27.274  33.294  1.00  0.00    -0.206 F 
ATOM     69  C   UNL A   1      47.601  26.727  32.430  1.00  0.00     0.059 A 
ATOM     70  C   UNL A   1      48.309  27.650  30.297  1.00  0.00     0.059 A 
ATOM     71  F   UNL A   1      46.887  29.106  29.129  1.00  0.00    -0.206 F 
ATOM     72  C   UNL A   1      48.558  26.864  31.422  1.00  0.00     0.060 A 
BRANCH  72  73
ATOM     73  S   UNL A   1      50.130  25.998  31.604  1.00  0.00     0.124 S 
ATOM     74  O   UNL A   1      50.576  25.911  30.217  1.00  0.00    -0.237 OA
ATOM     75  O   UNL A   1      50.891  26.905  32.457  1.00  0.00    -0.237 OA
ATOM     76  O   UNL A   1      49.751  24.732  32.223  1.00  0.00    -0.744 OA
ENDBRANCH  72  73
ENDBRANCH  51  65
BRANCH  52  77
ATOM     77  C   UNL A   1      37.287  32.781  30.014  1.00  0.00     0.058 A 
ATOM     78  C   UNL A   1      36.246  32.573  30.930  1.00  0.00     0.135 A 
ATOM     79  C   UNL A   1      37.056  33.663  28.947  1.00  0.00     0.135 A 
ATOM     80  F   UNL A   1      36.419  31.732  31.961  1.00  0.00    -0.206 F 
ATOM     81  C   UNL A   1      35.016  33.208  30.792  1.00  0.00     0.059 A 
ATOM     82  C   UNL A   1      35.840  34.323  28.798  1.00  0.00     0.059 A 
ATOM     83  F   UNL A   1      38.026  33.904  28.052  1.00  0.00    -0.206 F 
ATOM     84  C   UNL A   1      34.824  34.083  29.722  1.00  0.00     0.060 A 
BRANCH  84  85
ATOM     85  S   UNL A   1      33.242  34.946  29.584  1.00  0.00     0.124 S 
ATOM     86  O   UNL A   1      32.520  34.088  28.652  1.00  0.00    -0.237 OA
ATOM     87  O   UNL A   1      32.765  34.933  30.964  1.00  0.00    -0.237 OA
ATOM     88  O   UNL A   1      33.621  36.259  29.073  1.00  0.00    -0.744 OA
ENDBRANCH  84  85
ENDBRANCH  52  77
BRANCH  64  89
ATOM     89  C   UNL A   1      43.226  34.524  33.202  1.00  0.00     0.058 A 
ATOM     90  C   UNL A   1      43.152  34.583  34.601  1.00  0.00     0.135 A 
ATOM     91  C   UNL A   1      43.734  35.640  32.519  1.00  0.00     0.135 A 
ATOM     92  F   UNL A   1      42.669  33.542  35.298  1.00  0.00    -0.206 F 
ATOM     93  C   UNL A   1      43.543  35.721  35.299  1.00  0.00     0.059 A 
ATOM     94  C   UNL A   1      44.150  36.781  33.198  1.00  0.00     0.059 A 
ATOM     95  F   UNL A   1      43.834  35.626  31.180  1.00  0.00    -0.206 F 
ATOM     96  C   UNL A   1      44.037  36.817  34.588  1.00  0.00     0.060 A 
BRANCH  96  97
ATOM     97  S   UNL A   1      44.556  38.283  35.503  1.00  0.00     0.124 S 
ATOM     98  O   UNL A   1      45.981  38.331  35.195  1.00  0.00    -0.237 OA
ATOM     99  O   UNL A   1      43.741  39.334  34.902  1.00  0.00    -0.237 OA
ATOM    100  O   UNL A   1      44.221  37.953  36.887  1.00  0.00    -0.744 OA
ENDBRANCH  96  97
ENDBRANCH  64  89
ENDBRANCH  38  39
ENDBRANCH  30  33
ENDBRANCH  28  29
ENDBRANCH   1  28
TORSDOF 17
ENDMDL
MODEL 3
REMARK VINA RESULT:     -11.5      3.684      8.312
REMARK SMILES Cc1cc(OC(F)(F)F)cc2c1O[C@H](C(F)(F)F)C(C(=O)NCCCCNC(=O)c1ccc(-c3c4nc(c(-c5c(F)cc(S(=O)(=O)[O-])cc5F)c5ccc([nH]5)c(-c5c(F)cc(S(=O)(=O)[O-])cc5F)c5nc(c(-c6c(F)cc(S(=O)(=O)[O-])cc6F)c6ccc3[nH]6)C=C5)C=C4)cc1)=C2
REMARK SMILES IDX 25 1 24 2 23 3 22 4 20 5 21 6 19 8 1 9 2 10 3 11 12 12 4 13
REMARK SMILES IDX 11 14 13 15 10 16 96 17 14 18 5 19 6 20 7 21 8 22 9 23 15 24
REMARK SMILES IDX 16 25 17 26 18 27 26 28 27 29 28 30 29 32 30 33 31 34 95 35
REMARK SMILES IDX 32 36 94 37 33 38 34 39 35 40 88 41 36 42 93 43 87 44 89 45
REMARK SMILES IDX 37 46 92 47 86 48 85 49 38 51 72 52 51 53 71 54 52 55 55 56
REMARK SMILES IDX 70 57 90 58 53 59 54 60 69 62 91 63 56 64 39 65 40 66 49 67
REMARK SMILES IDX 41 68 42 69 48 70 50 71 43 72 44 73 45 74 46 75 47 76 73 77
REMARK SMILES IDX 74 78 83 79 75 80 76 81 82 82 84 83 77 84 78 85 79 86 80 87
REMARK SMILES IDX 81 88 57 89 58 90 67 91 59 92 60 93 66 94 68 95 61 96 62 97
REMARK SMILES IDX 63 98 64 99 65 100
REMARK H PARENT 22 7 27 31 89 50 55 61
REMARK Flexibility Score: inf
ROOT
ATOM      1  C   UNL A   1      39.296  21.337  25.985  1.00  0.00     0.023 C 
ENDROOT
BRANCH   1   2
ATOM      2  C   UNL A   1      39.332  22.803  26.424  1.00  0.00     0.023 C 
BRANCH   2   3
ATOM      3  C   UNL A   1      38.092  23.598  26.021  1.00  0.00     0.116 C 
BRANCH   3   4
ATOM      4  N   UNL A   1      37.688  23.311  24.657  1.00  0.00    -0.352 N 
ATOM      5  C   UNL A   1      36.527  23.250  23.963  1.00  0.00     0.251 C 
ATOM      6  O   UNL A   1      36.640  22.950  22.771  1.00  0.00    -0.270 OA
ATOM      7  H   UNL A   1      38.463  23.108  24.084  1.00  0.00     0.163 HD
BRANCH   5   8
ATOM      8  C   UNL A   1      35.171  23.515  24.529  1.00  0.00     0.067 C 
ATOM      9  C   UNL A   1      30.317  23.369  26.255  1.00  0.00     0.048 C 
ATOM     10  C   UNL A   1      31.297  24.446  25.881  1.00  0.00    -0.005 A 
ATOM     11  C   UNL A   1      30.957  25.792  26.096  1.00  0.00     0.054 A 
ATOM     12  C   UNL A   1      32.572  24.139  25.390  1.00  0.00     0.131 A 
ATOM     13  C   UNL A   1      31.857  26.815  25.788  1.00  0.00     0.130 A 
ATOM     14  C   UNL A   1      33.480  25.152  25.078  1.00  0.00     0.021 A 
ATOM     15  O   UNL A   1      32.868  22.821  25.184  1.00  0.00    -0.475 OA
ATOM     16  C   UNL A   1      33.116  26.486  25.278  1.00  0.00     0.058 A 
ATOM     17  C   UNL A   1      34.778  24.803  24.514  1.00  0.00     0.025 C 
ATOM     18  C   UNL A   1      34.277  22.469  25.129  1.00  0.00     0.314 C 
BRANCH  13  19
ATOM     19  O   UNL A   1      31.640  28.156  25.937  1.00  0.00    -0.406 OA
BRANCH  19  20
ATOM     20  C   UNL A   1      31.857  28.721  27.217  1.00  0.00     0.573 C 
ATOM     21  F   UNL A   1      31.009  28.204  28.133  1.00  0.00    -0.132 F 
ATOM     22  F   UNL A   1      33.130  28.532  27.626  1.00  0.00    -0.132 F 
ATOM     23  F   UNL A   1      31.634  30.053  27.149  1.00  0.00    -0.132 F 
ENDBRANCH  19  20
ENDBRANCH  13  19
BRANCH  18  24
ATOM     24  C   UNL A   1      34.739  22.022  26.528  1.00  0.00     0.429 C 
ATOM     25  F   UNL A   1      35.059  23.100  27.287  1.00  0.00    -0.167 F 
ATOM     26  F   UNL A   1      33.778  21.348  27.203  1.00  0.00    -0.167 F 
ATOM     27  F   UNL A   1      35.828  21.220  26.487  1.00  0.00    -0.167 F 
ENDBRANCH  18  24
ENDBRANCH   5   8
ENDBRANCH   3   4
ENDBRANCH   2   3
ENDBRANCH   1   2
BRANCH   1  28
ATOM     28  C   UNL A   1      40.012  20.359  26.917  1.00  0.00     0.116 C 
BRANCH  28  29
ATOM     29  N   UNL A   1      40.907  19.450  26.215  1.00  0.00    -0.352 N 
ATOM     30  C   UNL A   1      42.172  19.706  25.750  1.00  0.00     0.251 C 
ATOM     31  H   UNL A   1      40.562  18.541  26.057  1.00  0.00     0.163 HD
ATOM     32  O   UNL A   1      42.777  18.872  25.082  1.00  0.00    -0.269 OA
BRANCH  30  33
ATOM     33  C   UNL A   1      42.777  21.015  26.047  1.00  0.00     0.039 A 
ATOM     34  C   UNL A   1      42.998  21.912  25.000  1.00  0.00     0.014 A 
ATOM     35  C   UNL A   1      43.069  21.361  27.370  1.00  0.00     0.014 A 
ATOM     36  C   UNL A   1      43.476  23.191  25.287  1.00  0.00     0.010 A 
ATOM     37  C   UNL A   1      43.507  22.649  27.656  1.00  0.00     0.010 A 
ATOM     38  C   UNL A   1      43.718  23.568  26.616  1.00  0.00    -0.014 A 
BRANCH  38  39
ATOM     39  C   UNL A   1      44.262  24.904  26.948  1.00  0.00     0.031 A 
ATOM     40  C   UNL A   1      43.319  25.975  27.413  1.00  0.00     0.074 A 
ATOM     41  C   UNL A   1      45.570  25.164  26.775  1.00  0.00     0.049 A 
ATOM     42  N   UNL A   1      43.551  27.242  27.632  1.00  0.00    -0.248 NA
ATOM     43  C   UNL A   1      41.923  25.568  27.641  1.00  0.00     0.031 C 
ATOM     44  C   UNL A   1      46.574  24.200  26.321  1.00  0.00     0.029 A 
ATOM     45  N   UNL A   1      46.277  26.325  26.950  1.00  0.00    -0.354 N 
ATOM     46  C   UNL A   1      42.332  27.786  28.015  1.00  0.00     0.074 A 
ATOM     47  C   UNL A   1      41.353  26.721  27.955  1.00  0.00     0.031 C 
ATOM     48  C   UNL A   1      47.771  24.811  26.260  1.00  0.00     0.029 A 
ATOM     49  C   UNL A   1      47.611  26.212  26.638  1.00  0.00     0.049 A 
ATOM     50  H   UNL A   1      45.867  27.163  27.268  1.00  0.00     0.167 HD
ATOM     51  C   UNL A   1      42.056  29.054  28.397  1.00  0.00     0.037 A 
ATOM     52  C   UNL A   1      48.586  27.140  26.649  1.00  0.00     0.037 A 
ATOM     53  C   UNL A   1      43.037  30.103  28.466  1.00  0.00     0.049 A 
ATOM     54  C   UNL A   1      48.251  28.550  27.054  1.00  0.00     0.074 A 
ATOM     55  C   UNL A   1      42.866  31.421  28.852  1.00  0.00     0.029 A 
ATOM     56  N   UNL A   1      44.379  29.950  28.145  1.00  0.00    -0.354 N 
ATOM     57  N   UNL A   1      47.092  29.051  27.411  1.00  0.00    -0.248 NA
ATOM     58  C   UNL A   1      49.354  29.520  27.056  1.00  0.00     0.031 C 
ATOM     59  C   UNL A   1      44.102  32.070  28.744  1.00  0.00     0.029 A 
ATOM     60  C   UNL A   1      45.047  31.150  28.321  1.00  0.00     0.049 A 
ATOM     61  H   UNL A   1      44.793  29.112  27.838  1.00  0.00     0.167 HD
ATOM     62  C   UNL A   1      47.329  30.391  27.696  1.00  0.00     0.074 A 
ATOM     63  C   UNL A   1      48.744  30.617  27.482  1.00  0.00     0.031 C 
ATOM     64  C   UNL A   1      46.456  31.349  28.096  1.00  0.00     0.037 A 
BRANCH  51  65
ATOM     65  C   UNL A   1      40.637  29.362  28.774  1.00  0.00     0.058 A 
ATOM     66  C   UNL A   1      39.631  29.473  27.800  1.00  0.00     0.135 A 
ATOM     67  C   UNL A   1      40.275  29.549  30.117  1.00  0.00     0.135 A 
ATOM     68  F   UNL A   1      39.931  29.327  26.499  1.00  0.00    -0.206 F 
ATOM     69  C   UNL A   1      38.320  29.785  28.142  1.00  0.00     0.059 A 
ATOM     70  C   UNL A   1      38.964  29.840  30.484  1.00  0.00     0.059 A 
ATOM     71  F   UNL A   1      41.201  29.463  31.085  1.00  0.00    -0.206 F 
ATOM     72  C   UNL A   1      37.996  29.970  29.488  1.00  0.00     0.060 A 
BRANCH  72  73
ATOM     73  S   UNL A   1      36.292  30.379  29.916  1.00  0.00     0.124 S 
ATOM     74  O   UNL A   1      36.371  31.828  30.071  1.00  0.00    -0.237 OA
ATOM     75  O   UNL A   1      35.554  29.907  28.749  1.00  0.00    -0.237 OA
ATOM     76  O   UNL A   1      36.061  29.627  31.145  1.00  0.00    -0.744 OA
ENDBRANCH  72  73
ENDBRANCH  51  65
BRANCH  52  77
ATOM     77  C   UNL A   1      49.975  26.765  26.281  1.00  0.00     0.058 A 
ATOM     78  C   UNL A   1      50.871  26.299  27.253  1.00  0.00     0.135 A 
ATOM     79  C   UNL A   1      50.430  26.851  24.956  1.00  0.00     0.135 A 
ATOM     80  F   UNL A   1      50.482  26.207  28.534  1.00  0.00    -0.206 F 
ATOM     81  C   UNL A   1      52.175  25.939  26.929  1.00  0.00     0.059 A 
ATOM     82  C   UNL A   1      51.724  26.480  24.605  1.00  0.00     0.059 A 
ATOM     83  F   UNL A   1      49.605  27.279  23.988  1.00  0.00    -0.206 F 
ATOM     84  C   UNL A   1      52.591  26.031  25.601  1.00  0.00     0.060 A 
BRANCH  84  85
ATOM     85  S   UNL A   1      54.269  25.507  25.182  1.00  0.00     0.124 S 
ATOM     86  O   UNL A   1      54.180  24.063  25.365  1.00  0.00    -0.237 OA
ATOM     87  O   UNL A   1      54.399  25.970  23.803  1.00  0.00    -0.237 OA
ATOM     88  O   UNL A   1      55.094  26.219  26.153  1.00  0.00    -0.744 OA
ENDBRANCH  84  85
ENDBRANCH  52  77
BRANCH  64  89
ATOM     89  C   UNL A   1      47.016  32.721  28.341  1.00  0.00     0.058 A 
ATOM     90  C   UNL A   1      47.535  33.087  29.591  1.00  0.00     0.135 A 
ATOM     91  C   UNL A   1      47.063  33.665  27.304  1.00  0.00     0.135 A 
ATOM     92  F   UNL A   1      47.508  32.219  30.615  1.00  0.00    -0.206 F 
ATOM     93  C   UNL A   1      48.059  34.355  29.814  1.00  0.00     0.059 A 
ATOM     94  C   UNL A   1      47.602  34.933  27.498  1.00  0.00     0.059 A 
ATOM     95  F   UNL A   1      46.588  33.357  26.086  1.00  0.00    -0.206 F 
ATOM     96  C   UNL A   1      48.085  35.273  28.762  1.00  0.00     0.060 A 
BRANCH  96  97
ATOM     97  S   UNL A   1      48.780  36.912  29.057  1.00  0.00     0.124 S 
ATOM     98  O   UNL A   1      50.132  36.756  28.530  1.00  0.00    -0.237 OA
ATOM     99  O   UNL A   1      47.893  37.775  28.284  1.00  0.00    -0.237 OA
ATOM    100  O   UNL A   1      48.684  37.064  30.507  1.00  0.00    -0.744 OA
ENDBRANCH  96  97
ENDBRANCH  64  89
ENDBRANCH  38  39
ENDBRANCH  30  33
ENDBRANCH  28  29
ENDBRANCH   1  28
TORSDOF 17
ENDMDL
