MODEL 1
REMARK VINA RESULT:     -10.7      0.000      0.000
REMARK SMILES CC(C)(C)OC(=O)N[C@H](c1ccccc1)[C@@H](O)CC(=O)NCCCCNC(=O)c1ccc(-c2c3nc(c(-c4c(F)cc(S(=O)(=O)[O-])cc4F)c4ccc([nH]4)c(-c4c(F)cc(S(=O)(=O)[O-])cc4F)c4nc(c(-c5c(F)cc(S(=O)(=O)[O-])cc5F)c5ccc2[nH]5)C=C4)C=C3)cc1
REMARK SMILES IDX 22 1 21 2 19 3 20 4 18 6 16 7 9 8 8 9 6 10 7 11 5 13 2 14
REMARK SMILES IDX 1 15 3 16 4 17 10 18 11 19 15 20 12 21 14 22 13 23 17 24
REMARK SMILES IDX 23 26 24 27 25 28 26 29 27 30 28 32 29 33 30 34 94 35 31 36
REMARK SMILES IDX 93 37 32 38 33 39 34 40 87 41 35 42 92 43 86 44 88 45 36 46
REMARK SMILES IDX 91 47 85 48 84 49 37 51 71 52 50 53 70 54 51 55 54 56 69 57
REMARK SMILES IDX 89 58 52 59 53 60 68 62 90 63 55 64 38 65 39 66 48 67 40 68
REMARK SMILES IDX 41 69 47 70 49 71 42 72 43 73 44 74 45 75 46 76 72 77 73 78
REMARK SMILES IDX 82 79 74 80 75 81 81 82 83 83 76 84 77 85 78 86 79 87 80 88
REMARK SMILES IDX 56 89 57 90 66 91 58 92 59 93 65 94 67 95 60 96 61 97 62 98
REMARK SMILES IDX 63 99 64 100
REMARK H PARENT 21 5 8 12 17 25 26 31 88 50 54 61
REMARK Flexibility Score: inf
ROOT
ATOM      1  C   UNL A   1      34.170  21.635  26.668  1.00  0.00     0.116 C 
ENDROOT
BRANCH   1   2
ATOM      2  N   UNL A   1      32.819  21.356  26.203  1.00  0.00    -0.356 N 
ATOM      3  C   UNL A   1      31.784  22.190  25.921  1.00  0.00     0.222 C 
ATOM      4  O   UNL A   1      30.669  21.707  25.722  1.00  0.00    -0.275 OA
ATOM      5  H   UNL A   1      32.622  20.401  26.071  1.00  0.00     0.163 HD
BRANCH   3   6
ATOM      6  C   UNL A   1      31.999  23.675  25.860  1.00  0.00     0.134 C 
BRANCH   6   7
ATOM      7  C   UNL A   1      30.886  24.427  25.121  1.00  0.00     0.150 C 
BRANCH   7   8
ATOM      8  C   UNL A   1      31.049  25.983  25.159  1.00  0.00     0.145 C 
BRANCH   8   9
ATOM      9  N   UNL A   1      30.891  26.560  26.500  1.00  0.00    -0.312 N 
ATOM     10  C   UNL A   1      31.735  27.438  27.144  1.00  0.00     0.408 C 
ATOM     11  O   UNL A   1      31.471  27.835  28.266  1.00  0.00    -0.225 OA
ATOM     12  H   UNL A   1      30.087  26.285  26.999  1.00  0.00     0.167 HD
BRANCH  10  13
ATOM     13  O   UNL A   1      32.835  27.773  26.425  1.00  0.00    -0.444 OA
BRANCH  13  14
ATOM     14  C   UNL A   1      33.081  29.107  25.878  1.00  0.00     0.106 C 
ATOM     15  C   UNL A   1      34.080  29.748  26.854  1.00  0.00     0.056 C 
ATOM     16  C   UNL A   1      31.810  29.953  25.906  1.00  0.00     0.056 C 
ATOM     17  C   UNL A   1      33.692  29.116  24.474  1.00  0.00     0.056 C 
ENDBRANCH  13  14
ENDBRANCH  10  13
ENDBRANCH   8   9
BRANCH   8  18
ATOM     18  C   UNL A   1      30.136  26.710  24.182  1.00  0.00    -0.023 A 
ATOM     19  C   UNL A   1      28.743  26.571  24.247  1.00  0.00     0.006 A 
ATOM     20  C   UNL A   1      30.694  27.662  23.310  1.00  0.00     0.006 A 
ATOM     21  C   UNL A   1      27.924  27.438  23.526  1.00  0.00     0.000 A 
ATOM     22  C   UNL A   1      29.870  28.515  22.581  1.00  0.00     0.000 A 
ATOM     23  C   UNL A   1      28.487  28.417  22.708  1.00  0.00     0.000 A 
ENDBRANCH   8  18
ENDBRANCH   7   8
BRANCH   7  24
ATOM     24  O   UNL A   1      30.960  23.923  23.771  1.00  0.00    -0.390 OA
ATOM     25  H   UNL A   1      31.296  23.014  23.783  1.00  0.00     0.211 HD
ENDBRANCH   7  24
ENDBRANCH   6   7
ENDBRANCH   3   6
ENDBRANCH   1   2
BRANCH   1  26
ATOM     26  C   UNL A   1      35.069  22.177  25.564  1.00  0.00     0.023 C 
BRANCH  26  27
ATOM     27  C   UNL A   1      35.778  23.473  25.935  1.00  0.00     0.023 C 
BRANCH  27  28
ATOM     28  C   UNL A   1      37.044  23.707  25.147  1.00  0.00     0.116 C 
BRANCH  28  29
ATOM     29  N   UNL A   1      38.086  22.740  25.484  1.00  0.00    -0.352 N 
ATOM     30  C   UNL A   1      39.310  22.929  26.081  1.00  0.00     0.251 C 
ATOM     31  H   UNL A   1      37.880  21.807  25.245  1.00  0.00     0.163 HD
ATOM     32  O   UNL A   1      40.154  22.039  26.038  1.00  0.00    -0.269 OA
BRANCH  30  33
ATOM     33  C   UNL A   1      39.595  24.201  26.769  1.00  0.00     0.039 A 
ATOM     34  C   UNL A   1      40.337  25.198  26.127  1.00  0.00     0.014 A 
ATOM     35  C   UNL A   1      39.149  24.389  28.076  1.00  0.00     0.014 A 
ATOM     36  C   UNL A   1      40.610  26.391  26.801  1.00  0.00     0.010 A 
ATOM     37  C   UNL A   1      39.288  25.620  28.683  1.00  0.00     0.010 A 
ATOM     38  C   UNL A   1      40.080  26.604  28.082  1.00  0.00    -0.014 A 
BRANCH  38  39
ATOM     39  C   UNL A   1      40.441  27.767  28.921  1.00  0.00     0.031 A 
ATOM     40  C   UNL A   1      41.701  27.680  29.744  1.00  0.00     0.074 A 
ATOM     41  C   UNL A   1      39.602  28.811  29.034  1.00  0.00     0.049 A 
ATOM     42  N   UNL A   1      42.111  28.444  30.719  1.00  0.00    -0.248 NA
ATOM     43  C   UNL A   1      42.589  26.533  29.473  1.00  0.00     0.031 C 
ATOM     44  C   UNL A   1      38.339  28.971  28.310  1.00  0.00     0.029 A 
ATOM     45  N   UNL A   1      39.678  29.925  29.827  1.00  0.00    -0.354 N 
ATOM     46  C   UNL A   1      43.272  27.848  31.200  1.00  0.00     0.074 A 
ATOM     47  C   UNL A   1      43.459  26.620  30.465  1.00  0.00     0.031 C 
ATOM     48  C   UNL A   1      37.764  30.125  28.686  1.00  0.00     0.029 A 
ATOM     49  C   UNL A   1      38.591  30.758  29.709  1.00  0.00     0.049 A 
ATOM     50  H   UNL A   1      40.437  30.111  30.425  1.00  0.00     0.167 HD
ATOM     51  C   UNL A   1      44.122  28.303  32.147  1.00  0.00     0.037 A 
ATOM     52  C   UNL A   1      38.296  31.891  30.371  1.00  0.00     0.037 A 
ATOM     53  C   UNL A   1      43.941  29.557  32.826  1.00  0.00     0.049 A 
ATOM     54  C   UNL A   1      39.265  32.389  31.412  1.00  0.00     0.074 A 
ATOM     55  C   UNL A   1      44.768  30.163  33.753  1.00  0.00     0.029 A 
ATOM     56  N   UNL A   1      42.856  30.403  32.639  1.00  0.00    -0.354 N 
ATOM     57  N   UNL A   1      40.386  31.845  31.824  1.00  0.00    -0.248 NA
ATOM     58  C   UNL A   1      38.933  33.658  32.073  1.00  0.00     0.031 C 
ATOM     59  C   UNL A   1      44.160  31.352  34.162  1.00  0.00     0.029 A 
ATOM     60  C   UNL A   1      42.984  31.518  33.446  1.00  0.00     0.049 A 
ATOM     61  H   UNL A   1      42.107  30.234  32.023  1.00  0.00     0.167 HD
ATOM     62  C   UNL A   1      40.911  32.721  32.768  1.00  0.00     0.074 A 
ATOM     63  C   UNL A   1      39.989  33.835  32.856  1.00  0.00     0.031 C 
ATOM     64  C   UNL A   1      42.052  32.618  33.497  1.00  0.00     0.037 A 
BRANCH  51  65
ATOM     65  C   UNL A   1      45.317  27.453  32.488  1.00  0.00     0.058 A 
ATOM     66  C   UNL A   1      45.269  26.478  33.499  1.00  0.00     0.135 A 
ATOM     67  C   UNL A   1      46.521  27.599  31.783  1.00  0.00     0.135 A 
ATOM     68  F   UNL A   1      44.151  26.305  34.222  1.00  0.00    -0.206 F 
ATOM     69  C   UNL A   1      46.380  25.703  33.819  1.00  0.00     0.059 A 
ATOM     70  C   UNL A   1      47.635  26.811  32.061  1.00  0.00     0.059 A 
ATOM     71  F   UNL A   1      46.629  28.520  30.811  1.00  0.00    -0.206 F 
ATOM     72  C   UNL A   1      47.558  25.875  33.092  1.00  0.00     0.060 A 
BRANCH  72  73
ATOM     73  S   UNL A   1      48.982  24.849  33.509  1.00  0.00     0.124 S 
ATOM     74  O   UNL A   1      49.671  25.688  34.485  1.00  0.00    -0.237 OA
ATOM     75  O   UNL A   1      48.353  23.645  34.042  1.00  0.00    -0.237 OA
ATOM     76  O   UNL A   1      49.669  24.681  32.231  1.00  0.00    -0.744 OA
ENDBRANCH  72  73
ENDBRANCH  51  65
BRANCH  52  77
ATOM     77  C   UNL A   1      37.053  32.640  30.050  1.00  0.00     0.058 A 
ATOM     78  C   UNL A   1      35.855  32.368  30.729  1.00  0.00     0.135 A 
ATOM     79  C   UNL A   1      37.036  33.656  29.081  1.00  0.00     0.135 A 
ATOM     80  F   UNL A   1      35.819  31.405  31.663  1.00  0.00    -0.206 F 
ATOM     81  C   UNL A   1      34.682  33.057  30.445  1.00  0.00     0.059 A 
ATOM     82  C   UNL A   1      35.881  34.380  28.800  1.00  0.00     0.059 A 
ATOM     83  F   UNL A   1      38.159  33.970  28.417  1.00  0.00    -0.206 F 
ATOM     84  C   UNL A   1      34.705  34.065  29.480  1.00  0.00     0.060 A 
BRANCH  84  85
ATOM     85  S   UNL A   1      33.183  34.980  29.152  1.00  0.00     0.124 S 
ATOM     86  O   UNL A   1      32.559  34.151  28.127  1.00  0.00    -0.237 OA
ATOM     87  O   UNL A   1      32.536  34.975  30.460  1.00  0.00    -0.237 OA
ATOM     88  O   UNL A   1      33.663  36.284  28.703  1.00  0.00    -0.744 OA
ENDBRANCH  84  85
ENDBRANCH  52  77
BRANCH  64  89
ATOM     89  C   UNL A   1      42.389  33.760  34.414  1.00  0.00     0.058 A 
ATOM     90  C   UNL A   1      42.024  33.755  35.768  1.00  0.00     0.135 A 
ATOM     91  C   UNL A   1      43.145  34.846  33.940  1.00  0.00     0.135 A 
ATOM     92  F   UNL A   1      41.298  32.743  36.270  1.00  0.00    -0.206 F 
ATOM     93  C   UNL A   1      42.374  34.801  36.617  1.00  0.00     0.059 A 
ATOM     94  C   UNL A   1      43.535  35.884  34.777  1.00  0.00     0.059 A 
ATOM     95  F   UNL A   1      43.532  34.891  32.655  1.00  0.00    -0.206 F 
ATOM     96  C   UNL A   1      43.133  35.858  36.112  1.00  0.00     0.060 A 
BRANCH  96  97
ATOM     97  S   UNL A   1      43.611  37.189  37.233  1.00  0.00     0.124 S 
ATOM     98  O   UNL A   1      44.787  36.620  37.881  1.00  0.00    -0.237 OA
ATOM     99  O   UNL A   1      43.865  38.293  36.312  1.00  0.00    -0.237 OA
ATOM    100  O   UNL A   1      42.439  37.350  38.088  1.00  0.00    -0.744 OA
ENDBRANCH  96  97
ENDBRANCH  64  89
ENDBRANCH  38  39
ENDBRANCH  30  33
ENDBRANCH  28  29
ENDBRANCH  27  28
ENDBRANCH  26  27
ENDBRANCH   1  26
TORSDOF 21
ENDMDL
MODEL 2
REMARK VINA RESULT:     -10.5      5.030      9.655
REMARK SMILES CC(C)(C)OC(=O)N[C@H](c1ccccc1)[C@@H](O)CC(=O)NCCCCNC(=O)c1ccc(-c2c3nc(c(-c4c(F)cc(S(=O)(=O)[O-])cc4F)c4ccc([nH]4)c(-c4c(F)cc(S(=O)(=O)[O-])cc4F)c4nc(c(-c5c(F)cc(S(=O)(=O)[O-])cc5F)c5ccc2[nH]5)C=C4)C=C3)cc1
REMARK SMILES IDX 22 1 21 2 19 3 20 4 18 6 16 7 9 8 8 9 6 10 7 11 5 13 2 14
REMARK SMILES IDX 1 15 3 16 4 17 10 18 11 19 15 20 12 21 14 22 13 23 17 24
REMARK SMILES IDX 23 26 24 27 25 28 26 29 27 30 28 32 29 33 30 34 94 35 31 36
REMARK SMILES IDX 93 37 32 38 33 39 34 40 87 41 35 42 92 43 86 44 88 45 36 46
REMARK SMILES IDX 91 47 85 48 84 49 37 51 71 52 50 53 70 54 51 55 54 56 69 57
REMARK SMILES IDX 89 58 52 59 53 60 68 62 90 63 55 64 38 65 39 66 48 67 40 68
REMARK SMILES IDX 41 69 47 70 49 71 42 72 43 73 44 74 45 75 46 76 72 77 73 78
REMARK SMILES IDX 82 79 74 80 75 81 81 82 83 83 76 84 77 85 78 86 79 87 80 88
REMARK SMILES IDX 56 89 57 90 66 91 58 92 59 93 65 94 67 95 60 96 61 97 62 98
REMARK SMILES IDX 63 99 64 100
REMARK H PARENT 21 5 8 12 17 25 26 31 88 50 54 61
REMARK Flexibility Score: inf
ROOT
ATOM      1  C   UNL A   1      32.230  29.704  25.547  1.00  0.00     0.116 C 
ENDROOT
BRANCH   1   2
ATOM      2  N   UNL A   1      33.271  29.656  24.532  1.00  0.00    -0.356 N 
ATOM      3  C   UNL A   1      33.334  28.986  23.351  1.00  0.00     0.222 C 
ATOM      4  O   UNL A   1      34.404  28.951  22.744  1.00  0.00    -0.275 OA
ATOM      5  H   UNL A   1      34.064  30.200  24.735  1.00  0.00     0.163 HD
BRANCH   3   6
ATOM      6  C   UNL A   1      32.118  28.298  22.802  1.00  0.00     0.134 C 
BRANCH   6   7
ATOM      7  C   UNL A   1      32.387  26.868  22.316  1.00  0.00     0.150 C 
BRANCH   7   8
ATOM      8  C   UNL A   1      32.267  25.790  23.443  1.00  0.00     0.145 C 
BRANCH   8   9
ATOM      9  N   UNL A   1      31.763  26.321  24.716  1.00  0.00    -0.312 N 
ATOM     10  C   UNL A   1      30.983  25.674  25.649  1.00  0.00     0.408 C 
ATOM     11  O   UNL A   1      30.640  26.248  26.668  1.00  0.00    -0.225 OA
ATOM     12  H   UNL A   1      32.013  27.250  24.928  1.00  0.00     0.167 HD
BRANCH  10  13
ATOM     13  O   UNL A   1      30.652  24.405  25.306  1.00  0.00    -0.444 OA
BRANCH  13  14
ATOM     14  C   UNL A   1      31.058  23.220  26.062  1.00  0.00     0.106 C 
ATOM     15  C   UNL A   1      31.408  22.177  24.989  1.00  0.00     0.056 C 
ATOM     16  C   UNL A   1      29.892  22.663  26.876  1.00  0.00     0.056 C 
ATOM     17  C   UNL A   1      32.280  23.427  26.961  1.00  0.00     0.056 C 
ENDBRANCH  13  14
ENDBRANCH  10  13
ENDBRANCH   8   9
BRANCH   8  18
ATOM     18  C   UNL A   1      33.560  25.024  23.687  1.00  0.00    -0.023 A 
ATOM     19  C   UNL A   1      34.387  25.322  24.778  1.00  0.00     0.006 A 
ATOM     20  C   UNL A   1      33.840  23.894  22.898  1.00  0.00     0.006 A 
ATOM     21  C   UNL A   1      35.414  24.449  25.131  1.00  0.00     0.000 A 
ATOM     22  C   UNL A   1      34.877  23.034  23.247  1.00  0.00     0.000 A 
ATOM     23  C   UNL A   1      35.647  23.300  24.376  1.00  0.00     0.000 A 
ENDBRANCH   8  18
ENDBRANCH   7   8
BRANCH   7  24
ATOM     24  O   UNL A   1      31.404  26.660  21.281  1.00  0.00    -0.390 OA
ATOM     25  H   UNL A   1      31.818  26.216  20.526  1.00  0.00     0.211 HD
ENDBRANCH   7  24
ENDBRANCH   6   7
ENDBRANCH   3   6
ENDBRANCH   1   2
BRANCH   1  26
ATOM     26  C   UNL A   1      32.787  29.611  26.962  1.00  0.00     0.023 C 
BRANCH  26  27
ATOM     27  C   UNL A   1      33.905  28.588  27.113  1.00  0.00     0.023 C 
BRANCH  27  28
ATOM     28  C   UNL A   1      35.243  29.208  27.434  1.00  0.00     0.116 C 
BRANCH  28  29
ATOM     29  N   UNL A   1      35.256  29.830  28.757  1.00  0.00    -0.352 N 
ATOM     30  C   UNL A   1      36.249  29.869  29.707  1.00  0.00     0.251 C 
ATOM     31  H   UNL A   1      34.423  30.291  29.008  1.00  0.00     0.163 HD
ATOM     32  O   UNL A   1      35.981  30.205  30.856  1.00  0.00    -0.269 OA
BRANCH  30  33
ATOM     33  C   UNL A   1      37.628  29.506  29.333  1.00  0.00     0.039 A 
ATOM     34  C   UNL A   1      38.482  28.920  30.273  1.00  0.00     0.014 A 
ATOM     35  C   UNL A   1      38.085  29.785  28.046  1.00  0.00     0.014 A 
ATOM     36  C   UNL A   1      39.790  28.597  29.904  1.00  0.00     0.010 A 
ATOM     37  C   UNL A   1      39.322  29.330  27.638  1.00  0.00     0.010 A 
ATOM     38  C   UNL A   1      40.211  28.800  28.581  1.00  0.00    -0.014 A 
BRANCH  38  39
ATOM     39  C   UNL A   1      41.613  28.627  28.145  1.00  0.00     0.031 A 
ATOM     40  C   UNL A   1      42.061  27.247  27.739  1.00  0.00     0.074 A 
ATOM     41  C   UNL A   1      42.482  29.649  28.229  1.00  0.00     0.049 A 
ATOM     42  N   UNL A   1      43.268  26.788  27.546  1.00  0.00    -0.248 NA
ATOM     43  C   UNL A   1      41.006  26.224  27.595  1.00  0.00     0.031 C 
ATOM     44  C   UNL A   1      42.154  31.013  28.648  1.00  0.00     0.029 A 
ATOM     45  N   UNL A   1      43.830  29.686  27.991  1.00  0.00    -0.354 N 
ATOM     46  C   UNL A   1      43.118  25.427  27.305  1.00  0.00     0.074 A 
ATOM     47  C   UNL A   1      41.716  25.118  27.451  1.00  0.00     0.031 C 
ATOM     48  C   UNL A   1      43.273  31.757  28.625  1.00  0.00     0.029 A 
ATOM     49  C   UNL A   1      44.398  30.912  28.240  1.00  0.00     0.049 A 
ATOM     50  H   UNL A   1      44.343  28.908  27.673  1.00  0.00     0.167 HD
ATOM     51  C   UNL A   1      44.062  24.524  26.959  1.00  0.00     0.037 A 
ATOM     52  C   UNL A   1      45.687  31.294  28.181  1.00  0.00     0.037 A 
ATOM     53  C   UNL A   1      45.444  24.869  26.765  1.00  0.00     0.049 A 
ATOM     54  C   UNL A   1      46.722  30.276  27.778  1.00  0.00     0.074 A 
ATOM     55  C   UNL A   1      46.484  24.061  26.346  1.00  0.00     0.029 A 
ATOM     56  N   UNL A   1      45.974  26.136  26.972  1.00  0.00    -0.354 N 
ATOM     57  N   UNL A   1      46.563  29.002  27.501  1.00  0.00    -0.248 NA
ATOM     58  C   UNL A   1      48.108  30.746  27.671  1.00  0.00     0.031 C 
ATOM     59  C   UNL A   1      47.652  24.828  26.345  1.00  0.00     0.029 A 
ATOM     60  C   UNL A   1      47.330  26.128  26.705  1.00  0.00     0.049 A 
ATOM     61  H   UNL A   1      45.460  26.923  27.265  1.00  0.00     0.167 HD
ATOM     62  C   UNL A   1      47.824  28.527  27.155  1.00  0.00     0.074 A 
ATOM     63  C   UNL A   1      48.730  29.654  27.247  1.00  0.00     0.031 C 
ATOM     64  C   UNL A   1      48.202  27.275  26.793  1.00  0.00     0.037 A 
BRANCH  51  65
ATOM     65  C   UNL A   1      43.630  23.095  26.756  1.00  0.00     0.058 A 
ATOM     66  C   UNL A   1      43.262  22.272  27.834  1.00  0.00     0.135 A 
ATOM     67  C   UNL A   1      43.563  22.546  25.466  1.00  0.00     0.135 A 
ATOM     68  F   UNL A   1      43.325  22.735  29.093  1.00  0.00    -0.206 F 
ATOM     69  C   UNL A   1      42.875  20.949  27.643  1.00  0.00     0.059 A 
ATOM     70  C   UNL A   1      43.145  21.236  25.247  1.00  0.00     0.059 A 
ATOM     71  F   UNL A   1      43.910  23.282  24.398  1.00  0.00    -0.206 F 
ATOM     72  C   UNL A   1      42.817  20.441  26.345  1.00  0.00     0.060 A 
BRANCH  72  73
ATOM     73  S   UNL A   1      42.297  18.729  26.116  1.00  0.00     0.124 S 
ATOM     74  O   UNL A   1      42.551  18.166  27.439  1.00  0.00    -0.237 OA
ATOM     75  O   UNL A   1      40.892  18.877  25.751  1.00  0.00    -0.237 OA
ATOM     76  O   UNL A   1      43.171  18.246  25.051  1.00  0.00    -0.744 OA
ENDBRANCH  72  73
ENDBRANCH  51  65
BRANCH  52  77
ATOM     77  C   UNL A   1      46.061  32.701  28.478  1.00  0.00     0.058 A 
ATOM     78  C   UNL A   1      46.092  33.666  27.460  1.00  0.00     0.135 A 
ATOM     79  C   UNL A   1      46.371  33.120  29.782  1.00  0.00     0.135 A 
ATOM     80  F   UNL A   1      45.805  33.316  26.196  1.00  0.00    -0.206 F 
ATOM     81  C   UNL A   1      46.438  34.988  27.716  1.00  0.00     0.059 A 
ATOM     82  C   UNL A   1      46.692  34.444  30.069  1.00  0.00     0.059 A 
ATOM     83  F   UNL A   1      46.337  32.242  30.796  1.00  0.00    -0.206 F 
ATOM     84  C   UNL A   1      46.734  35.369  29.026  1.00  0.00     0.060 A 
BRANCH  84  85
ATOM     85  S   UNL A   1      47.141  37.098  29.350  1.00  0.00     0.124 S 
ATOM     86  O   UNL A   1      46.127  37.459  30.334  1.00  0.00    -0.237 OA
ATOM     87  O   UNL A   1      48.509  37.001  29.848  1.00  0.00    -0.237 OA
ATOM     88  O   UNL A   1      47.002  37.728  28.040  1.00  0.00    -0.744 OA
ENDBRANCH  84  85
ENDBRANCH  52  77
BRANCH  64  89
ATOM     89  C   UNL A   1      49.644  27.069  26.423  1.00  0.00     0.058 A 
ATOM     90  C   UNL A   1      50.610  26.715  27.376  1.00  0.00     0.135 A 
ATOM     91  C   UNL A   1      50.048  27.168  25.080  1.00  0.00     0.135 A 
ATOM     92  F   UNL A   1      50.276  26.612  28.672  1.00  0.00    -0.206 F 
ATOM     93  C   UNL A   1      51.934  26.492  27.015  1.00  0.00     0.059 A 
ATOM     94  C   UNL A   1      51.359  26.916  24.694  1.00  0.00     0.059 A 
ATOM     95  F   UNL A   1      49.158  27.489  24.127  1.00  0.00    -0.206 F 
ATOM     96  C   UNL A   1      52.297  26.590  25.671  1.00  0.00     0.060 A 
BRANCH  96  97
ATOM     97  S   UNL A   1      54.012  26.262  25.214  1.00  0.00     0.124 S 
ATOM     98  O   UNL A   1      54.420  27.548  24.662  1.00  0.00    -0.237 OA
ATOM     99  O   UNL A   1      54.611  25.902  26.496  1.00  0.00    -0.237 OA
ATOM    100  O   UNL A   1      53.904  25.170  24.251  1.00  0.00    -0.744 OA
ENDBRANCH  96  97
ENDBRANCH  64  89
ENDBRANCH  38  39
ENDBRANCH  30  33
ENDBRANCH  28  29
ENDBRANCH  27  28
ENDBRANCH  26  27
ENDBRANCH   1  26
TORSDOF 21
ENDMDL
MODEL 3
REMARK VINA RESULT:     -10.4      1.266      1.987
REMARK SMILES CC(C)(C)OC(=O)N[C@H](c1ccccc1)[C@@H](O)CC(=O)NCCCCNC(=O)c1ccc(-c2c3nc(c(-c4c(F)cc(S(=O)(=O)[O-])cc4F)c4ccc([nH]4)c(-c4c(F)cc(S(=O)(=O)[O-])cc4F)c4nc(c(-c5c(F)cc(S(=O)(=O)[O-])cc5F)c5ccc2[nH]5)C=C4)C=C3)cc1
REMARK SMILES IDX 22 1 21 2 19 3 20 4 18 6 16 7 9 8 8 9 6 10 7 11 5 13 2 14
REMARK SMILES IDX 1 15 3 16 4 17 10 18 11 19 15 20 12 21 14 22 13 23 17 24
REMARK SMILES IDX 23 26 24 27 25 28 26 29 27 30 28 32 29 33 30 34 94 35 31 36
REMARK SMILES IDX 93 37 32 38 33 39 34 40 87 41 35 42 92 43 86 44 88 45 36 46
REMARK SMILES IDX 91 47 85 48 84 49 37 51 71 52 50 53 70 54 51 55 54 56 69 57
REMARK SMILES IDX 89 58 52 59 53 60 68 62 90 63 55 64 38 65 39 66 48 67 40 68
REMARK SMILES IDX 41 69 47 70 49 71 42 72 43 73 44 74 45 75 46 76 72 77 73 78
REMARK SMILES IDX 82 79 74 80 75 81 81 82 83 83 76 84 77 85 78 86 79 87 80 88
REMARK SMILES IDX 56 89 57 90 66 91 58 92 59 93 65 94 67 95 60 96 61 97 62 98
REMARK SMILES IDX 63 99 64 100
REMARK H PARENT 21 5 8 12 17 25 26 31 88 50 54 61
REMARK Flexibility Score: inf
ROOT
ATOM      1  C   UNL A   1      34.035  23.177  23.150  1.00  0.00     0.116 C 
ENDROOT
BRANCH   1   2
ATOM      2  N   UNL A   1      33.842  23.833  21.866  1.00  0.00    -0.356 N 
ATOM      3  C   UNL A   1      32.919  24.744  21.461  1.00  0.00     0.222 C 
ATOM      4  O   UNL A   1      32.838  25.016  20.263  1.00  0.00    -0.275 OA
ATOM      5  H   UNL A   1      34.490  23.573  21.174  1.00  0.00     0.163 HD
BRANCH   3   6
ATOM      6  C   UNL A   1      32.010  25.401  22.460  1.00  0.00     0.134 C 
BRANCH   6   7
ATOM      7  C   UNL A   1      31.649  26.848  22.104  1.00  0.00     0.150 C 
BRANCH   7   8
ATOM      8  C   UNL A   1      31.107  27.676  23.316  1.00  0.00     0.145 C 
BRANCH   8   9
ATOM      9  N   UNL A   1      30.721  26.851  24.468  1.00  0.00    -0.312 N 
ATOM     10  C   UNL A   1      31.083  27.022  25.786  1.00  0.00     0.408 C 
ATOM     11  O   UNL A   1      30.680  26.251  26.639  1.00  0.00    -0.225 OA
ATOM     12  H   UNL A   1      30.135  26.083  24.274  1.00  0.00     0.167 HD
BRANCH  10  13
ATOM     13  O   UNL A   1      31.903  28.081  25.999  1.00  0.00    -0.444 OA
BRANCH  13  14
ATOM     14  C   UNL A   1      33.362  28.011  25.940  1.00  0.00     0.106 C 
ATOM     15  C   UNL A   1      33.680  26.507  25.961  1.00  0.00     0.056 C 
ATOM     16  C   UNL A   1      33.991  28.627  27.189  1.00  0.00     0.056 C 
ATOM     17  C   UNL A   1      33.979  28.625  24.680  1.00  0.00     0.056 C 
ENDBRANCH  13  14
ENDBRANCH  10  13
ENDBRANCH   8   9
BRANCH   8  18
ATOM     18  C   UNL A   1      29.960  28.606  22.948  1.00  0.00    -0.023 A 
ATOM     19  C   UNL A   1      30.171  29.748  22.165  1.00  0.00     0.006 A 
ATOM     20  C   UNL A   1      28.645  28.220  23.263  1.00  0.00     0.006 A 
ATOM     21  C   UNL A   1      29.084  30.431  21.624  1.00  0.00     0.000 A 
ATOM     22  C   UNL A   1      27.562  28.915  22.733  1.00  0.00     0.000 A 
ATOM     23  C   UNL A   1      27.783  30.006  21.896  1.00  0.00     0.000 A 
ENDBRANCH   8  18
ENDBRANCH   7   8
BRANCH   7  24
ATOM     24  O   UNL A   1      32.881  27.402  21.597  1.00  0.00    -0.390 OA
ATOM     25  H   UNL A   1      33.462  27.631  22.339  1.00  0.00     0.211 HD
ENDBRANCH   7  24
ENDBRANCH   6   7
ENDBRANCH   3   6
ENDBRANCH   1   2
BRANCH   1  26
ATOM     26  C   UNL A   1      35.506  22.955  23.479  1.00  0.00     0.023 C 
BRANCH  26  27
ATOM     27  C   UNL A   1      35.797  22.897  24.973  1.00  0.00     0.023 C 
BRANCH  27  28
ATOM     28  C   UNL A   1      37.043  23.652  25.369  1.00  0.00     0.116 C 
BRANCH  28  29
ATOM     29  N   UNL A   1      38.198  22.768  25.510  1.00  0.00    -0.352 N 
ATOM     30  C   UNL A   1      39.465  23.033  25.971  1.00  0.00     0.251 C 
ATOM     31  H   UNL A   1      38.045  21.836  25.230  1.00  0.00     0.163 HD
ATOM     32  O   UNL A   1      40.371  22.231  25.764  1.00  0.00    -0.269 OA
BRANCH  30  33
ATOM     33  C   UNL A   1      39.724  24.282  26.711  1.00  0.00     0.039 A 
ATOM     34  C   UNL A   1      40.505  25.291  26.139  1.00  0.00     0.014 A 
ATOM     35  C   UNL A   1      39.211  24.434  27.999  1.00  0.00     0.014 A 
ATOM     36  C   UNL A   1      40.751  26.461  26.863  1.00  0.00     0.010 A 
ATOM     37  C   UNL A   1      39.327  25.645  28.650  1.00  0.00     0.010 A 
ATOM     38  C   UNL A   1      40.156  26.640  28.121  1.00  0.00    -0.014 A 
BRANCH  38  39
ATOM     39  C   UNL A   1      40.481  27.774  29.013  1.00  0.00     0.031 A 
ATOM     40  C   UNL A   1      41.708  27.660  29.880  1.00  0.00     0.074 A 
ATOM     41  C   UNL A   1      39.636  28.812  29.128  1.00  0.00     0.049 A 
ATOM     42  N   UNL A   1      42.078  28.391  30.896  1.00  0.00    -0.248 NA
ATOM     43  C   UNL A   1      42.609  26.524  29.605  1.00  0.00     0.031 C 
ATOM     44  C   UNL A   1      38.402  28.995  28.361  1.00  0.00     0.029 A 
ATOM     45  N   UNL A   1      39.678  29.898  29.961  1.00  0.00    -0.354 N 
ATOM     46  C   UNL A   1      43.221  27.780  31.401  1.00  0.00     0.074 A 
ATOM     47  C   UNL A   1      43.440  26.579  30.633  1.00  0.00     0.031 C 
ATOM     48  C   UNL A   1      37.809  30.136  28.753  1.00  0.00     0.029 A 
ATOM     49  C   UNL A   1      38.594  30.733  29.829  1.00  0.00     0.049 A 
ATOM     50  H   UNL A   1      40.413  30.064  30.594  1.00  0.00     0.167 HD
ATOM     51  C   UNL A   1      44.032  28.203  32.396  1.00  0.00     0.037 A 
ATOM     52  C   UNL A   1      38.271  31.843  30.518  1.00  0.00     0.037 A 
ATOM     53  C   UNL A   1      43.822  29.434  33.110  1.00  0.00     0.049 A 
ATOM     54  C   UNL A   1      39.197  32.306  31.612  1.00  0.00     0.074 A 
ATOM     55  C   UNL A   1      44.610  30.008  34.089  1.00  0.00     0.029 A 
ATOM     56  N   UNL A   1      42.742  30.284  32.909  1.00  0.00    -0.354 N 
ATOM     57  N   UNL A   1      40.303  31.749  32.049  1.00  0.00    -0.248 NA
ATOM     58  C   UNL A   1      38.837  33.551  32.302  1.00  0.00     0.031 C 
ATOM     59  C   UNL A   1      43.983  31.182  34.514  1.00  0.00     0.029 A 
ATOM     60  C   UNL A   1      42.836  31.371  33.758  1.00  0.00     0.049 A 
ATOM     61  H   UNL A   1      42.018  30.135  32.259  1.00  0.00     0.167 HD
ATOM     62  C   UNL A   1      40.788  32.594  33.042  1.00  0.00     0.074 A 
ATOM     63  C   UNL A   1      39.860  33.703  33.132  1.00  0.00     0.031 C 
ATOM     64  C   UNL A   1      41.900  32.468  33.811  1.00  0.00     0.037 A 
BRANCH  51  65
ATOM     65  C   UNL A   1      45.215  27.343  32.755  1.00  0.00     0.058 A 
ATOM     66  C   UNL A   1      45.108  26.275  33.661  1.00  0.00     0.135 A 
ATOM     67  C   UNL A   1      46.469  27.576  32.170  1.00  0.00     0.135 A 
ATOM     68  F   UNL A   1      43.939  26.015  34.268  1.00  0.00    -0.206 F 
ATOM     69  C   UNL A   1      46.207  25.491  33.998  1.00  0.00     0.059 A 
ATOM     70  C   UNL A   1      47.575  26.783  32.464  1.00  0.00     0.059 A 
ATOM     71  F   UNL A   1      46.635  28.588  31.302  1.00  0.00    -0.206 F 
ATOM     72  C   UNL A   1      47.436  25.751  33.392  1.00  0.00     0.060 A 
BRANCH  72  73
ATOM     73  S   UNL A   1      48.845  24.712  33.828  1.00  0.00     0.124 S 
ATOM     74  O   UNL A   1      49.480  25.506  34.877  1.00  0.00    -0.237 OA
ATOM     75  O   UNL A   1      48.199  23.481  34.271  1.00  0.00    -0.237 OA
ATOM     76  O   UNL A   1      49.594  24.610  32.579  1.00  0.00    -0.744 OA
ENDBRANCH  72  73
ENDBRANCH  51  65
BRANCH  52  77
ATOM     77  C   UNL A   1      37.040  32.601  30.173  1.00  0.00     0.058 A 
ATOM     78  C   UNL A   1      35.809  32.278  30.766  1.00  0.00     0.135 A 
ATOM     79  C   UNL A   1      37.066  33.675  29.269  1.00  0.00     0.135 A 
ATOM     80  F   UNL A   1      35.731  31.259  31.636  1.00  0.00    -0.206 F 
ATOM     81  C   UNL A   1      34.646  32.975  30.460  1.00  0.00     0.059 A 
ATOM     82  C   UNL A   1      35.920  34.407  28.969  1.00  0.00     0.059 A 
ATOM     83  F   UNL A   1      38.220  34.039  28.690  1.00  0.00    -0.206 F 
ATOM     84  C   UNL A   1      34.712  34.041  29.562  1.00  0.00     0.060 A 
BRANCH  84  85
ATOM     85  S   UNL A   1      33.200  34.963  29.205  1.00  0.00     0.124 S 
ATOM     86  O   UNL A   1      32.544  34.965  30.508  1.00  0.00    -0.237 OA
ATOM     87  O   UNL A   1      33.725  36.247  28.752  1.00  0.00    -0.237 OA
ATOM     88  O   UNL A   1      32.551  34.160  28.173  1.00  0.00    -0.744 OA
ENDBRANCH  84  85
ENDBRANCH  52  77
BRANCH  64  89
ATOM     89  C   UNL A   1      42.198  33.578  34.779  1.00  0.00     0.058 A 
ATOM     90  C   UNL A   1      42.750  34.797  34.360  1.00  0.00     0.135 A 
ATOM     91  C   UNL A   1      41.866  33.438  36.137  1.00  0.00     0.135 A 
ATOM     92  F   UNL A   1      43.088  34.981  33.074  1.00  0.00    -0.206 F 
ATOM     93  C   UNL A   1      42.987  35.831  35.259  1.00  0.00     0.059 A 
ATOM     94  C   UNL A   1      42.063  34.469  37.046  1.00  0.00     0.059 A 
ATOM     95  F   UNL A   1      41.321  32.295  36.586  1.00  0.00    -0.206 F 
ATOM     96  C   UNL A   1      42.636  35.659  36.599  1.00  0.00     0.060 A 
BRANCH  96  97
ATOM     97  S   UNL A   1      42.917  37.023  37.747  1.00  0.00     0.124 S 
ATOM     98  O   UNL A   1      43.694  37.943  36.926  1.00  0.00    -0.237 OA
ATOM     99  O   UNL A   1      41.556  37.447  38.063  1.00  0.00    -0.237 OA
ATOM    100  O   UNL A   1      43.643  36.397  38.848  1.00  0.00    -0.744 OA
ENDBRANCH  96  97
ENDBRANCH  64  89
ENDBRANCH  38  39
ENDBRANCH  30  33
ENDBRANCH  28  29
ENDBRANCH  27  28
ENDBRANCH  26  27
ENDBRANCH   1  26
TORSDOF 21
ENDMDL
