MODEL 1
REMARK VINA RESULT:     -13.5      0.000      0.000
REMARK SMILES Cc1c(CC(=O)NCCCCNC(=O)c2ccc(-c3c4nc(c(-c5c(F)cc(S(=O)(=O)[O-])cc5F)c5ccc([nH]5)c(-c5c(F)cc(S(=O)(=O)[O-])cc5F)c5nc(c(-c6c(F)cc(S(=O)(=O)[O-])cc6F)c6ccc3[nH]6)C=C5)C=C4)cc2)cccc1-c1ccn(C(F)F)c(=O)c1
REMARK SMILES IDX 9 1 8 2 7 3 5 4 6 5 4 7 3 8 1 9 2 10 84 11 81 12 83 13 82 14
REMARK SMILES IDX 85 15 86 16 94 17 87 18 92 19 88 20 93 21 89 22 90 23 91 24
REMARK SMILES IDX 10 25 11 26 12 27 13 28 14 30 15 31 16 32 80 33 17 34 79 35
REMARK SMILES IDX 18 36 19 37 20 38 73 39 21 40 78 41 72 42 74 43 22 44 77 45
REMARK SMILES IDX 71 46 70 47 23 49 57 50 36 51 56 52 37 53 40 54 55 55 75 56
REMARK SMILES IDX 38 57 39 58 54 60 76 61 41 62 24 63 25 64 34 65 26 66 27 67
REMARK SMILES IDX 33 68 35 69 28 70 29 71 30 72 31 73 32 74 58 75 59 76 68 77
REMARK SMILES IDX 60 78 61 79 67 80 69 81 62 82 63 83 64 84 65 85 66 86 42 87
REMARK SMILES IDX 43 88 52 89 44 90 45 91 51 92 53 93 46 94 47 95 48 96 49 97
REMARK SMILES IDX 50 98
REMARK H PARENT 7 6 12 29 74 48 40 59
REMARK Flexibility Score: inf
ROOT
ATOM      1  C   UNL A   1      35.846  21.750  25.648  1.00  0.00     0.023 C 
ENDROOT
BRANCH   1   2
ATOM      2  C   UNL A   1      34.572  21.351  26.411  1.00  0.00     0.116 C 
BRANCH   2   3
ATOM      3  N   UNL A   1      33.845  20.250  25.796  1.00  0.00    -0.356 N 
ATOM      4  C   UNL A   1      32.597  20.227  25.243  1.00  0.00     0.224 C 
ATOM      5  O   UNL A   1      32.188  19.169  24.757  1.00  0.00    -0.275 OA
ATOM      6  H   UNL A   1      34.327  19.391  25.776  1.00  0.00     0.163 HD
BRANCH   4   7
ATOM      7  C   UNL A   1      31.734  21.483  25.210  1.00  0.00     0.135 C 
BRANCH   7   8
ATOM      8  C   UNL A   1      32.399  22.651  24.506  1.00  0.00    -0.035 A 
ATOM      9  C   UNL A   1      32.132  24.197  26.518  1.00  0.00     0.045 C 
ATOM     10  C   UNL A   1      32.498  23.948  25.072  1.00  0.00    -0.040 A 
ATOM     11  C   UNL A   1      32.988  25.006  24.261  1.00  0.00    -0.015 A 
ATOM     12  C   UNL A   1      32.874  22.423  23.198  1.00  0.00     0.004 A 
ATOM     13  C   UNL A   1      33.424  24.747  22.950  1.00  0.00     0.009 A 
ATOM     14  C   UNL A   1      33.383  23.461  22.427  1.00  0.00     0.001 A 
BRANCH  11  15
ATOM     15  C   UNL A   1      32.995  26.414  24.721  1.00  0.00    -0.011 A 
ATOM     16  C   UNL A   1      34.029  26.965  25.575  1.00  0.00     0.027 A 
ATOM     17  C   UNL A   1      31.949  27.188  24.379  1.00  0.00     0.080 A 
ATOM     18  C   UNL A   1      33.889  28.187  26.105  1.00  0.00     0.095 A 
ATOM     19  C   UNL A   1      31.851  28.595  24.855  1.00  0.00     0.255 A 
ATOM     20  N   UNL A   1      32.804  28.980  25.785  1.00  0.00    -0.258 N 
ATOM     21  O   UNL A   1      30.972  29.315  24.395  1.00  0.00    -0.269 OA
BRANCH  20  22
ATOM     22  C   UNL A   1      32.644  30.281  26.377  1.00  0.00     0.451 C 
ATOM     23  F   UNL A   1      31.619  30.294  27.266  1.00  0.00    -0.185 F 
ATOM     24  F   UNL A   1      33.766  30.684  27.014  1.00  0.00    -0.185 F 
ENDBRANCH  20  22
ENDBRANCH  11  15
ENDBRANCH   7   8
ENDBRANCH   4   7
ENDBRANCH   2   3
ENDBRANCH   1   2
BRANCH   1  25
ATOM     25  C   UNL A   1      36.449  23.103  26.035  1.00  0.00     0.023 C 
BRANCH  25  26
ATOM     26  C   UNL A   1      37.928  23.224  25.702  1.00  0.00     0.116 C 
BRANCH  26  27
ATOM     27  N   UNL A   1      38.839  22.766  26.730  1.00  0.00    -0.352 N 
ATOM     28  C   UNL A   1      39.820  23.549  27.326  1.00  0.00     0.251 C 
ATOM     29  H   UNL A   1      38.756  21.831  27.029  1.00  0.00     0.163 HD
ATOM     30  O   UNL A   1      40.910  23.113  27.652  1.00  0.00    -0.269 OA
BRANCH  28  31
ATOM     31  C   UNL A   1      39.410  24.924  27.701  1.00  0.00     0.039 A 
ATOM     32  C   UNL A   1      39.843  25.984  26.894  1.00  0.00     0.014 A 
ATOM     33  C   UNL A   1      38.833  25.171  28.943  1.00  0.00     0.014 A 
ATOM     34  C   UNL A   1      39.836  27.287  27.400  1.00  0.00     0.010 A 
ATOM     35  C   UNL A   1      38.922  26.444  29.478  1.00  0.00     0.010 A 
ATOM     36  C   UNL A   1      39.448  27.502  28.725  1.00  0.00    -0.014 A 
BRANCH  36  37
ATOM     37  C   UNL A   1      39.646  28.759  29.448  1.00  0.00     0.031 A 
ATOM     38  C   UNL A   1      38.617  29.834  29.419  1.00  0.00     0.074 A 
ATOM     39  C   UNL A   1      40.726  28.935  30.244  1.00  0.00     0.049 A 
ATOM     40  N   UNL A   1      38.882  31.090  29.597  1.00  0.00    -0.248 NA
ATOM     41  C   UNL A   1      37.202  29.579  29.165  1.00  0.00     0.031 C 
ATOM     42  C   UNL A   1      40.874  29.954  31.281  1.00  0.00     0.029 A 
ATOM     43  N   UNL A   1      41.995  28.359  30.158  1.00  0.00    -0.354 N 
ATOM     44  C   UNL A   1      37.684  31.749  29.758  1.00  0.00     0.074 A 
ATOM     45  C   UNL A   1      36.668  30.779  29.418  1.00  0.00     0.031 C 
ATOM     46  C   UNL A   1      42.180  30.145  31.513  1.00  0.00     0.029 A 
ATOM     47  C   UNL A   1      42.914  29.348  30.546  1.00  0.00     0.049 A 
ATOM     48  H   UNL A   1      42.204  27.438  29.881  1.00  0.00     0.167 HD
ATOM     49  C   UNL A   1      37.643  33.000  30.298  1.00  0.00     0.037 A 
ATOM     50  C   UNL A   1      43.976  29.785  29.809  1.00  0.00     0.037 A 
ATOM     51  C   UNL A   1      38.964  33.477  30.682  1.00  0.00     0.049 A 
ATOM     52  C   UNL A   1      43.994  31.282  29.605  1.00  0.00     0.074 A 
ATOM     53  C   UNL A   1      39.633  33.459  31.895  1.00  0.00     0.029 A 
ATOM     54  N   UNL A   1      39.902  33.817  29.718  1.00  0.00    -0.354 N 
ATOM     55  N   UNL A   1      42.972  32.053  29.845  1.00  0.00    -0.248 NA
ATOM     56  C   UNL A   1      45.128  32.021  29.055  1.00  0.00     0.031 C 
ATOM     57  C   UNL A   1      40.988  33.777  31.659  1.00  0.00     0.029 A 
ATOM     58  C   UNL A   1      41.145  33.981  30.301  1.00  0.00     0.049 A 
ATOM     59  H   UNL A   1      39.710  33.926  28.758  1.00  0.00     0.167 HD
ATOM     60  C   UNL A   1      43.256  33.333  29.444  1.00  0.00     0.074 A 
ATOM     61  C   UNL A   1      44.630  33.268  28.987  1.00  0.00     0.031 C 
ATOM     62  C   UNL A   1      42.316  34.322  29.508  1.00  0.00     0.037 A 
BRANCH  49  63
ATOM     63  C   UNL A   1      36.352  33.639  30.761  1.00  0.00     0.058 A 
ATOM     64  C   UNL A   1      35.401  34.125  29.838  1.00  0.00     0.135 A 
ATOM     65  C   UNL A   1      36.024  33.838  32.116  1.00  0.00     0.135 A 
ATOM     66  F   UNL A   1      35.535  33.935  28.519  1.00  0.00    -0.206 F 
ATOM     67  C   UNL A   1      34.277  34.854  30.222  1.00  0.00     0.059 A 
ATOM     68  C   UNL A   1      34.928  34.608  32.525  1.00  0.00     0.059 A 
ATOM     69  F   UNL A   1      36.764  33.284  33.090  1.00  0.00    -0.206 F 
ATOM     70  C   UNL A   1      34.068  35.127  31.566  1.00  0.00     0.060 A 
BRANCH  70  71
ATOM     71  S   UNL A   1      32.690  36.198  32.021  1.00  0.00     0.124 S 
ATOM     72  O   UNL A   1      33.272  37.020  33.078  1.00  0.00    -0.237 OA
ATOM     73  O   UNL A   1      32.412  36.884  30.765  1.00  0.00    -0.237 OA
ATOM     74  O   UNL A   1      31.666  35.257  32.466  1.00  0.00    -0.744 OA
ENDBRANCH  70  71
ENDBRANCH  49  63
BRANCH  50  75
ATOM     75  C   UNL A   1      44.489  28.801  28.827  1.00  0.00     0.058 A 
ATOM     76  C   UNL A   1      43.857  28.733  27.572  1.00  0.00     0.135 A 
ATOM     77  C   UNL A   1      45.799  28.314  28.936  1.00  0.00     0.135 A 
ATOM     78  F   UNL A   1      42.591  29.159  27.433  1.00  0.00    -0.206 F 
ATOM     79  C   UNL A   1      44.562  28.378  26.430  1.00  0.00     0.059 A 
ATOM     80  C   UNL A   1      46.524  27.951  27.804  1.00  0.00     0.059 A 
ATOM     81  F   UNL A   1      46.443  28.365  30.110  1.00  0.00    -0.206 F 
ATOM     82  C   UNL A   1      45.917  28.068  26.552  1.00  0.00     0.060 A 
BRANCH  82  83
ATOM     83  S   UNL A   1      46.916  28.035  25.045  1.00  0.00     0.124 S 
ATOM     84  O   UNL A   1      48.262  27.900  25.584  1.00  0.00    -0.237 OA
ATOM     85  O   UNL A   1      46.369  26.861  24.366  1.00  0.00    -0.237 OA
ATOM     86  O   UNL A   1      46.607  29.316  24.421  1.00  0.00    -0.744 OA
ENDBRANCH  82  83
ENDBRANCH  50  75
BRANCH  62  87
ATOM     87  C   UNL A   1      42.439  35.714  28.940  1.00  0.00     0.058 A 
ATOM     88  C   UNL A   1      41.741  36.167  27.808  1.00  0.00     0.135 A 
ATOM     89  C   UNL A   1      43.193  36.699  29.625  1.00  0.00     0.135 A 
ATOM     90  F   UNL A   1      40.908  35.361  27.136  1.00  0.00    -0.206 F 
ATOM     91  C   UNL A   1      41.835  37.483  27.346  1.00  0.00     0.059 A 
ATOM     92  C   UNL A   1      43.261  38.027  29.212  1.00  0.00     0.059 A 
ATOM     93  F   UNL A   1      43.888  36.401  30.735  1.00  0.00    -0.206 F 
ATOM     94  C   UNL A   1      42.599  38.406  28.054  1.00  0.00     0.060 A 
BRANCH  94  95
ATOM     95  S   UNL A   1      42.688  40.122  27.507  1.00  0.00     0.124 S 
ATOM     96  O   UNL A   1      43.598  40.696  28.494  1.00  0.00    -0.237 OA
ATOM     97  O   UNL A   1      43.220  40.009  26.153  1.00  0.00    -0.237 OA
ATOM     98  O   UNL A   1      41.300  40.565  27.591  1.00  0.00    -0.744 OA
ENDBRANCH  94  95
ENDBRANCH  62  87
ENDBRANCH  36  37
ENDBRANCH  28  31
ENDBRANCH  26  27
ENDBRANCH  25  26
ENDBRANCH   1  25
TORSDOF 17
ENDMDL
MODEL 2
REMARK VINA RESULT:     -12.3      1.587      2.121
REMARK SMILES Cc1c(CC(=O)NCCCCNC(=O)c2ccc(-c3c4nc(c(-c5c(F)cc(S(=O)(=O)[O-])cc5F)c5ccc([nH]5)c(-c5c(F)cc(S(=O)(=O)[O-])cc5F)c5nc(c(-c6c(F)cc(S(=O)(=O)[O-])cc6F)c6ccc3[nH]6)C=C5)C=C4)cc2)cccc1-c1ccn(C(F)F)c(=O)c1
REMARK SMILES IDX 9 1 8 2 7 3 5 4 6 5 4 7 3 8 1 9 2 10 84 11 81 12 83 13 82 14
REMARK SMILES IDX 85 15 86 16 94 17 87 18 92 19 88 20 93 21 89 22 90 23 91 24
REMARK SMILES IDX 10 25 11 26 12 27 13 28 14 30 15 31 16 32 80 33 17 34 79 35
REMARK SMILES IDX 18 36 19 37 20 38 73 39 21 40 78 41 72 42 74 43 22 44 77 45
REMARK SMILES IDX 71 46 70 47 23 49 57 50 36 51 56 52 37 53 40 54 55 55 75 56
REMARK SMILES IDX 38 57 39 58 54 60 76 61 41 62 24 63 25 64 34 65 26 66 27 67
REMARK SMILES IDX 33 68 35 69 28 70 29 71 30 72 31 73 32 74 58 75 59 76 68 77
REMARK SMILES IDX 60 78 61 79 67 80 69 81 62 82 63 83 64 84 65 85 66 86 42 87
REMARK SMILES IDX 43 88 52 89 44 90 45 91 51 92 53 93 46 94 47 95 48 96 49 97
REMARK SMILES IDX 50 98
REMARK H PARENT 7 6 12 29 74 48 40 59
REMARK Flexibility Score: inf
ROOT
ATOM      1  C   UNL A   1      36.176  20.998  25.141  1.00  0.00     0.023 C 
ENDROOT
BRANCH   1   2
ATOM      2  C   UNL A   1      34.763  20.773  25.701  1.00  0.00     0.116 C 
BRANCH   2   3
ATOM      3  N   UNL A   1      33.938  19.905  24.872  1.00  0.00    -0.356 N 
ATOM      4  C   UNL A   1      32.648  20.064  24.453  1.00  0.00     0.224 C 
ATOM      5  O   UNL A   1      32.154  19.195  23.730  1.00  0.00    -0.275 OA
ATOM      6  H   UNL A   1      34.378  19.078  24.568  1.00  0.00     0.163 HD
BRANCH   4   7
ATOM      7  C   UNL A   1      31.842  21.294  24.854  1.00  0.00     0.135 C 
BRANCH   7   8
ATOM      8  C   UNL A   1      32.400  22.588  24.292  1.00  0.00    -0.035 A 
ATOM      9  C   UNL A   1      32.031  23.860  26.472  1.00  0.00     0.045 C 
ATOM     10  C   UNL A   1      32.399  23.813  25.006  1.00  0.00    -0.040 A 
ATOM     11  C   UNL A   1      32.790  24.996  24.325  1.00  0.00    -0.015 A 
ATOM     12  C   UNL A   1      32.877  22.555  22.965  1.00  0.00     0.004 A 
ATOM     13  C   UNL A   1      33.230  24.930  22.991  1.00  0.00     0.009 A 
ATOM     14  C   UNL A   1      33.289  23.715  22.321  1.00  0.00     0.001 A 
BRANCH  11  15
ATOM     15  C   UNL A   1      32.687  26.336  24.947  1.00  0.00    -0.011 A 
ATOM     16  C   UNL A   1      31.473  27.129  24.927  1.00  0.00     0.027 A 
ATOM     17  C   UNL A   1      33.800  26.860  25.492  1.00  0.00     0.080 A 
ATOM     18  C   UNL A   1      31.489  28.401  25.343  1.00  0.00     0.095 A 
ATOM     19  C   UNL A   1      33.793  28.227  26.080  1.00  0.00     0.255 A 
ATOM     20  N   UNL A   1      32.634  28.960  25.877  1.00  0.00    -0.258 N 
ATOM     21  O   UNL A   1      34.775  28.606  26.707  1.00  0.00    -0.269 OA
BRANCH  20  22
ATOM     22  C   UNL A   1      32.655  30.336  26.298  1.00  0.00     0.451 C 
ATOM     23  F   UNL A   1      31.622  31.030  25.759  1.00  0.00    -0.185 F 
ATOM     24  F   UNL A   1      32.589  30.449  27.644  1.00  0.00    -0.185 F 
ENDBRANCH  20  22
ENDBRANCH  11  15
ENDBRANCH   7   8
ENDBRANCH   4   7
ENDBRANCH   2   3
ENDBRANCH   1   2
BRANCH   1  25
ATOM     25  C   UNL A   1      37.005  22.067  25.857  1.00  0.00     0.023 C 
BRANCH  25  26
ATOM     26  C   UNL A   1      38.390  22.261  25.258  1.00  0.00     0.116 C 
BRANCH  26  27
ATOM     27  N   UNL A   1      39.496  21.845  26.096  1.00  0.00    -0.352 N 
ATOM     28  C   UNL A   1      40.596  22.635  26.406  1.00  0.00     0.251 C 
ATOM     29  H   UNL A   1      39.465  20.936  26.474  1.00  0.00     0.163 HD
ATOM     30  O   UNL A   1      41.724  22.188  26.520  1.00  0.00    -0.269 OA
BRANCH  28  31
ATOM     31  C   UNL A   1      40.300  24.045  26.759  1.00  0.00     0.039 A 
ATOM     32  C   UNL A   1      41.082  25.048  26.172  1.00  0.00     0.014 A 
ATOM     33  C   UNL A   1      39.451  24.341  27.821  1.00  0.00     0.014 A 
ATOM     34  C   UNL A   1      41.124  26.320  26.751  1.00  0.00     0.010 A 
ATOM     35  C   UNL A   1      39.573  25.566  28.451  1.00  0.00     0.010 A 
ATOM     36  C   UNL A   1      40.428  26.552  27.940  1.00  0.00    -0.014 A 
BRANCH  36  37
ATOM     37  C   UNL A   1      40.601  27.740  28.778  1.00  0.00     0.031 A 
ATOM     38  C   UNL A   1      39.562  28.804  28.829  1.00  0.00     0.074 A 
ATOM     39  C   UNL A   1      41.665  27.851  29.607  1.00  0.00     0.049 A 
ATOM     40  N   UNL A   1      39.811  30.040  29.126  1.00  0.00    -0.248 NA
ATOM     41  C   UNL A   1      38.154  28.562  28.526  1.00  0.00     0.031 C 
ATOM     42  C   UNL A   1      41.785  28.772  30.735  1.00  0.00     0.029 A 
ATOM     43  N   UNL A   1      42.941  27.295  29.492  1.00  0.00    -0.354 N 
ATOM     44  C   UNL A   1      38.604  30.671  29.323  1.00  0.00     0.074 A 
ATOM     45  C   UNL A   1      37.604  29.728  28.878  1.00  0.00     0.031 C 
ATOM     46  C   UNL A   1      43.084  28.952  31.007  1.00  0.00     0.029 A 
ATOM     47  C   UNL A   1      43.843  28.253  29.985  1.00  0.00     0.049 A 
ATOM     48  H   UNL A   1      43.164  26.405  29.136  1.00  0.00     0.167 HD
ATOM     49  C   UNL A   1      38.541  31.868  29.974  1.00  0.00     0.037 A 
ATOM     50  C   UNL A   1      44.913  28.764  29.311  1.00  0.00     0.037 A 
ATOM     51  C   UNL A   1      39.850  32.319  30.425  1.00  0.00     0.049 A 
ATOM     52  C   UNL A   1      44.920  30.273  29.244  1.00  0.00     0.074 A 
ATOM     53  C   UNL A   1      40.498  32.195  31.643  1.00  0.00     0.029 A 
ATOM     54  N   UNL A   1      40.801  32.753  29.513  1.00  0.00    -0.354 N 
ATOM     55  N   UNL A   1      43.887  31.011  29.535  1.00  0.00    -0.248 NA
ATOM     56  C   UNL A   1      46.056  31.069  28.785  1.00  0.00     0.031 C 
ATOM     57  C   UNL A   1      41.853  32.545  31.462  1.00  0.00     0.029 A 
ATOM     58  C   UNL A   1      42.033  32.873  30.131  1.00  0.00     0.049 A 
ATOM     59  H   UNL A   1      40.625  32.948  28.564  1.00  0.00     0.167 HD
ATOM     60  C   UNL A   1      44.164  32.324  29.258  1.00  0.00     0.074 A 
ATOM     61  C   UNL A   1      45.547  32.314  28.822  1.00  0.00     0.031 C 
ATOM     62  C   UNL A   1      43.214  33.296  29.394  1.00  0.00     0.037 A 
BRANCH  49  63
ATOM     63  C   UNL A   1      37.236  32.451  30.471  1.00  0.00     0.058 A 
ATOM     64  C   UNL A   1      36.586  33.494  29.774  1.00  0.00     0.135 A 
ATOM     65  C   UNL A   1      36.603  32.043  31.661  1.00  0.00     0.135 A 
ATOM     66  F   UNL A   1      37.024  33.929  28.586  1.00  0.00    -0.206 F 
ATOM     67  C   UNL A   1      35.470  34.159  30.277  1.00  0.00     0.059 A 
ATOM     68  C   UNL A   1      35.511  32.726  32.210  1.00  0.00     0.059 A 
ATOM     69  F   UNL A   1      37.031  30.960  32.329  1.00  0.00    -0.206 F 
ATOM     70  C   UNL A   1      34.961  33.796  31.516  1.00  0.00     0.060 A 
BRANCH  70  71
ATOM     71  S   UNL A   1      33.611  34.771  32.208  1.00  0.00     0.124 S 
ATOM     72  O   UNL A   1      32.946  33.806  33.079  1.00  0.00    -0.237 OA
ATOM     73  O   UNL A   1      34.328  35.845  32.885  1.00  0.00    -0.237 OA
ATOM     74  O   UNL A   1      32.844  35.168  31.031  1.00  0.00    -0.744 OA
ENDBRANCH  70  71
ENDBRANCH  49  63
BRANCH  50  75
ATOM     75  C   UNL A   1      45.453  27.878  28.252  1.00  0.00     0.058 A 
ATOM     76  C   UNL A   1      46.351  26.866  28.636  1.00  0.00     0.135 A 
ATOM     77  C   UNL A   1      44.765  27.728  27.040  1.00  0.00     0.135 A 
ATOM     78  F   UNL A   1      47.054  26.987  29.774  1.00  0.00    -0.206 F 
ATOM     79  C   UNL A   1      46.418  25.664  27.945  1.00  0.00     0.059 A 
ATOM     80  C   UNL A   1      44.820  26.532  26.330  1.00  0.00     0.059 A 
ATOM     81  F   UNL A   1      43.894  28.664  26.637  1.00  0.00    -0.206 F 
ATOM     82  C   UNL A   1      45.587  25.483  26.840  1.00  0.00     0.060 A 
BRANCH  82  83
ATOM     83  S   UNL A   1      45.360  23.799  26.219  1.00  0.00     0.124 S 
ATOM     84  O   UNL A   1      46.735  23.383  25.980  1.00  0.00    -0.237 OA
ATOM     85  O   UNL A   1      44.679  23.168  27.348  1.00  0.00    -0.237 OA
ATOM     86  O   UNL A   1      44.541  23.998  25.029  1.00  0.00    -0.744 OA
ENDBRANCH  82  83
ENDBRANCH  50  75
BRANCH  62  87
ATOM     87  C   UNL A   1      43.333  34.735  28.958  1.00  0.00     0.058 A 
ATOM     88  C   UNL A   1      43.406  35.148  27.618  1.00  0.00     0.135 A 
ATOM     89  C   UNL A   1      43.241  35.778  29.912  1.00  0.00     0.135 A 
ATOM     90  F   UNL A   1      43.388  34.259  26.614  1.00  0.00    -0.206 F 
ATOM     91  C   UNL A   1      43.456  36.496  27.250  1.00  0.00     0.059 A 
ATOM     92  C   UNL A   1      43.238  37.126  29.565  1.00  0.00     0.059 A 
ATOM     93  F   UNL A   1      43.142  35.518  31.225  1.00  0.00    -0.206 F 
ATOM     94  C   UNL A   1      43.373  37.478  28.231  1.00  0.00     0.060 A 
BRANCH  94  95
ATOM     95  S   UNL A   1      43.377  39.222  27.773  1.00  0.00     0.124 S 
ATOM     96  O   UNL A   1      44.066  39.183  26.486  1.00  0.00    -0.237 OA
ATOM     97  O   UNL A   1      41.956  39.551  27.715  1.00  0.00    -0.237 OA
ATOM     98  O   UNL A   1      44.113  39.847  28.867  1.00  0.00    -0.744 OA
ENDBRANCH  94  95
ENDBRANCH  62  87
ENDBRANCH  36  37
ENDBRANCH  28  31
ENDBRANCH  26  27
ENDBRANCH  25  26
ENDBRANCH   1  25
TORSDOF 17
ENDMDL
MODEL 3
REMARK VINA RESULT:     -12.1      2.003      2.725
REMARK SMILES Cc1c(CC(=O)NCCCCNC(=O)c2ccc(-c3c4nc(c(-c5c(F)cc(S(=O)(=O)[O-])cc5F)c5ccc([nH]5)c(-c5c(F)cc(S(=O)(=O)[O-])cc5F)c5nc(c(-c6c(F)cc(S(=O)(=O)[O-])cc6F)c6ccc3[nH]6)C=C5)C=C4)cc2)cccc1-c1ccn(C(F)F)c(=O)c1
REMARK SMILES IDX 9 1 8 2 7 3 5 4 6 5 4 7 3 8 1 9 2 10 84 11 81 12 83 13 82 14
REMARK SMILES IDX 85 15 86 16 94 17 87 18 92 19 88 20 93 21 89 22 90 23 91 24
REMARK SMILES IDX 10 25 11 26 12 27 13 28 14 30 15 31 16 32 80 33 17 34 79 35
REMARK SMILES IDX 18 36 19 37 20 38 73 39 21 40 78 41 72 42 74 43 22 44 77 45
REMARK SMILES IDX 71 46 70 47 23 49 57 50 36 51 56 52 37 53 40 54 55 55 75 56
REMARK SMILES IDX 38 57 39 58 54 60 76 61 41 62 24 63 25 64 34 65 26 66 27 67
REMARK SMILES IDX 33 68 35 69 28 70 29 71 30 72 31 73 32 74 58 75 59 76 68 77
REMARK SMILES IDX 60 78 61 79 67 80 69 81 62 82 63 83 64 84 65 85 66 86 42 87
REMARK SMILES IDX 43 88 52 89 44 90 45 91 51 92 53 93 46 94 47 95 48 96 49 97
REMARK SMILES IDX 50 98
REMARK H PARENT 7 6 12 29 74 48 40 59
REMARK Flexibility Score: inf
ROOT
ATOM      1  C   UNL A   1      38.087  22.250  25.360  1.00  0.00     0.023 C 
ENDROOT
BRANCH   1   2
ATOM      2  C   UNL A   1      36.627  21.768  25.350  1.00  0.00     0.116 C 
BRANCH   2   3
ATOM      3  N   UNL A   1      35.894  22.152  24.153  1.00  0.00    -0.356 N 
ATOM      4  C   UNL A   1      35.220  23.306  23.872  1.00  0.00     0.224 C 
ATOM      5  O   UNL A   1      34.682  23.419  22.767  1.00  0.00    -0.275 OA
ATOM      6  H   UNL A   1      35.883  21.476  23.436  1.00  0.00     0.163 HD
BRANCH   4   7
ATOM      7  C   UNL A   1      35.149  24.437  24.892  1.00  0.00     0.135 C 
BRANCH   7   8
ATOM      8  C   UNL A   1      33.733  24.910  25.165  1.00  0.00    -0.035 A 
ATOM      9  C   UNL A   1      33.871  26.773  23.427  1.00  0.00     0.045 C 
ATOM     10  C   UNL A   1      33.166  26.060  24.559  1.00  0.00    -0.040 A 
ATOM     11  C   UNL A   1      31.897  26.510  25.011  1.00  0.00    -0.015 A 
ATOM     12  C   UNL A   1      32.992  24.190  26.123  1.00  0.00     0.004 A 
ATOM     13  C   UNL A   1      31.200  25.783  25.992  1.00  0.00     0.009 A 
ATOM     14  C   UNL A   1      31.736  24.621  26.533  1.00  0.00     0.001 A 
BRANCH  11  15
ATOM     15  C   UNL A   1      31.292  27.776  24.537  1.00  0.00    -0.011 A 
ATOM     16  C   UNL A   1      31.574  29.064  25.139  1.00  0.00     0.027 A 
ATOM     17  C   UNL A   1      30.387  27.702  23.545  1.00  0.00     0.080 A 
ATOM     18  C   UNL A   1      30.865  30.144  24.789  1.00  0.00     0.095 A 
ATOM     19  C   UNL A   1      29.688  28.922  23.056  1.00  0.00     0.255 A 
ATOM     20  N   UNL A   1      29.910  30.075  23.792  1.00  0.00    -0.258 N 
ATOM     21  O   UNL A   1      28.993  28.842  22.050  1.00  0.00    -0.269 OA
BRANCH  20  22
ATOM     22  C   UNL A   1      29.131  31.232  23.438  1.00  0.00     0.451 C 
ATOM     23  F   UNL A   1      29.175  31.464  22.103  1.00  0.00    -0.185 F 
ATOM     24  F   UNL A   1      27.837  31.096  23.806  1.00  0.00    -0.185 F 
ENDBRANCH  20  22
ENDBRANCH  11  15
ENDBRANCH   7   8
ENDBRANCH   4   7
ENDBRANCH   2   3
ENDBRANCH   1   2
BRANCH   1  25
ATOM     25  C   UNL A   1      39.123  21.202  25.774  1.00  0.00     0.023 C 
BRANCH  25  26
ATOM     26  C   UNL A   1      40.042  21.669  26.893  1.00  0.00     0.116 C 
BRANCH  26  27
ATOM     27  N   UNL A   1      41.400  21.980  26.496  1.00  0.00    -0.352 N 
ATOM     28  C   UNL A   1      41.803  23.182  25.926  1.00  0.00     0.251 C 
ATOM     29  H   UNL A   1      42.087  21.290  26.641  1.00  0.00     0.163 HD
ATOM     30  O   UNL A   1      42.660  23.253  25.063  1.00  0.00    -0.269 OA
BRANCH  28  31
ATOM     31  C   UNL A   1      41.247  24.410  26.546  1.00  0.00     0.039 A 
ATOM     32  C   UNL A   1      41.333  25.608  25.825  1.00  0.00     0.014 A 
ATOM     33  C   UNL A   1      40.887  24.418  27.890  1.00  0.00     0.014 A 
ATOM     34  C   UNL A   1      41.203  26.828  26.493  1.00  0.00     0.010 A 
ATOM     35  C   UNL A   1      40.862  25.624  28.566  1.00  0.00     0.010 A 
ATOM     36  C   UNL A   1      41.047  26.833  27.881  1.00  0.00    -0.014 A 
BRANCH  36  37
ATOM     37  C   UNL A   1      41.167  28.027  28.720  1.00  0.00     0.031 A 
ATOM     38  C   UNL A   1      40.047  28.999  28.839  1.00  0.00     0.074 A 
ATOM     39  C   UNL A   1      42.262  28.223  29.490  1.00  0.00     0.049 A 
ATOM     40  N   UNL A   1      40.207  30.251  29.133  1.00  0.00    -0.248 NA
ATOM     41  C   UNL A   1      38.649  28.641  28.612  1.00  0.00     0.031 C 
ATOM     42  C   UNL A   1      42.367  29.145  30.619  1.00  0.00     0.029 A 
ATOM     43  N   UNL A   1      43.572  27.777  29.300  1.00  0.00    -0.354 N 
ATOM     44  C   UNL A   1      38.964  30.777  29.403  1.00  0.00     0.074 A 
ATOM     45  C   UNL A   1      38.024  29.755  29.005  1.00  0.00     0.031 C 
ATOM     46  C   UNL A   1      43.660  29.433  30.821  1.00  0.00     0.029 A 
ATOM     47  C   UNL A   1      44.417  28.805  29.752  1.00  0.00     0.049 A 
ATOM     48  H   UNL A   1      43.848  26.911  28.923  1.00  0.00     0.167 HD
ATOM     49  C   UNL A   1      38.837  31.960  30.069  1.00  0.00     0.037 A 
ATOM     50  C   UNL A   1      45.401  29.408  29.024  1.00  0.00     0.037 A 
ATOM     51  C   UNL A   1      40.127  32.518  30.451  1.00  0.00     0.049 A 
ATOM     52  C   UNL A   1      45.277  30.913  28.973  1.00  0.00     0.074 A 
ATOM     53  C   UNL A   1      40.850  32.443  31.630  1.00  0.00     0.029 A 
ATOM     54  N   UNL A   1      40.987  33.036  29.492  1.00  0.00    -0.354 N 
ATOM     55  N   UNL A   1      44.203  31.559  29.327  1.00  0.00    -0.248 NA
ATOM     56  C   UNL A   1      46.315  31.804  28.459  1.00  0.00     0.031 C 
ATOM     57  C   UNL A   1      42.159  32.906  31.378  1.00  0.00     0.029 A 
ATOM     58  C   UNL A   1      42.236  33.256  30.042  1.00  0.00     0.049 A 
ATOM     59  H   UNL A   1      40.742  33.220  28.556  1.00  0.00     0.167 HD
ATOM     60  C   UNL A   1      44.354  32.893  29.048  1.00  0.00     0.074 A 
ATOM     61  C   UNL A   1      45.706  33.001  28.536  1.00  0.00     0.031 C 
ATOM     62  C   UNL A   1      43.334  33.780  29.246  1.00  0.00     0.037 A 
BRANCH  49  63
ATOM     63  C   UNL A   1      37.518  32.429  30.642  1.00  0.00     0.058 A 
ATOM     64  C   UNL A   1      36.616  33.198  29.874  1.00  0.00     0.135 A 
ATOM     65  C   UNL A   1      37.113  32.182  31.968  1.00  0.00     0.135 A 
ATOM     66  F   UNL A   1      36.826  33.444  28.575  1.00  0.00    -0.206 F 
ATOM     67  C   UNL A   1      35.467  33.776  30.410  1.00  0.00     0.059 A 
ATOM     68  C   UNL A   1      35.990  32.790  32.542  1.00  0.00     0.059 A 
ATOM     69  F   UNL A   1      37.801  31.335  32.749  1.00  0.00    -0.206 F 
ATOM     70  C   UNL A   1      35.181  33.601  31.756  1.00  0.00     0.060 A 
BRANCH  70  71
ATOM     71  S   UNL A   1      33.771  34.482  32.457  1.00  0.00     0.124 S 
ATOM     72  O   UNL A   1      34.419  35.533  33.236  1.00  0.00    -0.237 OA
ATOM     73  O   UNL A   1      33.065  34.924  31.260  1.00  0.00    -0.237 OA
ATOM     74  O   UNL A   1      33.094  33.458  33.247  1.00  0.00    -0.744 OA
ENDBRANCH  70  71
ENDBRANCH  49  63
BRANCH  50  75
ATOM     75  C   UNL A   1      45.953  28.576  27.929  1.00  0.00     0.058 A 
ATOM     76  C   UNL A   1      46.987  27.676  28.244  1.00  0.00     0.135 A 
ATOM     77  C   UNL A   1      45.194  28.336  26.775  1.00  0.00     0.135 A 
ATOM     78  F   UNL A   1      47.758  27.889  29.322  1.00  0.00    -0.206 F 
ATOM     79  C   UNL A   1      47.136  26.481  27.553  1.00  0.00     0.059 A 
ATOM     80  C   UNL A   1      45.329  27.145  26.066  1.00  0.00     0.059 A 
ATOM     81  F   UNL A   1      44.194  29.162  26.440  1.00  0.00    -0.206 F 
ATOM     82  C   UNL A   1      46.246  26.195  26.517  1.00  0.00     0.060 A 
BRANCH  82  83
ATOM     83  S   UNL A   1      46.164  24.489  25.921  1.00  0.00     0.124 S 
ATOM     84  O   UNL A   1      47.558  24.077  26.008  1.00  0.00    -0.237 OA
ATOM     85  O   UNL A   1      45.249  23.891  26.893  1.00  0.00    -0.237 OA
ATOM     86  O   UNL A   1      45.629  24.641  24.573  1.00  0.00    -0.744 OA
ENDBRANCH  82  83
ENDBRANCH  50  75
BRANCH  62  87
ATOM     87  C   UNL A   1      43.308  35.226  28.818  1.00  0.00     0.058 A 
ATOM     88  C   UNL A   1      43.056  35.654  27.504  1.00  0.00     0.135 A 
ATOM     89  C   UNL A   1      43.411  36.257  29.784  1.00  0.00     0.135 A 
ATOM     90  F   UNL A   1      42.830  34.775  26.517  1.00  0.00    -0.206 F 
ATOM     91  C   UNL A   1      42.980  37.006  27.157  1.00  0.00     0.059 A 
ATOM     92  C   UNL A   1      43.290  37.608  29.470  1.00  0.00     0.059 A 
ATOM     93  F   UNL A   1      43.629  35.981  31.080  1.00  0.00    -0.206 F 
ATOM     94  C   UNL A   1      43.100  37.976  28.147  1.00  0.00     0.060 A 
BRANCH  94  95
ATOM     95  S   UNL A   1      42.948  39.723  27.729  1.00  0.00     0.124 S 
ATOM     96  O   UNL A   1      41.658  40.055  28.326  1.00  0.00    -0.237 OA
ATOM     97  O   UNL A   1      44.112  40.320  28.377  1.00  0.00    -0.237 OA
ATOM     98  O   UNL A   1      42.988  39.717  26.270  1.00  0.00    -0.744 OA
ENDBRANCH  94  95
ENDBRANCH  62  87
ENDBRANCH  36  37
ENDBRANCH  28  31
ENDBRANCH  26  27
ENDBRANCH  25  26
ENDBRANCH   1  25
TORSDOF 17
ENDMDL
