MODEL 1
REMARK VINA RESULT:     -11.7      0.000      0.000
REMARK SMILES CC[C@@H](C)[C@H](NC(=O)N1CCn2c1nc1ccccc12)C(=O)N[C@H](C)C(=O)NCCCCNC(=O)c1ccc(-c2c3nc(c(-c4c(F)cc(S(=O)(=O)[O-])cc4F)c4ccc([nH]4)c(-c4c(F)cc(S(=O)(=O)[O-])cc4F)c4nc(c(-c5c(F)cc(S(=O)(=O)[O-])cc5F)c5ccc2[nH]5)C=C4)C=C3)cc1
REMARK SMILES IDX 30 1 29 2 28 3 26 4 27 5 24 7 25 8 23 9 21 10 22 11 5 13
REMARK SMILES IDX 3 14 4 15 2 16 1 17 6 18 7 19 8 21 9 22 10 23 13 24 11 25
REMARK SMILES IDX 12 26 14 27 20 28 15 29 19 30 16 31 18 32 17 33 31 34 32 35
REMARK SMILES IDX 33 36 34 37 35 39 36 40 37 41 101 42 38 43 100 44 39 45
REMARK SMILES IDX 40 46 41 47 94 48 42 49 99 50 93 51 95 52 43 53 98 54 92 55
REMARK SMILES IDX 91 56 44 58 78 59 57 60 77 61 58 62 61 63 76 64 96 65 59 66
REMARK SMILES IDX 60 67 75 69 97 70 62 71 45 72 46 73 55 74 47 75 48 76 54 77
REMARK SMILES IDX 56 78 49 79 50 80 51 81 52 82 53 83 79 84 80 85 89 86 81 87
REMARK SMILES IDX 82 88 88 89 90 90 83 91 84 92 85 93 86 94 87 95 63 96 64 97
REMARK SMILES IDX 73 98 65 99 66 100 72 101 74 102 67 103 68 104 69 105 70 106
REMARK SMILES IDX 71 107
REMARK H PARENT 28 6 23 12 6 20 33 38 95 57 61 68
REMARK Flexibility Score: inf
ROOT
ATOM      1  C   UNL A   1      35.840  22.857  25.996  1.00  0.00     0.023 C 
ENDROOT
BRANCH   1   2
ATOM      2  C   UNL A   1      35.320  21.472  25.598  1.00  0.00     0.116 C 
BRANCH   2   3
ATOM      3  N   UNL A   1      34.538  21.550  24.375  1.00  0.00    -0.354 N 
ATOM      4  C   UNL A   1      33.274  21.929  24.065  1.00  0.00     0.242 C 
ATOM      5  O   UNL A   1      32.957  21.787  22.875  1.00  0.00    -0.273 OA
ATOM      6  H   UNL A   1      35.046  21.257  23.585  1.00  0.00     0.163 HD
BRANCH   4   7
ATOM      7  C   UNL A   1      32.261  22.594  25.045  1.00  0.00     0.168 C 
ATOM      8  C   UNL A   1      31.632  21.534  25.939  1.00  0.00     0.041 C 
BRANCH   7   9
ATOM      9  N   UNL A   1      32.576  23.875  25.673  1.00  0.00    -0.343 N 
ATOM     10  C   UNL A   1      32.565  25.198  25.403  1.00  0.00     0.243 C 
ATOM     11  O   UNL A   1      32.618  25.901  26.430  1.00  0.00    -0.273 OA
ATOM     12  H   UNL A   1      32.903  23.726  26.589  1.00  0.00     0.164 HD
BRANCH  10  13
ATOM     13  C   UNL A   1      32.326  25.903  24.041  1.00  0.00     0.176 C 
BRANCH  13  14
ATOM     14  C   UNL A   1      31.522  25.072  22.987  1.00  0.00     0.018 C 
ATOM     15  C   UNL A   1      32.080  25.325  21.579  1.00  0.00     0.010 C 
BRANCH  14  16
ATOM     16  C   UNL A   1      30.001  25.262  23.129  1.00  0.00     0.002 C 
ATOM     17  C   UNL A   1      29.497  26.312  24.109  1.00  0.00     0.004 C 
ENDBRANCH  14  16
ENDBRANCH  13  14
BRANCH  13  18
ATOM     18  N   UNL A   1      33.457  26.589  23.413  1.00  0.00    -0.326 N 
ATOM     19  C   UNL A   1      33.455  27.863  22.942  1.00  0.00     0.324 C 
ATOM     20  H   UNL A   1      34.295  26.081  23.324  1.00  0.00     0.166 HD
ATOM     21  O   UNL A   1      34.087  28.098  21.909  1.00  0.00    -0.248 OA
BRANCH  19  22
ATOM     22  N   UNL A   1      32.699  28.817  23.543  1.00  0.00    -0.262 N 
ATOM     23  C   UNL A   1      32.929  29.306  24.909  1.00  0.00     0.152 C 
ATOM     24  C   UNL A   1      31.486  29.258  23.090  1.00  0.00     0.214 A 
ATOM     25  C   UNL A   1      31.671  30.121  25.263  1.00  0.00     0.148 C 
ATOM     26  N   UNL A   1      30.899  30.037  24.039  1.00  0.00    -0.308 N 
ATOM     27  N   UNL A   1      30.709  29.083  22.059  1.00  0.00    -0.212 NA
ATOM     28  C   UNL A   1      29.706  30.483  23.598  1.00  0.00     0.070 A 
ATOM     29  C   UNL A   1      29.608  29.879  22.336  1.00  0.00     0.091 A 
ATOM     30  C   UNL A   1      28.724  31.322  24.129  1.00  0.00     0.028 A 
ATOM     31  C   UNL A   1      28.473  30.132  21.551  1.00  0.00     0.031 A 
ATOM     32  C   UNL A   1      27.607  31.565  23.320  1.00  0.00     0.002 A 
ATOM     33  C   UNL A   1      27.480  30.985  22.055  1.00  0.00     0.002 A 
ENDBRANCH  19  22
ENDBRANCH  13  18
ENDBRANCH  10  13
ENDBRANCH   7   9
ENDBRANCH   4   7
ENDBRANCH   2   3
ENDBRANCH   1   2
BRANCH   1  34
ATOM     34  C   UNL A   1      37.097  23.299  25.255  1.00  0.00     0.023 C 
BRANCH  34  35
ATOM     35  C   UNL A   1      38.374  23.399  26.099  1.00  0.00     0.116 C 
BRANCH  35  36
ATOM     36  N   UNL A   1      39.190  22.198  26.208  1.00  0.00    -0.352 N 
ATOM     37  C   UNL A   1      40.446  21.999  26.749  1.00  0.00     0.251 C 
ATOM     38  H   UNL A   1      38.775  21.388  25.832  1.00  0.00     0.163 HD
ATOM     39  O   UNL A   1      40.886  20.874  26.889  1.00  0.00    -0.269 OA
BRANCH  37  40
ATOM     40  C   UNL A   1      41.287  23.175  27.059  1.00  0.00     0.039 A 
ATOM     41  C   UNL A   1      41.114  23.896  28.242  1.00  0.00     0.014 A 
ATOM     42  C   UNL A   1      42.147  23.635  26.055  1.00  0.00     0.014 A 
ATOM     43  C   UNL A   1      41.665  25.167  28.345  1.00  0.00     0.010 A 
ATOM     44  C   UNL A   1      42.737  24.889  26.183  1.00  0.00     0.010 A 
ATOM     45  C   UNL A   1      42.444  25.679  27.301  1.00  0.00    -0.014 A 
BRANCH  45  46
ATOM     46  C   UNL A   1      42.993  27.028  27.480  1.00  0.00     0.031 A 
ATOM     47  C   UNL A   1      41.956  28.094  27.468  1.00  0.00     0.074 A 
ATOM     48  C   UNL A   1      44.153  27.275  28.122  1.00  0.00     0.049 A 
ATOM     49  N   UNL A   1      41.256  28.375  28.526  1.00  0.00    -0.248 NA
ATOM     50  C   UNL A   1      41.444  28.687  26.235  1.00  0.00     0.031 C 
ATOM     51  C   UNL A   1      44.740  26.413  29.156  1.00  0.00     0.029 A 
ATOM     52  N   UNL A   1      44.918  28.416  28.159  1.00  0.00    -0.354 N 
ATOM     53  C   UNL A   1      40.171  29.115  28.104  1.00  0.00     0.074 A 
ATOM     54  C   UNL A   1      40.338  29.304  26.680  1.00  0.00     0.031 C 
ATOM     55  C   UNL A   1      45.639  27.134  29.856  1.00  0.00     0.029 A 
ATOM     56  C   UNL A   1      45.823  28.431  29.215  1.00  0.00     0.049 A 
ATOM     57  H   UNL A   1      44.835  29.146  27.504  1.00  0.00     0.167 HD
ATOM     58  C   UNL A   1      39.178  29.498  28.947  1.00  0.00     0.037 A 
ATOM     59  C   UNL A   1      46.281  29.549  29.842  1.00  0.00     0.037 A 
ATOM     60  C   UNL A   1      39.349  29.122  30.319  1.00  0.00     0.049 A 
ATOM     61  C   UNL A   1      45.023  30.054  30.503  1.00  0.00     0.074 A 
ATOM     62  C   UNL A   1      38.934  28.097  31.140  1.00  0.00     0.029 A 
ATOM     63  N   UNL A   1      40.189  29.885  31.096  1.00  0.00    -0.354 N 
ATOM     64  N   UNL A   1      44.524  29.611  31.628  1.00  0.00    -0.248 NA
ATOM     65  C   UNL A   1      44.090  30.848  29.698  1.00  0.00     0.031 C 
ATOM     66  C   UNL A   1      39.880  28.057  32.212  1.00  0.00     0.029 A 
ATOM     67  C   UNL A   1      40.842  29.030  31.948  1.00  0.00     0.049 A 
ATOM     68  H   UNL A   1      40.302  30.862  31.048  1.00  0.00     0.167 HD
ATOM     69  C   UNL A   1      43.146  29.827  31.532  1.00  0.00     0.074 A 
ATOM     70  C   UNL A   1      42.950  30.618  30.336  1.00  0.00     0.031 C 
ATOM     71  C   UNL A   1      42.230  29.194  32.320  1.00  0.00     0.037 A 
BRANCH  58  72
ATOM     72  C   UNL A   1      38.037  30.343  28.558  1.00  0.00     0.058 A 
ATOM     73  C   UNL A   1      38.061  31.695  28.925  1.00  0.00     0.135 A 
ATOM     74  C   UNL A   1      36.856  29.813  28.030  1.00  0.00     0.135 A 
ATOM     75  F   UNL A   1      39.183  32.233  29.432  1.00  0.00    -0.206 F 
ATOM     76  C   UNL A   1      36.929  32.489  28.831  1.00  0.00     0.059 A 
ATOM     77  C   UNL A   1      35.707  30.592  27.921  1.00  0.00     0.059 A 
ATOM     78  F   UNL A   1      36.795  28.523  27.664  1.00  0.00    -0.206 F 
ATOM     79  C   UNL A   1      35.748  31.919  28.354  1.00  0.00     0.060 A 
BRANCH  79  80
ATOM     80  S   UNL A   1      34.258  32.937  28.367  1.00  0.00     0.124 S 
ATOM     81  O   UNL A   1      33.296  32.065  27.702  1.00  0.00    -0.237 OA
ATOM     82  O   UNL A   1      34.046  33.143  29.797  1.00  0.00    -0.237 OA
ATOM     83  O   UNL A   1      34.653  34.126  27.618  1.00  0.00    -0.744 OA
ENDBRANCH  79  80
ENDBRANCH  58  72
BRANCH  59  84
ATOM     84  C   UNL A   1      47.188  30.395  28.999  1.00  0.00     0.058 A 
ATOM     85  C   UNL A   1      48.442  30.764  29.538  1.00  0.00     0.135 A 
ATOM     86  C   UNL A   1      46.921  30.849  27.700  1.00  0.00     0.135 A 
ATOM     87  F   UNL A   1      48.737  30.487  30.819  1.00  0.00    -0.206 F 
ATOM     88  C   UNL A   1      49.424  31.398  28.784  1.00  0.00     0.059 A 
ATOM     89  C   UNL A   1      47.897  31.467  26.914  1.00  0.00     0.059 A 
ATOM     90  F   UNL A   1      45.713  30.689  27.144  1.00  0.00    -0.206 F 
ATOM     91  C   UNL A   1      49.157  31.705  27.454  1.00  0.00     0.060 A 
BRANCH  91  92
ATOM     92  S   UNL A   1      50.500  32.353  26.437  1.00  0.00     0.124 S 
ATOM     93  O   UNL A   1      51.419  32.873  27.444  1.00  0.00    -0.237 OA
ATOM     94  O   UNL A   1      50.942  31.156  25.728  1.00  0.00    -0.237 OA
ATOM     95  O   UNL A   1      49.840  33.356  25.607  1.00  0.00    -0.744 OA
ENDBRANCH  91  92
ENDBRANCH  59  84
BRANCH  71  96
ATOM     96  C   UNL A   1      42.778  28.447  33.489  1.00  0.00     0.058 A 
ATOM     97  C   UNL A   1      42.738  29.024  34.766  1.00  0.00     0.135 A 
ATOM     98  C   UNL A   1      43.277  27.141  33.372  1.00  0.00     0.135 A 
ATOM     99  F   UNL A   1      42.263  30.270  34.931  1.00  0.00    -0.206 F 
ATOM    100  C   UNL A   1      43.140  28.317  35.894  1.00  0.00     0.059 A 
ATOM    101  C   UNL A   1      43.663  26.407  34.490  1.00  0.00     0.059 A 
ATOM    102  F   UNL A   1      43.356  26.542  32.172  1.00  0.00    -0.206 F 
ATOM    103  C   UNL A   1      43.584  27.003  35.749  1.00  0.00     0.060 A 
BRANCH 103 104
ATOM    104  S   UNL A   1      43.975  26.055  37.235  1.00  0.00     0.124 S 
ATOM    105  O   UNL A   1      45.415  25.860  37.102  1.00  0.00    -0.237 OA
ATOM    106  O   UNL A   1      43.555  26.959  38.302  1.00  0.00    -0.237 OA
ATOM    107  O   UNL A   1      43.164  24.849  37.094  1.00  0.00    -0.744 OA
ENDBRANCH 103 104
ENDBRANCH  71  96
ENDBRANCH  45  46
ENDBRANCH  37  40
ENDBRANCH  35  36
ENDBRANCH  34  35
ENDBRANCH   1  34
TORSDOF 20
ENDMDL
MODEL 2
REMARK VINA RESULT:     -11.7      2.804      9.041
REMARK SMILES CC[C@@H](C)[C@H](NC(=O)N1CCn2c1nc1ccccc12)C(=O)N[C@H](C)C(=O)NCCCCNC(=O)c1ccc(-c2c3nc(c(-c4c(F)cc(S(=O)(=O)[O-])cc4F)c4ccc([nH]4)c(-c4c(F)cc(S(=O)(=O)[O-])cc4F)c4nc(c(-c5c(F)cc(S(=O)(=O)[O-])cc5F)c5ccc2[nH]5)C=C4)C=C3)cc1
REMARK SMILES IDX 30 1 29 2 28 3 26 4 27 5 24 7 25 8 23 9 21 10 22 11 5 13
REMARK SMILES IDX 3 14 4 15 2 16 1 17 6 18 7 19 8 21 9 22 10 23 13 24 11 25
REMARK SMILES IDX 12 26 14 27 20 28 15 29 19 30 16 31 18 32 17 33 31 34 32 35
REMARK SMILES IDX 33 36 34 37 35 39 36 40 37 41 101 42 38 43 100 44 39 45
REMARK SMILES IDX 40 46 41 47 94 48 42 49 99 50 93 51 95 52 43 53 98 54 92 55
REMARK SMILES IDX 91 56 44 58 78 59 57 60 77 61 58 62 61 63 76 64 96 65 59 66
REMARK SMILES IDX 60 67 75 69 97 70 62 71 45 72 46 73 55 74 47 75 48 76 54 77
REMARK SMILES IDX 56 78 49 79 50 80 51 81 52 82 53 83 79 84 80 85 89 86 81 87
REMARK SMILES IDX 82 88 88 89 90 90 83 91 84 92 85 93 86 94 87 95 63 96 64 97
REMARK SMILES IDX 73 98 65 99 66 100 72 101 74 102 67 103 68 104 69 105 70 106
REMARK SMILES IDX 71 107
REMARK H PARENT 28 6 23 12 6 20 33 38 95 57 61 68
REMARK Flexibility Score: inf
ROOT
ATOM      1  C   UNL A   1      32.334  29.387  27.052  1.00  0.00     0.023 C 
ENDROOT
BRANCH   1   2
ATOM      2  C   UNL A   1      31.729  28.975  25.706  1.00  0.00     0.116 C 
BRANCH   2   3
ATOM      3  N   UNL A   1      32.739  28.997  24.660  1.00  0.00    -0.354 N 
ATOM      4  C   UNL A   1      33.135  28.139  23.688  1.00  0.00     0.242 C 
ATOM      5  O   UNL A   1      34.106  28.516  23.016  1.00  0.00    -0.273 OA
ATOM      6  H   UNL A   1      33.258  29.833  24.658  1.00  0.00     0.163 HD
BRANCH   4   7
ATOM      7  C   UNL A   1      32.423  26.806  23.311  1.00  0.00     0.168 C 
ATOM      8  C   UNL A   1      31.119  27.102  22.582  1.00  0.00     0.041 C 
BRANCH   7   9
ATOM      9  N   UNL A   1      33.199  25.668  22.825  1.00  0.00    -0.343 N 
ATOM     10  C   UNL A   1      33.411  24.361  23.090  1.00  0.00     0.243 C 
ATOM     11  O   UNL A   1      33.934  23.753  22.137  1.00  0.00    -0.273 OA
ATOM     12  H   UNL A   1      33.746  25.943  22.054  1.00  0.00     0.164 HD
BRANCH  10  13
ATOM     13  C   UNL A   1      32.937  23.537  24.317  1.00  0.00     0.176 C 
BRANCH  13  14
ATOM     14  C   UNL A   1      31.391  23.323  24.425  1.00  0.00     0.018 C 
ATOM     15  C   UNL A   1      30.728  23.574  23.062  1.00  0.00     0.010 C 
BRANCH  14  16
ATOM     16  C   UNL A   1      30.773  24.098  25.602  1.00  0.00     0.002 C 
ATOM     17  C   UNL A   1      30.206  23.300  26.769  1.00  0.00     0.004 C 
ENDBRANCH  14  16
ENDBRANCH  13  14
BRANCH  13  18
ATOM     18  N   UNL A   1      33.513  23.855  25.625  1.00  0.00    -0.326 N 
ATOM     19  C   UNL A   1      34.077  22.968  26.484  1.00  0.00     0.324 C 
ATOM     20  H   UNL A   1      33.489  24.798  25.907  1.00  0.00     0.166 HD
ATOM     21  O   UNL A   1      33.890  23.135  27.692  1.00  0.00    -0.248 OA
BRANCH  19  22
ATOM     22  N   UNL A   1      34.742  21.882  26.014  1.00  0.00    -0.262 N 
ATOM     23  C   UNL A   1      36.133  21.913  25.541  1.00  0.00     0.152 C 
ATOM     24  C   UNL A   1      34.160  20.696  25.662  1.00  0.00     0.214 A 
ATOM     25  C   UNL A   1      36.347  20.566  24.826  1.00  0.00     0.148 C 
ATOM     26  N   UNL A   1      35.068  19.913  25.020  1.00  0.00    -0.308 N 
ATOM     27  N   UNL A   1      32.981  20.142  25.697  1.00  0.00    -0.212 NA
ATOM     28  C   UNL A   1      34.504  18.738  24.676  1.00  0.00     0.070 A 
ATOM     29  C   UNL A   1      33.184  18.895  25.125  1.00  0.00     0.091 A 
ATOM     30  C   UNL A   1      34.971  17.581  24.049  1.00  0.00     0.028 A 
ATOM     31  C   UNL A   1      32.280  17.838  24.949  1.00  0.00     0.031 A 
ATOM     32  C   UNL A   1      34.049  16.538  23.894  1.00  0.00     0.002 A 
ATOM     33  C   UNL A   1      32.729  16.660  24.336  1.00  0.00     0.002 A 
ENDBRANCH  19  22
ENDBRANCH  13  18
ENDBRANCH  10  13
ENDBRANCH   7   9
ENDBRANCH   4   7
ENDBRANCH   2   3
ENDBRANCH   1   2
BRANCH   1  34
ATOM     34  C   UNL A   1      32.502  30.890  27.237  1.00  0.00     0.023 C 
BRANCH  34  35
ATOM     35  C   UNL A   1      33.937  31.382  27.466  1.00  0.00     0.116 C 
BRANCH  35  36
ATOM     36  N   UNL A   1      34.096  32.704  28.057  1.00  0.00    -0.352 N 
ATOM     37  C   UNL A   1      35.107  33.235  28.836  1.00  0.00     0.251 C 
ATOM     38  H   UNL A   1      33.356  33.326  27.869  1.00  0.00     0.163 HD
ATOM     39  O   UNL A   1      35.126  34.423  29.095  1.00  0.00    -0.269 OA
BRANCH  37  40
ATOM     40  C   UNL A   1      36.103  32.323  29.436  1.00  0.00     0.039 A 
ATOM     41  C   UNL A   1      35.928  31.806  30.722  1.00  0.00     0.014 A 
ATOM     42  C   UNL A   1      37.299  32.126  28.738  1.00  0.00     0.014 A 
ATOM     43  C   UNL A   1      37.016  31.246  31.378  1.00  0.00     0.010 A 
ATOM     44  C   UNL A   1      38.375  31.519  29.382  1.00  0.00     0.010 A 
ATOM     45  C   UNL A   1      38.249  31.136  30.723  1.00  0.00    -0.014 A 
BRANCH  45  46
ATOM     46  C   UNL A   1      39.353  30.534  31.479  1.00  0.00     0.031 A 
ATOM     47  C   UNL A   1      39.645  29.131  31.080  1.00  0.00     0.074 A 
ATOM     48  C   UNL A   1      40.344  31.255  32.042  1.00  0.00     0.049 A 
ATOM     49  N   UNL A   1      40.374  28.855  30.041  1.00  0.00    -0.248 NA
ATOM     50  C   UNL A   1      38.918  27.986  31.624  1.00  0.00     0.031 C 
ATOM     51  C   UNL A   1      40.788  32.576  31.579  1.00  0.00     0.029 A 
ATOM     52  N   UNL A   1      41.288  30.887  32.970  1.00  0.00    -0.354 N 
ATOM     53  C   UNL A   1      40.153  27.528  29.736  1.00  0.00     0.074 A 
ATOM     54  C   UNL A   1      39.262  27.021  30.756  1.00  0.00     0.031 C 
ATOM     55  C   UNL A   1      42.019  32.813  32.077  1.00  0.00     0.029 A 
ATOM     56  C   UNL A   1      42.368  31.762  33.025  1.00  0.00     0.049 A 
ATOM     57  H   UNL A   1      41.208  30.087  33.538  1.00  0.00     0.167 HD
ATOM     58  C   UNL A   1      40.689  26.933  28.640  1.00  0.00     0.037 A 
ATOM     59  C   UNL A   1      43.639  31.422  33.373  1.00  0.00     0.037 A 
ATOM     60  C   UNL A   1      41.539  27.761  27.837  1.00  0.00     0.049 A 
ATOM     61  C   UNL A   1      44.028  30.519  32.229  1.00  0.00     0.074 A 
ATOM     62  C   UNL A   1      41.411  28.535  26.705  1.00  0.00     0.029 A 
ATOM     63  N   UNL A   1      42.833  27.958  28.260  1.00  0.00    -0.354 N 
ATOM     64  N   UNL A   1      44.442  30.916  31.055  1.00  0.00    -0.248 NA
ATOM     65  C   UNL A   1      43.604  29.117  32.281  1.00  0.00     0.031 C 
ATOM     66  C   UNL A   1      42.483  29.479  26.762  1.00  0.00     0.029 A 
ATOM     67  C   UNL A   1      43.167  29.253  27.955  1.00  0.00     0.049 A 
ATOM     68  H   UNL A   1      43.411  27.293  28.701  1.00  0.00     0.167 HD
ATOM     69  C   UNL A   1      44.062  29.906  30.167  1.00  0.00     0.074 A 
ATOM     70  C   UNL A   1      43.579  28.816  30.989  1.00  0.00     0.031 C 
ATOM     71  C   UNL A   1      43.981  30.083  28.816  1.00  0.00     0.037 A 
BRANCH  58  72
ATOM     72  C   UNL A   1      40.538  25.506  28.311  1.00  0.00     0.058 A 
ATOM     73  C   UNL A   1      41.601  24.644  28.607  1.00  0.00     0.135 A 
ATOM     74  C   UNL A   1      39.478  25.023  27.538  1.00  0.00     0.135 A 
ATOM     75  F   UNL A   1      42.631  25.079  29.352  1.00  0.00    -0.206 F 
ATOM     76  C   UNL A   1      41.647  23.354  28.101  1.00  0.00     0.059 A 
ATOM     77  C   UNL A   1      39.500  23.729  27.021  1.00  0.00     0.059 A 
ATOM     78  F   UNL A   1      38.440  25.818  27.235  1.00  0.00    -0.206 F 
ATOM     79  C   UNL A   1      40.604  22.916  27.284  1.00  0.00     0.060 A 
BRANCH  79  80
ATOM     80  S   UNL A   1      40.754  21.283  26.531  1.00  0.00     0.124 S 
ATOM     81  O   UNL A   1      40.833  20.420  27.705  1.00  0.00    -0.237 OA
ATOM     82  O   UNL A   1      39.519  21.194  25.758  1.00  0.00    -0.237 OA
ATOM     83  O   UNL A   1      41.977  21.384  25.741  1.00  0.00    -0.744 OA
ENDBRANCH  79  80
ENDBRANCH  58  72
BRANCH  59  84
ATOM     84  C   UNL A   1      43.802  31.065  34.821  1.00  0.00     0.058 A 
ATOM     85  C   UNL A   1      44.969  30.365  35.206  1.00  0.00     0.135 A 
ATOM     86  C   UNL A   1      42.907  31.379  35.854  1.00  0.00     0.135 A 
ATOM     87  F   UNL A   1      45.822  29.908  34.274  1.00  0.00    -0.206 F 
ATOM     88  C   UNL A   1      45.301  30.136  36.537  1.00  0.00     0.059 A 
ATOM     89  C   UNL A   1      43.227  31.181  37.199  1.00  0.00     0.059 A 
ATOM     90  F   UNL A   1      41.704  31.907  35.593  1.00  0.00    -0.206 F 
ATOM     91  C   UNL A   1      44.443  30.591  37.531  1.00  0.00     0.060 A 
BRANCH  91  92
ATOM     92  S   UNL A   1      44.974  30.457  39.251  1.00  0.00     0.124 S 
ATOM     93  O   UNL A   1      43.865  31.086  39.960  1.00  0.00    -0.237 OA
ATOM     94  O   UNL A   1      45.097  29.011  39.414  1.00  0.00    -0.237 OA
ATOM     95  O   UNL A   1      46.235  31.192  39.272  1.00  0.00    -0.744 OA
ENDBRANCH  91  92
ENDBRANCH  59  84
BRANCH  71  96
ATOM     96  C   UNL A   1      44.581  31.340  28.286  1.00  0.00     0.058 A 
ATOM     97  C   UNL A   1      45.845  31.309  27.682  1.00  0.00     0.135 A 
ATOM     98  C   UNL A   1      43.889  32.561  28.303  1.00  0.00     0.135 A 
ATOM     99  F   UNL A   1      46.544  30.162  27.633  1.00  0.00    -0.206 F 
ATOM    100  C   UNL A   1      46.390  32.438  27.080  1.00  0.00     0.059 A 
ATOM    101  C   UNL A   1      44.406  33.698  27.687  1.00  0.00     0.059 A 
ATOM    102  F   UNL A   1      42.681  32.657  28.883  1.00  0.00    -0.206 F 
ATOM    103  C   UNL A   1      45.655  33.624  27.072  1.00  0.00     0.060 A 
BRANCH 103 104
ATOM    104  S   UNL A   1      46.317  35.042  26.172  1.00  0.00     0.124 S 
ATOM    105  O   UNL A   1      46.230  34.592  24.787  1.00  0.00    -0.237 OA
ATOM    106  O   UNL A   1      45.395  36.110  26.549  1.00  0.00    -0.237 OA
ATOM    107  O   UNL A   1      47.670  35.182  26.702  1.00  0.00    -0.744 OA
ENDBRANCH 103 104
ENDBRANCH  71  96
ENDBRANCH  45  46
ENDBRANCH  37  40
ENDBRANCH  35  36
ENDBRANCH  34  35
ENDBRANCH   1  34
TORSDOF 20
ENDMDL
MODEL 3
REMARK VINA RESULT:     -10.5      5.781     14.079
REMARK SMILES CC[C@@H](C)[C@H](NC(=O)N1CCn2c1nc1ccccc12)C(=O)N[C@H](C)C(=O)NCCCCNC(=O)c1ccc(-c2c3nc(c(-c4c(F)cc(S(=O)(=O)[O-])cc4F)c4ccc([nH]4)c(-c4c(F)cc(S(=O)(=O)[O-])cc4F)c4nc(c(-c5c(F)cc(S(=O)(=O)[O-])cc5F)c5ccc2[nH]5)C=C4)C=C3)cc1
REMARK SMILES IDX 30 1 29 2 28 3 26 4 27 5 24 7 25 8 23 9 21 10 22 11 5 13
REMARK SMILES IDX 3 14 4 15 2 16 1 17 6 18 7 19 8 21 9 22 10 23 13 24 11 25
REMARK SMILES IDX 12 26 14 27 20 28 15 29 19 30 16 31 18 32 17 33 31 34 32 35
REMARK SMILES IDX 33 36 34 37 35 39 36 40 37 41 101 42 38 43 100 44 39 45
REMARK SMILES IDX 40 46 41 47 94 48 42 49 99 50 93 51 95 52 43 53 98 54 92 55
REMARK SMILES IDX 91 56 44 58 78 59 57 60 77 61 58 62 61 63 76 64 96 65 59 66
REMARK SMILES IDX 60 67 75 69 97 70 62 71 45 72 46 73 55 74 47 75 48 76 54 77
REMARK SMILES IDX 56 78 49 79 50 80 51 81 52 82 53 83 79 84 80 85 89 86 81 87
REMARK SMILES IDX 82 88 88 89 90 90 83 91 84 92 85 93 86 94 87 95 63 96 64 97
REMARK SMILES IDX 73 98 65 99 66 100 72 101 74 102 67 103 68 104 69 105 70 106
REMARK SMILES IDX 71 107
REMARK H PARENT 28 6 23 12 6 20 33 38 95 57 61 68
REMARK Flexibility Score: inf
ROOT
ATOM      1  C   UNL A   1      46.111  24.486  38.853  1.00  0.00     0.023 C 
ENDROOT
BRANCH   1   2
ATOM      2  C   UNL A   1      47.518  23.963  38.543  1.00  0.00     0.116 C 
BRANCH   2   3
ATOM      3  N   UNL A   1      47.834  22.816  39.379  1.00  0.00    -0.354 N 
ATOM      4  C   UNL A   1      48.764  21.830  39.346  1.00  0.00     0.242 C 
ATOM      5  O   UNL A   1      48.660  20.976  40.238  1.00  0.00    -0.273 OA
ATOM      6  H   UNL A   1      47.230  22.736  40.151  1.00  0.00     0.163 HD
BRANCH   4   7
ATOM      7  C   UNL A   1      49.965  21.750  38.358  1.00  0.00     0.168 C 
ATOM      8  C   UNL A   1      51.092  22.657  38.835  1.00  0.00     0.041 C 
BRANCH   7   9
ATOM      9  N   UNL A   1      50.360  20.468  37.779  1.00  0.00    -0.343 N 
ATOM     10  C   UNL A   1      50.549  19.882  36.577  1.00  0.00     0.243 C 
ATOM     11  O   UNL A   1      51.227  18.838  36.651  1.00  0.00    -0.273 OA
ATOM     12  H   UNL A   1      50.547  19.822  38.497  1.00  0.00     0.164 HD
BRANCH  10  13
ATOM     13  C   UNL A   1      50.189  20.427  35.169  1.00  0.00     0.176 C 
BRANCH  13  14
ATOM     14  C   UNL A   1      48.743  20.094  34.671  1.00  0.00     0.018 C 
ATOM     15  C   UNL A   1      48.788  19.594  33.220  1.00  0.00     0.010 C 
BRANCH  14  16
ATOM     16  C   UNL A   1      47.755  21.244  34.933  1.00  0.00     0.002 C 
ATOM     17  C   UNL A   1      48.318  22.648  35.117  1.00  0.00     0.004 C 
ENDBRANCH  14  16
ENDBRANCH  13  14
BRANCH  13  18
ATOM     18  N   UNL A   1      51.166  20.252  34.093  1.00  0.00    -0.326 N 
ATOM     19  C   UNL A   1      51.648  21.234  33.287  1.00  0.00     0.324 C 
ATOM     20  H   UNL A   1      51.504  19.341  33.938  1.00  0.00     0.166 HD
ATOM     21  O   UNL A   1      51.854  20.960  32.103  1.00  0.00    -0.248 OA
BRANCH  19  22
ATOM     22  N   UNL A   1      51.802  22.497  33.760  1.00  0.00    -0.262 N 
ATOM     23  C   UNL A   1      52.370  22.817  35.077  1.00  0.00     0.152 C 
ATOM     24  C   UNL A   1      51.224  23.613  33.221  1.00  0.00     0.214 A 
ATOM     25  C   UNL A   1      52.059  24.308  35.300  1.00  0.00     0.148 C 
ATOM     26  N   UNL A   1      51.393  24.668  34.063  1.00  0.00    -0.308 N 
ATOM     27  N   UNL A   1      50.501  23.932  32.185  1.00  0.00    -0.212 NA
ATOM     28  C   UNL A   1      50.833  25.775  33.536  1.00  0.00     0.070 A 
ATOM     29  C   UNL A   1      50.283  25.293  32.339  1.00  0.00     0.091 A 
ATOM     30  C   UNL A   1      50.743  27.108  33.942  1.00  0.00     0.028 A 
ATOM     31  C   UNL A   1      49.614  26.189  31.493  1.00  0.00     0.031 A 
ATOM     32  C   UNL A   1      50.078  27.982  33.073  1.00  0.00     0.002 A 
ATOM     33  C   UNL A   1      49.525  27.536  31.871  1.00  0.00     0.002 A 
ENDBRANCH  19  22
ENDBRANCH  13  18
ENDBRANCH  10  13
ENDBRANCH   7   9
ENDBRANCH   4   7
ENDBRANCH   2   3
ENDBRANCH   1   2
BRANCH   1  34
ATOM     34  C   UNL A   1      45.574  25.494  37.845  1.00  0.00     0.023 C 
BRANCH  34  35
ATOM     35  C   UNL A   1      44.209  25.163  37.227  1.00  0.00     0.116 C 
BRANCH  35  36
ATOM     36  N   UNL A   1      44.087  23.883  36.543  1.00  0.00    -0.352 N 
ATOM     37  C   UNL A   1      44.416  23.507  35.253  1.00  0.00     0.251 C 
ATOM     38  H   UNL A   1      43.706  23.161  37.094  1.00  0.00     0.163 HD
ATOM     39  O   UNL A   1      44.387  22.336  34.926  1.00  0.00    -0.269 OA
BRANCH  37  40
ATOM     40  C   UNL A   1      44.700  24.556  34.252  1.00  0.00     0.039 A 
ATOM     41  C   UNL A   1      43.671  25.170  33.535  1.00  0.00     0.014 A 
ATOM     42  C   UNL A   1      46.041  24.797  33.934  1.00  0.00     0.014 A 
ATOM     43  C   UNL A   1      43.981  25.884  32.385  1.00  0.00     0.010 A 
ATOM     44  C   UNL A   1      46.351  25.555  32.807  1.00  0.00     0.010 A 
ATOM     45  C   UNL A   1      45.318  26.044  31.999  1.00  0.00    -0.014 A 
BRANCH  45  46
ATOM     46  C   UNL A   1      45.569  26.811  30.773  1.00  0.00     0.031 A 
ATOM     47  C   UNL A   1      45.478  25.991  29.536  1.00  0.00     0.074 A 
ATOM     48  C   UNL A   1      45.357  28.139  30.676  1.00  0.00     0.049 A 
ATOM     49  N   UNL A   1      44.334  25.721  28.981  1.00  0.00    -0.248 NA
ATOM     50  C   UNL A   1      46.594  25.199  29.026  1.00  0.00     0.031 C 
ATOM     51  C   UNL A   1      44.398  28.898  31.488  1.00  0.00     0.029 A 
ATOM     52  N   UNL A   1      45.767  29.031  29.714  1.00  0.00    -0.354 N 
ATOM     53  C   UNL A   1      44.549  24.676  28.106  1.00  0.00     0.074 A 
ATOM     54  C   UNL A   1      45.968  24.399  28.148  1.00  0.00     0.031 C 
ATOM     55  C   UNL A   1      44.146  30.070  30.870  1.00  0.00     0.029 A 
ATOM     56  C   UNL A   1      45.048  30.222  29.734  1.00  0.00     0.049 A 
ATOM     57  H   UNL A   1      46.494  28.847  29.077  1.00  0.00     0.167 HD
ATOM     58  C   UNL A   1      43.540  24.078  27.424  1.00  0.00     0.037 A 
ATOM     59  C   UNL A   1      44.809  31.015  28.654  1.00  0.00     0.037 A 
ATOM     60  C   UNL A   1      42.235  24.628  27.636  1.00  0.00     0.049 A 
ATOM     61  C   UNL A   1      43.915  30.126  27.826  1.00  0.00     0.074 A 
ATOM     62  C   UNL A   1      41.148  24.358  28.438  1.00  0.00     0.029 A 
ATOM     63  N   UNL A   1      41.901  25.775  26.956  1.00  0.00    -0.354 N 
ATOM     64  N   UNL A   1      42.631  29.960  28.005  1.00  0.00    -0.248 NA
ATOM     65  C   UNL A   1      44.545  29.108  26.980  1.00  0.00     0.031 C 
ATOM     66  C   UNL A   1      40.416  25.584  28.518  1.00  0.00     0.029 A 
ATOM     67  C   UNL A   1      41.133  26.538  27.800  1.00  0.00     0.049 A 
ATOM     68  H   UNL A   1      42.165  26.007  26.036  1.00  0.00     0.167 HD
ATOM     69  C   UNL A   1      42.354  28.673  27.537  1.00  0.00     0.074 A 
ATOM     70  C   UNL A   1      43.567  28.216  26.892  1.00  0.00     0.031 C 
ATOM     71  C   UNL A   1      41.225  27.980  27.864  1.00  0.00     0.037 A 
BRANCH  58  72
ATOM     72  C   UNL A   1      43.729  23.007  26.431  1.00  0.00     0.058 A 
ATOM     73  C   UNL A   1      43.358  21.704  26.786  1.00  0.00     0.135 A 
ATOM     74  C   UNL A   1      44.445  23.201  25.246  1.00  0.00     0.135 A 
ATOM     75  F   UNL A   1      42.666  21.487  27.917  1.00  0.00    -0.206 F 
ATOM     76  C   UNL A   1      43.737  20.611  26.022  1.00  0.00     0.059 A 
ATOM     77  C   UNL A   1      44.834  22.119  24.459  1.00  0.00     0.059 A 
ATOM     78  F   UNL A   1      44.816  24.435  24.870  1.00  0.00    -0.206 F 
ATOM     79  C   UNL A   1      44.501  20.828  24.874  1.00  0.00     0.060 A 
BRANCH  79  80
ATOM     80  S   UNL A   1      45.093  19.382  23.972  1.00  0.00     0.124 S 
ATOM     81  O   UNL A   1      44.506  18.290  24.741  1.00  0.00    -0.237 OA
ATOM     82  O   UNL A   1      44.526  19.602  22.645  1.00  0.00    -0.237 OA
ATOM     83  O   UNL A   1      46.546  19.501  24.056  1.00  0.00    -0.744 OA
ENDBRANCH  79  80
ENDBRANCH  58  72
BRANCH  59  84
ATOM     84  C   UNL A   1      46.028  31.712  28.126  1.00  0.00     0.058 A 
ATOM     85  C   UNL A   1      45.944  32.322  26.853  1.00  0.00     0.135 A 
ATOM     86  C   UNL A   1      47.257  31.839  28.787  1.00  0.00     0.135 A 
ATOM     87  F   UNL A   1      44.853  32.146  26.088  1.00  0.00    -0.206 F 
ATOM     88  C   UNL A   1      46.951  33.135  26.344  1.00  0.00     0.059 A 
ATOM     89  C   UNL A   1      48.275  32.669  28.309  1.00  0.00     0.059 A 
ATOM     90  F   UNL A   1      47.503  31.182  29.928  1.00  0.00    -0.206 F 
ATOM     91  C   UNL A   1      48.097  33.340  27.104  1.00  0.00     0.060 A 
BRANCH  91  92
ATOM     92  S   UNL A   1      49.309  34.544  26.520  1.00  0.00     0.124 S 
ATOM     93  O   UNL A   1      50.455  34.260  27.379  1.00  0.00    -0.237 OA
ATOM     94  O   UNL A   1      49.455  34.166  25.118  1.00  0.00    -0.237 OA
ATOM     95  O   UNL A   1      48.650  35.826  26.752  1.00  0.00    -0.744 OA
ENDBRANCH  91  92
ENDBRANCH  59  84
BRANCH  71  96
ATOM     96  C   UNL A   1      40.151  28.764  28.538  1.00  0.00     0.058 A 
ATOM     97  C   UNL A   1      39.185  29.427  27.770  1.00  0.00     0.135 A 
ATOM     98  C   UNL A   1      40.025  28.807  29.935  1.00  0.00     0.135 A 
ATOM     99  F   UNL A   1      39.257  29.408  26.428  1.00  0.00    -0.206 F 
ATOM    100  C   UNL A   1      38.107  30.077  28.362  1.00  0.00     0.059 A 
ATOM    101  C   UNL A   1      38.942  29.433  30.548  1.00  0.00     0.059 A 
ATOM    102  F   UNL A   1      40.930  28.205  30.725  1.00  0.00    -0.206 F 
ATOM    103  C   UNL A   1      37.984  30.059  29.752  1.00  0.00     0.060 A 
BRANCH 103 104
ATOM    104  S   UNL A   1      36.512  30.791  30.497  1.00  0.00     0.124 S 
ATOM    105  O   UNL A   1      35.704  31.110  29.326  1.00  0.00    -0.237 OA
ATOM    106  O   UNL A   1      36.012  29.705  31.334  1.00  0.00    -0.237 OA
ATOM    107  O   UNL A   1      37.036  31.941  31.230  1.00  0.00    -0.744 OA
ENDBRANCH 103 104
ENDBRANCH  71  96
ENDBRANCH  45  46
ENDBRANCH  37  40
ENDBRANCH  35  36
ENDBRANCH  34  35
ENDBRANCH   1  34
TORSDOF 20
ENDMDL
