MODEL 1
REMARK VINA RESULT:     -12.8      0.000      0.000
REMARK SMILES O=C1C[C@@H](C(=O)NCCCCNC(=O)c2ccc(-c3c4nc(c(-c5c(F)cc(S(=O)(=O)[O-])cc5F)c5ccc([nH]5)c(-c5c(F)cc(S(=O)(=O)[O-])cc5F)c5nc(c(-c6c(F)cc(S(=O)(=O)[O-])cc6F)c6ccc3[nH]6)C=C5)C=C4)cc2)C2(CC[NH+](Cc3c[nH]nc3-c3ccc(Cl)cc3)CC2)N1
REMARK SMILES IDX 9 1 8 2 7 3 5 4 6 5 4 7 1 8 2 9 3 10 100 11 81 12 82 14
REMARK SMILES IDX 99 15 83 16 98 17 84 18 85 20 86 21 87 22 90 23 88 24 89 25
REMARK SMILES IDX 91 27 92 28 97 29 93 30 96 31 94 32 95 33 10 34 11 35 12 36
REMARK SMILES IDX 13 37 14 39 15 40 16 41 80 42 17 43 79 44 18 45 19 46 20 47
REMARK SMILES IDX 73 48 21 49 78 50 72 51 74 52 22 53 77 54 71 55 70 56 23 58
REMARK SMILES IDX 57 59 36 60 56 61 37 62 40 63 55 64 75 65 38 66 39 67 54 69
REMARK SMILES IDX 76 70 41 71 24 72 25 73 34 74 26 75 27 76 33 77 35 78 28 79
REMARK SMILES IDX 29 80 30 81 31 82 32 83 58 84 59 85 68 86 60 87 61 88 67 89
REMARK SMILES IDX 69 90 62 91 63 92 64 93 65 94 66 95 42 96 43 97 52 98 44 99
REMARK SMILES IDX 45 100 51 101 53 102 46 103 47 104 48 105 49 106 50 107
REMARK H PARENT 7 6 100 13 84 19 88 26 12 38 74 57 40 68
REMARK Flexibility Score: inf
ROOT
ATOM      1  C   UNL A   1      38.367  23.932  26.368  1.00  0.00     0.023 C 
ENDROOT
BRANCH   1   2
ATOM      2  C   UNL A   1      36.973  23.412  26.003  1.00  0.00     0.116 C 
BRANCH   2   3
ATOM      3  N   UNL A   1      36.732  23.292  24.575  1.00  0.00    -0.356 N 
ATOM      4  C   UNL A   1      35.618  23.055  23.834  1.00  0.00     0.226 C 
ATOM      5  O   UNL A   1      35.765  23.048  22.605  1.00  0.00    -0.275 OA
ATOM      6  H   UNL A   1      37.545  23.406  24.031  1.00  0.00     0.163 HD
BRANCH   4   7
ATOM      7  C   UNL A   1      34.226  22.762  24.404  1.00  0.00     0.114 C 
ATOM      8  O   UNL A   1      31.844  21.316  22.164  1.00  0.00    -0.275 OA
ATOM      9  C   UNL A   1      32.511  21.981  22.932  1.00  0.00     0.221 C 
ATOM     10  C   UNL A   1      33.610  21.479  23.832  1.00  0.00     0.116 C 
ATOM     11  N   UNL A   1      32.401  23.345  23.100  1.00  0.00    -0.349 N 
ATOM     12  C   UNL A   1      33.144  23.853  24.246  1.00  0.00     0.063 C 
ATOM     13  H   UNL A   1      31.872  23.921  22.502  1.00  0.00     0.164 HD
ATOM     14  C   UNL A   1      33.710  25.254  23.972  1.00  0.00     0.091 C 
ATOM     15  C   UNL A   1      32.129  23.835  25.429  1.00  0.00     0.091 C 
ATOM     16  C   UNL A   1      33.924  26.104  25.211  1.00  0.00     0.264 C 
ATOM     17  C   UNL A   1      32.286  24.926  26.488  1.00  0.00     0.264 C 
ATOM     18  N   UNL A   1      32.718  26.223  26.000  1.00  0.00    -0.331 N 
ATOM     19  H   UNL A   1      32.951  26.735  26.850  1.00  0.00     0.348 HD
BRANCH  18  20
ATOM     20  C   UNL A   1      31.718  27.203  25.545  1.00  0.00     0.303 C 
BRANCH  20  21
ATOM     21  C   UNL A   1      31.928  28.622  25.982  1.00  0.00     0.052 A 
ATOM     22  C   UNL A   1      32.815  29.066  26.948  1.00  0.00     0.115 A 
ATOM     23  C   UNL A   1      31.391  29.843  25.435  1.00  0.00     0.101 A 
ATOM     24  N   UNL A   1      32.652  30.410  27.048  1.00  0.00    -0.285 N 
ATOM     25  N   UNL A   1      31.807  30.908  26.144  1.00  0.00    -0.175 NA
ATOM     26  H   UNL A   1      33.111  30.962  27.721  1.00  0.00     0.189 HD
BRANCH  23  27
ATOM     27  C   UNL A   1      30.556  30.070  24.252  1.00  0.00     0.003 A 
ATOM     28  C   UNL A   1      29.611  31.107  24.288  1.00  0.00     0.012 A 
ATOM     29  C   UNL A   1      30.632  29.275  23.104  1.00  0.00     0.012 A 
ATOM     30  C   UNL A   1      28.792  31.370  23.188  1.00  0.00     0.021 A 
ATOM     31  C   UNL A   1      29.819  29.539  21.996  1.00  0.00     0.021 A 
ATOM     32  C   UNL A   1      28.909  30.591  22.040  1.00  0.00     0.041 A 
ATOM     33  Cl  UNL A   1      27.918  30.927  20.677  1.00  0.00    -0.084 Cl
ENDBRANCH  23  27
ENDBRANCH  20  21
ENDBRANCH  18  20
ENDBRANCH   4   7
ENDBRANCH   2   3
ENDBRANCH   1   2
BRANCH   1  34
ATOM     34  C   UNL A   1      39.381  22.843  26.698  1.00  0.00     0.023 C 
BRANCH  34  35
ATOM     35  C   UNL A   1      40.778  23.371  26.982  1.00  0.00     0.116 C 
BRANCH  35  36
ATOM     36  N   UNL A   1      41.262  24.278  25.945  1.00  0.00    -0.352 N 
ATOM     37  C   UNL A   1      41.570  25.611  26.057  1.00  0.00     0.251 C 
ATOM     38  H   UNL A   1      41.382  23.882  25.051  1.00  0.00     0.163 HD
ATOM     39  O   UNL A   1      41.828  26.285  25.067  1.00  0.00    -0.269 OA
BRANCH  37  40
ATOM     40  C   UNL A   1      41.543  26.217  27.400  1.00  0.00     0.039 A 
ATOM     41  C   UNL A   1      42.560  27.098  27.767  1.00  0.00     0.014 A 
ATOM     42  C   UNL A   1      40.443  25.998  28.234  1.00  0.00     0.014 A 
ATOM     43  C   UNL A   1      42.430  27.830  28.946  1.00  0.00     0.010 A 
ATOM     44  C   UNL A   1      40.272  26.798  29.354  1.00  0.00     0.010 A 
ATOM     45  C   UNL A   1      41.261  27.725  29.719  1.00  0.00    -0.014 A 
BRANCH  45  46
ATOM     46  C   UNL A   1      41.041  28.581  30.909  1.00  0.00     0.031 A 
ATOM     47  C   UNL A   1      39.963  29.629  30.885  1.00  0.00     0.074 A 
ATOM     48  C   UNL A   1      41.862  28.469  31.973  1.00  0.00     0.049 A 
ATOM     49  N   UNL A   1      39.674  30.536  31.782  1.00  0.00    -0.248 NA
ATOM     50  C   UNL A   1      39.119  29.689  29.679  1.00  0.00     0.031 C 
ATOM     51  C   UNL A   1      42.979  27.526  32.086  1.00  0.00     0.029 A 
ATOM     52  N   UNL A   1      41.897  29.162  33.156  1.00  0.00    -0.354 N 
ATOM     53  C   UNL A   1      38.632  31.279  31.243  1.00  0.00     0.074 A 
ATOM     54  C   UNL A   1      38.374  30.757  29.920  1.00  0.00     0.031 C 
ATOM     55  C   UNL A   1      43.575  27.689  33.278  1.00  0.00     0.029 A 
ATOM     56  C   UNL A   1      42.916  28.776  33.995  1.00  0.00     0.049 A 
ATOM     57  H   UNL A   1      41.254  29.872  33.383  1.00  0.00     0.167 HD
ATOM     58  C   UNL A   1      37.937  32.292  31.812  1.00  0.00     0.037 A 
ATOM     59  C   UNL A   1      43.290  29.255  35.198  1.00  0.00     0.037 A 
ATOM     60  C   UNL A   1      38.185  32.785  33.142  1.00  0.00     0.049 A 
ATOM     61  C   UNL A   1      42.502  30.385  35.807  1.00  0.00     0.074 A 
ATOM     62  C   UNL A   1      37.491  33.758  33.838  1.00  0.00     0.029 A 
ATOM     63  N   UNL A   1      39.209  32.352  33.971  1.00  0.00    -0.354 N 
ATOM     64  N   UNL A   1      41.465  31.024  35.318  1.00  0.00    -0.248 NA
ATOM     65  C   UNL A   1      42.928  30.857  37.131  1.00  0.00     0.031 C 
ATOM     66  C   UNL A   1      38.131  33.955  35.065  1.00  0.00     0.029 A 
ATOM     67  C   UNL A   1      39.185  33.060  35.160  1.00  0.00     0.049 A 
ATOM     68  H   UNL A   1      39.857  31.645  33.748  1.00  0.00     0.167 HD
ATOM     69  C   UNL A   1      41.102  31.955  36.285  1.00  0.00     0.074 A 
ATOM     70  C   UNL A   1      42.017  31.783  37.394  1.00  0.00     0.031 C 
ATOM     71  C   UNL A   1      40.102  32.872  36.258  1.00  0.00     0.037 A 
BRANCH  58  72
ATOM     72  C   UNL A   1      36.844  32.936  31.005  1.00  0.00     0.058 A 
ATOM     73  C   UNL A   1      37.123  33.860  29.985  1.00  0.00     0.135 A 
ATOM     74  C   UNL A   1      35.502  32.581  31.215  1.00  0.00     0.135 A 
ATOM     75  F   UNL A   1      38.386  34.251  29.752  1.00  0.00    -0.206 F 
ATOM     76  C   UNL A   1      36.110  34.425  29.218  1.00  0.00     0.059 A 
ATOM     77  C   UNL A   1      34.475  33.109  30.438  1.00  0.00     0.059 A 
ATOM     78  F   UNL A   1      35.177  31.706  32.180  1.00  0.00    -0.206 F 
ATOM     79  C   UNL A   1      34.789  34.037  29.449  1.00  0.00     0.060 A 
BRANCH  79  80
ATOM     80  S   UNL A   1      33.491  34.757  28.421  1.00  0.00     0.124 S 
ATOM     81  O   UNL A   1      32.609  35.337  29.429  1.00  0.00    -0.237 OA
ATOM     82  O   UNL A   1      34.234  35.711  27.604  1.00  0.00    -0.237 OA
ATOM     83  O   UNL A   1      32.950  33.608  27.702  1.00  0.00    -0.744 OA
ENDBRANCH  79  80
ENDBRANCH  58  72
BRANCH  59  84
ATOM     84  C   UNL A   1      44.462  28.673  35.906  1.00  0.00     0.058 A 
ATOM     85  C   UNL A   1      45.756  29.177  35.705  1.00  0.00     0.135 A 
ATOM     86  C   UNL A   1      44.314  27.597  36.797  1.00  0.00     0.135 A 
ATOM     87  F   UNL A   1      45.954  30.200  34.860  1.00  0.00    -0.206 F 
ATOM     88  C   UNL A   1      46.863  28.620  36.339  1.00  0.00     0.059 A 
ATOM     89  C   UNL A   1      45.400  27.044  37.467  1.00  0.00     0.059 A 
ATOM     90  F   UNL A   1      43.096  27.089  37.040  1.00  0.00    -0.206 F 
ATOM     91  C   UNL A   1      46.674  27.554  37.219  1.00  0.00     0.060 A 
BRANCH  91  92
ATOM     92  S   UNL A   1      48.114  26.858  38.058  1.00  0.00     0.124 S 
ATOM     93  O   UNL A   1      47.527  25.717  38.751  1.00  0.00    -0.237 OA
ATOM     94  O   UNL A   1      48.996  26.541  36.940  1.00  0.00    -0.237 OA
ATOM     95  O   UNL A   1      48.566  27.952  38.913  1.00  0.00    -0.744 OA
ENDBRANCH  91  92
ENDBRANCH  59  84
BRANCH  71  96
ATOM     96  C   UNL A   1      39.922  33.740  37.474  1.00  0.00     0.058 A 
ATOM     97  C   UNL A   1      40.617  34.950  37.627  1.00  0.00     0.135 A 
ATOM     98  C   UNL A   1      39.001  33.382  38.470  1.00  0.00     0.135 A 
ATOM     99  F   UNL A   1      41.514  35.336  36.706  1.00  0.00    -0.206 F 
ATOM    100  C   UNL A   1      40.422  35.763  38.739  1.00  0.00     0.059 A 
ATOM    101  C   UNL A   1      38.765  34.196  39.574  1.00  0.00     0.059 A 
ATOM    102  F   UNL A   1      38.300  32.241  38.368  1.00  0.00    -0.206 F 
ATOM    103  C   UNL A   1      39.491  35.378  39.705  1.00  0.00     0.060 A 
BRANCH 103 104
ATOM    104  S   UNL A   1      39.223  36.460  41.126  1.00  0.00     0.124 S 
ATOM    105  O   UNL A   1      38.674  37.651  40.489  1.00  0.00    -0.237 OA
ATOM    106  O   UNL A   1      38.288  35.685  41.935  1.00  0.00    -0.237 OA
ATOM    107  O   UNL A   1      40.559  36.611  41.695  1.00  0.00    -0.744 OA
ENDBRANCH 103 104
ENDBRANCH  71  96
ENDBRANCH  45  46
ENDBRANCH  37  40
ENDBRANCH  35  36
ENDBRANCH  34  35
ENDBRANCH   1  34
TORSDOF 17
ENDMDL
MODEL 2
REMARK VINA RESULT:     -12.7      1.423      8.115
REMARK SMILES O=C1C[C@@H](C(=O)NCCCCNC(=O)c2ccc(-c3c4nc(c(-c5c(F)cc(S(=O)(=O)[O-])cc5F)c5ccc([nH]5)c(-c5c(F)cc(S(=O)(=O)[O-])cc5F)c5nc(c(-c6c(F)cc(S(=O)(=O)[O-])cc6F)c6ccc3[nH]6)C=C5)C=C4)cc2)C2(CC[NH+](Cc3c[nH]nc3-c3ccc(Cl)cc3)CC2)N1
REMARK SMILES IDX 9 1 8 2 7 3 5 4 6 5 4 7 1 8 2 9 3 10 100 11 81 12 82 14
REMARK SMILES IDX 99 15 83 16 98 17 84 18 85 20 86 21 87 22 90 23 88 24 89 25
REMARK SMILES IDX 91 27 92 28 97 29 93 30 96 31 94 32 95 33 10 34 11 35 12 36
REMARK SMILES IDX 13 37 14 39 15 40 16 41 80 42 17 43 79 44 18 45 19 46 20 47
REMARK SMILES IDX 73 48 21 49 78 50 72 51 74 52 22 53 77 54 71 55 70 56 23 58
REMARK SMILES IDX 57 59 36 60 56 61 37 62 40 63 55 64 75 65 38 66 39 67 54 69
REMARK SMILES IDX 76 70 41 71 24 72 25 73 34 74 26 75 27 76 33 77 35 78 28 79
REMARK SMILES IDX 29 80 30 81 31 82 32 83 58 84 59 85 68 86 60 87 61 88 67 89
REMARK SMILES IDX 69 90 62 91 63 92 64 93 65 94 66 95 42 96 43 97 52 98 44 99
REMARK SMILES IDX 45 100 51 101 53 102 46 103 47 104 48 105 49 106 50 107
REMARK H PARENT 7 6 100 13 84 19 88 26 12 38 74 57 40 68
REMARK Flexibility Score: inf
ROOT
ATOM      1  C   UNL A   1      38.202  24.077  26.251  1.00  0.00     0.023 C 
ENDROOT
BRANCH   1   2
ATOM      2  C   UNL A   1      36.767  23.640  25.943  1.00  0.00     0.116 C 
BRANCH   2   3
ATOM      3  N   UNL A   1      36.494  23.429  24.531  1.00  0.00    -0.356 N 
ATOM      4  C   UNL A   1      35.374  23.098  23.837  1.00  0.00     0.226 C 
ATOM      5  O   UNL A   1      35.488  23.029  22.607  1.00  0.00    -0.275 OA
ATOM      6  H   UNL A   1      37.285  23.552  23.958  1.00  0.00     0.163 HD
BRANCH   4   7
ATOM      7  C   UNL A   1      34.014  22.770  24.463  1.00  0.00     0.114 C 
ATOM      8  O   UNL A   1      32.289  19.922  23.161  1.00  0.00    -0.275 OA
ATOM      9  C   UNL A   1      32.700  21.006  23.525  1.00  0.00     0.221 C 
ATOM     10  C   UNL A   1      33.757  21.261  24.567  1.00  0.00     0.116 C 
ATOM     11  N   UNL A   1      32.286  22.220  23.020  1.00  0.00    -0.349 N 
ATOM     12  C   UNL A   1      32.756  23.363  23.792  1.00  0.00     0.063 C 
ATOM     13  H   UNL A   1      31.728  22.307  22.214  1.00  0.00     0.164 HD
ATOM     14  C   UNL A   1      33.045  24.571  22.888  1.00  0.00     0.091 C 
ATOM     15  C   UNL A   1      31.627  23.645  24.829  1.00  0.00     0.091 C 
ATOM     16  C   UNL A   1      32.918  25.919  23.573  1.00  0.00     0.264 C 
ATOM     17  C   UNL A   1      31.417  25.103  25.240  1.00  0.00     0.264 C 
ATOM     18  N   UNL A   1      31.624  26.090  24.196  1.00  0.00    -0.331 N 
ATOM     19  H   UNL A   1      31.636  26.975  24.702  1.00  0.00     0.348 HD
BRANCH  18  20
ATOM     20  C   UNL A   1      30.507  26.472  23.318  1.00  0.00     0.303 C 
BRANCH  20  21
ATOM     21  C   UNL A   1      30.055  27.900  23.397  1.00  0.00     0.052 A 
ATOM     22  C   UNL A   1      28.870  28.419  22.906  1.00  0.00     0.115 A 
ATOM     23  C   UNL A   1      30.645  29.015  24.096  1.00  0.00     0.101 A 
ATOM     24  N   UNL A   1      28.887  29.753  23.161  1.00  0.00    -0.285 N 
ATOM     25  N   UNL A   1      29.938  30.140  23.883  1.00  0.00    -0.175 NA
ATOM     26  H   UNL A   1      28.191  30.372  22.843  1.00  0.00     0.189 HD
BRANCH  23  27
ATOM     27  C   UNL A   1      31.800  29.071  24.996  1.00  0.00     0.003 A 
ATOM     28  C   UNL A   1      31.582  28.925  26.375  1.00  0.00     0.012 A 
ATOM     29  C   UNL A   1      33.104  29.303  24.546  1.00  0.00     0.012 A 
ATOM     30  C   UNL A   1      32.647  28.967  27.278  1.00  0.00     0.021 A 
ATOM     31  C   UNL A   1      34.175  29.338  25.446  1.00  0.00     0.021 A 
ATOM     32  C   UNL A   1      33.943  29.161  26.808  1.00  0.00     0.041 A 
ATOM     33  Cl  UNL A   1      35.257  29.191  27.915  1.00  0.00    -0.084 Cl
ENDBRANCH  23  27
ENDBRANCH  20  21
ENDBRANCH  18  20
ENDBRANCH   4   7
ENDBRANCH   2   3
ENDBRANCH   1   2
BRANCH   1  34
ATOM     34  C   UNL A   1      39.168  22.929  26.521  1.00  0.00     0.023 C 
BRANCH  34  35
ATOM     35  C   UNL A   1      40.550  23.380  26.965  1.00  0.00     0.116 C 
BRANCH  35  36
ATOM     36  N   UNL A   1      41.283  24.078  25.913  1.00  0.00    -0.352 N 
ATOM     37  C   UNL A   1      41.832  25.336  25.950  1.00  0.00     0.251 C 
ATOM     38  H   UNL A   1      41.398  23.583  25.069  1.00  0.00     0.163 HD
ATOM     39  O   UNL A   1      42.297  25.852  24.940  1.00  0.00    -0.269 OA
BRANCH  37  40
ATOM     40  C   UNL A   1      41.813  26.062  27.231  1.00  0.00     0.039 A 
ATOM     41  C   UNL A   1      42.760  27.060  27.461  1.00  0.00     0.014 A 
ATOM     42  C   UNL A   1      40.776  25.830  28.140  1.00  0.00     0.014 A 
ATOM     43  C   UNL A   1      42.618  27.887  28.574  1.00  0.00     0.010 A 
ATOM     44  C   UNL A   1      40.585  26.715  29.191  1.00  0.00     0.010 A 
ATOM     45  C   UNL A   1      41.501  27.754  29.416  1.00  0.00    -0.014 A 
BRANCH  45  46
ATOM     46  C   UNL A   1      41.259  28.698  30.534  1.00  0.00     0.031 A 
ATOM     47  C   UNL A   1      42.057  28.573  31.801  1.00  0.00     0.074 A 
ATOM     48  C   UNL A   1      40.268  29.608  30.435  1.00  0.00     0.049 A 
ATOM     49  N   UNL A   1      41.934  29.236  32.922  1.00  0.00    -0.248 NA
ATOM     50  C   UNL A   1      43.112  27.546  31.826  1.00  0.00     0.031 C 
ATOM     51  C   UNL A   1      39.390  29.784  29.275  1.00  0.00     0.029 A 
ATOM     52  N   UNL A   1      39.821  30.547  31.330  1.00  0.00    -0.354 N 
ATOM     53  C   UNL A   1      42.879  28.696  33.784  1.00  0.00     0.074 A 
ATOM     54  C   UNL A   1      43.531  27.615  33.080  1.00  0.00     0.031 C 
ATOM     55  C   UNL A   1      38.525  30.780  29.523  1.00  0.00     0.029 A 
ATOM     56  C   UNL A   1      38.753  31.284  30.873  1.00  0.00     0.049 A 
ATOM     57  H   UNL A   1      40.226  30.681  32.218  1.00  0.00     0.167 HD
ATOM     58  C   UNL A   1      43.191  29.084  35.043  1.00  0.00     0.037 A 
ATOM     59  C   UNL A   1      38.027  32.243  31.480  1.00  0.00     0.037 A 
ATOM     60  C   UNL A   1      42.554  30.181  35.724  1.00  0.00     0.049 A 
ATOM     61  C   UNL A   1      38.392  32.653  32.883  1.00  0.00     0.074 A 
ATOM     62  C   UNL A   1      42.845  30.700  36.972  1.00  0.00     0.029 A 
ATOM     63  N   UNL A   1      41.494  30.919  35.220  1.00  0.00    -0.354 N 
ATOM     64  N   UNL A   1      39.345  32.187  33.656  1.00  0.00    -0.248 NA
ATOM     65  C   UNL A   1      37.591  33.721  33.495  1.00  0.00     0.031 C 
ATOM     66  C   UNL A   1      41.924  31.714  37.248  1.00  0.00     0.029 A 
ATOM     67  C   UNL A   1      41.098  31.870  36.146  1.00  0.00     0.049 A 
ATOM     68  H   UNL A   1      41.083  30.788  34.334  1.00  0.00     0.167 HD
ATOM     69  C   UNL A   1      39.272  32.922  34.835  1.00  0.00     0.074 A 
ATOM     70  C   UNL A   1      38.196  33.876  34.665  1.00  0.00     0.031 C 
ATOM     71  C   UNL A   1      40.025  32.816  35.957  1.00  0.00     0.037 A 
BRANCH  58  72
ATOM     72  C   UNL A   1      44.266  28.322  35.768  1.00  0.00     0.058 A 
ATOM     73  C   UNL A   1      45.620  28.681  35.673  1.00  0.00     0.135 A 
ATOM     74  C   UNL A   1      43.931  27.253  36.613  1.00  0.00     0.135 A 
ATOM     75  F   UNL A   1      46.001  29.683  34.864  1.00  0.00    -0.206 F 
ATOM     76  C   UNL A   1      46.606  27.994  36.374  1.00  0.00     0.059 A 
ATOM     77  C   UNL A   1      44.897  26.571  37.349  1.00  0.00     0.059 A 
ATOM     78  F   UNL A   1      42.653  26.863  36.738  1.00  0.00    -0.206 F 
ATOM     79  C   UNL A   1      46.232  26.944  37.215  1.00  0.00     0.060 A 
BRANCH  79  80
ATOM     80  S   UNL A   1      47.522  26.086  38.141  1.00  0.00     0.124 S 
ATOM     81  O   UNL A   1      47.652  24.847  37.380  1.00  0.00    -0.237 OA
ATOM     82  O   UNL A   1      48.645  27.012  38.041  1.00  0.00    -0.237 OA
ATOM     83  O   UNL A   1      46.946  25.944  39.475  1.00  0.00    -0.744 OA
ENDBRANCH  79  80
ENDBRANCH  58  72
BRANCH  59  84
ATOM     84  C   UNL A   1      36.885  32.882  30.771  1.00  0.00     0.058 A 
ATOM     85  C   UNL A   1      37.083  33.968  29.906  1.00  0.00     0.135 A 
ATOM     86  C   UNL A   1      35.571  32.421  30.947  1.00  0.00     0.135 A 
ATOM     87  F   UNL A   1      38.319  34.451  29.707  1.00  0.00    -0.206 F 
ATOM     88  C   UNL A   1      36.019  34.592  29.261  1.00  0.00     0.059 A 
ATOM     89  C   UNL A   1      34.494  33.006  30.289  1.00  0.00     0.059 A 
ATOM     90  F   UNL A   1      35.327  31.373  31.749  1.00  0.00    -0.206 F 
ATOM     91  C   UNL A   1      34.727  34.102  29.459  1.00  0.00     0.060 A 
BRANCH  91  92
ATOM     92  S   UNL A   1      33.357  34.900  28.595  1.00  0.00     0.124 S 
ATOM     93  O   UNL A   1      32.580  35.436  29.707  1.00  0.00    -0.237 OA
ATOM     94  O   UNL A   1      34.048  35.883  27.767  1.00  0.00    -0.237 OA
ATOM     95  O   UNL A   1      32.735  33.800  27.863  1.00  0.00    -0.744 OA
ENDBRANCH  91  92
ENDBRANCH  59  84
BRANCH  71  96
ATOM     96  C   UNL A   1      39.737  33.775  37.081  1.00  0.00     0.058 A 
ATOM     97  C   UNL A   1      38.853  33.450  38.121  1.00  0.00     0.135 A 
ATOM     98  C   UNL A   1      40.398  35.012  37.144  1.00  0.00     0.135 A 
ATOM     99  F   UNL A   1      38.191  32.282  38.106  1.00  0.00    -0.206 F 
ATOM    100  C   UNL A   1      38.615  34.329  39.173  1.00  0.00     0.059 A 
ATOM    101  C   UNL A   1      40.200  35.893  38.203  1.00  0.00     0.059 A 
ATOM    102  F   UNL A   1      41.263  35.369  36.182  1.00  0.00    -0.206 F 
ATOM    103  C   UNL A   1      39.297  35.547  39.206  1.00  0.00     0.060 A 
BRANCH 103 104
ATOM    104  S   UNL A   1      39.004  36.662  40.595  1.00  0.00     0.124 S 
ATOM    105  O   UNL A   1      38.475  37.841  39.919  1.00  0.00    -0.237 OA
ATOM    106  O   UNL A   1      38.047  35.911  41.401  1.00  0.00    -0.237 OA
ATOM    107  O   UNL A   1      40.328  36.820  41.190  1.00  0.00    -0.744 OA
ENDBRANCH 103 104
ENDBRANCH  71  96
ENDBRANCH  45  46
ENDBRANCH  37  40
ENDBRANCH  35  36
ENDBRANCH  34  35
ENDBRANCH   1  34
TORSDOF 17
ENDMDL
MODEL 3
REMARK VINA RESULT:     -12.5      6.490     11.623
REMARK SMILES O=C1C[C@@H](C(=O)NCCCCNC(=O)c2ccc(-c3c4nc(c(-c5c(F)cc(S(=O)(=O)[O-])cc5F)c5ccc([nH]5)c(-c5c(F)cc(S(=O)(=O)[O-])cc5F)c5nc(c(-c6c(F)cc(S(=O)(=O)[O-])cc6F)c6ccc3[nH]6)C=C5)C=C4)cc2)C2(CC[NH+](Cc3c[nH]nc3-c3ccc(Cl)cc3)CC2)N1
REMARK SMILES IDX 9 1 8 2 7 3 5 4 6 5 4 7 1 8 2 9 3 10 100 11 81 12 82 14
REMARK SMILES IDX 99 15 83 16 98 17 84 18 85 20 86 21 87 22 90 23 88 24 89 25
REMARK SMILES IDX 91 27 92 28 97 29 93 30 96 31 94 32 95 33 10 34 11 35 12 36
REMARK SMILES IDX 13 37 14 39 15 40 16 41 80 42 17 43 79 44 18 45 19 46 20 47
REMARK SMILES IDX 73 48 21 49 78 50 72 51 74 52 22 53 77 54 71 55 70 56 23 58
REMARK SMILES IDX 57 59 36 60 56 61 37 62 40 63 55 64 75 65 38 66 39 67 54 69
REMARK SMILES IDX 76 70 41 71 24 72 25 73 34 74 26 75 27 76 33 77 35 78 28 79
REMARK SMILES IDX 29 80 30 81 31 82 32 83 58 84 59 85 68 86 60 87 61 88 67 89
REMARK SMILES IDX 69 90 62 91 63 92 64 93 65 94 66 95 42 96 43 97 52 98 44 99
REMARK SMILES IDX 45 100 51 101 53 102 46 103 47 104 48 105 49 106 50 107
REMARK H PARENT 7 6 100 13 84 19 88 26 12 38 74 57 40 68
REMARK Flexibility Score: inf
ROOT
ATOM      1  C   UNL A   1      34.338  29.335  25.938  1.00  0.00     0.023 C 
ENDROOT
BRANCH   1   2
ATOM      2  C   UNL A   1      32.899  29.796  25.689  1.00  0.00     0.116 C 
BRANCH   2   3
ATOM      3  N   UNL A   1      32.467  29.691  24.305  1.00  0.00    -0.356 N 
ATOM      4  C   UNL A   1      31.719  28.781  23.628  1.00  0.00     0.226 C 
ATOM      5  O   UNL A   1      31.512  29.017  22.432  1.00  0.00    -0.275 OA
ATOM      6  H   UNL A   1      32.783  30.432  23.740  1.00  0.00     0.163 HD
BRANCH   4   7
ATOM      7  C   UNL A   1      31.156  27.485  24.223  1.00  0.00     0.114 C 
ATOM      8  O   UNL A   1      31.776  26.907  27.696  1.00  0.00    -0.275 OA
ATOM      9  C   UNL A   1      31.688  26.919  26.484  1.00  0.00     0.221 C 
ATOM     10  C   UNL A   1      30.664  27.659  25.665  1.00  0.00     0.116 C 
ATOM     11  N   UNL A   1      32.546  26.268  25.622  1.00  0.00    -0.349 N 
ATOM     12  C   UNL A   1      32.079  26.247  24.242  1.00  0.00     0.063 C 
ATOM     13  H   UNL A   1      33.393  25.858  25.912  1.00  0.00     0.164 HD
ATOM     14  C   UNL A   1      33.250  26.329  23.252  1.00  0.00     0.091 C 
ATOM     15  C   UNL A   1      31.270  24.921  24.107  1.00  0.00     0.091 C 
ATOM     16  C   UNL A   1      32.979  25.702  21.897  1.00  0.00     0.264 C 
ATOM     17  C   UNL A   1      31.299  24.232  22.742  1.00  0.00     0.264 C 
ATOM     18  N   UNL A   1      32.551  24.326  22.014  1.00  0.00    -0.331 N 
ATOM     19  H   UNL A   1      32.311  23.995  21.080  1.00  0.00     0.348 HD
BRANCH  18  20
ATOM     20  C   UNL A   1      33.600  23.317  22.229  1.00  0.00     0.303 C 
BRANCH  20  21
ATOM     21  C   UNL A   1      33.273  22.208  23.184  1.00  0.00     0.052 A 
ATOM     22  C   UNL A   1      32.242  21.292  23.063  1.00  0.00     0.115 A 
ATOM     23  C   UNL A   1      33.999  21.744  24.340  1.00  0.00     0.101 A 
ATOM     24  N   UNL A   1      32.291  20.495  24.161  1.00  0.00    -0.285 N 
ATOM     25  N   UNL A   1      33.343  20.737  24.944  1.00  0.00    -0.175 NA
ATOM     26  H   UNL A   1      31.616  19.806  24.359  1.00  0.00     0.189 HD
BRANCH  23  27
ATOM     27  C   UNL A   1      35.300  22.155  24.875  1.00  0.00     0.003 A 
ATOM     28  C   UNL A   1      36.349  21.224  24.874  1.00  0.00     0.012 A 
ATOM     29  C   UNL A   1      35.531  23.422  25.423  1.00  0.00     0.012 A 
ATOM     30  C   UNL A   1      37.611  21.564  25.369  1.00  0.00     0.021 A 
ATOM     31  C   UNL A   1      36.795  23.769  25.913  1.00  0.00     0.021 A 
ATOM     32  C   UNL A   1      37.832  22.841  25.876  1.00  0.00     0.041 A 
ATOM     33  Cl  UNL A   1      39.389  23.268  26.464  1.00  0.00    -0.084 Cl
ENDBRANCH  23  27
ENDBRANCH  20  21
ENDBRANCH  18  20
ENDBRANCH   4   7
ENDBRANCH   2   3
ENDBRANCH   1   2
BRANCH   1  34
ATOM     34  C   UNL A   1      34.631  28.931  27.378  1.00  0.00     0.023 C 
BRANCH  34  35
ATOM     35  C   UNL A   1      35.809  29.666  27.996  1.00  0.00     0.116 C 
BRANCH  35  36
ATOM     36  N   UNL A   1      35.535  30.141  29.349  1.00  0.00    -0.352 N 
ATOM     37  C   UNL A   1      36.427  30.367  30.368  1.00  0.00     0.251 C 
ATOM     38  H   UNL A   1      34.589  30.319  29.557  1.00  0.00     0.163 HD
ATOM     39  O   UNL A   1      36.038  30.628  31.500  1.00  0.00    -0.269 OA
BRANCH  37  40
ATOM     40  C   UNL A   1      37.864  30.250  30.068  1.00  0.00     0.039 A 
ATOM     41  C   UNL A   1      38.739  29.859  31.080  1.00  0.00     0.014 A 
ATOM     42  C   UNL A   1      38.310  30.412  28.753  1.00  0.00     0.014 A 
ATOM     43  C   UNL A   1      40.058  29.545  30.754  1.00  0.00     0.010 A 
ATOM     44  C   UNL A   1      39.593  30.006  28.417  1.00  0.00     0.010 A 
ATOM     45  C   UNL A   1      40.479  29.565  29.413  1.00  0.00    -0.014 A 
BRANCH  45  46
ATOM     46  C   UNL A   1      41.837  29.118  29.022  1.00  0.00     0.031 A 
ATOM     47  C   UNL A   1      42.963  30.113  28.966  1.00  0.00     0.074 A 
ATOM     48  C   UNL A   1      42.034  27.840  28.640  1.00  0.00     0.049 A 
ATOM     49  N   UNL A   1      44.194  29.943  28.561  1.00  0.00    -0.248 NA
ATOM     50  C   UNL A   1      42.656  31.490  29.390  1.00  0.00     0.031 C 
ATOM     51  C   UNL A   1      41.004  26.798  28.599  1.00  0.00     0.029 A 
ATOM     52  N   UNL A   1      43.165  27.200  28.199  1.00  0.00    -0.354 N 
ATOM     53  C   UNL A   1      44.800  31.188  28.665  1.00  0.00     0.074 A 
ATOM     54  C   UNL A   1      43.790  32.118  29.118  1.00  0.00     0.031 C 
ATOM     55  C   UNL A   1      41.554  25.649  28.175  1.00  0.00     0.029 A 
ATOM     56  C   UNL A   1      42.962  25.880  27.870  1.00  0.00     0.049 A 
ATOM     57  H   UNL A   1      44.040  27.645  28.122  1.00  0.00     0.167 HD
ATOM     58  C   UNL A   1      46.090  31.521  28.427  1.00  0.00     0.037 A 
ATOM     59  C   UNL A   1      43.809  24.963  27.362  1.00  0.00     0.037 A 
ATOM     60  C   UNL A   1      47.094  30.580  28.002  1.00  0.00     0.049 A 
ATOM     61  C   UNL A   1      45.239  25.360  27.102  1.00  0.00     0.074 A 
ATOM     62  C   UNL A   1      48.445  30.800  27.803  1.00  0.00     0.029 A 
ATOM     63  N   UNL A   1      46.856  29.247  27.704  1.00  0.00    -0.354 N 
ATOM     64  N   UNL A   1      45.817  26.524  27.284  1.00  0.00    -0.248 NA
ATOM     65  C   UNL A   1      46.133  24.322  26.573  1.00  0.00     0.031 C 
ATOM     66  C   UNL A   1      49.013  29.615  27.328  1.00  0.00     0.029 A 
ATOM     67  C   UNL A   1      48.030  28.639  27.291  1.00  0.00     0.049 A 
ATOM     68  H   UNL A   1      45.983  28.798  27.776  1.00  0.00     0.167 HD
ATOM     69  C   UNL A   1      47.147  26.350  26.916  1.00  0.00     0.074 A 
ATOM     70  C   UNL A   1      47.292  24.965  26.519  1.00  0.00     0.031 C 
ATOM     71  C   UNL A   1      48.157  27.255  26.904  1.00  0.00     0.037 A 
BRANCH  58  72
ATOM     72  C   UNL A   1      46.493  32.957  28.617  1.00  0.00     0.058 A 
ATOM     73  C   UNL A   1      46.427  33.890  27.570  1.00  0.00     0.135 A 
ATOM     74  C   UNL A   1      46.898  33.419  29.880  1.00  0.00     0.135 A 
ATOM     75  F   UNL A   1      46.066  33.500  26.337  1.00  0.00    -0.206 F 
ATOM     76  C   UNL A   1      46.768  35.225  27.762  1.00  0.00     0.059 A 
ATOM     77  C   UNL A   1      47.212  34.757  30.103  1.00  0.00     0.059 A 
ATOM     78  F   UNL A   1      46.985  32.570  30.916  1.00  0.00    -0.206 F 
ATOM     79  C   UNL A   1      47.153  35.650  29.035  1.00  0.00     0.060 A 
BRANCH  79  80
ATOM     80  S   UNL A   1      47.559  37.392  29.272  1.00  0.00     0.124 S 
ATOM     81  O   UNL A   1      46.239  37.970  29.505  1.00  0.00    -0.237 OA
ATOM     82  O   UNL A   1      48.446  37.350  30.430  1.00  0.00    -0.237 OA
ATOM     83  O   UNL A   1      48.194  37.768  28.013  1.00  0.00    -0.744 OA
ENDBRANCH  79  80
ENDBRANCH  58  72
BRANCH  59  84
ATOM     84  C   UNL A   1      43.333  23.585  27.064  1.00  0.00     0.058 A 
ATOM     85  C   UNL A   1      43.134  22.648  28.089  1.00  0.00     0.135 A 
ATOM     86  C   UNL A   1      43.071  23.175  25.748  1.00  0.00     0.135 A 
ATOM     87  F   UNL A   1      43.376  22.987  29.365  1.00  0.00    -0.206 F 
ATOM     88  C   UNL A   1      42.719  21.347  27.820  1.00  0.00     0.059 A 
ATOM     89  C   UNL A   1      42.624  21.890  25.455  1.00  0.00     0.059 A 
ATOM     90  F   UNL A   1      43.227  24.036  24.731  1.00  0.00    -0.206 F 
ATOM     91  C   UNL A   1      42.465  20.978  26.498  1.00  0.00     0.060 A 
BRANCH  91  92
ATOM     92  S   UNL A   1      41.899  19.297  26.161  1.00  0.00     0.124 S 
ATOM     93  O   UNL A   1      42.685  18.952  24.983  1.00  0.00    -0.237 OA
ATOM     94  O   UNL A   1      42.256  18.602  27.394  1.00  0.00    -0.237 OA
ATOM     95  O   UNL A   1      40.465  19.465  25.937  1.00  0.00    -0.744 OA
ENDBRANCH  91  92
ENDBRANCH  59  84
BRANCH  71  96
ATOM     96  C   UNL A   1      49.518  26.772  26.480  1.00  0.00     0.058 A 
ATOM     97  C   UNL A   1      49.950  26.859  25.148  1.00  0.00     0.135 A 
ATOM     98  C   UNL A   1      50.419  26.268  27.431  1.00  0.00     0.135 A 
ATOM     99  F   UNL A   1      49.126  27.328  24.198  1.00  0.00    -0.206 F 
ATOM    100  C   UNL A   1      51.221  26.439  24.769  1.00  0.00     0.059 A 
ATOM    101  C   UNL A   1      51.707  25.872  27.080  1.00  0.00     0.059 A 
ATOM    102  F   UNL A   1      50.062  26.173  28.721  1.00  0.00    -0.206 F 
ATOM    103  C   UNL A   1      52.093  25.951  25.743  1.00  0.00     0.060 A 
BRANCH 103 104
ATOM    104  S   UNL A   1      53.751  25.442  25.242  1.00  0.00     0.124 S 
ATOM    105  O   UNL A   1      54.466  25.476  26.513  1.00  0.00    -0.237 OA
ATOM    106  O   UNL A   1      53.514  24.115  24.684  1.00  0.00    -0.237 OA
ATOM    107  O   UNL A   1      54.142  26.462  24.274  1.00  0.00    -0.744 OA
ENDBRANCH 103 104
ENDBRANCH  71  96
ENDBRANCH  45  46
ENDBRANCH  37  40
ENDBRANCH  35  36
ENDBRANCH  34  35
ENDBRANCH   1  34
TORSDOF 17
ENDMDL
