MODEL 1
REMARK VINA RESULT:     -13.4      0.000      0.000
REMARK SMILES C[C@H]1CCCCN1c1nc2nc(CC(=O)NCCCCNC(=O)c3ccc(-c4c5nc(c(-c6c(F)cc(S(=O)(=O)[O-])cc6F)c6ccc([nH]6)c(-c6c(F)cc(S(=O)(=O)[O-])cc6F)c6nc(c(-c7c(F)cc(S(=O)(=O)[O-])cc7F)c7ccc4[nH]7)C=C6)C=C5)cc3)cc(O)n2n1
REMARK SMILES IDX 19 1 18 2 17 3 16 4 14 5 15 6 13 8 12 9 8 10 9 11 94 12
REMARK SMILES IDX 10 13 93 14 11 15 91 16 90 17 7 18 1 19 2 20 3 21 4 22 6 23
REMARK SMILES IDX 5 24 92 25 20 27 21 28 22 29 23 31 24 32 25 33 89 34 26 35
REMARK SMILES IDX 88 36 27 37 28 38 29 39 82 40 30 41 87 42 81 43 83 44 31 45
REMARK SMILES IDX 86 46 80 47 79 48 32 50 66 51 45 52 65 53 46 54 49 55 64 56
REMARK SMILES IDX 84 57 47 58 48 59 63 61 85 62 50 63 33 64 34 65 43 66 35 67
REMARK SMILES IDX 36 68 42 69 44 70 37 71 38 72 39 73 40 74 41 75 67 76 68 77
REMARK SMILES IDX 77 78 69 79 70 80 76 81 78 82 71 83 72 84 73 85 74 86 75 87
REMARK SMILES IDX 51 88 52 89 61 90 53 91 54 92 60 93 62 94 55 95 56 96 57 97
REMARK SMILES IDX 58 98 59 99
REMARK H PARENT 16 7 92 26 21 30 83 49 49 60
REMARK Flexibility Score: inf
ROOT
ATOM      1  C   UNL A   1      36.254  22.946  25.261  1.00  0.00     0.023 C 
ENDROOT
BRANCH   1   2
ATOM      2  C   UNL A   1      35.981  21.543  25.821  1.00  0.00     0.023 C 
BRANCH   2   3
ATOM      3  C   UNL A   1      35.502  20.502  24.802  1.00  0.00     0.116 C 
BRANCH   3   4
ATOM      4  N   UNL A   1      34.426  19.678  25.316  1.00  0.00    -0.356 N 
ATOM      5  C   UNL A   1      33.077  19.776  25.128  1.00  0.00     0.226 C 
ATOM      6  O   UNL A   1      32.347  18.944  25.670  1.00  0.00    -0.275 OA
ATOM      7  H   UNL A   1      34.712  18.932  25.890  1.00  0.00     0.163 HD
BRANCH   5   8
ATOM      8  C   UNL A   1      32.512  20.819  24.195  1.00  0.00     0.156 C 
BRANCH   8   9
ATOM      9  C   UNL A   1      32.228  22.154  24.843  1.00  0.00     0.059 A 
ATOM     10  C   UNL A   1      32.365  26.398  25.647  1.00  0.00     0.247 A 
ATOM     11  N   UNL A   1      33.020  25.598  24.759  1.00  0.00    -0.173 NA
ATOM     12  N   UNL A   1      31.447  25.780  26.385  1.00  0.00    -0.123 NA
ATOM     13  C   UNL A   1      32.550  24.398  25.008  1.00  0.00     0.257 A 
ATOM     14  N   UNL A   1      31.559  24.497  25.988  1.00  0.00    -0.161 N 
ATOM     15  N   UNL A   1      32.882  23.202  24.437  1.00  0.00    -0.215 NA
ATOM     16  C   UNL A   1      30.856  23.364  26.423  1.00  0.00     0.217 A 
ATOM     17  C   UNL A   1      31.176  22.165  25.916  1.00  0.00     0.092 A 
BRANCH  10  18
ATOM     18  N   UNL A   1      32.709  27.699  25.717  1.00  0.00    -0.337 N 
ATOM     19  C   UNL A   1      30.790  28.368  24.197  1.00  0.00     0.031 C 
ATOM     20  C   UNL A   1      32.071  28.765  24.936  1.00  0.00     0.082 C 
ATOM     21  C   UNL A   1      31.729  29.912  25.910  1.00  0.00     0.025 C 
ATOM     22  C   UNL A   1      32.960  30.383  26.682  1.00  0.00     0.004 C 
ATOM     23  C   UNL A   1      33.921  28.065  26.443  1.00  0.00     0.120 C 
ATOM     24  C   UNL A   1      33.637  29.219  27.398  1.00  0.00     0.022 C 
ENDBRANCH  10  18
BRANCH  16  25
ATOM     25  O   UNL A   1      29.847  23.515  27.362  1.00  0.00    -0.493 OA
ATOM     26  H   UNL A   1      29.708  22.852  28.010  1.00  0.00     0.295 HD
ENDBRANCH  16  25
ENDBRANCH   8   9
ENDBRANCH   5   8
ENDBRANCH   3   4
ENDBRANCH   2   3
ENDBRANCH   1   2
BRANCH   1  27
ATOM     27  C   UNL A   1      37.707  23.384  25.358  1.00  0.00     0.116 C 
BRANCH  27  28
ATOM     28  N   UNL A   1      38.579  22.339  25.890  1.00  0.00    -0.352 N 
ATOM     29  C   UNL A   1      39.782  22.507  26.546  1.00  0.00     0.251 C 
ATOM     30  H   UNL A   1      38.274  21.411  25.768  1.00  0.00     0.163 HD
ATOM     31  O   UNL A   1      40.608  21.593  26.566  1.00  0.00    -0.269 OA
BRANCH  29  32
ATOM     32  C   UNL A   1      40.051  23.777  27.244  1.00  0.00     0.039 A 
ATOM     33  C   UNL A   1      41.286  24.045  27.841  1.00  0.00     0.014 A 
ATOM     34  C   UNL A   1      39.012  24.708  27.323  1.00  0.00     0.014 A 
ATOM     35  C   UNL A   1      41.459  25.264  28.495  1.00  0.00     0.010 A 
ATOM     36  C   UNL A   1      39.239  25.968  27.808  1.00  0.00     0.010 A 
ATOM     37  C   UNL A   1      40.425  26.216  28.474  1.00  0.00    -0.014 A 
BRANCH  37  38
ATOM     38  C   UNL A   1      40.588  27.539  29.051  1.00  0.00     0.031 A 
ATOM     39  C   UNL A   1      41.621  28.343  28.361  1.00  0.00     0.074 A 
ATOM     40  C   UNL A   1      39.776  28.052  30.002  1.00  0.00     0.049 A 
ATOM     41  N   UNL A   1      42.837  28.517  28.754  1.00  0.00    -0.248 NA
ATOM     42  C   UNL A   1      41.369  28.820  26.993  1.00  0.00     0.031 C 
ATOM     43  C   UNL A   1      38.552  27.490  30.584  1.00  0.00     0.029 A 
ATOM     44  N   UNL A   1      39.872  29.255  30.632  1.00  0.00    -0.354 N 
ATOM     45  C   UNL A   1      43.423  29.360  27.821  1.00  0.00     0.074 A 
ATOM     46  C   UNL A   1      42.565  29.321  26.667  1.00  0.00     0.031 C 
ATOM     47  C   UNL A   1      37.916  28.436  31.318  1.00  0.00     0.029 A 
ATOM     48  C   UNL A   1      38.762  29.615  31.397  1.00  0.00     0.049 A 
ATOM     49  H   UNL A   1      40.666  29.830  30.554  1.00  0.00     0.167 HD
ATOM     50  C   UNL A   1      44.419  30.210  28.200  1.00  0.00     0.037 A 
ATOM     51  C   UNL A   1      38.574  30.791  32.058  1.00  0.00     0.037 A 
ATOM     52  C   UNL A   1      44.905  29.861  29.517  1.00  0.00     0.049 A 
ATOM     53  C   UNL A   1      39.931  31.361  32.286  1.00  0.00     0.074 A 
ATOM     54  C   UNL A   1      45.490  28.738  30.070  1.00  0.00     0.029 A 
ATOM     55  N   UNL A   1      44.425  30.598  30.576  1.00  0.00    -0.354 N 
ATOM     56  N   UNL A   1      40.821  30.796  33.061  1.00  0.00    -0.248 NA
ATOM     57  C   UNL A   1      40.468  32.238  31.255  1.00  0.00     0.031 C 
ATOM     58  C   UNL A   1      44.905  28.621  31.366  1.00  0.00     0.029 A 
ATOM     59  C   UNL A   1      44.072  29.723  31.571  1.00  0.00     0.049 A 
ATOM     60  H   UNL A   1      44.349  31.578  30.613  1.00  0.00     0.167 HD
ATOM     61  C   UNL A   1      42.014  30.887  32.357  1.00  0.00     0.074 A 
ATOM     62  C   UNL A   1      41.743  31.835  31.274  1.00  0.00     0.031 C 
ATOM     63  C   UNL A   1      43.014  29.971  32.527  1.00  0.00     0.037 A 
BRANCH  50  64
ATOM     64  C   UNL A   1      44.675  31.576  27.610  1.00  0.00     0.058 A 
ATOM     65  C   UNL A   1      45.822  31.752  26.806  1.00  0.00     0.135 A 
ATOM     66  C   UNL A   1      44.042  32.764  28.033  1.00  0.00     0.135 A 
ATOM     67  F   UNL A   1      46.492  30.692  26.325  1.00  0.00    -0.206 F 
ATOM     68  C   UNL A   1      46.368  33.006  26.547  1.00  0.00     0.059 A 
ATOM     69  C   UNL A   1      44.542  34.028  27.743  1.00  0.00     0.059 A 
ATOM     70  F   UNL A   1      42.964  32.765  28.825  1.00  0.00    -0.206 F 
ATOM     71  C   UNL A   1      45.731  34.139  27.041  1.00  0.00     0.060 A 
BRANCH  71  72
ATOM     72  S   UNL A   1      46.499  35.748  26.804  1.00  0.00     0.124 S 
ATOM     73  O   UNL A   1      47.411  35.475  25.700  1.00  0.00    -0.237 OA
ATOM     74  O   UNL A   1      45.345  36.584  26.491  1.00  0.00    -0.237 OA
ATOM     75  O   UNL A   1      47.127  36.012  28.094  1.00  0.00    -0.744 OA
ENDBRANCH  71  72
ENDBRANCH  50  64
BRANCH  51  76
ATOM     76  C   UNL A   1      37.330  31.615  32.141  1.00  0.00     0.058 A 
ATOM     77  C   UNL A   1      36.815  32.070  33.372  1.00  0.00     0.135 A 
ATOM     78  C   UNL A   1      36.780  32.217  30.992  1.00  0.00     0.135 A 
ATOM     79  F   UNL A   1      37.291  31.576  34.526  1.00  0.00    -0.206 F 
ATOM     80  C   UNL A   1      35.845  33.084  33.458  1.00  0.00     0.059 A 
ATOM     81  C   UNL A   1      35.816  33.226  31.051  1.00  0.00     0.059 A 
ATOM     82  F   UNL A   1      37.231  31.901  29.769  1.00  0.00    -0.206 F 
ATOM     83  C   UNL A   1      35.365  33.671  32.288  1.00  0.00     0.060 A 
BRANCH  83  84
ATOM     84  S   UNL A   1      34.223  35.075  32.386  1.00  0.00     0.124 S 
ATOM     85  O   UNL A   1      34.105  35.471  30.987  1.00  0.00    -0.237 OA
ATOM     86  O   UNL A   1      33.036  34.469  32.979  1.00  0.00    -0.237 OA
ATOM     87  O   UNL A   1      34.928  36.026  33.243  1.00  0.00    -0.744 OA
ENDBRANCH  83  84
ENDBRANCH  51  76
BRANCH  63  88
ATOM     88  C   UNL A   1      42.932  29.006  33.684  1.00  0.00     0.058 A 
ATOM     89  C   UNL A   1      43.305  29.306  35.008  1.00  0.00     0.135 A 
ATOM     90  C   UNL A   1      42.251  27.798  33.473  1.00  0.00     0.135 A 
ATOM     91  F   UNL A   1      43.879  30.478  35.314  1.00  0.00    -0.206 F 
ATOM     92  C   UNL A   1      43.024  28.437  36.066  1.00  0.00     0.059 A 
ATOM     93  C   UNL A   1      41.935  26.932  34.514  1.00  0.00     0.059 A 
ATOM     94  F   UNL A   1      41.817  27.482  32.241  1.00  0.00    -0.206 F 
ATOM     95  C   UNL A   1      42.329  27.254  35.810  1.00  0.00     0.060 A 
BRANCH  95  96
ATOM     96  S   UNL A   1      41.889  26.170  37.186  1.00  0.00     0.124 S 
ATOM     97  O   UNL A   1      41.894  24.854  36.555  1.00  0.00    -0.237 OA
ATOM     98  O   UNL A   1      42.964  26.420  38.142  1.00  0.00    -0.237 OA
ATOM     99  O   UNL A   1      40.573  26.657  37.598  1.00  0.00    -0.744 OA
ENDBRANCH  95  96
ENDBRANCH  63  88
ENDBRANCH  37  38
ENDBRANCH  29  32
ENDBRANCH  27  28
ENDBRANCH   1  27
TORSDOF 17
ENDMDL
MODEL 2
REMARK VINA RESULT:     -13.0      3.001      9.590
REMARK SMILES C[C@H]1CCCCN1c1nc2nc(CC(=O)NCCCCNC(=O)c3ccc(-c4c5nc(c(-c6c(F)cc(S(=O)(=O)[O-])cc6F)c6ccc([nH]6)c(-c6c(F)cc(S(=O)(=O)[O-])cc6F)c6nc(c(-c7c(F)cc(S(=O)(=O)[O-])cc7F)c7ccc4[nH]7)C=C6)C=C5)cc3)cc(O)n2n1
REMARK SMILES IDX 19 1 18 2 17 3 16 4 14 5 15 6 13 8 12 9 8 10 9 11 94 12
REMARK SMILES IDX 10 13 93 14 11 15 91 16 90 17 7 18 1 19 2 20 3 21 4 22 6 23
REMARK SMILES IDX 5 24 92 25 20 27 21 28 22 29 23 31 24 32 25 33 89 34 26 35
REMARK SMILES IDX 88 36 27 37 28 38 29 39 82 40 30 41 87 42 81 43 83 44 31 45
REMARK SMILES IDX 86 46 80 47 79 48 32 50 66 51 45 52 65 53 46 54 49 55 64 56
REMARK SMILES IDX 84 57 47 58 48 59 63 61 85 62 50 63 33 64 34 65 43 66 35 67
REMARK SMILES IDX 36 68 42 69 44 70 37 71 38 72 39 73 40 74 41 75 67 76 68 77
REMARK SMILES IDX 77 78 69 79 70 80 76 81 78 82 71 83 72 84 73 85 74 86 75 87
REMARK SMILES IDX 51 88 52 89 61 90 53 91 54 92 60 93 62 94 55 95 56 96 57 97
REMARK SMILES IDX 58 98 59 99
REMARK H PARENT 16 7 92 26 21 30 83 49 49 60
REMARK Flexibility Score: inf
ROOT
ATOM      1  C   UNL A   1      32.756  29.748  26.835  1.00  0.00     0.023 C 
ENDROOT
BRANCH   1   2
ATOM      2  C   UNL A   1      32.379  29.745  25.347  1.00  0.00     0.023 C 
BRANCH   2   3
ATOM      3  C   UNL A   1      30.883  29.885  25.040  1.00  0.00     0.116 C 
BRANCH   3   4
ATOM      4  N   UNL A   1      30.624  30.091  23.629  1.00  0.00    -0.356 N 
ATOM      5  C   UNL A   1      30.233  29.203  22.669  1.00  0.00     0.226 C 
ATOM      6  O   UNL A   1      30.067  29.616  21.520  1.00  0.00    -0.275 OA
ATOM      7  H   UNL A   1      30.750  31.015  23.314  1.00  0.00     0.163 HD
BRANCH   5   8
ATOM      8  C   UNL A   1      29.916  27.774  23.038  1.00  0.00     0.156 C 
BRANCH   8   9
ATOM      9  C   UNL A   1      31.092  26.828  22.957  1.00  0.00     0.059 A 
ATOM     10  C   UNL A   1      34.140  24.014  24.167  1.00  0.00     0.247 A 
ATOM     11  N   UNL A   1      33.181  24.698  24.852  1.00  0.00    -0.173 NA
ATOM     12  N   UNL A   1      34.113  24.183  22.848  1.00  0.00    -0.123 NA
ATOM     13  C   UNL A   1      32.570  25.400  23.926  1.00  0.00     0.257 A 
ATOM     14  N   UNL A   1      33.113  25.072  22.682  1.00  0.00    -0.161 N 
ATOM     15  N   UNL A   1      31.545  26.295  24.053  1.00  0.00    -0.215 NA
ATOM     16  C   UNL A   1      32.620  25.650  21.502  1.00  0.00     0.217 A 
ATOM     17  C   UNL A   1      31.641  26.562  21.584  1.00  0.00     0.092 A 
BRANCH  10  18
ATOM     18  N   UNL A   1      35.020  23.269  24.863  1.00  0.00    -0.337 N 
ATOM     19  C   UNL A   1      33.636  21.170  24.517  1.00  0.00     0.031 C 
ATOM     20  C   UNL A   1      34.816  21.859  25.210  1.00  0.00     0.082 C 
ATOM     21  C   UNL A   1      36.106  21.097  24.837  1.00  0.00     0.025 C 
ATOM     22  C   UNL A   1      37.336  21.710  25.502  1.00  0.00     0.004 C 
ATOM     23  C   UNL A   1      36.152  23.935  25.500  1.00  0.00     0.120 C 
ATOM     24  C   UNL A   1      37.448  23.197  25.183  1.00  0.00     0.022 C 
ENDBRANCH  10  18
BRANCH  16  25
ATOM     25  O   UNL A   1      33.156  25.260  20.284  1.00  0.00    -0.493 OA
ATOM     26  H   UNL A   1      32.796  25.594  19.486  1.00  0.00     0.295 HD
ENDBRANCH  16  25
ENDBRANCH   8   9
ENDBRANCH   5   8
ENDBRANCH   3   4
ENDBRANCH   2   3
ENDBRANCH   1   2
BRANCH   1  27
ATOM     27  C   UNL A   1      34.103  30.385  27.136  1.00  0.00     0.116 C 
BRANCH  27  28
ATOM     28  N   UNL A   1      34.001  31.523  28.048  1.00  0.00    -0.352 N 
ATOM     29  C   UNL A   1      34.779  31.778  29.158  1.00  0.00     0.251 C 
ATOM     30  H   UNL A   1      33.297  32.182  27.847  1.00  0.00     0.163 HD
ATOM     31  O   UNL A   1      34.350  32.497  30.063  1.00  0.00    -0.269 OA
BRANCH  29  32
ATOM     32  C   UNL A   1      36.136  31.206  29.234  1.00  0.00     0.039 A 
ATOM     33  C   UNL A   1      37.269  32.009  29.391  1.00  0.00     0.014 A 
ATOM     34  C   UNL A   1      36.265  29.821  29.109  1.00  0.00     0.014 A 
ATOM     35  C   UNL A   1      38.519  31.395  29.441  1.00  0.00     0.010 A 
ATOM     36  C   UNL A   1      37.469  29.208  29.335  1.00  0.00     0.010 A 
ATOM     37  C   UNL A   1      38.605  29.992  29.408  1.00  0.00    -0.014 A 
BRANCH  37  38
ATOM     38  C   UNL A   1      39.873  29.297  29.557  1.00  0.00     0.031 A 
ATOM     39  C   UNL A   1      40.178  28.956  30.964  1.00  0.00     0.074 A 
ATOM     40  C   UNL A   1      40.617  28.855  28.519  1.00  0.00     0.049 A 
ATOM     41  N   UNL A   1      40.960  29.611  31.752  1.00  0.00    -0.248 NA
ATOM     42  C   UNL A   1      39.376  27.929  31.648  1.00  0.00     0.031 C 
ATOM     43  C   UNL A   1      40.315  28.871  27.083  1.00  0.00     0.029 A 
ATOM     44  N   UNL A   1      41.829  28.237  28.555  1.00  0.00    -0.354 N 
ATOM     45  C   UNL A   1      40.967  28.912  32.952  1.00  0.00     0.074 A 
ATOM     46  C   UNL A   1      39.820  28.045  32.904  1.00  0.00     0.031 C 
ATOM     47  C   UNL A   1      41.216  28.107  26.417  1.00  0.00     0.029 A 
ATOM     48  C   UNL A   1      42.249  27.684  27.346  1.00  0.00     0.049 A 
ATOM     49  H   UNL A   1      42.370  28.184  29.375  1.00  0.00     0.167 HD
ATOM     50  C   UNL A   1      42.073  28.933  33.747  1.00  0.00     0.037 A 
ATOM     51  C   UNL A   1      43.377  26.950  27.133  1.00  0.00     0.037 A 
ATOM     52  C   UNL A   1      42.988  29.965  33.310  1.00  0.00     0.049 A 
ATOM     53  C   UNL A   1      44.321  27.313  28.227  1.00  0.00     0.074 A 
ATOM     54  C   UNL A   1      42.912  31.338  33.177  1.00  0.00     0.029 A 
ATOM     55  N   UNL A   1      44.052  29.568  32.533  1.00  0.00    -0.354 N 
ATOM     56  N   UNL A   1      44.839  28.507  28.355  1.00  0.00    -0.248 NA
ATOM     57  C   UNL A   1      44.260  26.525  29.450  1.00  0.00     0.031 C 
ATOM     58  C   UNL A   1      43.607  31.627  31.965  1.00  0.00     0.029 A 
ATOM     59  C   UNL A   1      44.148  30.436  31.476  1.00  0.00     0.049 A 
ATOM     60  H   UNL A   1      44.640  28.798  32.705  1.00  0.00     0.167 HD
ATOM     61  C   UNL A   1      44.759  28.786  29.712  1.00  0.00     0.074 A 
ATOM     62  C   UNL A   1      44.443  27.503  30.343  1.00  0.00     0.031 C 
ATOM     63  C   UNL A   1      44.659  30.069  30.172  1.00  0.00     0.037 A 
BRANCH  50  64
ATOM     64  C   UNL A   1      42.538  27.799  34.630  1.00  0.00     0.058 A 
ATOM     65  C   UNL A   1      42.620  28.026  36.021  1.00  0.00     0.135 A 
ATOM     66  C   UNL A   1      43.185  26.635  34.164  1.00  0.00     0.135 A 
ATOM     67  F   UNL A   1      42.021  29.090  36.579  1.00  0.00    -0.206 F 
ATOM     68  C   UNL A   1      43.388  27.228  36.864  1.00  0.00     0.059 A 
ATOM     69  C   UNL A   1      43.915  25.796  34.998  1.00  0.00     0.059 A 
ATOM     70  F   UNL A   1      43.224  26.298  32.871  1.00  0.00    -0.206 F 
ATOM     71  C   UNL A   1      44.051  26.126  36.336  1.00  0.00     0.060 A 
BRANCH  71  72
ATOM     72  S   UNL A   1      45.135  25.163  37.402  1.00  0.00     0.124 S 
ATOM     73  O   UNL A   1      44.869  23.807  36.938  1.00  0.00    -0.237 OA
ATOM     74  O   UNL A   1      46.445  25.711  37.066  1.00  0.00    -0.237 OA
ATOM     75  O   UNL A   1      44.653  25.479  38.742  1.00  0.00    -0.744 OA
ENDBRANCH  71  72
ENDBRANCH  50  64
BRANCH  51  76
ATOM     76  C   UNL A   1      43.531  25.708  26.316  1.00  0.00     0.058 A 
ATOM     77  C   UNL A   1      44.594  25.539  25.404  1.00  0.00     0.135 A 
ATOM     78  C   UNL A   1      42.801  24.543  26.622  1.00  0.00     0.135 A 
ATOM     79  F   UNL A   1      45.365  26.585  25.067  1.00  0.00    -0.206 F 
ATOM     80  C   UNL A   1      44.935  24.287  24.863  1.00  0.00     0.059 A 
ATOM     81  C   UNL A   1      43.120  23.287  26.098  1.00  0.00     0.059 A 
ATOM     82  F   UNL A   1      41.803  24.573  27.517  1.00  0.00    -0.206 F 
ATOM     83  C   UNL A   1      44.200  23.161  25.233  1.00  0.00     0.060 A 
BRANCH  83  84
ATOM     84  S   UNL A   1      44.715  21.520  24.657  1.00  0.00     0.124 S 
ATOM     85  O   UNL A   1      44.604  21.657  23.209  1.00  0.00    -0.237 OA
ATOM     86  O   UNL A   1      46.070  21.417  25.186  1.00  0.00    -0.237 OA
ATOM     87  O   UNL A   1      43.738  20.624  25.273  1.00  0.00    -0.744 OA
ENDBRANCH  83  84
ENDBRANCH  51  76
BRANCH  63  88
ATOM     88  C   UNL A   1      44.906  31.210  29.216  1.00  0.00     0.058 A 
ATOM     89  C   UNL A   1      46.178  31.654  28.809  1.00  0.00     0.135 A 
ATOM     90  C   UNL A   1      43.799  31.730  28.530  1.00  0.00     0.135 A 
ATOM     91  F   UNL A   1      47.292  31.143  29.349  1.00  0.00    -0.206 F 
ATOM     92  C   UNL A   1      46.336  32.583  27.776  1.00  0.00     0.059 A 
ATOM     93  C   UNL A   1      43.934  32.634  27.481  1.00  0.00     0.059 A 
ATOM     94  F   UNL A   1      42.562  31.302  28.833  1.00  0.00    -0.206 F 
ATOM     95  C   UNL A   1      45.206  33.061  27.112  1.00  0.00     0.060 A 
BRANCH  95  96
ATOM     96  S   UNL A   1      45.411  34.196  25.721  1.00  0.00     0.124 S 
ATOM     97  O   UNL A   1      46.857  34.187  25.526  1.00  0.00    -0.237 OA
ATOM     98  O   UNL A   1      44.626  33.555  24.671  1.00  0.00    -0.237 OA
ATOM     99  O   UNL A   1      44.860  35.454  26.221  1.00  0.00    -0.744 OA
ENDBRANCH  95  96
ENDBRANCH  63  88
ENDBRANCH  37  38
ENDBRANCH  29  32
ENDBRANCH  27  28
ENDBRANCH   1  27
TORSDOF 17
ENDMDL
MODEL 3
REMARK VINA RESULT:     -12.8      1.737      2.584
REMARK SMILES C[C@H]1CCCCN1c1nc2nc(CC(=O)NCCCCNC(=O)c3ccc(-c4c5nc(c(-c6c(F)cc(S(=O)(=O)[O-])cc6F)c6ccc([nH]6)c(-c6c(F)cc(S(=O)(=O)[O-])cc6F)c6nc(c(-c7c(F)cc(S(=O)(=O)[O-])cc7F)c7ccc4[nH]7)C=C6)C=C5)cc3)cc(O)n2n1
REMARK SMILES IDX 19 1 18 2 17 3 16 4 14 5 15 6 13 8 12 9 8 10 9 11 94 12
REMARK SMILES IDX 10 13 93 14 11 15 91 16 90 17 7 18 1 19 2 20 3 21 4 22 6 23
REMARK SMILES IDX 5 24 92 25 20 27 21 28 22 29 23 31 24 32 25 33 89 34 26 35
REMARK SMILES IDX 88 36 27 37 28 38 29 39 82 40 30 41 87 42 81 43 83 44 31 45
REMARK SMILES IDX 86 46 80 47 79 48 32 50 66 51 45 52 65 53 46 54 49 55 64 56
REMARK SMILES IDX 84 57 47 58 48 59 63 61 85 62 50 63 33 64 34 65 43 66 35 67
REMARK SMILES IDX 36 68 42 69 44 70 37 71 38 72 39 73 40 74 41 75 67 76 68 77
REMARK SMILES IDX 77 78 69 79 70 80 76 81 78 82 71 83 72 84 73 85 74 86 75 87
REMARK SMILES IDX 51 88 52 89 61 90 53 91 54 92 60 93 62 94 55 95 56 96 57 97
REMARK SMILES IDX 58 98 59 99
REMARK H PARENT 16 7 92 26 21 30 83 49 49 60
REMARK Flexibility Score: inf
ROOT
ATOM      1  C   UNL A   1      40.225  22.641  27.280  1.00  0.00     0.023 C 
ENDROOT
BRANCH   1   2
ATOM      2  C   UNL A   1      39.579  21.808  26.164  1.00  0.00     0.023 C 
BRANCH   2   3
ATOM      3  C   UNL A   1      38.083  22.054  25.933  1.00  0.00     0.116 C 
BRANCH   3   4
ATOM      4  N   UNL A   1      37.787  22.412  24.560  1.00  0.00    -0.356 N 
ATOM      5  C   UNL A   1      36.603  22.384  23.880  1.00  0.00     0.226 C 
ATOM      6  O   UNL A   1      36.593  22.747  22.702  1.00  0.00    -0.275 OA
ATOM      7  H   UNL A   1      38.560  22.724  24.035  1.00  0.00     0.163 HD
BRANCH   5   8
ATOM      8  C   UNL A   1      35.325  22.015  24.593  1.00  0.00     0.156 C 
BRANCH   8   9
ATOM      9  C   UNL A   1      34.555  23.190  25.151  1.00  0.00     0.059 A 
ATOM     10  C   UNL A   1      33.214  27.251  25.770  1.00  0.00     0.247 A 
ATOM     11  N   UNL A   1      34.182  26.701  24.983  1.00  0.00    -0.173 NA
ATOM     12  N   UNL A   1      32.479  26.375  26.448  1.00  0.00    -0.123 NA
ATOM     13  C   UNL A   1      34.107  25.416  25.242  1.00  0.00     0.257 A 
ATOM     14  N   UNL A   1      33.044  25.196  26.121  1.00  0.00    -0.161 N 
ATOM     15  N   UNL A   1      34.868  24.390  24.759  1.00  0.00    -0.215 NA
ATOM     16  C   UNL A   1      32.710  23.899  26.541  1.00  0.00     0.217 A 
ATOM     17  C   UNL A   1      33.454  22.867  26.121  1.00  0.00     0.092 A 
BRANCH  10  18
ATOM     18  N   UNL A   1      33.105  28.594  25.811  1.00  0.00    -0.337 N 
ATOM     19  C   UNL A   1      31.317  28.581  24.011  1.00  0.00     0.031 C 
ATOM     20  C   UNL A   1      32.278  29.384  24.893  1.00  0.00     0.082 C 
ATOM     21  C   UNL A   1      31.445  30.365  25.745  1.00  0.00     0.025 C 
ATOM     22  C   UNL A   1      32.331  31.221  26.648  1.00  0.00     0.004 C 
ATOM     23  C   UNL A   1      34.014  29.344  26.673  1.00  0.00     0.120 C 
ATOM     24  C   UNL A   1      33.236  30.350  27.514  1.00  0.00     0.022 C 
ENDBRANCH  10  18
BRANCH  16  25
ATOM     25  O   UNL A   1      31.617  23.721  27.376  1.00  0.00    -0.493 OA
ATOM     26  H   UNL A   1      31.161  24.465  27.716  1.00  0.00     0.295 HD
ENDBRANCH  16  25
ENDBRANCH   8   9
ENDBRANCH   5   8
ENDBRANCH   3   4
ENDBRANCH   2   3
ENDBRANCH   1   2
BRANCH   1  27
ATOM     27  C   UNL A   1      41.634  22.205  27.648  1.00  0.00     0.116 C 
BRANCH  27  28
ATOM     28  N   UNL A   1      42.584  22.374  26.550  1.00  0.00    -0.352 N 
ATOM     29  C   UNL A   1      42.822  23.520  25.820  1.00  0.00     0.251 C 
ATOM     30  H   UNL A   1      43.113  21.581  26.304  1.00  0.00     0.163 HD
ATOM     31  O   UNL A   1      43.303  23.444  24.687  1.00  0.00    -0.269 OA
BRANCH  29  32
ATOM     32  C   UNL A   1      42.525  24.833  26.421  1.00  0.00     0.039 A 
ATOM     33  C   UNL A   1      41.624  25.727  25.835  1.00  0.00     0.014 A 
ATOM     34  C   UNL A   1      43.202  25.180  27.592  1.00  0.00     0.014 A 
ATOM     35  C   UNL A   1      41.405  26.955  26.457  1.00  0.00     0.010 A 
ATOM     36  C   UNL A   1      42.855  26.304  28.293  1.00  0.00     0.010 A 
ATOM     37  C   UNL A   1      42.031  27.233  27.685  1.00  0.00    -0.014 A 
BRANCH  37  38
ATOM     38  C   UNL A   1      41.760  28.454  28.425  1.00  0.00     0.031 A 
ATOM     39  C   UNL A   1      42.837  29.459  28.288  1.00  0.00     0.074 A 
ATOM     40  C   UNL A   1      40.584  28.720  29.034  1.00  0.00     0.049 A 
ATOM     41  N   UNL A   1      43.776  29.687  29.141  1.00  0.00    -0.248 NA
ATOM     42  C   UNL A   1      43.040  30.126  26.992  1.00  0.00     0.031 C 
ATOM     43  C   UNL A   1      39.334  27.950  29.025  1.00  0.00     0.029 A 
ATOM     44  N   UNL A   1      40.250  29.807  29.783  1.00  0.00    -0.354 N 
ATOM     45  C   UNL A   1      44.529  30.727  28.611  1.00  0.00     0.074 A 
ATOM     46  C   UNL A   1      44.179  30.791  27.218  1.00  0.00     0.031 C 
ATOM     47  C   UNL A   1      38.332  28.694  29.554  1.00  0.00     0.029 A 
ATOM     48  C   UNL A   1      38.894  29.923  30.088  1.00  0.00     0.049 A 
ATOM     49  H   UNL A   1      40.916  30.464  30.086  1.00  0.00     0.167 HD
ATOM     50  C   UNL A   1      45.166  31.599  29.442  1.00  0.00     0.037 A 
ATOM     51  C   UNL A   1      38.293  30.951  30.751  1.00  0.00     0.037 A 
ATOM     52  C   UNL A   1      45.176  31.090  30.796  1.00  0.00     0.049 A 
ATOM     53  C   UNL A   1      39.361  31.610  31.553  1.00  0.00     0.074 A 
ATOM     54  C   UNL A   1      45.681  29.957  31.404  1.00  0.00     0.029 A 
ATOM     55  N   UNL A   1      44.228  31.592  31.659  1.00  0.00    -0.354 N 
ATOM     56  N   UNL A   1      39.975  31.018  32.545  1.00  0.00    -0.248 NA
ATOM     57  C   UNL A   1      40.100  32.692  30.919  1.00  0.00     0.031 C 
ATOM     58  C   UNL A   1      44.682  29.571  32.347  1.00  0.00     0.029 A 
ATOM     59  C   UNL A   1      43.671  30.535  32.333  1.00  0.00     0.049 A 
ATOM     60  H   UNL A   1      43.992  32.540  31.773  1.00  0.00     0.167 HD
ATOM     61  C   UNL A   1      41.314  31.342  32.378  1.00  0.00     0.074 A 
ATOM     62  C   UNL A   1      41.322  32.422  31.389  1.00  0.00     0.031 C 
ATOM     63  C   UNL A   1      42.309  30.516  32.821  1.00  0.00     0.037 A 
BRANCH  50  64
ATOM     64  C   UNL A   1      45.407  33.062  29.155  1.00  0.00     0.058 A 
ATOM     65  C   UNL A   1      44.306  33.857  28.767  1.00  0.00     0.135 A 
ATOM     66  C   UNL A   1      46.678  33.639  28.945  1.00  0.00     0.135 A 
ATOM     67  F   UNL A   1      43.049  33.420  28.943  1.00  0.00    -0.206 F 
ATOM     68  C   UNL A   1      44.459  35.074  28.109  1.00  0.00     0.059 A 
ATOM     69  C   UNL A   1      46.851  34.876  28.335  1.00  0.00     0.059 A 
ATOM     70  F   UNL A   1      47.817  33.000  29.231  1.00  0.00    -0.206 F 
ATOM     71  C   UNL A   1      45.739  35.564  27.877  1.00  0.00     0.060 A 
BRANCH  71  72
ATOM     72  S   UNL A   1      45.938  37.078  26.925  1.00  0.00     0.124 S 
ATOM     73  O   UNL A   1      46.576  36.577  25.714  1.00  0.00    -0.237 OA
ATOM     74  O   UNL A   1      44.556  37.524  26.785  1.00  0.00    -0.237 OA
ATOM     75  O   UNL A   1      46.776  37.906  27.785  1.00  0.00    -0.744 OA
ENDBRANCH  71  72
ENDBRANCH  50  64
BRANCH  51  76
ATOM     76  C   UNL A   1      36.995  31.621  30.434  1.00  0.00     0.058 A 
ATOM     77  C   UNL A   1      36.078  31.990  31.440  1.00  0.00     0.135 A 
ATOM     78  C   UNL A   1      36.756  32.174  29.160  1.00  0.00     0.135 A 
ATOM     79  F   UNL A   1      36.234  31.536  32.693  1.00  0.00    -0.206 F 
ATOM     80  C   UNL A   1      35.017  32.882  31.205  1.00  0.00     0.059 A 
ATOM     81  C   UNL A   1      35.708  33.061  28.902  1.00  0.00     0.059 A 
ATOM     82  F   UNL A   1      37.593  31.934  28.140  1.00  0.00    -0.206 F 
ATOM     83  C   UNL A   1      34.852  33.428  29.933  1.00  0.00     0.060 A 
BRANCH  83  84
ATOM     84  S   UNL A   1      33.577  34.686  29.650  1.00  0.00     0.124 S 
ATOM     85  O   UNL A   1      33.129  34.976  31.007  1.00  0.00    -0.237 OA
ATOM     86  O   UNL A   1      34.329  35.745  28.986  1.00  0.00    -0.237 OA
ATOM     87  O   UNL A   1      32.602  33.996  28.808  1.00  0.00    -0.744 OA
ENDBRANCH  83  84
ENDBRANCH  51  76
BRANCH  63  88
ATOM     88  C   UNL A   1      41.954  29.371  33.738  1.00  0.00     0.058 A 
ATOM     89  C   UNL A   1      41.551  28.093  33.307  1.00  0.00     0.135 A 
ATOM     90  C   UNL A   1      42.240  29.522  35.103  1.00  0.00     0.135 A 
ATOM     91  F   UNL A   1      41.344  27.837  32.008  1.00  0.00    -0.206 F 
ATOM     92  C   UNL A   1      41.425  27.023  34.197  1.00  0.00     0.059 A 
ATOM     93  C   UNL A   1      42.150  28.464  36.001  1.00  0.00     0.059 A 
ATOM     94  F   UNL A   1      42.686  30.702  35.566  1.00  0.00    -0.206 F 
ATOM     95  C   UNL A   1      41.736  27.217  35.543  1.00  0.00     0.060 A 
BRANCH  95  96
ATOM     96  S   UNL A   1      41.658  25.816  36.681  1.00  0.00     0.124 S 
ATOM     97  O   UNL A   1      42.752  24.974  36.208  1.00  0.00    -0.237 OA
ATOM     98  O   UNL A   1      41.862  26.451  37.980  1.00  0.00    -0.237 OA
ATOM     99  O   UNL A   1      40.318  25.274  36.465  1.00  0.00    -0.744 OA
ENDBRANCH  95  96
ENDBRANCH  63  88
ENDBRANCH  37  38
ENDBRANCH  29  32
ENDBRANCH  27  28
ENDBRANCH   1  27
TORSDOF 17
ENDMDL
