MODEL 1
REMARK VINA RESULT:     -12.4      0.000      0.000
REMARK SMILES COc1cccc([C@@H]2[NH2+][C@@](C)(C(=O)NCCCCNC(=O)c3ccc(-c4c5nc(c(-c6c(F)cc(S(=O)(=O)[O-])cc6F)c6ccc([nH]6)c(-c6c(F)cc(S(=O)(=O)[O-])cc6F)c6nc(c(-c7c(F)cc(S(=O)(=O)[O-])cc7F)c7ccc4[nH]7)C=C6)C=C5)cc3)[C@@H]3C(=O)N(C)C(=O)[C@@H]32)c1O
REMARK SMILES IDX 17 1 16 2 15 3 14 4 12 5 13 6 10 8 8 9 9 10 95 11 88 14
REMARK SMILES IDX 93 15 11 16 89 17 91 18 94 19 90 20 92 21 7 22 3 23 4 24
REMARK SMILES IDX 96 25 5 26 6 27 2 28 1 29 97 30 18 32 19 33 20 34 21 36
REMARK SMILES IDX 22 37 23 38 87 39 24 40 86 41 25 42 26 43 27 44 80 45 28 46
REMARK SMILES IDX 85 47 79 48 81 49 29 50 84 51 78 52 77 53 30 55 64 56 43 57
REMARK SMILES IDX 63 58 44 59 47 60 62 61 82 62 45 63 46 64 61 66 83 67 48 68
REMARK SMILES IDX 31 69 32 70 41 71 33 72 34 73 40 74 42 75 35 76 36 77 37 78
REMARK SMILES IDX 38 79 39 80 65 81 66 82 75 83 67 84 68 85 74 86 76 87 69 88
REMARK SMILES IDX 70 89 71 90 72 91 73 92 49 93 50 94 59 95 51 96 52 97 58 98
REMARK SMILES IDX 60 99 53 100 54 101 55 102 56 103 57 104
REMARK H PARENT 14 7 9 12 9 13 97 31 19 35 81 54 47 65
REMARK Flexibility Score: inf
ROOT
ATOM      1  C   UNL A   1      33.567  28.035  25.856  1.00  0.00     0.023 C 
ENDROOT
BRANCH   1   2
ATOM      2  C   UNL A   1      32.482  28.680  24.994  1.00  0.00     0.023 C 
BRANCH   2   3
ATOM      3  C   UNL A   1      31.474  27.697  24.411  1.00  0.00     0.116 C 
BRANCH   3   4
ATOM      4  N   UNL A   1      30.796  26.933  25.447  1.00  0.00    -0.351 N 
ATOM      5  C   UNL A   1      30.598  25.586  25.560  1.00  0.00     0.281 C 
ATOM      6  O   UNL A   1      29.923  25.192  26.516  1.00  0.00    -0.268 OA
ATOM      7  H   UNL A   1      30.423  27.471  26.183  1.00  0.00     0.163 HD
BRANCH   5   8
ATOM      8  C   UNL A   1      31.247  24.590  24.545  1.00  0.00     0.185 C 
ATOM      9  C   UNL A   1      31.883  22.494  25.581  1.00  0.00     0.232 C 
ATOM     10  N   UNL A   1      30.789  23.219  24.901  1.00  0.00    -0.326 N 
ATOM     11  C   UNL A   1      33.019  23.506  25.787  1.00  0.00     0.161 C 
ATOM     12  H   UNL A   1      29.984  23.281  25.524  1.00  0.00     0.347 HD
ATOM     13  H   UNL A   1      30.527  22.719  24.052  1.00  0.00     0.347 HD
ATOM     14  C   UNL A   1      32.767  24.586  24.744  1.00  0.00     0.169 C 
ATOM     15  C   UNL A   1      34.398  23.012  25.440  1.00  0.00     0.239 C 
ATOM     16  C   UNL A   1      30.820  25.051  23.141  1.00  0.00     0.091 C 
ATOM     17  C   UNL A   1      33.667  24.146  23.614  1.00  0.00     0.240 C 
ATOM     18  N   UNL A   1      34.661  23.375  24.147  1.00  0.00    -0.285 N 
ATOM     19  O   UNL A   1      35.110  22.344  26.167  1.00  0.00    -0.274 OA
ATOM     20  O   UNL A   1      33.544  24.416  22.427  1.00  0.00    -0.274 OA
ATOM     21  C   UNL A   1      35.789  22.870  23.405  1.00  0.00     0.156 C 
BRANCH   9  22
ATOM     22  C   UNL A   1      32.263  21.192  24.875  1.00  0.00     0.056 A 
ATOM     23  C   UNL A   1      32.905  18.825  24.888  1.00  0.00     0.161 A 
ATOM     24  C   UNL A   1      32.701  18.761  23.512  1.00  0.00     0.050 A 
ATOM     25  C   UNL A   1      32.737  20.047  25.545  1.00  0.00     0.166 A 
ATOM     26  C   UNL A   1      32.293  19.896  22.810  1.00  0.00     0.005 A 
ATOM     27  C   UNL A   1      32.059  21.096  23.487  1.00  0.00     0.014 A 
BRANCH  23  28
ATOM     28  O   UNL A   1      33.397  17.700  25.495  1.00  0.00    -0.493 OA
ATOM     29  C   UNL A   1      32.694  16.508  25.151  1.00  0.00     0.278 C 
ENDBRANCH  23  28
BRANCH  25  30
ATOM     30  O   UNL A   1      33.128  20.189  26.846  1.00  0.00    -0.504 OA
ATOM     31  H   UNL A   1      32.744  19.653  27.511  1.00  0.00     0.293 HD
ENDBRANCH  25  30
ENDBRANCH   9  22
ENDBRANCH   5   8
ENDBRANCH   3   4
ENDBRANCH   2   3
ENDBRANCH   1   2
BRANCH   1  32
ATOM     32  C   UNL A   1      33.479  28.349  27.345  1.00  0.00     0.116 C 
BRANCH  32  33
ATOM     33  N   UNL A   1      33.409  29.777  27.619  1.00  0.00    -0.352 N 
ATOM     34  C   UNL A   1      34.375  30.606  28.136  1.00  0.00     0.251 C 
ATOM     35  H   UNL A   1      32.551  30.209  27.403  1.00  0.00     0.163 HD
ATOM     36  O   UNL A   1      34.096  31.761  28.443  1.00  0.00    -0.269 OA
BRANCH  34  37
ATOM     37  C   UNL A   1      35.742  30.086  28.350  1.00  0.00     0.039 A 
ATOM     38  C   UNL A   1      36.640  30.083  27.280  1.00  0.00     0.014 A 
ATOM     39  C   UNL A   1      36.145  29.636  29.610  1.00  0.00     0.014 A 
ATOM     40  C   UNL A   1      37.964  29.694  27.493  1.00  0.00     0.010 A 
ATOM     41  C   UNL A   1      37.484  29.333  29.838  1.00  0.00     0.010 A 
ATOM     42  C   UNL A   1      38.409  29.356  28.783  1.00  0.00    -0.014 A 
BRANCH  42  43
ATOM     43  C   UNL A   1      39.834  29.026  29.045  1.00  0.00     0.031 A 
ATOM     44  C   UNL A   1      40.756  30.061  29.629  1.00  0.00     0.074 A 
ATOM     45  C   UNL A   1      40.312  27.812  28.702  1.00  0.00     0.049 A 
ATOM     46  N   UNL A   1      42.037  29.976  29.885  1.00  0.00    -0.248 NA
ATOM     47  C   UNL A   1      40.169  31.374  29.941  1.00  0.00     0.031 C 
ATOM     48  C   UNL A   1      39.532  26.740  28.077  1.00  0.00     0.029 A 
ATOM     49  N   UNL A   1      41.570  27.276  28.821  1.00  0.00    -0.354 N 
ATOM     50  C   UNL A   1      42.409  31.223  30.374  1.00  0.00     0.074 A 
ATOM     51  C   UNL A   1      41.234  32.064  30.323  1.00  0.00     0.031 C 
ATOM     52  C   UNL A   1      40.319  25.668  27.899  1.00  0.00     0.029 A 
ATOM     53  C   UNL A   1      41.669  25.986  28.353  1.00  0.00     0.049 A 
ATOM     54  H   UNL A   1      42.331  27.769  29.206  1.00  0.00     0.167 HD
ATOM     55  C   UNL A   1      43.613  31.624  30.849  1.00  0.00     0.037 A 
ATOM     56  C   UNL A   1      42.728  25.155  28.292  1.00  0.00     0.037 A 
ATOM     57  C   UNL A   1      44.774  30.773  30.916  1.00  0.00     0.049 A 
ATOM     58  C   UNL A   1      44.059  25.623  28.817  1.00  0.00     0.074 A 
ATOM     59  C   UNL A   1      46.023  31.064  31.434  1.00  0.00     0.029 A 
ATOM     60  N   UNL A   1      44.831  29.470  30.443  1.00  0.00    -0.354 N 
ATOM     61  N   UNL A   1      44.375  26.782  29.345  1.00  0.00    -0.248 NA
ATOM     62  C   UNL A   1      45.175  24.671  28.745  1.00  0.00     0.031 C 
ATOM     63  C   UNL A   1      46.851  29.956  31.228  1.00  0.00     0.029 A 
ATOM     64  C   UNL A   1      46.102  28.952  30.635  1.00  0.00     0.049 A 
ATOM     65  H   UNL A   1      44.079  28.984  30.033  1.00  0.00     0.167 HD
ATOM     66  C   UNL A   1      45.717  26.688  29.695  1.00  0.00     0.074 A 
ATOM     67  C   UNL A   1      46.149  25.354  29.330  1.00  0.00     0.031 C 
ATOM     68  C   UNL A   1      46.518  27.620  30.271  1.00  0.00     0.037 A 
BRANCH  55  69
ATOM     69  C   UNL A   1      43.735  33.045  31.331  1.00  0.00     0.058 A 
ATOM     70  C   UNL A   1      43.544  33.387  32.680  1.00  0.00     0.135 A 
ATOM     71  C   UNL A   1      44.076  34.074  30.440  1.00  0.00     0.135 A 
ATOM     72  F   UNL A   1      43.203  32.446  33.576  1.00  0.00    -0.206 F 
ATOM     73  C   UNL A   1      43.647  34.702  33.119  1.00  0.00     0.059 A 
ATOM     74  C   UNL A   1      44.217  35.393  30.864  1.00  0.00     0.059 A 
ATOM     75  F   UNL A   1      44.272  33.806  29.139  1.00  0.00    -0.206 F 
ATOM     76  C   UNL A   1      43.983  35.699  32.203  1.00  0.00     0.060 A 
BRANCH  76  77
ATOM     77  S   UNL A   1      44.110  37.401  32.790  1.00  0.00     0.124 S 
ATOM     78  O   UNL A   1      42.991  37.470  33.725  1.00  0.00    -0.237 OA
ATOM     79  O   UNL A   1      45.440  37.425  33.392  1.00  0.00    -0.237 OA
ATOM     80  O   UNL A   1      43.960  38.194  31.575  1.00  0.00    -0.744 OA
ENDBRANCH  76  77
ENDBRANCH  55  69
BRANCH  56  81
ATOM     81  C   UNL A   1      42.566  23.785  27.734  1.00  0.00     0.058 A 
ATOM     82  C   UNL A   1      42.414  22.675  28.579  1.00  0.00     0.135 A 
ATOM     83  C   UNL A   1      42.538  23.558  26.349  1.00  0.00     0.135 A 
ATOM     84  F   UNL A   1      42.440  22.838  29.911  1.00  0.00    -0.206 F 
ATOM     85  C   UNL A   1      42.257  21.389  28.073  1.00  0.00     0.059 A 
ATOM     86  C   UNL A   1      42.355  22.285  25.819  1.00  0.00     0.059 A 
ATOM     87  F   UNL A   1      42.663  24.587  25.496  1.00  0.00    -0.206 F 
ATOM     88  C   UNL A   1      42.224  21.204  26.691  1.00  0.00     0.060 A 
BRANCH  88  89
ATOM     89  S   UNL A   1      41.965  19.537  26.046  1.00  0.00     0.124 S 
ATOM     90  O   UNL A   1      42.342  18.717  27.191  1.00  0.00    -0.237 OA
ATOM     91  O   UNL A   1      40.543  19.556  25.714  1.00  0.00    -0.237 OA
ATOM     92  O   UNL A   1      42.867  19.476  24.900  1.00  0.00    -0.744 OA
ENDBRANCH  88  89
ENDBRANCH  56  81
BRANCH  68  93
ATOM     93  C   UNL A   1      47.938  27.223  30.575  1.00  0.00     0.058 A 
ATOM     94  C   UNL A   1      48.994  27.509  29.696  1.00  0.00     0.135 A 
ATOM     95  C   UNL A   1      48.252  26.596  31.793  1.00  0.00     0.135 A 
ATOM     96  F   UNL A   1      48.749  28.102  28.517  1.00  0.00    -0.206 F 
ATOM     97  C   UNL A   1      50.307  27.167  30.002  1.00  0.00     0.059 A 
ATOM     98  C   UNL A   1      49.562  26.272  32.133  1.00  0.00     0.059 A 
ATOM     99  F   UNL A   1      47.281  26.308  32.675  1.00  0.00    -0.206 F 
ATOM    100  C   UNL A   1      50.581  26.551  31.225  1.00  0.00     0.060 A 
BRANCH 100 101
ATOM    101  S   UNL A   1      52.294  26.145  31.623  1.00  0.00     0.124 S 
ATOM    102  O   UNL A   1      52.162  24.788  32.143  1.00  0.00    -0.237 OA
ATOM    103  O   UNL A   1      52.953  26.267  30.327  1.00  0.00    -0.237 OA
ATOM    104  O   UNL A   1      52.665  27.160  32.606  1.00  0.00    -0.744 OA
ENDBRANCH 100 101
ENDBRANCH  68  93
ENDBRANCH  42  43
ENDBRANCH  34  37
ENDBRANCH  32  33
ENDBRANCH   1  32
TORSDOF 17
ENDMDL
MODEL 2
REMARK VINA RESULT:     -12.3      4.885     10.493
REMARK SMILES COc1cccc([C@@H]2[NH2+][C@@](C)(C(=O)NCCCCNC(=O)c3ccc(-c4c5nc(c(-c6c(F)cc(S(=O)(=O)[O-])cc6F)c6ccc([nH]6)c(-c6c(F)cc(S(=O)(=O)[O-])cc6F)c6nc(c(-c7c(F)cc(S(=O)(=O)[O-])cc7F)c7ccc4[nH]7)C=C6)C=C5)cc3)[C@@H]3C(=O)N(C)C(=O)[C@@H]32)c1O
REMARK SMILES IDX 17 1 16 2 15 3 14 4 12 5 13 6 10 8 8 9 9 10 95 11 88 14
REMARK SMILES IDX 93 15 11 16 89 17 91 18 94 19 90 20 92 21 7 22 3 23 4 24
REMARK SMILES IDX 96 25 5 26 6 27 2 28 1 29 97 30 18 32 19 33 20 34 21 36
REMARK SMILES IDX 22 37 23 38 87 39 24 40 86 41 25 42 26 43 27 44 80 45 28 46
REMARK SMILES IDX 85 47 79 48 81 49 29 50 84 51 78 52 77 53 30 55 64 56 43 57
REMARK SMILES IDX 63 58 44 59 47 60 62 61 82 62 45 63 46 64 61 66 83 67 48 68
REMARK SMILES IDX 31 69 32 70 41 71 33 72 34 73 40 74 42 75 35 76 36 77 37 78
REMARK SMILES IDX 38 79 39 80 65 81 66 82 75 83 67 84 68 85 74 86 76 87 69 88
REMARK SMILES IDX 70 89 71 90 72 91 73 92 49 93 50 94 59 95 51 96 52 97 58 98
REMARK SMILES IDX 60 99 53 100 54 101 55 102 56 103 57 104
REMARK H PARENT 14 7 9 12 9 13 97 31 19 35 81 54 47 65
REMARK Flexibility Score: inf
ROOT
ATOM      1  C   UNL A   1      37.467  23.626  25.821  1.00  0.00     0.023 C 
ENDROOT
BRANCH   1   2
ATOM      2  C   UNL A   1      36.038  24.090  26.102  1.00  0.00     0.023 C 
BRANCH   2   3
ATOM      3  C   UNL A   1      34.956  23.172  25.544  1.00  0.00     0.116 C 
BRANCH   3   4
ATOM      4  N   UNL A   1      34.884  23.235  24.093  1.00  0.00    -0.351 N 
ATOM      5  C   UNL A   1      33.890  23.705  23.281  1.00  0.00     0.281 C 
ATOM      6  O   UNL A   1      34.050  23.583  22.063  1.00  0.00    -0.268 OA
ATOM      7  H   UNL A   1      35.675  22.887  23.621  1.00  0.00     0.163 HD
BRANCH   5   8
ATOM      8  C   UNL A   1      32.632  24.414  23.878  1.00  0.00     0.185 C 
ATOM      9  C   UNL A   1      32.207  26.568  22.855  1.00  0.00     0.232 C 
ATOM     10  N   UNL A   1      31.938  25.117  22.766  1.00  0.00    -0.326 N 
ATOM     11  C   UNL A   1      33.231  26.756  23.983  1.00  0.00     0.161 C 
ATOM     12  H   UNL A   1      32.281  24.762  21.873  1.00  0.00     0.347 HD
ATOM     13  H   UNL A   1      30.934  24.954  22.835  1.00  0.00     0.347 HD
ATOM     14  C   UNL A   1      33.083  25.511  24.848  1.00  0.00     0.169 C 
ATOM     15  C   UNL A   1      32.936  27.876  24.945  1.00  0.00     0.239 C 
ATOM     16  C   UNL A   1      31.788  23.319  24.552  1.00  0.00     0.091 C 
ATOM     17  C   UNL A   1      32.140  25.989  25.927  1.00  0.00     0.240 C 
ATOM     18  N   UNL A   1      32.251  27.348  26.007  1.00  0.00    -0.285 N 
ATOM     19  O   UNL A   1      33.198  29.050  24.762  1.00  0.00    -0.274 OA
ATOM     20  O   UNL A   1      31.400  25.300  26.615  1.00  0.00    -0.274 OA
ATOM     21  C   UNL A   1      31.603  28.163  27.005  1.00  0.00     0.156 C 
BRANCH   9  22
ATOM     22  C   UNL A   1      30.932  27.405  22.957  1.00  0.00     0.056 A 
ATOM     23  C   UNL A   1      29.572  29.366  22.388  1.00  0.00     0.161 A 
ATOM     24  C   UNL A   1      28.462  28.768  22.980  1.00  0.00     0.050 A 
ATOM     25  C   UNL A   1      30.803  28.704  22.429  1.00  0.00     0.166 A 
ATOM     26  C   UNL A   1      28.574  27.507  23.568  1.00  0.00     0.005 A 
ATOM     27  C   UNL A   1      29.793  26.825  23.542  1.00  0.00     0.014 A 
BRANCH  23  28
ATOM     28  O   UNL A   1      29.412  30.642  21.917  1.00  0.00    -0.493 OA
ATOM     29  C   UNL A   1      28.103  30.910  21.420  1.00  0.00     0.278 C 
ENDBRANCH  23  28
BRANCH  25  30
ATOM     30  O   UNL A   1      31.944  29.350  22.046  1.00  0.00    -0.504 OA
ATOM     31  H   UNL A   1      32.278  30.057  22.562  1.00  0.00     0.293 HD
ENDBRANCH  25  30
ENDBRANCH   9  22
ENDBRANCH   5   8
ENDBRANCH   3   4
ENDBRANCH   2   3
ENDBRANCH   1   2
BRANCH   1  32
ATOM     32  C   UNL A   1      38.540  24.292  26.675  1.00  0.00     0.116 C 
BRANCH  32  33
ATOM     33  N   UNL A   1      39.827  24.379  26.000  1.00  0.00    -0.352 N 
ATOM     34  C   UNL A   1      40.894  25.200  26.277  1.00  0.00     0.251 C 
ATOM     35  H   UNL A   1      39.950  23.765  25.240  1.00  0.00     0.163 HD
ATOM     36  O   UNL A   1      41.850  25.247  25.508  1.00  0.00    -0.269 OA
BRANCH  34  37
ATOM     37  C   UNL A   1      40.866  26.047  27.487  1.00  0.00     0.039 A 
ATOM     38  C   UNL A   1      41.779  27.098  27.598  1.00  0.00     0.014 A 
ATOM     39  C   UNL A   1      39.919  25.826  28.491  1.00  0.00     0.014 A 
ATOM     40  C   UNL A   1      41.695  27.971  28.685  1.00  0.00     0.010 A 
ATOM     41  C   UNL A   1      39.784  26.747  29.526  1.00  0.00     0.010 A 
ATOM     42  C   UNL A   1      40.670  27.828  29.637  1.00  0.00    -0.014 A 
BRANCH  42  43
ATOM     43  C   UNL A   1      40.512  28.799  30.750  1.00  0.00     0.031 A 
ATOM     44  C   UNL A   1      41.356  28.676  31.990  1.00  0.00     0.074 A 
ATOM     45  C   UNL A   1      39.567  29.759  30.669  1.00  0.00     0.049 A 
ATOM     46  N   UNL A   1      41.331  29.396  33.081  1.00  0.00    -0.248 NA
ATOM     47  C   UNL A   1      42.339  27.580  32.019  1.00  0.00     0.031 C 
ATOM     48  C   UNL A   1      38.648  29.950  29.544  1.00  0.00     0.029 A 
ATOM     49  N   UNL A   1      39.216  30.749  31.553  1.00  0.00    -0.354 N 
ATOM     50  C   UNL A   1      42.281  28.836  33.928  1.00  0.00     0.074 A 
ATOM     51  C   UNL A   1      42.821  27.679  33.248  1.00  0.00     0.031 C 
ATOM     52  C   UNL A   1      37.863  31.009  29.792  1.00  0.00     0.029 A 
ATOM     53  C   UNL A   1      38.187  31.548  31.109  1.00  0.00     0.049 A 
ATOM     54  H   UNL A   1      39.658  30.875  32.424  1.00  0.00     0.167 HD
ATOM     55  C   UNL A   1      42.686  29.261  35.149  1.00  0.00     0.037 A 
ATOM     56  C   UNL A   1      37.573  32.593  31.697  1.00  0.00     0.037 A 
ATOM     57  C   UNL A   1      42.157  30.426  35.810  1.00  0.00     0.049 A 
ATOM     58  C   UNL A   1      38.033  33.044  33.057  1.00  0.00     0.074 A 
ATOM     59  C   UNL A   1      42.541  30.975  37.020  1.00  0.00     0.029 A 
ATOM     60  N   UNL A   1      41.126  31.216  35.323  1.00  0.00    -0.354 N 
ATOM     61  N   UNL A   1      38.984  32.546  33.812  1.00  0.00    -0.248 NA
ATOM     62  C   UNL A   1      37.343  34.200  33.644  1.00  0.00     0.031 C 
ATOM     63  C   UNL A   1      41.708  32.066  37.291  1.00  0.00     0.029 A 
ATOM     64  C   UNL A   1      40.843  32.233  36.220  1.00  0.00     0.049 A 
ATOM     65  H   UNL A   1      40.663  31.075  34.465  1.00  0.00     0.167 HD
ATOM     66  C   UNL A   1      39.027  33.346  34.949  1.00  0.00     0.074 A 
ATOM     67  C   UNL A   1      38.013  34.367  34.776  1.00  0.00     0.031 C 
ATOM     68  C   UNL A   1      39.834  33.247  36.034  1.00  0.00     0.037 A 
BRANCH  55  69
ATOM     69  C   UNL A   1      43.752  28.460  35.848  1.00  0.00     0.058 A 
ATOM     70  C   UNL A   1      43.433  27.410  36.725  1.00  0.00     0.135 A 
ATOM     71  C   UNL A   1      45.111  28.727  35.619  1.00  0.00     0.135 A 
ATOM     72  F   UNL A   1      42.149  27.119  36.993  1.00  0.00    -0.206 F 
ATOM     73  C   UNL A   1      44.420  26.680  37.377  1.00  0.00     0.059 A 
ATOM     74  C   UNL A   1      46.117  27.987  36.236  1.00  0.00     0.059 A 
ATOM     75  F   UNL A   1      45.476  29.718  34.789  1.00  0.00    -0.206 F 
ATOM     76  C   UNL A   1      45.760  26.977  37.127  1.00  0.00     0.060 A 
BRANCH  76  77
ATOM     77  S   UNL A   1      47.029  26.022  37.985  1.00  0.00     0.124 S 
ATOM     78  O   UNL A   1      47.614  25.262  36.884  1.00  0.00    -0.237 OA
ATOM     79  O   UNL A   1      47.875  27.067  38.553  1.00  0.00    -0.237 OA
ATOM     80  O   UNL A   1      46.270  25.238  38.953  1.00  0.00    -0.744 OA
ENDBRANCH  76  77
ENDBRANCH  55  69
BRANCH  56  81
ATOM     81  C   UNL A   1      36.472  33.302  30.989  1.00  0.00     0.058 A 
ATOM     82  C   UNL A   1      35.140  33.173  31.412  1.00  0.00     0.135 A 
ATOM     83  C   UNL A   1      36.728  34.135  29.889  1.00  0.00     0.135 A 
ATOM     84  F   UNL A   1      34.843  32.382  32.455  1.00  0.00    -0.206 F 
ATOM     85  C   UNL A   1      34.101  33.832  30.763  1.00  0.00     0.059 A 
ATOM     86  C   UNL A   1      35.710  34.826  29.240  1.00  0.00     0.059 A 
ATOM     87  F   UNL A   1      37.986  34.307  29.453  1.00  0.00    -0.206 F 
ATOM     88  C   UNL A   1      34.397  34.661  29.681  1.00  0.00     0.060 A 
BRANCH  88  89
ATOM     89  S   UNL A   1      33.046  35.553  28.880  1.00  0.00     0.124 S 
ATOM     90  O   UNL A   1      33.772  36.550  28.103  1.00  0.00    -0.237 OA
ATOM     91  O   UNL A   1      32.394  34.495  28.114  1.00  0.00    -0.237 OA
ATOM     92  O   UNL A   1      32.271  36.069  30.005  1.00  0.00    -0.744 OA
ENDBRANCH  88  89
ENDBRANCH  56  81
BRANCH  68  93
ATOM     93  C   UNL A   1      39.683  34.288  37.110  1.00  0.00     0.058 A 
ATOM     94  C   UNL A   1      38.932  34.052  38.272  1.00  0.00     0.135 A 
ATOM     95  C   UNL A   1      40.346  35.523  37.000  1.00  0.00     0.135 A 
ATOM     96  F   UNL A   1      38.274  32.892  38.427  1.00  0.00    -0.206 F 
ATOM     97  C   UNL A   1      38.825  35.008  39.276  1.00  0.00     0.059 A 
ATOM     98  C   UNL A   1      40.277  36.483  38.004  1.00  0.00     0.059 A 
ATOM     99  F   UNL A   1      41.085  35.797  35.913  1.00  0.00    -0.206 F 
ATOM    100  C   UNL A   1      39.505  36.221  39.134  1.00  0.00     0.060 A 
BRANCH 100 101
ATOM    101  S   UNL A   1      39.385  37.439  40.460  1.00  0.00     0.124 S 
ATOM    102  O   UNL A   1      40.731  38.004  40.465  1.00  0.00    -0.237 OA
ATOM    103  O   UNL A   1      38.328  38.322  39.978  1.00  0.00    -0.237 OA
ATOM    104  O   UNL A   1      39.037  36.637  41.630  1.00  0.00    -0.744 OA
ENDBRANCH 100 101
ENDBRANCH  68  93
ENDBRANCH  42  43
ENDBRANCH  34  37
ENDBRANCH  32  33
ENDBRANCH   1  32
TORSDOF 17
ENDMDL
MODEL 3
REMARK VINA RESULT:     -12.2      3.021      9.474
REMARK SMILES COc1cccc([C@@H]2[NH2+][C@@](C)(C(=O)NCCCCNC(=O)c3ccc(-c4c5nc(c(-c6c(F)cc(S(=O)(=O)[O-])cc6F)c6ccc([nH]6)c(-c6c(F)cc(S(=O)(=O)[O-])cc6F)c6nc(c(-c7c(F)cc(S(=O)(=O)[O-])cc7F)c7ccc4[nH]7)C=C6)C=C5)cc3)[C@@H]3C(=O)N(C)C(=O)[C@@H]32)c1O
REMARK SMILES IDX 17 1 16 2 15 3 14 4 12 5 13 6 10 8 8 9 9 10 95 11 88 14
REMARK SMILES IDX 93 15 11 16 89 17 91 18 94 19 90 20 92 21 7 22 3 23 4 24
REMARK SMILES IDX 96 25 5 26 6 27 2 28 1 29 97 30 18 32 19 33 20 34 21 36
REMARK SMILES IDX 22 37 23 38 87 39 24 40 86 41 25 42 26 43 27 44 80 45 28 46
REMARK SMILES IDX 85 47 79 48 81 49 29 50 84 51 78 52 77 53 30 55 64 56 43 57
REMARK SMILES IDX 63 58 44 59 47 60 62 61 82 62 45 63 46 64 61 66 83 67 48 68
REMARK SMILES IDX 31 69 32 70 41 71 33 72 34 73 40 74 42 75 35 76 36 77 37 78
REMARK SMILES IDX 38 79 39 80 65 81 66 82 75 83 67 84 68 85 74 86 76 87 69 88
REMARK SMILES IDX 70 89 71 90 72 91 73 92 49 93 50 94 59 95 51 96 52 97 58 98
REMARK SMILES IDX 60 99 53 100 54 101 55 102 56 103 57 104
REMARK H PARENT 14 7 9 12 9 13 97 31 19 35 81 54 47 65
REMARK Flexibility Score: inf
ROOT
ATOM      1  C   UNL A   1      35.557  23.591  25.777  1.00  0.00     0.023 C 
ENDROOT
BRANCH   1   2
ATOM      2  C   UNL A   1      35.003  22.181  25.575  1.00  0.00     0.023 C 
BRANCH   2   3
ATOM      3  C   UNL A   1      33.722  22.119  24.751  1.00  0.00     0.116 C 
BRANCH   3   4
ATOM      4  N   UNL A   1      33.910  22.654  23.412  1.00  0.00    -0.351 N 
ATOM      5  C   UNL A   1      33.183  23.586  22.727  1.00  0.00     0.281 C 
ATOM      6  O   UNL A   1      33.518  23.820  21.562  1.00  0.00    -0.268 OA
ATOM      7  H   UNL A   1      34.682  22.289  22.923  1.00  0.00     0.163 HD
BRANCH   5   8
ATOM      8  C   UNL A   1      32.011  24.357  23.416  1.00  0.00     0.185 C 
ATOM      9  C   UNL A   1      31.782  26.625  22.594  1.00  0.00     0.232 C 
ATOM     10  N   UNL A   1      31.369  25.220  22.387  1.00  0.00    -0.326 N 
ATOM     11  C   UNL A   1      32.839  26.613  23.707  1.00  0.00     0.161 C 
ATOM     12  H   UNL A   1      31.660  24.914  21.458  1.00  0.00     0.347 HD
ATOM     13  H   UNL A   1      30.356  25.149  22.469  1.00  0.00     0.347 HD
ATOM     14  C   UNL A   1      32.585  25.317  24.465  1.00  0.00     0.169 C 
ATOM     15  C   UNL A   1      32.672  27.666  24.770  1.00  0.00     0.239 C 
ATOM     16  C   UNL A   1      31.075  23.293  24.015  1.00  0.00     0.091 C 
ATOM     17  C   UNL A   1      31.713  25.785  25.605  1.00  0.00     0.240 C 
ATOM     18  N   UNL A   1      31.958  27.115  25.800  1.00  0.00    -0.285 N 
ATOM     19  O   UNL A   1      33.046  28.822  24.681  1.00  0.00    -0.274 OA
ATOM     20  O   UNL A   1      30.921  25.113  26.251  1.00  0.00    -0.274 OA
ATOM     21  C   UNL A   1      31.412  27.897  26.881  1.00  0.00     0.156 C 
BRANCH   9  22
ATOM     22  C   UNL A   1      30.597  27.568  22.802  1.00  0.00     0.056 A 
ATOM     23  C   UNL A   1      29.418  29.687  22.427  1.00  0.00     0.161 A 
ATOM     24  C   UNL A   1      28.272  29.153  23.011  1.00  0.00     0.050 A 
ATOM     25  C   UNL A   1      30.580  28.911  22.377  1.00  0.00     0.166 A 
ATOM     26  C   UNL A   1      28.277  27.846  23.500  1.00  0.00     0.005 A 
ATOM     27  C   UNL A   1      29.423  27.055  23.381  1.00  0.00     0.014 A 
BRANCH  23  28
ATOM     28  O   UNL A   1      29.370  31.005  22.057  1.00  0.00    -0.493 OA
ATOM     29  C   UNL A   1      28.187  31.677  22.482  1.00  0.00     0.278 C 
ENDBRANCH  23  28
BRANCH  25  30
ATOM     30  O   UNL A   1      31.768  29.473  22.003  1.00  0.00    -0.504 OA
ATOM     31  H   UNL A   1      31.993  29.531  21.095  1.00  0.00     0.293 HD
ENDBRANCH  25  30
ENDBRANCH   9  22
ENDBRANCH   5   8
ENDBRANCH   3   4
ENDBRANCH   2   3
ENDBRANCH   1   2
BRANCH   1  32
ATOM     32  C   UNL A   1      36.881  23.870  25.074  1.00  0.00     0.116 C 
BRANCH  32  33
ATOM     33  N   UNL A   1      37.897  22.870  25.365  1.00  0.00    -0.352 N 
ATOM     34  C   UNL A   1      39.056  23.002  26.091  1.00  0.00     0.251 C 
ATOM     35  H   UNL A   1      37.731  21.974  24.990  1.00  0.00     0.163 HD
ATOM     36  O   UNL A   1      39.878  22.090  26.111  1.00  0.00    -0.269 OA
BRANCH  34  37
ATOM     37  C   UNL A   1      39.319  24.261  26.819  1.00  0.00     0.039 A 
ATOM     38  C   UNL A   1      38.788  24.425  28.100  1.00  0.00     0.014 A 
ATOM     39  C   UNL A   1      40.117  25.259  26.253  1.00  0.00     0.014 A 
ATOM     40  C   UNL A   1      39.116  25.563  28.840  1.00  0.00     0.010 A 
ATOM     41  C   UNL A   1      40.511  26.348  27.025  1.00  0.00     0.010 A 
ATOM     42  C   UNL A   1      40.013  26.515  28.326  1.00  0.00    -0.014 A 
BRANCH  42  43
ATOM     43  C   UNL A   1      40.443  27.685  29.134  1.00  0.00     0.031 A 
ATOM     44  C   UNL A   1      41.765  27.667  29.852  1.00  0.00     0.074 A 
ATOM     45  C   UNL A   1      39.615  28.742  29.271  1.00  0.00     0.049 A 
ATOM     46  N   UNL A   1      42.291  28.570  30.639  1.00  0.00    -0.248 NA
ATOM     47  C   UNL A   1      42.596  26.463  29.685  1.00  0.00     0.031 C 
ATOM     48  C   UNL A   1      38.283  28.857  28.671  1.00  0.00     0.029 A 
ATOM     49  N   UNL A   1      39.767  29.917  29.964  1.00  0.00    -0.354 N 
ATOM     50  C   UNL A   1      43.502  28.040  31.070  1.00  0.00     0.074 A 
ATOM     51  C   UNL A   1      43.605  26.713  30.505  1.00  0.00     0.031 C 
ATOM     52  C   UNL A   1      37.755  30.047  28.995  1.00  0.00     0.029 A 
ATOM     53  C   UNL A   1      38.687  30.763  29.861  1.00  0.00     0.049 A 
ATOM     54  H   UNL A   1      40.572  30.134  30.486  1.00  0.00     0.167 HD
ATOM     55  C   UNL A   1      44.453  28.617  31.842  1.00  0.00     0.037 A 
ATOM     56  C   UNL A   1      38.470  31.977  30.405  1.00  0.00     0.037 A 
ATOM     57  C   UNL A   1      44.352  29.948  32.384  1.00  0.00     0.049 A 
ATOM     58  C   UNL A   1      39.537  32.596  31.267  1.00  0.00     0.074 A 
ATOM     59  C   UNL A   1      45.286  30.646  33.128  1.00  0.00     0.029 A 
ATOM     60  N   UNL A   1      43.249  30.778  32.247  1.00  0.00    -0.354 N 
ATOM     61  N   UNL A   1      40.709  32.110  31.603  1.00  0.00    -0.248 NA
ATOM     62  C   UNL A   1      39.258  33.928  31.819  1.00  0.00     0.031 C 
ATOM     63  C   UNL A   1      44.728  31.877  33.486  1.00  0.00     0.029 A 
ATOM     64  C   UNL A   1      43.469  31.972  32.915  1.00  0.00     0.049 A 
ATOM     65  H   UNL A   1      42.430  30.553  31.748  1.00  0.00     0.167 HD
ATOM     66  C   UNL A   1      41.318  33.089  32.381  1.00  0.00     0.074 A 
ATOM     67  C   UNL A   1      40.390  34.198  32.454  1.00  0.00     0.031 C 
ATOM     68  C   UNL A   1      42.537  33.072  32.976  1.00  0.00     0.037 A 
BRANCH  55  69
ATOM     69  C   UNL A   1      45.687  27.809  32.149  1.00  0.00     0.058 A 
ATOM     70  C   UNL A   1      46.834  27.876  31.341  1.00  0.00     0.135 A 
ATOM     71  C   UNL A   1      45.733  26.978  33.279  1.00  0.00     0.135 A 
ATOM     72  F   UNL A   1      46.843  28.643  30.239  1.00  0.00    -0.206 F 
ATOM     73  C   UNL A   1      47.967  27.121  31.622  1.00  0.00     0.059 A 
ATOM     74  C   UNL A   1      46.869  26.238  33.598  1.00  0.00     0.059 A 
ATOM     75  F   UNL A   1      44.666  26.876  34.089  1.00  0.00    -0.206 F 
ATOM     76  C   UNL A   1      47.975  26.303  32.752  1.00  0.00     0.060 A 
BRANCH  76  77
ATOM     77  S   UNL A   1      49.453  25.327  33.100  1.00  0.00     0.124 S 
ATOM     78  O   UNL A   1      48.924  24.312  34.007  1.00  0.00    -0.237 OA
ATOM     79  O   UNL A   1      49.832  24.853  31.772  1.00  0.00    -0.237 OA
ATOM     80  O   UNL A   1      50.366  26.291  33.703  1.00  0.00    -0.744 OA
ENDBRANCH  76  77
ENDBRANCH  55  69
BRANCH  56  81
ATOM     81  C   UNL A   1      37.198  32.698  30.128  1.00  0.00     0.058 A 
ATOM     82  C   UNL A   1      37.117  33.654  29.105  1.00  0.00     0.135 A 
ATOM     83  C   UNL A   1      36.033  32.434  30.866  1.00  0.00     0.135 A 
ATOM     84  F   UNL A   1      38.206  33.947  28.375  1.00  0.00    -0.206 F 
ATOM     85  C   UNL A   1      35.935  34.334  28.831  1.00  0.00     0.059 A 
ATOM     86  C   UNL A   1      34.831  33.081  30.593  1.00  0.00     0.059 A 
ATOM     87  F   UNL A   1      36.050  31.517  31.846  1.00  0.00    -0.206 F 
ATOM     88  C   UNL A   1      34.795  34.036  29.578  1.00  0.00     0.060 A 
BRANCH  88  89
ATOM     89  S   UNL A   1      33.252  34.885  29.178  1.00  0.00     0.124 S 
ATOM     90  O   UNL A   1      32.654  33.970  28.212  1.00  0.00    -0.237 OA
ATOM     91  O   UNL A   1      32.597  34.957  30.481  1.00  0.00    -0.237 OA
ATOM     92  O   UNL A   1      33.703  36.165  28.640  1.00  0.00    -0.744 OA
ENDBRANCH  88  89
ENDBRANCH  56  81
BRANCH  68  93
ATOM     93  C   UNL A   1      42.958  34.303  33.734  1.00  0.00     0.058 A 
ATOM     94  C   UNL A   1      42.792  34.413  35.123  1.00  0.00     0.135 A 
ATOM     95  C   UNL A   1      43.588  35.365  33.063  1.00  0.00     0.135 A 
ATOM     96  F   UNL A   1      42.191  33.429  35.811  1.00  0.00    -0.206 F 
ATOM     97  C   UNL A   1      43.214  35.541  35.818  1.00  0.00     0.059 A 
ATOM     98  C   UNL A   1      44.045  36.490  33.743  1.00  0.00     0.059 A 
ATOM     99  F   UNL A   1      43.781  35.308  31.736  1.00  0.00    -0.206 F 
ATOM    100  C   UNL A   1      43.843  36.574  35.119  1.00  0.00     0.060 A 
BRANCH 100 101
ATOM    101  S   UNL A   1      44.416  38.017  36.040  1.00  0.00     0.124 S 
ATOM    102  O   UNL A   1      44.147  39.096  35.094  1.00  0.00    -0.237 OA
ATOM    103  O   UNL A   1      43.567  37.987  37.226  1.00  0.00    -0.237 OA
ATOM    104  O   UNL A   1      45.827  37.729  36.278  1.00  0.00    -0.744 OA
ENDBRANCH 100 101
ENDBRANCH  68  93
ENDBRANCH  42  43
ENDBRANCH  34  37
ENDBRANCH  32  33
ENDBRANCH   1  32
TORSDOF 17
ENDMDL
