MODEL 1
REMARK VINA RESULT:     -12.3      0.000      0.000
REMARK SMILES O=C(NCCCCNC(=O)[C@@]1([NH2+]C2CC2)CC[C@@H]([N@@H+]2CC[N@@H+]3CCC[C@@H]3C2)C1)c1ccc(-c2c3nc(c(-c4c(F)cc(S(=O)(=O)[O-])cc4F)c4ccc([nH]4)c(-c4c(F)cc(S(=O)(=O)[O-])cc4F)c4nc(c(-c5c(F)cc(S(=O)(=O)[O-])cc5F)c5ccc2[nH]5)C=C4)C=C3)cc1
REMARK SMILES IDX 5 1 4 2 3 3 1 4 2 5 29 7 30 8 94 9 31 10 93 11 32 12 33 13
REMARK SMILES IDX 34 14 87 15 35 16 92 17 86 18 88 19 36 20 91 21 85 22 84 23
REMARK SMILES IDX 37 25 71 26 50 27 70 28 51 29 54 30 69 31 89 32 52 33 53 34
REMARK SMILES IDX 68 36 90 37 55 38 38 39 39 40 48 41 40 42 41 43 47 44 49 45
REMARK SMILES IDX 42 46 43 47 44 48 45 49 46 50 72 51 73 52 82 53 74 54 75 55
REMARK SMILES IDX 81 56 83 57 76 58 77 59 78 60 79 61 80 62 56 63 57 64 66 65
REMARK SMILES IDX 58 66 59 67 65 68 67 69 60 70 61 71 62 72 63 73 64 74 6 75
REMARK SMILES IDX 7 76 8 77 9 78 10 80 11 81 16 82 28 83 17 84 18 85 12 86
REMARK SMILES IDX 13 89 14 90 15 91 19 92 20 93 27 94 21 96 26 97 22 98 25 99
REMARK SMILES IDX 23 100 24 102
REMARK H PARENT 3 6 88 24 54 35 8 79 12 87 12 88 19 95 22 101
REMARK Flexibility Score: inf
ROOT
ATOM      1  C   UNL A   1      37.343  23.664  25.749  1.00  0.00     0.023 C 
ENDROOT
BRANCH   1   2
ATOM      2  C   UNL A   1      38.525  24.084  26.619  1.00  0.00     0.116 C 
BRANCH   2   3
ATOM      3  N   UNL A   1      39.712  24.439  25.856  1.00  0.00    -0.352 N 
ATOM      4  O   UNL A   1      41.554  25.584  25.254  1.00  0.00    -0.269 OA
ATOM      5  C   UNL A   1      40.698  25.370  26.104  1.00  0.00     0.251 C 
ATOM      6  H   UNL A   1      39.831  23.929  25.021  1.00  0.00     0.163 HD
BRANCH   5   7
ATOM      7  C   UNL A   1      40.704  26.143  27.370  1.00  0.00     0.039 A 
ATOM      8  C   UNL A   1      39.885  25.788  28.440  1.00  0.00     0.014 A 
ATOM      9  C   UNL A   1      41.552  27.249  27.488  1.00  0.00     0.014 A 
ATOM     10  C   UNL A   1      39.752  26.648  29.525  1.00  0.00     0.010 A 
ATOM     11  C   UNL A   1      41.496  28.057  28.631  1.00  0.00     0.010 A 
ATOM     12  C   UNL A   1      40.550  27.799  29.634  1.00  0.00    -0.014 A 
BRANCH  12  13
ATOM     13  C   UNL A   1      40.369  28.703  30.805  1.00  0.00     0.031 A 
ATOM     14  C   UNL A   1      41.283  28.620  32.001  1.00  0.00     0.074 A 
ATOM     15  C   UNL A   1      39.408  29.649  30.761  1.00  0.00     0.049 A 
ATOM     16  N   UNL A   1      41.310  29.376  33.072  1.00  0.00    -0.248 NA
ATOM     17  C   UNL A   1      42.292  27.548  32.006  1.00  0.00     0.031 C 
ATOM     18  C   UNL A   1      38.448  29.823  29.668  1.00  0.00     0.029 A 
ATOM     19  N   UNL A   1      39.100  30.660  31.636  1.00  0.00    -0.354 N 
ATOM     20  C   UNL A   1      42.312  28.857  33.885  1.00  0.00     0.074 A 
ATOM     21  C   UNL A   1      42.855  27.707  33.196  1.00  0.00     0.031 C 
ATOM     22  C   UNL A   1      37.704  30.914  29.905  1.00  0.00     0.029 A 
ATOM     23  C   UNL A   1      38.092  31.483  31.192  1.00  0.00     0.049 A 
ATOM     24  H   UNL A   1      39.557  30.784  32.499  1.00  0.00     0.167 HD
ATOM     25  C   UNL A   1      42.745  29.301  35.091  1.00  0.00     0.037 A 
ATOM     26  C   UNL A   1      37.536  32.573  31.753  1.00  0.00     0.037 A 
ATOM     27  C   UNL A   1      42.226  30.468  35.760  1.00  0.00     0.049 A 
ATOM     28  C   UNL A   1      38.044  33.054  33.082  1.00  0.00     0.074 A 
ATOM     29  C   UNL A   1      42.635  31.025  36.960  1.00  0.00     0.029 A 
ATOM     30  N   UNL A   1      41.189  31.259  35.287  1.00  0.00    -0.354 N 
ATOM     31  N   UNL A   1      39.014  32.566  33.818  1.00  0.00    -0.248 NA
ATOM     32  C   UNL A   1      37.380  34.230  33.659  1.00  0.00     0.031 C 
ATOM     33  C   UNL A   1      41.818  32.130  37.232  1.00  0.00     0.029 A 
ATOM     34  C   UNL A   1      40.930  32.287  36.181  1.00  0.00     0.049 A 
ATOM     35  H   UNL A   1      40.706  31.111  34.442  1.00  0.00     0.167 HD
ATOM     36  C   UNL A   1      39.090  33.387  34.936  1.00  0.00     0.074 A 
ATOM     37  C   UNL A   1      38.077  34.411  34.772  1.00  0.00     0.031 C 
ATOM     38  C   UNL A   1      39.921  33.300  36.004  1.00  0.00     0.037 A 
BRANCH  25  39
ATOM     39  C   UNL A   1      43.827  28.513  35.780  1.00  0.00     0.058 A 
ATOM     40  C   UNL A   1      45.188  28.789  35.584  1.00  0.00     0.135 A 
ATOM     41  C   UNL A   1      43.491  27.492  36.685  1.00  0.00     0.135 A 
ATOM     42  F   UNL A   1      45.566  29.747  34.721  1.00  0.00    -0.206 F 
ATOM     43  C   UNL A   1      46.180  28.062  36.234  1.00  0.00     0.059 A 
ATOM     44  C   UNL A   1      44.467  26.767  37.366  1.00  0.00     0.059 A 
ATOM     45  F   UNL A   1      42.205  27.188  36.915  1.00  0.00    -0.206 F 
ATOM     46  C   UNL A   1      45.810  27.050  37.122  1.00  0.00     0.060 A 
BRANCH  46  47
ATOM     47  S   UNL A   1      47.107  26.110  37.955  1.00  0.00     0.124 S 
ATOM     48  O   UNL A   1      47.193  26.808  39.235  1.00  0.00    -0.237 OA
ATOM     49  O   UNL A   1      46.540  24.767  38.004  1.00  0.00    -0.237 OA
ATOM     50  O   UNL A   1      48.261  26.268  37.076  1.00  0.00    -0.744 OA
ENDBRANCH  46  47
ENDBRANCH  25  39
BRANCH  26  51
ATOM     51  C   UNL A   1      36.446  33.292  31.045  1.00  0.00     0.058 A 
ATOM     52  C   UNL A   1      35.117  33.204  31.484  1.00  0.00     0.135 A 
ATOM     53  C   UNL A   1      36.715  34.107  29.933  1.00  0.00     0.135 A 
ATOM     54  F   UNL A   1      34.811  32.436  32.541  1.00  0.00    -0.206 F 
ATOM     55  C   UNL A   1      34.091  33.888  30.842  1.00  0.00     0.059 A 
ATOM     56  C   UNL A   1      35.711  34.821  29.291  1.00  0.00     0.059 A 
ATOM     57  F   UNL A   1      37.974  34.236  29.485  1.00  0.00    -0.206 F 
ATOM     58  C   UNL A   1      34.399  34.698  29.747  1.00  0.00     0.060 A 
BRANCH  58  59
ATOM     59  S   UNL A   1      33.072  35.631  28.954  1.00  0.00     0.124 S 
ATOM     60  O   UNL A   1      33.819  36.686  28.280  1.00  0.00    -0.237 OA
ATOM     61  O   UNL A   1      32.462  34.626  28.089  1.00  0.00    -0.237 OA
ATOM     62  O   UNL A   1      32.247  36.059  30.080  1.00  0.00    -0.744 OA
ENDBRANCH  58  59
ENDBRANCH  26  51
BRANCH  38  63
ATOM     63  C   UNL A   1      39.791  34.361  37.060  1.00  0.00     0.058 A 
ATOM     64  C   UNL A   1      38.986  34.176  38.195  1.00  0.00     0.135 A 
ATOM     65  C   UNL A   1      40.497  35.569  36.946  1.00  0.00     0.135 A 
ATOM     66  F   UNL A   1      38.284  33.041  38.348  1.00  0.00    -0.206 F 
ATOM     67  C   UNL A   1      38.859  35.165  39.164  1.00  0.00     0.059 A 
ATOM     68  C   UNL A   1      40.406  36.561  37.916  1.00  0.00     0.059 A 
ATOM     69  F   UNL A   1      41.290  35.790  35.885  1.00  0.00    -0.206 F 
ATOM     70  C   UNL A   1      39.572  36.357  39.014  1.00  0.00     0.060 A 
BRANCH  70  71
ATOM     71  S   UNL A   1      39.412  37.632  40.282  1.00  0.00     0.124 S 
ATOM     72  O   UNL A   1      40.787  38.104  40.399  1.00  0.00    -0.237 OA
ATOM     73  O   UNL A   1      38.471  38.566  39.674  1.00  0.00    -0.237 OA
ATOM     74  O   UNL A   1      38.900  36.897  41.435  1.00  0.00    -0.744 OA
ENDBRANCH  70  71
ENDBRANCH  38  63
ENDBRANCH  12  13
ENDBRANCH   5   7
ENDBRANCH   2   3
ENDBRANCH   1   2
BRANCH   1  75
ATOM     75  C   UNL A   1      37.392  22.241  25.189  1.00  0.00     0.023 C 
BRANCH  75  76
ATOM     76  C   UNL A   1      36.126  21.407  25.371  1.00  0.00     0.116 C 
BRANCH  76  77
ATOM     77  N   UNL A   1      35.453  21.617  26.638  1.00  0.00    -0.351 N 
ATOM     78  C   UNL A   1      34.125  21.862  26.865  1.00  0.00     0.281 C 
ATOM     79  H   UNL A   1      36.025  21.578  27.438  1.00  0.00     0.163 HD
ATOM     80  O   UNL A   1      33.742  21.781  28.037  1.00  0.00    -0.268 OA
BRANCH  78  81
ATOM     81  C   UNL A   1      33.172  22.335  25.734  1.00  0.00     0.181 C 
ATOM     82  C   UNL A   1      31.740  22.614  26.231  1.00  0.00     0.085 C 
ATOM     83  C   UNL A   1      33.621  23.773  25.340  1.00  0.00     0.144 C 
ATOM     84  C   UNL A   1      31.181  23.614  25.227  1.00  0.00     0.072 C 
ATOM     85  C   UNL A   1      32.353  24.566  24.942  1.00  0.00     0.191 C 
BRANCH  81  86
ATOM     86  N   UNL A   1      33.161  21.461  24.535  1.00  0.00    -0.331 N 
ATOM     87  H   UNL A   1      34.138  21.288  24.299  1.00  0.00     0.347 HD
ATOM     88  H   UNL A   1      32.584  21.994  23.884  1.00  0.00     0.347 HD
BRANCH  86  89
ATOM     89  C   UNL A   1      32.498  20.152  24.541  1.00  0.00     0.183 C 
ATOM     90  C   UNL A   1      32.498  19.168  23.409  1.00  0.00     0.071 C 
ATOM     91  C   UNL A   1      33.273  18.872  24.660  1.00  0.00     0.071 C 
ENDBRANCH  86  89
ENDBRANCH  81  86
BRANCH  85  92
ATOM     92  N   UNL A   1      32.189  25.879  25.576  1.00  0.00    -0.323 N 
ATOM     93  C   UNL A   1      31.158  26.736  24.958  1.00  0.00     0.324 C 
ATOM     94  C   UNL A   1      33.407  26.634  25.889  1.00  0.00     0.328 C 
ATOM     95  H   UNL A   1      31.839  25.593  26.491  1.00  0.00     0.348 HD
ATOM     96  C   UNL A   1      31.424  28.270  25.024  1.00  0.00     0.324 C 
ATOM     97  C   UNL A   1      33.064  27.840  26.789  1.00  0.00     0.240 C 
ATOM     98  N   UNL A   1      32.001  28.739  26.290  1.00  0.00    -0.323 N 
ATOM     99  C   UNL A   1      34.276  28.726  27.070  1.00  0.00     0.077 C 
ATOM    100  C   UNL A   1      32.557  30.092  26.196  1.00  0.00     0.263 C 
ATOM    101  H   UNL A   1      31.217  28.743  26.943  1.00  0.00     0.348 HD
ATOM    102  C   UNL A   1      33.670  30.106  27.229  1.00  0.00     0.068 C 
ENDBRANCH  85  92
ENDBRANCH  78  81
ENDBRANCH  76  77
ENDBRANCH  75  76
ENDBRANCH   1  75
TORSDOF 17
ENDMDL
MODEL 2
REMARK VINA RESULT:     -11.9      6.668     12.332
REMARK SMILES O=C(NCCCCNC(=O)[C@@]1([NH2+]C2CC2)CC[C@@H]([N@@H+]2CC[N@@H+]3CCC[C@@H]3C2)C1)c1ccc(-c2c3nc(c(-c4c(F)cc(S(=O)(=O)[O-])cc4F)c4ccc([nH]4)c(-c4c(F)cc(S(=O)(=O)[O-])cc4F)c4nc(c(-c5c(F)cc(S(=O)(=O)[O-])cc5F)c5ccc2[nH]5)C=C4)C=C3)cc1
REMARK SMILES IDX 5 1 4 2 3 3 1 4 2 5 29 7 30 8 94 9 31 10 93 11 32 12 33 13
REMARK SMILES IDX 34 14 87 15 35 16 92 17 86 18 88 19 36 20 91 21 85 22 84 23
REMARK SMILES IDX 37 25 71 26 50 27 70 28 51 29 54 30 69 31 89 32 52 33 53 34
REMARK SMILES IDX 68 36 90 37 55 38 38 39 39 40 48 41 40 42 41 43 47 44 49 45
REMARK SMILES IDX 42 46 43 47 44 48 45 49 46 50 72 51 73 52 82 53 74 54 75 55
REMARK SMILES IDX 81 56 83 57 76 58 77 59 78 60 79 61 80 62 56 63 57 64 66 65
REMARK SMILES IDX 58 66 59 67 65 68 67 69 60 70 61 71 62 72 63 73 64 74 6 75
REMARK SMILES IDX 7 76 8 77 9 78 10 80 11 81 16 82 28 83 17 84 18 85 12 86
REMARK SMILES IDX 13 89 14 90 15 91 19 92 20 93 27 94 21 96 26 97 22 98 25 99
REMARK SMILES IDX 23 100 24 102
REMARK H PARENT 3 6 88 24 54 35 8 79 12 87 12 88 19 95 22 101
REMARK Flexibility Score: inf
ROOT
ATOM      1  C   UNL A   1      34.014  29.802  27.065  1.00  0.00     0.023 C 
ENDROOT
BRANCH   1   2
ATOM      2  C   UNL A   1      35.393  29.751  27.718  1.00  0.00     0.116 C 
BRANCH   2   3
ATOM      3  N   UNL A   1      35.362  29.951  29.159  1.00  0.00    -0.352 N 
ATOM      4  O   UNL A   1      36.104  30.021  31.283  1.00  0.00    -0.269 OA
ATOM      5  C   UNL A   1      36.378  29.945  30.091  1.00  0.00     0.251 C 
ATOM      6  H   UNL A   1      34.466  30.120  29.531  1.00  0.00     0.163 HD
BRANCH   5   7
ATOM      7  C   UNL A   1      37.791  29.801  29.666  1.00  0.00     0.039 A 
ATOM      8  C   UNL A   1      38.172  29.992  28.340  1.00  0.00     0.014 A 
ATOM      9  C   UNL A   1      38.759  29.468  30.620  1.00  0.00     0.014 A 
ATOM     10  C   UNL A   1      39.455  29.644  27.930  1.00  0.00     0.010 A 
ATOM     11  C   UNL A   1      40.079  29.221  30.224  1.00  0.00     0.010 A 
ATOM     12  C   UNL A   1      40.426  29.246  28.865  1.00  0.00    -0.014 A 
BRANCH  12  13
ATOM     13  C   UNL A   1      41.785  28.867  28.386  1.00  0.00     0.031 A 
ATOM     14  C   UNL A   1      42.919  29.861  28.396  1.00  0.00     0.074 A 
ATOM     15  C   UNL A   1      42.013  27.596  27.998  1.00  0.00     0.049 A 
ATOM     16  N   UNL A   1      44.178  29.678  28.080  1.00  0.00    -0.248 NA
ATOM     17  C   UNL A   1      42.603  31.241  28.799  1.00  0.00     0.031 C 
ATOM     18  C   UNL A   1      40.998  26.542  27.929  1.00  0.00     0.029 A 
ATOM     19  N   UNL A   1      43.172  26.963  27.623  1.00  0.00    -0.354 N 
ATOM     20  C   UNL A   1      44.795  30.918  28.220  1.00  0.00     0.074 A 
ATOM     21  C   UNL A   1      43.768  31.852  28.625  1.00  0.00     0.031 C 
ATOM     22  C   UNL A   1      41.588  25.383  27.600  1.00  0.00     0.029 A 
ATOM     23  C   UNL A   1      43.010  25.620  27.378  1.00  0.00     0.049 A 
ATOM     24  H   UNL A   1      44.036  27.427  27.537  1.00  0.00     0.167 HD
ATOM     25  C   UNL A   1      46.097  31.246  28.035  1.00  0.00     0.037 A 
ATOM     26  C   UNL A   1      43.902  24.680  27.013  1.00  0.00     0.037 A 
ATOM     27  C   UNL A   1      47.126  30.307  27.665  1.00  0.00     0.049 A 
ATOM     28  C   UNL A   1      45.342  25.066  26.829  1.00  0.00     0.074 A 
ATOM     29  C   UNL A   1      48.482  30.535  27.503  1.00  0.00     0.029 A 
ATOM     30  N   UNL A   1      46.916  28.961  27.402  1.00  0.00    -0.354 N 
ATOM     31  N   UNL A   1      45.907  26.238  26.998  1.00  0.00    -0.248 NA
ATOM     32  C   UNL A   1      46.263  24.005  26.403  1.00  0.00     0.031 C 
ATOM     33  C   UNL A   1      49.086  29.336  27.103  1.00  0.00     0.029 A 
ATOM     34  C   UNL A   1      48.113  28.351  27.060  1.00  0.00     0.049 A 
ATOM     35  H   UNL A   1      46.045  28.506  27.451  1.00  0.00     0.167 HD
ATOM     36  C   UNL A   1      47.256  26.050  26.716  1.00  0.00     0.074 A 
ATOM     37  C   UNL A   1      47.421  24.650  26.381  1.00  0.00     0.031 C 
ATOM     38  C   UNL A   1      48.264  26.956  26.731  1.00  0.00     0.037 A 
BRANCH  25  39
ATOM     39  C   UNL A   1      46.488  32.689  28.212  1.00  0.00     0.058 A 
ATOM     40  C   UNL A   1      46.365  33.625  27.174  1.00  0.00     0.135 A 
ATOM     41  C   UNL A   1      46.954  33.150  29.455  1.00  0.00     0.135 A 
ATOM     42  F   UNL A   1      45.936  33.237  25.962  1.00  0.00    -0.206 F 
ATOM     43  C   UNL A   1      46.719  34.959  27.351  1.00  0.00     0.059 A 
ATOM     44  C   UNL A   1      47.290  34.485  29.662  1.00  0.00     0.059 A 
ATOM     45  F   UNL A   1      47.087  32.299  30.485  1.00  0.00    -0.206 F 
ATOM     46  C   UNL A   1      47.184  35.380  28.598  1.00  0.00     0.060 A 
BRANCH  46  47
ATOM     47  S   UNL A   1      47.644  37.113  28.813  1.00  0.00     0.124 S 
ATOM     48  O   UNL A   1      47.456  37.632  27.461  1.00  0.00    -0.237 OA
ATOM     49  O   UNL A   1      46.681  37.573  29.807  1.00  0.00    -0.237 OA
ATOM     50  O   UNL A   1      49.028  37.043  29.271  1.00  0.00    -0.744 OA
ENDBRANCH  46  47
ENDBRANCH  25  39
BRANCH  26  51
ATOM     51  C   UNL A   1      43.456  23.277  26.816  1.00  0.00     0.058 A 
ATOM     52  C   UNL A   1      43.360  22.722  25.532  1.00  0.00     0.135 A 
ATOM     53  C   UNL A   1      43.145  22.453  27.910  1.00  0.00     0.135 A 
ATOM     54  F   UNL A   1      43.643  23.472  24.455  1.00  0.00    -0.206 F 
ATOM     55  C   UNL A   1      42.962  21.404  25.335  1.00  0.00     0.059 A 
ATOM     56  C   UNL A   1      42.770  21.125  27.741  1.00  0.00     0.059 A 
ATOM     57  F   UNL A   1      43.237  22.933  29.160  1.00  0.00    -0.206 F 
ATOM     58  C   UNL A   1      42.672  20.611  26.448  1.00  0.00     0.060 A 
BRANCH  58  59
ATOM     59  S   UNL A   1      42.215  18.884  26.191  1.00  0.00     0.124 S 
ATOM     60  O   UNL A   1      42.478  18.313  27.506  1.00  0.00    -0.237 OA
ATOM     61  O   UNL A   1      40.810  18.991  25.809  1.00  0.00    -0.237 OA
ATOM     62  O   UNL A   1      43.114  18.456  25.123  1.00  0.00    -0.744 OA
ENDBRANCH  58  59
ENDBRANCH  26  51
BRANCH  38  63
ATOM     63  C   UNL A   1      49.642  26.451  26.408  1.00  0.00     0.058 A 
ATOM     64  C   UNL A   1      50.158  26.501  25.104  1.00  0.00     0.135 A 
ATOM     65  C   UNL A   1      50.464  25.930  27.420  1.00  0.00     0.135 A 
ATOM     66  F   UNL A   1      49.409  26.983  24.098  1.00  0.00    -0.206 F 
ATOM     67  C   UNL A   1      51.429  26.022  24.807  1.00  0.00     0.059 A 
ATOM     68  C   UNL A   1      51.748  25.469  27.151  1.00  0.00     0.059 A 
ATOM     69  F   UNL A   1      50.022  25.871  28.686  1.00  0.00    -0.206 F 
ATOM     70  C   UNL A   1      52.217  25.504  25.838  1.00  0.00     0.060 A 
BRANCH  70  71
ATOM     71  S   UNL A   1      53.870  24.895  25.447  1.00  0.00     0.124 S 
ATOM     72  O   UNL A   1      54.243  25.754  24.329  1.00  0.00    -0.237 OA
ATOM     73  O   UNL A   1      54.595  25.126  26.693  1.00  0.00    -0.237 OA
ATOM     74  O   UNL A   1      53.643  23.492  25.113  1.00  0.00    -0.744 OA
ENDBRANCH  70  71
ENDBRANCH  38  63
ENDBRANCH  12  13
ENDBRANCH   5   7
ENDBRANCH   2   3
ENDBRANCH   1   2
BRANCH   1  75
ATOM     75  C   UNL A   1      33.042  28.687  27.457  1.00  0.00     0.023 C 
BRANCH  75  76
ATOM     76  C   UNL A   1      32.941  27.516  26.482  1.00  0.00     0.116 C 
BRANCH  76  77
ATOM     77  N   UNL A   1      31.866  26.588  26.776  1.00  0.00    -0.351 N 
ATOM     78  C   UNL A   1      31.608  25.374  26.198  1.00  0.00     0.281 C 
ATOM     79  H   UNL A   1      31.242  26.868  27.485  1.00  0.00     0.163 HD
ATOM     80  O   UNL A   1      30.776  24.659  26.765  1.00  0.00    -0.268 OA
BRANCH  78  81
ATOM     81  C   UNL A   1      32.234  24.964  24.837  1.00  0.00     0.181 C 
ATOM     82  C   UNL A   1      33.724  24.585  24.951  1.00  0.00     0.085 C 
ATOM     83  C   UNL A   1      31.619  23.586  24.457  1.00  0.00     0.144 C 
ATOM     84  C   UNL A   1      33.967  23.655  23.768  1.00  0.00     0.072 C 
ATOM     85  C   UNL A   1      32.705  22.781  23.704  1.00  0.00     0.191 C 
BRANCH  81  86
ATOM     86  N   UNL A   1      32.013  25.939  23.741  1.00  0.00    -0.331 N 
ATOM     87  H   UNL A   1      32.592  25.628  22.961  1.00  0.00     0.347 HD
ATOM     88  H   UNL A   1      32.231  26.827  24.193  1.00  0.00     0.347 HD
BRANCH  86  89
ATOM     89  C   UNL A   1      30.677  26.190  23.189  1.00  0.00     0.183 C 
ATOM     90  C   UNL A   1      29.551  26.876  23.903  1.00  0.00     0.071 C 
ATOM     91  C   UNL A   1      30.241  27.561  22.759  1.00  0.00     0.071 C 
ENDBRANCH  86  89
ENDBRANCH  81  86
BRANCH  85  92
ATOM     92  N   UNL A   1      32.937  21.411  24.179  1.00  0.00    -0.323 N 
ATOM     93  C   UNL A   1      34.161  21.239  24.985  1.00  0.00     0.324 C 
ATOM     94  C   UNL A   1      32.767  20.324  23.209  1.00  0.00     0.328 C 
ATOM     95  H   UNL A   1      32.141  21.303  24.808  1.00  0.00     0.348 HD
ATOM     96  C   UNL A   1      34.855  19.848  24.873  1.00  0.00     0.324 C 
ATOM     97  C   UNL A   1      32.775  18.962  23.936  1.00  0.00     0.240 C 
ATOM     98  N   UNL A   1      33.934  18.705  24.818  1.00  0.00    -0.323 N 
ATOM     99  C   UNL A   1      32.702  17.781  22.971  1.00  0.00     0.077 C 
ATOM    100  C   UNL A   1      34.584  17.471  24.366  1.00  0.00     0.263 C 
ATOM    101  H   UNL A   1      33.617  18.585  25.779  1.00  0.00     0.348 HD
ATOM    102  C   UNL A   1      33.467  16.691  23.694  1.00  0.00     0.068 C 
ENDBRANCH  85  92
ENDBRANCH  78  81
ENDBRANCH  76  77
ENDBRANCH  75  76
ENDBRANCH   1  75
TORSDOF 17
ENDMDL
MODEL 3
REMARK VINA RESULT:     -11.8      5.069     10.180
REMARK SMILES O=C(NCCCCNC(=O)[C@@]1([NH2+]C2CC2)CC[C@@H]([N@@H+]2CC[N@@H+]3CCC[C@@H]3C2)C1)c1ccc(-c2c3nc(c(-c4c(F)cc(S(=O)(=O)[O-])cc4F)c4ccc([nH]4)c(-c4c(F)cc(S(=O)(=O)[O-])cc4F)c4nc(c(-c5c(F)cc(S(=O)(=O)[O-])cc5F)c5ccc2[nH]5)C=C4)C=C3)cc1
REMARK SMILES IDX 5 1 4 2 3 3 1 4 2 5 29 7 30 8 94 9 31 10 93 11 32 12 33 13
REMARK SMILES IDX 34 14 87 15 35 16 92 17 86 18 88 19 36 20 91 21 85 22 84 23
REMARK SMILES IDX 37 25 71 26 50 27 70 28 51 29 54 30 69 31 89 32 52 33 53 34
REMARK SMILES IDX 68 36 90 37 55 38 38 39 39 40 48 41 40 42 41 43 47 44 49 45
REMARK SMILES IDX 42 46 43 47 44 48 45 49 46 50 72 51 73 52 82 53 74 54 75 55
REMARK SMILES IDX 81 56 83 57 76 58 77 59 78 60 79 61 80 62 56 63 57 64 66 65
REMARK SMILES IDX 58 66 59 67 65 68 67 69 60 70 61 71 62 72 63 73 64 74 6 75
REMARK SMILES IDX 7 76 8 77 9 78 10 80 11 81 16 82 28 83 17 84 18 85 12 86
REMARK SMILES IDX 13 89 14 90 15 91 19 92 20 93 27 94 21 96 26 97 22 98 25 99
REMARK SMILES IDX 23 100 24 102
REMARK H PARENT 3 6 88 24 54 35 8 79 12 87 12 88 19 95 22 101
REMARK Flexibility Score: inf
ROOT
ATOM      1  C   UNL A   1      32.229  27.797  27.467  1.00  0.00     0.023 C 
ENDROOT
BRANCH   1   2
ATOM      2  C   UNL A   1      33.524  28.554  27.184  1.00  0.00     0.116 C 
BRANCH   2   3
ATOM      3  N   UNL A   1      33.503  29.934  27.646  1.00  0.00    -0.352 N 
ATOM      4  O   UNL A   1      34.204  31.816  28.662  1.00  0.00    -0.269 OA
ATOM      5  C   UNL A   1      34.482  30.699  28.245  1.00  0.00     0.251 C 
ATOM      6  H   UNL A   1      32.647  30.401  27.507  1.00  0.00     0.163 HD
BRANCH   5   7
ATOM      7  C   UNL A   1      35.852  30.161  28.428  1.00  0.00     0.039 A 
ATOM      8  C   UNL A   1      36.282  29.679  29.663  1.00  0.00     0.014 A 
ATOM      9  C   UNL A   1      36.726  30.139  27.337  1.00  0.00     0.014 A 
ATOM     10  C   UNL A   1      37.627  29.383  29.860  1.00  0.00     0.010 A 
ATOM     11  C   UNL A   1      38.057  29.737  27.512  1.00  0.00     0.010 A 
ATOM     12  C   UNL A   1      38.536  29.415  28.790  1.00  0.00    -0.014 A 
BRANCH  12  13
ATOM     13  C   UNL A   1      39.971  29.105  29.044  1.00  0.00     0.031 A 
ATOM     14  C   UNL A   1      40.566  27.780  28.637  1.00  0.00     0.074 A 
ATOM     15  C   UNL A   1      40.760  30.053  29.590  1.00  0.00     0.049 A 
ATOM     16  N   UNL A   1      41.809  27.374  28.720  1.00  0.00    -0.248 NA
ATOM     17  C   UNL A   1      39.650  26.774  28.076  1.00  0.00     0.031 C 
ATOM     18  C   UNL A   1      40.305  31.370  30.041  1.00  0.00     0.029 A 
ATOM     19  N   UNL A   1      42.111  30.072  29.828  1.00  0.00    -0.354 N 
ATOM     20  C   UNL A   1      41.820  26.065  28.250  1.00  0.00     0.074 A 
ATOM     21  C   UNL A   1      40.455  25.734  27.905  1.00  0.00     0.031 C 
ATOM     22  C   UNL A   1      41.363  32.091  30.439  1.00  0.00     0.029 A 
ATOM     23  C   UNL A   1      42.565  31.270  30.327  1.00  0.00     0.049 A 
ATOM     24  H   UNL A   1      42.700  29.301  29.659  1.00  0.00     0.167 HD
ATOM     25  C   UNL A   1      42.871  25.219  28.111  1.00  0.00     0.037 A 
ATOM     26  C   UNL A   1      43.807  31.669  30.661  1.00  0.00     0.037 A 
ATOM     27  C   UNL A   1      44.236  25.563  28.422  1.00  0.00     0.049 A 
ATOM     28  C   UNL A   1      44.956  30.719  30.484  1.00  0.00     0.074 A 
ATOM     29  C   UNL A   1      45.375  24.791  28.268  1.00  0.00     0.029 A 
ATOM     30  N   UNL A   1      44.649  26.779  28.948  1.00  0.00    -0.354 N 
ATOM     31  N   UNL A   1      44.946  29.497  30.007  1.00  0.00    -0.248 NA
ATOM     32  C   UNL A   1      46.282  31.199  30.892  1.00  0.00     0.031 C 
ATOM     33  C   UNL A   1      46.471  25.525  28.738  1.00  0.00     0.029 A 
ATOM     34  C   UNL A   1      46.021  26.770  29.143  1.00  0.00     0.049 A 
ATOM     35  H   UNL A   1      44.054  27.536  29.154  1.00  0.00     0.167 HD
ATOM     36  C   UNL A   1      46.268  29.069  30.041  1.00  0.00     0.074 A 
ATOM     37  C   UNL A   1      47.050  30.168  30.570  1.00  0.00     0.031 C 
ATOM     38  C   UNL A   1      46.787  27.872  29.669  1.00  0.00     0.037 A 
BRANCH  25  39
ATOM     39  C   UNL A   1      42.588  23.827  27.615  1.00  0.00     0.058 A 
ATOM     40  C   UNL A   1      42.462  23.536  26.248  1.00  0.00     0.135 A 
ATOM     41  C   UNL A   1      42.483  22.759  28.522  1.00  0.00     0.135 A 
ATOM     42  F   UNL A   1      42.541  24.520  25.337  1.00  0.00    -0.206 F 
ATOM     43  C   UNL A   1      42.211  22.243  25.798  1.00  0.00     0.059 A 
ATOM     44  C   UNL A   1      42.257  21.453  28.093  1.00  0.00     0.059 A 
ATOM     45  F   UNL A   1      42.600  22.978  29.841  1.00  0.00    -0.206 F 
ATOM     46  C   UNL A   1      42.106  21.208  26.729  1.00  0.00     0.060 A 
BRANCH  46  47
ATOM     47  S   UNL A   1      41.775  19.536  26.134  1.00  0.00     0.124 S 
ATOM     48  O   UNL A   1      42.111  18.738  27.310  1.00  0.00    -0.237 OA
ATOM     49  O   UNL A   1      40.358  19.598  25.794  1.00  0.00    -0.237 OA
ATOM     50  O   UNL A   1      42.683  19.392  24.999  1.00  0.00    -0.744 OA
ENDBRANCH  46  47
ENDBRANCH  25  39
BRANCH  26  51
ATOM     51  C   UNL A   1      44.024  33.044  31.181  1.00  0.00     0.058 A 
ATOM     52  C   UNL A   1      44.337  34.103  30.316  1.00  0.00     0.135 A 
ATOM     53  C   UNL A   1      43.893  33.332  32.549  1.00  0.00     0.135 A 
ATOM     54  F   UNL A   1      44.476  33.876  29.001  1.00  0.00    -0.206 F 
ATOM     55  C   UNL A   1      44.524  35.398  30.789  1.00  0.00     0.059 A 
ATOM     56  C   UNL A   1      44.049  34.623  33.041  1.00  0.00     0.059 A 
ATOM     57  F   UNL A   1      43.578  32.356  33.413  1.00  0.00    -0.206 F 
ATOM     58  C   UNL A   1      44.374  35.648  32.154  1.00  0.00     0.060 A 
BRANCH  58  59
ATOM     59  S   UNL A   1      44.558  37.342  32.753  1.00  0.00     0.124 S 
ATOM     60  O   UNL A   1      43.967  38.104  31.661  1.00  0.00    -0.237 OA
ATOM     61  O   UNL A   1      43.795  37.313  33.998  1.00  0.00    -0.237 OA
ATOM     62  O   UNL A   1      46.001  37.483  32.917  1.00  0.00    -0.744 OA
ENDBRANCH  58  59
ENDBRANCH  26  51
BRANCH  38  63
ATOM     63  C   UNL A   1      48.276  27.704  29.791  1.00  0.00     0.058 A 
ATOM     64  C   UNL A   1      49.141  28.011  28.730  1.00  0.00     0.135 A 
ATOM     65  C   UNL A   1      48.844  27.252  30.992  1.00  0.00     0.135 A 
ATOM     66  F   UNL A   1      48.647  28.442  27.557  1.00  0.00    -0.206 F 
ATOM     67  C   UNL A   1      50.517  27.844  28.844  1.00  0.00     0.059 A 
ATOM     68  C   UNL A   1      50.219  27.101  31.137  1.00  0.00     0.059 A 
ATOM     69  F   UNL A   1      48.060  26.955  32.041  1.00  0.00    -0.206 F 
ATOM     70  C   UNL A   1      51.047  27.385  30.052  1.00  0.00     0.060 A 
BRANCH  70  71
ATOM     71  S   UNL A   1      52.834  27.181  30.196  1.00  0.00     0.124 S 
ATOM     72  O   UNL A   1      53.291  28.566  30.158  1.00  0.00    -0.237 OA
ATOM     73  O   UNL A   1      52.973  26.504  31.481  1.00  0.00    -0.237 OA
ATOM     74  O   UNL A   1      53.177  26.374  29.029  1.00  0.00    -0.744 OA
ENDBRANCH  70  71
ENDBRANCH  38  63
ENDBRANCH  12  13
ENDBRANCH   5   7
ENDBRANCH   2   3
ENDBRANCH   1   2
BRANCH   1  75
ATOM     75  C   UNL A   1      31.273  27.631  26.283  1.00  0.00     0.023 C 
BRANCH  75  76
ATOM     76  C   UNL A   1      30.664  26.242  26.106  1.00  0.00     0.116 C 
BRANCH  76  77
ATOM     77  N   UNL A   1      30.593  25.795  24.728  1.00  0.00    -0.351 N 
ATOM     78  C   UNL A   1      31.533  25.111  24.006  1.00  0.00     0.281 C 
ATOM     79  H   UNL A   1      29.759  26.012  24.251  1.00  0.00     0.163 HD
ATOM     80  O   UNL A   1      31.163  24.639  22.926  1.00  0.00    -0.268 OA
BRANCH  78  81
ATOM     81  C   UNL A   1      33.017  25.033  24.457  1.00  0.00     0.181 C 
ATOM     82  C   UNL A   1      33.175  24.655  25.944  1.00  0.00     0.085 C 
ATOM     83  C   UNL A   1      33.627  23.772  23.778  1.00  0.00     0.144 C 
ATOM     84  C   UNL A   1      34.560  24.026  26.028  1.00  0.00     0.072 C 
ATOM     85  C   UNL A   1      34.670  23.175  24.753  1.00  0.00     0.191 C 
BRANCH  81  86
ATOM     86  N   UNL A   1      33.825  26.231  24.121  1.00  0.00    -0.331 N 
ATOM     87  H   UNL A   1      34.650  25.890  23.629  1.00  0.00     0.347 HD
ATOM     88  H   UNL A   1      33.942  26.675  25.032  1.00  0.00     0.347 HD
BRANCH  86  89
ATOM     89  C   UNL A   1      33.281  27.326  23.309  1.00  0.00     0.183 C 
ATOM     90  C   UNL A   1      33.574  28.784  23.500  1.00  0.00     0.071 C 
ATOM     91  C   UNL A   1      34.121  28.059  22.304  1.00  0.00     0.071 C 
ENDBRANCH  86  89
ENDBRANCH  81  86
BRANCH  85  92
ATOM     92  N   UNL A   1      34.555  21.735  25.017  1.00  0.00    -0.323 N 
ATOM     93  C   UNL A   1      35.842  21.042  25.221  1.00  0.00     0.324 C 
ATOM     94  C   UNL A   1      33.652  20.963  24.158  1.00  0.00     0.328 C 
ATOM     95  H   UNL A   1      34.075  21.757  25.917  1.00  0.00     0.348 HD
ATOM     96  C   UNL A   1      35.891  19.555  24.758  1.00  0.00     0.324 C 
ATOM     97  C   UNL A   1      33.443  19.550  24.746  1.00  0.00     0.240 C 
ATOM     98  N   UNL A   1      34.673  18.784  25.041  1.00  0.00    -0.323 N 
ATOM     99  C   UNL A   1      32.591  18.660  23.845  1.00  0.00     0.077 C 
ATOM    100  C   UNL A   1      34.612  17.523  24.297  1.00  0.00     0.263 C 
ATOM    101  H   UNL A   1      34.724  18.583  26.039  1.00  0.00     0.348 HD
ATOM    102  C   UNL A   1      33.125  17.269  24.122  1.00  0.00     0.068 C 
ENDBRANCH  85  92
ENDBRANCH  78  81
ENDBRANCH  76  77
ENDBRANCH  75  76
ENDBRANCH   1  75
TORSDOF 17
ENDMDL
