MODEL 1
REMARK VINA RESULT:     -12.4      0.000      0.000
REMARK SMILES O=C(NCCCCNC(=O)c1cc(O)cc(-c2cc(O)ccc2Cl)c1)c1ccc(-c2c3nc(c(-c4c(F)cc(S(=O)(=O)[O-])cc4F)c4ccc([nH]4)c(-c4c(F)cc(S(=O)(=O)[O-])cc4F)c4nc(c(-c5c(F)cc(S(=O)(=O)[O-])cc5F)c5ccc2[nH]5)C=C4)C=C3)cc1
REMARK SMILES IDX 5 1 4 2 3 3 1 4 2 5 26 7 27 8 91 9 28 10 90 11 29 12 30 13
REMARK SMILES IDX 31 14 84 15 32 16 89 17 83 18 85 19 33 20 88 21 82 22 81 23
REMARK SMILES IDX 34 25 68 26 47 27 67 28 48 29 51 30 66 31 86 32 49 33 50 34
REMARK SMILES IDX 65 36 87 37 52 38 35 39 36 40 45 41 37 42 38 43 44 44 46 45
REMARK SMILES IDX 39 46 40 47 41 48 42 49 43 50 69 51 70 52 79 53 71 54 72 55
REMARK SMILES IDX 78 56 80 57 73 58 74 59 75 60 76 61 77 62 53 63 54 64 63 65
REMARK SMILES IDX 55 66 56 67 62 68 64 69 57 70 58 71 59 72 60 73 61 74 6 75
REMARK SMILES IDX 7 76 8 77 9 78 10 80 11 81 12 82 25 83 13 84 16 85 15 86
REMARK SMILES IDX 14 87 17 89 18 90 23 91 19 92 22 93 24 94 21 95 20 96
REMARK H PARENT 3 6 85 24 51 35 8 79 14 88 20 97
REMARK Flexibility Score: inf
ROOT
ATOM      1  C   UNL A   1      36.761  23.341  26.032  1.00  0.00     0.023 C 
ENDROOT
BRANCH   1   2
ATOM      2  C   UNL A   1      37.743  24.416  26.479  1.00  0.00     0.116 C 
BRANCH   2   3
ATOM      3  N   UNL A   1      39.116  24.122  26.100  1.00  0.00    -0.352 N 
ATOM      4  O   UNL A   1      41.346  24.432  25.988  1.00  0.00    -0.269 OA
ATOM      5  C   UNL A   1      40.278  24.726  26.518  1.00  0.00     0.251 C 
ATOM      6  H   UNL A   1      39.229  23.388  25.453  1.00  0.00     0.163 HD
BRANCH   5   7
ATOM      7  C   UNL A   1      40.231  25.746  27.588  1.00  0.00     0.039 A 
ATOM      8  C   UNL A   1      41.036  26.886  27.521  1.00  0.00     0.014 A 
ATOM      9  C   UNL A   1      39.370  25.553  28.673  1.00  0.00     0.014 A 
ATOM     10  C   UNL A   1      41.075  27.766  28.596  1.00  0.00     0.010 A 
ATOM     11  C   UNL A   1      39.356  26.480  29.718  1.00  0.00     0.010 A 
ATOM     12  C   UNL A   1      40.225  27.581  29.699  1.00  0.00    -0.014 A 
BRANCH  12  13
ATOM     13  C   UNL A   1      40.204  28.595  30.783  1.00  0.00     0.031 A 
ATOM     14  C   UNL A   1      41.126  28.493  31.965  1.00  0.00     0.074 A 
ATOM     15  C   UNL A   1      39.332  29.618  30.685  1.00  0.00     0.049 A 
ATOM     16  N   UNL A   1      41.219  29.284  33.003  1.00  0.00    -0.248 NA
ATOM     17  C   UNL A   1      42.060  27.357  31.992  1.00  0.00     0.031 C 
ATOM     18  C   UNL A   1      38.376  29.806  29.589  1.00  0.00     0.029 A 
ATOM     19  N   UNL A   1      39.107  30.691  31.507  1.00  0.00    -0.354 N 
ATOM     20  C   UNL A   1      42.200  28.732  33.818  1.00  0.00     0.074 A 
ATOM     21  C   UNL A   1      42.666  27.531  33.159  1.00  0.00     0.031 C 
ATOM     22  C   UNL A   1      37.685  30.936  29.796  1.00  0.00     0.029 A 
ATOM     23  C   UNL A   1      38.108  31.523  31.062  1.00  0.00     0.049 A 
ATOM     24  H   UNL A   1      39.612  30.850  32.337  1.00  0.00     0.167 HD
ATOM     25  C   UNL A   1      42.668  29.193  35.004  1.00  0.00     0.037 A 
ATOM     26  C   UNL A   1      37.568  32.622  31.622  1.00  0.00     0.037 A 
ATOM     27  C   UNL A   1      42.214  30.405  35.635  1.00  0.00     0.049 A 
ATOM     28  C   UNL A   1      38.096  33.100  32.941  1.00  0.00     0.074 A 
ATOM     29  C   UNL A   1      42.675  30.993  36.802  1.00  0.00     0.029 A 
ATOM     30  N   UNL A   1      41.189  31.212  35.163  1.00  0.00    -0.354 N 
ATOM     31  N   UNL A   1      39.063  32.595  33.671  1.00  0.00    -0.248 NA
ATOM     32  C   UNL A   1      37.460  34.291  33.520  1.00  0.00     0.031 C 
ATOM     33  C   UNL A   1      41.901  32.129  37.057  1.00  0.00     0.029 A 
ATOM     34  C   UNL A   1      40.982  32.273  36.029  1.00  0.00     0.049 A 
ATOM     35  H   UNL A   1      40.683  31.053  34.334  1.00  0.00     0.167 HD
ATOM     36  C   UNL A   1      39.153  33.408  34.793  1.00  0.00     0.074 A 
ATOM     37  C   UNL A   1      38.159  34.451  34.636  1.00  0.00     0.031 C 
ATOM     38  C   UNL A   1      39.983  33.298  35.859  1.00  0.00     0.037 A 
BRANCH  25  39
ATOM     39  C   UNL A   1      43.719  28.382  35.711  1.00  0.00     0.058 A 
ATOM     40  C   UNL A   1      43.384  27.373  36.625  1.00  0.00     0.135 A 
ATOM     41  C   UNL A   1      45.079  28.575  35.417  1.00  0.00     0.135 A 
ATOM     42  F   UNL A   1      42.099  27.154  36.950  1.00  0.00    -0.206 F 
ATOM     43  C   UNL A   1      44.361  26.593  37.238  1.00  0.00     0.059 A 
ATOM     44  C   UNL A   1      46.072  27.795  36.002  1.00  0.00     0.059 A 
ATOM     45  F   UNL A   1      45.453  29.528  34.549  1.00  0.00    -0.206 F 
ATOM     46  C   UNL A   1      45.703  26.812  36.920  1.00  0.00     0.060 A 
BRANCH  46  47
ATOM     47  S   UNL A   1      46.959  25.784  37.713  1.00  0.00     0.124 S 
ATOM     48  O   UNL A   1      47.218  26.536  38.937  1.00  0.00    -0.237 OA
ATOM     49  O   UNL A   1      46.261  24.514  37.886  1.00  0.00    -0.237 OA
ATOM     50  O   UNL A   1      48.049  25.770  36.743  1.00  0.00    -0.744 OA
ENDBRANCH  46  47
ENDBRANCH  25  39
BRANCH  26  51
ATOM     51  C   UNL A   1      36.450  33.319  30.938  1.00  0.00     0.058 A 
ATOM     52  C   UNL A   1      35.144  33.265  31.445  1.00  0.00     0.135 A 
ATOM     53  C   UNL A   1      36.675  34.083  29.782  1.00  0.00     0.135 A 
ATOM     54  F   UNL A   1      34.881  32.545  32.545  1.00  0.00    -0.206 F 
ATOM     55  C   UNL A   1      34.097  33.938  30.825  1.00  0.00     0.059 A 
ATOM     56  C   UNL A   1      35.650  34.785  29.159  1.00  0.00     0.059 A 
ATOM     57  F   UNL A   1      37.913  34.181  29.271  1.00  0.00    -0.206 F 
ATOM     58  C   UNL A   1      34.361  34.698  29.683  1.00  0.00     0.060 A 
BRANCH  58  59
ATOM     59  S   UNL A   1      33.009  35.616  28.916  1.00  0.00     0.124 S 
ATOM     60  O   UNL A   1      33.732  36.676  28.223  1.00  0.00    -0.237 OA
ATOM     61  O   UNL A   1      32.390  34.604  28.066  1.00  0.00    -0.237 OA
ATOM     62  O   UNL A   1      32.205  36.040  30.059  1.00  0.00    -0.744 OA
ENDBRANCH  58  59
ENDBRANCH  26  51
BRANCH  38  63
ATOM     63  C   UNL A   1      39.852  34.334  36.937  1.00  0.00     0.058 A 
ATOM     64  C   UNL A   1      40.479  35.585  36.827  1.00  0.00     0.135 A 
ATOM     65  C   UNL A   1      39.055  34.093  38.067  1.00  0.00     0.135 A 
ATOM     66  F   UNL A   1      41.261  35.858  35.770  1.00  0.00    -0.206 F 
ATOM     67  C   UNL A   1      40.331  36.559  37.808  1.00  0.00     0.059 A 
ATOM     68  C   UNL A   1      38.875  35.060  39.050  1.00  0.00     0.059 A 
ATOM     69  F   UNL A   1      38.431  32.914  38.216  1.00  0.00    -0.206 F 
ATOM     70  C   UNL A   1      39.524  36.289  38.915  1.00  0.00     0.060 A 
BRANCH  70  71
ATOM     71  S   UNL A   1      39.303  37.575  40.161  1.00  0.00     0.124 S 
ATOM     72  O   UNL A   1      38.894  36.793  41.322  1.00  0.00    -0.237 OA
ATOM     73  O   UNL A   1      40.632  38.174  40.235  1.00  0.00    -0.237 OA
ATOM     74  O   UNL A   1      38.269  38.431  39.584  1.00  0.00    -0.744 OA
ENDBRANCH  70  71
ENDBRANCH  38  63
ENDBRANCH  12  13
ENDBRANCH   5   7
ENDBRANCH   2   3
ENDBRANCH   1   2
BRANCH   1  75
ATOM     75  C   UNL A   1      36.455  23.316  24.535  1.00  0.00     0.023 C 
BRANCH  75  76
ATOM     76  C   UNL A   1      35.073  23.829  24.146  1.00  0.00     0.116 C 
BRANCH  76  77
ATOM     77  N   UNL A   1      34.127  23.789  25.250  1.00  0.00    -0.352 N 
ATOM     78  C   UNL A   1      33.062  22.947  25.449  1.00  0.00     0.251 C 
ATOM     79  H   UNL A   1      34.272  24.459  25.955  1.00  0.00     0.163 HD
ATOM     80  O   UNL A   1      32.271  23.144  26.367  1.00  0.00    -0.269 OA
BRANCH  78  81
ATOM     81  C   UNL A   1      32.846  21.812  24.533  1.00  0.00     0.044 A 
ATOM     82  C   UNL A   1      32.270  22.008  23.275  1.00  0.00     0.060 A 
ATOM     83  C   UNL A   1      33.242  20.535  24.948  1.00  0.00     0.023 A 
ATOM     84  C   UNL A   1      31.997  20.900  22.486  1.00  0.00     0.116 A 
ATOM     85  C   UNL A   1      33.000  19.418  24.135  1.00  0.00    -0.012 A 
ATOM     86  C   UNL A   1      32.339  19.619  22.911  1.00  0.00     0.055 A 
BRANCH  84  87
ATOM     87  O   UNL A   1      31.375  21.027  21.279  1.00  0.00    -0.508 OA
ATOM     88  H   UNL A   1      31.820  21.436  20.564  1.00  0.00     0.293 HD
ENDBRANCH  84  87
BRANCH  85  89
ATOM     89  C   UNL A   1      33.422  18.072  24.563  1.00  0.00     0.004 A 
ATOM     90  C   UNL A   1      32.442  17.092  24.820  1.00  0.00     0.056 A 
ATOM     91  C   UNL A   1      34.775  17.714  24.746  1.00  0.00     0.049 A 
ATOM     92  C   UNL A   1      32.807  15.813  25.233  1.00  0.00     0.116 A 
ATOM     93  C   UNL A   1      35.129  16.422  25.154  1.00  0.00     0.025 A 
ATOM     94  Cl  UNL A   1      36.070  18.842  24.517  1.00  0.00    -0.084 Cl
ATOM     95  C   UNL A   1      34.142  15.470  25.396  1.00  0.00     0.048 A 
BRANCH  92  96
ATOM     96  O   UNL A   1      31.874  14.854  25.494  1.00  0.00    -0.508 OA
ATOM     97  H   UNL A   1      31.407  14.863  26.306  1.00  0.00     0.293 HD
ENDBRANCH  92  96
ENDBRANCH  85  89
ENDBRANCH  78  81
ENDBRANCH  76  77
ENDBRANCH  75  76
ENDBRANCH   1  75
TORSDOF 17
ENDMDL
MODEL 2
REMARK VINA RESULT:     -12.2      2.518      4.492
REMARK SMILES O=C(NCCCCNC(=O)c1cc(O)cc(-c2cc(O)ccc2Cl)c1)c1ccc(-c2c3nc(c(-c4c(F)cc(S(=O)(=O)[O-])cc4F)c4ccc([nH]4)c(-c4c(F)cc(S(=O)(=O)[O-])cc4F)c4nc(c(-c5c(F)cc(S(=O)(=O)[O-])cc5F)c5ccc2[nH]5)C=C4)C=C3)cc1
REMARK SMILES IDX 5 1 4 2 3 3 1 4 2 5 26 7 27 8 91 9 28 10 90 11 29 12 30 13
REMARK SMILES IDX 31 14 84 15 32 16 89 17 83 18 85 19 33 20 88 21 82 22 81 23
REMARK SMILES IDX 34 25 68 26 47 27 67 28 48 29 51 30 66 31 86 32 49 33 50 34
REMARK SMILES IDX 65 36 87 37 52 38 35 39 36 40 45 41 37 42 38 43 44 44 46 45
REMARK SMILES IDX 39 46 40 47 41 48 42 49 43 50 69 51 70 52 79 53 71 54 72 55
REMARK SMILES IDX 78 56 80 57 73 58 74 59 75 60 76 61 77 62 53 63 54 64 63 65
REMARK SMILES IDX 55 66 56 67 62 68 64 69 57 70 58 71 59 72 60 73 61 74 6 75
REMARK SMILES IDX 7 76 8 77 9 78 10 80 11 81 12 82 25 83 13 84 16 85 15 86
REMARK SMILES IDX 14 87 17 89 18 90 23 91 19 92 22 93 24 94 21 95 20 96
REMARK H PARENT 3 6 85 24 51 35 8 79 14 88 20 97
REMARK Flexibility Score: inf
ROOT
ATOM      1  C   UNL A   1      37.565  23.267  25.852  1.00  0.00     0.023 C 
ENDROOT
BRANCH   1   2
ATOM      2  C   UNL A   1      38.532  24.230  26.529  1.00  0.00     0.116 C 
BRANCH   2   3
ATOM      3  N   UNL A   1      39.908  24.054  26.090  1.00  0.00    -0.352 N 
ATOM      4  O   UNL A   1      42.102  24.533  25.912  1.00  0.00    -0.269 OA
ATOM      5  C   UNL A   1      41.037  24.725  26.491  1.00  0.00     0.251 C 
ATOM      6  H   UNL A   1      40.049  23.356  25.409  1.00  0.00     0.163 HD
BRANCH   5   7
ATOM      7  C   UNL A   1      40.957  25.696  27.604  1.00  0.00     0.039 A 
ATOM      8  C   UNL A   1      39.927  25.619  28.545  1.00  0.00     0.014 A 
ATOM      9  C   UNL A   1      41.927  26.699  27.702  1.00  0.00     0.014 A 
ATOM     10  C   UNL A   1      39.792  26.615  29.504  1.00  0.00     0.010 A 
ATOM     11  C   UNL A   1      41.832  27.656  28.715  1.00  0.00     0.010 A 
ATOM     12  C   UNL A   1      40.751  27.636  29.609  1.00  0.00    -0.014 A 
BRANCH  12  13
ATOM     13  C   UNL A   1      40.649  28.624  30.712  1.00  0.00     0.031 A 
ATOM     14  C   UNL A   1      41.542  28.541  31.918  1.00  0.00     0.074 A 
ATOM     15  C   UNL A   1      39.731  29.605  30.609  1.00  0.00     0.049 A 
ATOM     16  N   UNL A   1      41.566  29.313  32.975  1.00  0.00    -0.248 NA
ATOM     17  C   UNL A   1      42.530  27.451  31.949  1.00  0.00     0.031 C 
ATOM     18  C   UNL A   1      38.798  29.769  29.491  1.00  0.00     0.029 A 
ATOM     19  N   UNL A   1      39.430  30.647  31.447  1.00  0.00    -0.354 N 
ATOM     20  C   UNL A   1      42.550  28.792  33.807  1.00  0.00     0.074 A 
ATOM     21  C   UNL A   1      43.093  27.629  33.138  1.00  0.00     0.031 C 
ATOM     22  C   UNL A   1      38.047  30.859  29.700  1.00  0.00     0.029 A 
ATOM     23  C   UNL A   1      38.404  31.439  30.990  1.00  0.00     0.049 A 
ATOM     24  H   UNL A   1      39.903  30.812  32.294  1.00  0.00     0.167 HD
ATOM     25  C   UNL A   1      42.961  29.249  35.014  1.00  0.00     0.037 A 
ATOM     26  C   UNL A   1      37.796  32.497  31.556  1.00  0.00     0.037 A 
ATOM     27  C   UNL A   1      42.430  30.424  35.657  1.00  0.00     0.049 A 
ATOM     28  C   UNL A   1      38.262  32.973  32.899  1.00  0.00     0.074 A 
ATOM     29  C   UNL A   1      42.829  31.008  36.848  1.00  0.00     0.029 A 
ATOM     30  N   UNL A   1      41.380  31.190  35.172  1.00  0.00    -0.354 N 
ATOM     31  N   UNL A   1      39.231  32.499  33.647  1.00  0.00    -0.248 NA
ATOM     32  C   UNL A   1      37.552  34.118  33.483  1.00  0.00     0.031 C 
ATOM     33  C   UNL A   1      41.992  32.099  37.103  1.00  0.00     0.029 A 
ATOM     34  C   UNL A   1      41.097  32.220  36.053  1.00  0.00     0.049 A 
ATOM     35  H   UNL A   1      40.906  31.024  34.325  1.00  0.00     0.167 HD
ATOM     36  C   UNL A   1      39.249  33.291  34.787  1.00  0.00     0.074 A 
ATOM     37  C   UNL A   1      38.210  34.288  34.622  1.00  0.00     0.031 C 
ATOM     38  C   UNL A   1      40.053  33.198  35.875  1.00  0.00     0.037 A 
BRANCH  25  39
ATOM     39  C   UNL A   1      44.030  28.476  35.735  1.00  0.00     0.058 A 
ATOM     40  C   UNL A   1      45.392  28.767  35.572  1.00  0.00     0.135 A 
ATOM     41  C   UNL A   1      43.681  27.472  36.654  1.00  0.00     0.135 A 
ATOM     42  F   UNL A   1      45.782  29.708  34.697  1.00  0.00    -0.206 F 
ATOM     43  C   UNL A   1      46.374  28.079  36.280  1.00  0.00     0.059 A 
ATOM     44  C   UNL A   1      44.643  26.785  37.389  1.00  0.00     0.059 A 
ATOM     45  F   UNL A   1      42.391  27.155  36.849  1.00  0.00    -0.206 F 
ATOM     46  C   UNL A   1      45.989  27.089  37.187  1.00  0.00     0.060 A 
BRANCH  46  47
ATOM     47  S   UNL A   1      47.271  26.215  38.110  1.00  0.00     0.124 S 
ATOM     48  O   UNL A   1      48.204  25.861  37.044  1.00  0.00    -0.237 OA
ATOM     49  O   UNL A   1      47.737  27.234  39.045  1.00  0.00    -0.237 OA
ATOM     50  O   UNL A   1      46.555  25.096  38.713  1.00  0.00    -0.744 OA
ENDBRANCH  46  47
ENDBRANCH  25  39
BRANCH  26  51
ATOM     51  C   UNL A   1      36.663  33.154  30.854  1.00  0.00     0.058 A 
ATOM     52  C   UNL A   1      35.342  32.976  31.285  1.00  0.00     0.135 A 
ATOM     53  C   UNL A   1      36.889  34.001  29.758  1.00  0.00     0.135 A 
ATOM     54  F   UNL A   1      35.079  32.173  32.327  1.00  0.00    -0.206 F 
ATOM     55  C   UNL A   1      34.280  33.610  30.650  1.00  0.00     0.059 A 
ATOM     56  C   UNL A   1      35.846  34.665  29.121  1.00  0.00     0.059 A 
ATOM     57  F   UNL A   1      38.139  34.218  29.320  1.00  0.00    -0.206 F 
ATOM     58  C   UNL A   1      34.543  34.455  29.569  1.00  0.00     0.060 A 
BRANCH  58  59
ATOM     59  S   UNL A   1      33.166  35.320  28.784  1.00  0.00     0.124 S 
ATOM     60  O   UNL A   1      33.861  36.380  28.063  1.00  0.00    -0.237 OA
ATOM     61  O   UNL A   1      32.570  34.273  27.962  1.00  0.00    -0.237 OA
ATOM     62  O   UNL A   1      32.355  35.752  29.919  1.00  0.00    -0.744 OA
ENDBRANCH  58  59
ENDBRANCH  26  51
BRANCH  38  63
ATOM     63  C   UNL A   1      39.842  34.204  36.969  1.00  0.00     0.058 A 
ATOM     64  C   UNL A   1      39.074  33.897  38.103  1.00  0.00     0.135 A 
ATOM     65  C   UNL A   1      40.450  35.467  36.905  1.00  0.00     0.135 A 
ATOM     66  F   UNL A   1      38.464  32.707  38.204  1.00  0.00    -0.206 F 
ATOM     67  C   UNL A   1      38.907  34.815  39.134  1.00  0.00     0.059 A 
ATOM     68  C   UNL A   1      40.314  36.393  37.934  1.00  0.00     0.059 A 
ATOM     69  F   UNL A   1      41.198  35.805  35.843  1.00  0.00    -0.206 F 
ATOM     70  C   UNL A   1      39.533  36.060  39.042  1.00  0.00     0.060 A 
BRANCH  70  71
ATOM     71  S   UNL A   1      39.345  37.228  40.405  1.00  0.00     0.124 S 
ATOM     72  O   UNL A   1      38.636  36.418  41.389  1.00  0.00    -0.237 OA
ATOM     73  O   UNL A   1      40.729  37.556  40.732  1.00  0.00    -0.237 OA
ATOM     74  O   UNL A   1      38.572  38.317  39.813  1.00  0.00    -0.744 OA
ENDBRANCH  70  71
ENDBRANCH  38  63
ENDBRANCH  12  13
ENDBRANCH   5   7
ENDBRANCH   2   3
ENDBRANCH   1   2
BRANCH   1  75
ATOM     75  C   UNL A   1      36.261  23.889  25.356  1.00  0.00     0.023 C 
BRANCH  75  76
ATOM     76  C   UNL A   1      35.569  23.134  24.226  1.00  0.00     0.116 C 
BRANCH  76  77
ATOM     77  N   UNL A   1      34.211  22.739  24.563  1.00  0.00    -0.352 N 
ATOM     78  C   UNL A   1      33.062  23.488  24.553  1.00  0.00     0.251 C 
ATOM     79  H   UNL A   1      34.100  21.801  24.838  1.00  0.00     0.163 HD
ATOM     80  O   UNL A   1      32.016  23.037  25.011  1.00  0.00    -0.269 OA
BRANCH  78  81
ATOM     81  C   UNL A   1      33.089  24.861  24.014  1.00  0.00     0.044 A 
ATOM     82  C   UNL A   1      33.149  25.087  22.637  1.00  0.00     0.060 A 
ATOM     83  C   UNL A   1      33.044  25.932  24.914  1.00  0.00     0.023 A 
ATOM     84  C   UNL A   1      33.271  26.390  22.179  1.00  0.00     0.116 A 
ATOM     85  C   UNL A   1      33.131  27.253  24.450  1.00  0.00    -0.012 A 
ATOM     86  C   UNL A   1      33.279  27.462  23.069  1.00  0.00     0.055 A 
BRANCH  84  87
ATOM     87  O   UNL A   1      33.400  26.665  20.849  1.00  0.00    -0.508 OA
ATOM     88  H   UNL A   1      33.253  25.990  20.216  1.00  0.00     0.293 HD
ENDBRANCH  84  87
BRANCH  85  89
ATOM     89  C   UNL A   1      33.075  28.385  25.392  1.00  0.00     0.004 A 
ATOM     90  C   UNL A   1      34.055  28.492  26.400  1.00  0.00     0.056 A 
ATOM     91  C   UNL A   1      32.067  29.372  25.347  1.00  0.00     0.049 A 
ATOM     92  C   UNL A   1      34.026  29.545  27.311  1.00  0.00     0.116 A 
ATOM     93  C   UNL A   1      32.054  30.430  26.264  1.00  0.00     0.025 A 
ATOM     94  Cl  UNL A   1      30.775  29.323  24.193  1.00  0.00    -0.084 Cl
ATOM     95  C   UNL A   1      33.037  30.517  27.246  1.00  0.00     0.048 A 
BRANCH  92  96
ATOM     96  O   UNL A   1      34.961  29.662  28.296  1.00  0.00    -0.508 OA
ATOM     97  H   UNL A   1      35.863  29.497  28.108  1.00  0.00     0.293 HD
ENDBRANCH  92  96
ENDBRANCH  85  89
ENDBRANCH  78  81
ENDBRANCH  76  77
ENDBRANCH  75  76
ENDBRANCH   1  75
TORSDOF 17
ENDMDL
MODEL 3
REMARK VINA RESULT:     -12.1      6.822      9.227
REMARK SMILES O=C(NCCCCNC(=O)c1cc(O)cc(-c2cc(O)ccc2Cl)c1)c1ccc(-c2c3nc(c(-c4c(F)cc(S(=O)(=O)[O-])cc4F)c4ccc([nH]4)c(-c4c(F)cc(S(=O)(=O)[O-])cc4F)c4nc(c(-c5c(F)cc(S(=O)(=O)[O-])cc5F)c5ccc2[nH]5)C=C4)C=C3)cc1
REMARK SMILES IDX 5 1 4 2 3 3 1 4 2 5 26 7 27 8 91 9 28 10 90 11 29 12 30 13
REMARK SMILES IDX 31 14 84 15 32 16 89 17 83 18 85 19 33 20 88 21 82 22 81 23
REMARK SMILES IDX 34 25 68 26 47 27 67 28 48 29 51 30 66 31 86 32 49 33 50 34
REMARK SMILES IDX 65 36 87 37 52 38 35 39 36 40 45 41 37 42 38 43 44 44 46 45
REMARK SMILES IDX 39 46 40 47 41 48 42 49 43 50 69 51 70 52 79 53 71 54 72 55
REMARK SMILES IDX 78 56 80 57 73 58 74 59 75 60 76 61 77 62 53 63 54 64 63 65
REMARK SMILES IDX 55 66 56 67 62 68 64 69 57 70 58 71 59 72 60 73 61 74 6 75
REMARK SMILES IDX 7 76 8 77 9 78 10 80 11 81 12 82 25 83 13 84 16 85 15 86
REMARK SMILES IDX 14 87 17 89 18 90 23 91 19 92 22 93 24 94 21 95 20 96
REMARK H PARENT 3 6 85 24 51 35 8 79 14 88 20 97
REMARK Flexibility Score: inf
ROOT
ATOM      1  C   UNL A   1      38.284  19.896  25.115  1.00  0.00     0.023 C 
ENDROOT
BRANCH   1   2
ATOM      2  C   UNL A   1      39.387  20.300  26.086  1.00  0.00     0.116 C 
BRANCH   2   3
ATOM      3  N   UNL A   1      40.485  19.347  26.125  1.00  0.00    -0.352 N 
ATOM      4  O   UNL A   1      42.630  18.656  26.109  1.00  0.00    -0.269 OA
ATOM      5  C   UNL A   1      41.834  19.584  26.225  1.00  0.00     0.251 C 
ATOM      6  H   UNL A   1      40.224  18.399  26.072  1.00  0.00     0.163 HD
BRANCH   5   7
ATOM      7  C   UNL A   1      42.322  20.963  26.446  1.00  0.00     0.039 A 
ATOM      8  C   UNL A   1      42.552  21.819  25.365  1.00  0.00     0.014 A 
ATOM      9  C   UNL A   1      42.554  21.401  27.754  1.00  0.00     0.014 A 
ATOM     10  C   UNL A   1      43.134  23.063  25.583  1.00  0.00     0.010 A 
ATOM     11  C   UNL A   1      43.068  22.681  27.974  1.00  0.00     0.010 A 
ATOM     12  C   UNL A   1      43.384  23.513  26.889  1.00  0.00    -0.014 A 
BRANCH  12  13
ATOM     13  C   UNL A   1      43.900  24.888  27.102  1.00  0.00     0.031 A 
ATOM     14  C   UNL A   1      45.350  25.218  26.889  1.00  0.00     0.074 A 
ATOM     15  C   UNL A   1      43.034  25.844  27.492  1.00  0.00     0.049 A 
ATOM     16  N   UNL A   1      45.963  26.363  27.050  1.00  0.00    -0.248 NA
ATOM     17  C   UNL A   1      46.231  24.125  26.446  1.00  0.00     0.031 C 
ATOM     18  C   UNL A   1      41.606  25.630  27.748  1.00  0.00     0.029 A 
ATOM     19  N   UNL A   1      43.218  27.179  27.741  1.00  0.00    -0.354 N 
ATOM     20  C   UNL A   1      47.300  26.128  26.753  1.00  0.00     0.074 A 
ATOM     21  C   UNL A   1      47.414  24.725  26.414  1.00  0.00     0.031 C 
ATOM     22  C   UNL A   1      41.041  26.795  28.093  1.00  0.00     0.029 A 
ATOM     23  C   UNL A   1      42.072  27.825  28.138  1.00  0.00     0.049 A 
ATOM     24  H   UNL A   1      44.087  27.630  27.645  1.00  0.00     0.167 HD
ATOM     25  C   UNL A   1      48.333  27.005  26.761  1.00  0.00     0.037 A 
ATOM     26  C   UNL A   1      41.875  29.099  28.525  1.00  0.00     0.037 A 
ATOM     27  C   UNL A   1      48.201  28.405  27.076  1.00  0.00     0.049 A 
ATOM     28  C   UNL A   1      43.039  30.045  28.537  1.00  0.00     0.074 A 
ATOM     29  C   UNL A   1      49.175  29.390  27.043  1.00  0.00     0.029 A 
ATOM     30  N   UNL A   1      47.028  29.020  27.490  1.00  0.00    -0.354 N 
ATOM     31  N   UNL A   1      44.287  29.816  28.201  1.00  0.00    -0.248 NA
ATOM     32  C   UNL A   1      42.776  31.418  28.987  1.00  0.00     0.031 C 
ATOM     33  C   UNL A   1      48.601  30.588  27.479  1.00  0.00     0.029 A 
ATOM     34  C   UNL A   1      47.260  30.361  27.746  1.00  0.00     0.049 A 
ATOM     35  H   UNL A   1      46.159  28.568  27.587  1.00  0.00     0.167 HD
ATOM     36  C   UNL A   1      44.956  31.017  28.395  1.00  0.00     0.074 A 
ATOM     37  C   UNL A   1      43.971  31.975  28.857  1.00  0.00     0.031 C 
ATOM     38  C   UNL A   1      46.269  31.298  28.211  1.00  0.00     0.037 A 
BRANCH  25  39
ATOM     39  C   UNL A   1      49.704  26.484  26.433  1.00  0.00     0.058 A 
ATOM     40  C   UNL A   1      50.532  25.913  27.410  1.00  0.00     0.135 A 
ATOM     41  C   UNL A   1      50.169  26.497  25.107  1.00  0.00     0.135 A 
ATOM     42  F   UNL A   1      50.143  25.886  28.695  1.00  0.00    -0.206 F 
ATOM     43  C   UNL A   1      51.781  25.387  27.089  1.00  0.00     0.059 A 
ATOM     44  C   UNL A   1      51.405  25.960  24.759  1.00  0.00     0.059 A 
ATOM     45  F   UNL A   1      49.415  27.032  24.133  1.00  0.00    -0.206 F 
ATOM     46  C   UNL A   1      52.209  25.416  25.760  1.00  0.00     0.060 A 
BRANCH  46  47
ATOM     47  S   UNL A   1      53.825  24.719  25.356  1.00  0.00     0.124 S 
ATOM     48  O   UNL A   1      54.241  25.574  24.248  1.00  0.00    -0.237 OA
ATOM     49  O   UNL A   1      54.564  24.895  26.603  1.00  0.00    -0.237 OA
ATOM     50  O   UNL A   1      53.521  23.337  25.001  1.00  0.00    -0.744 OA
ENDBRANCH  46  47
ENDBRANCH  25  39
BRANCH  26  51
ATOM     51  C   UNL A   1      40.521  29.534  28.954  1.00  0.00     0.058 A 
ATOM     52  C   UNL A   1      39.484  29.695  28.027  1.00  0.00     0.135 A 
ATOM     53  C   UNL A   1      40.233  29.760  30.309  1.00  0.00     0.135 A 
ATOM     54  F   UNL A   1      39.714  29.493  26.721  1.00  0.00    -0.206 F 
ATOM     55  C   UNL A   1      38.207  30.075  28.425  1.00  0.00     0.059 A 
ATOM     56  C   UNL A   1      38.958  30.116  30.735  1.00  0.00     0.059 A 
ATOM     57  F   UNL A   1      41.189  29.599  31.238  1.00  0.00    -0.206 F 
ATOM     58  C   UNL A   1      37.953  30.280  29.783  1.00  0.00     0.060 A 
BRANCH  58  59
ATOM     59  S   UNL A   1      36.279  30.716  30.301  1.00  0.00     0.124 S 
ATOM     60  O   UNL A   1      35.544  30.586  29.049  1.00  0.00    -0.237 OA
ATOM     61  O   UNL A   1      35.996  29.707  31.316  1.00  0.00    -0.237 OA
ATOM     62  O   UNL A   1      36.431  32.077  30.807  1.00  0.00    -0.744 OA
ENDBRANCH  58  59
ENDBRANCH  26  51
BRANCH  38  63
ATOM     63  C   UNL A   1      46.716  32.701  28.506  1.00  0.00     0.058 A 
ATOM     64  C   UNL A   1      47.201  33.062  29.772  1.00  0.00     0.135 A 
ATOM     65  C   UNL A   1      46.703  33.680  27.500  1.00  0.00     0.135 A 
ATOM     66  F   UNL A   1      47.221  32.163  30.769  1.00  0.00    -0.206 F 
ATOM     67  C   UNL A   1      47.647  34.352  30.037  1.00  0.00     0.059 A 
ATOM     68  C   UNL A   1      47.166  34.971  27.736  1.00  0.00     0.059 A 
ATOM     69  F   UNL A   1      46.253  33.382  26.271  1.00  0.00    -0.206 F 
ATOM     70  C   UNL A   1      47.628  35.299  29.011  1.00  0.00     0.060 A 
BRANCH  70  71
ATOM     71  S   UNL A   1      48.251  36.958  29.352  1.00  0.00     0.124 S 
ATOM     72  O   UNL A   1      48.325  36.950  30.809  1.00  0.00    -0.237 OA
ATOM     73  O   UNL A   1      49.532  36.964  28.652  1.00  0.00    -0.237 OA
ATOM     74  O   UNL A   1      47.228  37.829  28.779  1.00  0.00    -0.744 OA
ENDBRANCH  70  71
ENDBRANCH  38  63
ENDBRANCH  12  13
ENDBRANCH   5   7
ENDBRANCH   2   3
ENDBRANCH   1   2
BRANCH   1  75
ATOM     75  C   UNL A   1      37.386  21.034  24.634  1.00  0.00     0.023 C 
BRANCH  75  76
ATOM     76  C   UNL A   1      36.870  21.962  25.729  1.00  0.00     0.116 C 
BRANCH  76  77
ATOM     77  N   UNL A   1      35.698  21.434  26.407  1.00  0.00    -0.352 N 
ATOM     78  C   UNL A   1      34.403  21.884  26.379  1.00  0.00     0.251 C 
ATOM     79  H   UNL A   1      35.856  20.639  26.966  1.00  0.00     0.163 HD
ATOM     80  O   UNL A   1      33.557  21.408  27.131  1.00  0.00    -0.269 OA
BRANCH  78  81
ATOM     81  C   UNL A   1      34.028  22.973  25.457  1.00  0.00     0.044 A 
ATOM     82  C   UNL A   1      33.993  22.760  24.077  1.00  0.00     0.060 A 
ATOM     83  C   UNL A   1      33.697  24.221  25.997  1.00  0.00     0.023 A 
ATOM     84  C   UNL A   1      33.730  23.835  23.242  1.00  0.00     0.116 A 
ATOM     85  C   UNL A   1      33.395  25.301  25.156  1.00  0.00    -0.012 A 
ATOM     86  C   UNL A   1      33.451  25.095  23.767  1.00  0.00     0.055 A 
BRANCH  84  87
ATOM     87  O   UNL A   1      33.749  23.700  21.885  1.00  0.00    -0.508 OA
ATOM     88  H   UNL A   1      33.992  24.426  21.345  1.00  0.00     0.293 HD
ENDBRANCH  84  87
BRANCH  85  89
ATOM     89  C   UNL A   1      33.038  26.616  25.719  1.00  0.00     0.004 A 
ATOM     90  C   UNL A   1      34.034  27.608  25.837  1.00  0.00     0.056 A 
ATOM     91  C   UNL A   1      31.738  26.931  26.167  1.00  0.00     0.049 A 
ATOM     92  C   UNL A   1      33.731  28.857  26.372  1.00  0.00     0.116 A 
ATOM     93  C   UNL A   1      31.446  28.194  26.696  1.00  0.00     0.025 A 
ATOM     94  Cl  UNL A   1      30.442  25.782  26.129  1.00  0.00    -0.084 Cl
ATOM     95  C   UNL A   1      32.445  29.160  26.797  1.00  0.00     0.048 A 
BRANCH  92  96
ATOM     96  O   UNL A   1      34.681  29.827  26.501  1.00  0.00    -0.508 OA
ATOM     97  H   UNL A   1      34.662  30.578  25.943  1.00  0.00     0.293 HD
ENDBRANCH  92  96
ENDBRANCH  85  89
ENDBRANCH  78  81
ENDBRANCH  76  77
ENDBRANCH  75  76
ENDBRANCH   1  75
TORSDOF 17
ENDMDL
