MODEL 1
REMARK VINA RESULT:     -11.9      0.000      0.000
REMARK SMILES CS(=O)(=O)c1ccc(/C=C(/C(=O)NCCCCNC(=O)c2ccc(-c3c4nc(c(-c5c(F)cc(S(=O)(=O)[O-])cc5F)c5ccc([nH]5)c(-c5c(F)cc(S(=O)(=O)[O-])cc5F)c5nc(c(-c6c(F)cc(S(=O)(=O)[O-])cc6F)c6ccc3[nH]6)C=C5)C=C4)cc2)c2ccccc2)cc1
REMARK SMILES IDX 16 1 15 2 14 3 13 4 11 5 12 6 10 8 9 9 8 10 5 11 6 12 94 13
REMARK SMILES IDX 7 14 93 15 2 16 1 17 3 18 4 19 87 20 88 21 92 22 89 23 91 24
REMARK SMILES IDX 90 25 17 26 18 27 19 28 20 30 21 31 22 32 86 33 23 34 85 35
REMARK SMILES IDX 24 36 25 37 26 38 79 39 27 40 84 41 78 42 80 43 28 44 83 45
REMARK SMILES IDX 77 46 76 47 29 49 63 50 42 51 62 52 43 53 46 54 61 55 81 56
REMARK SMILES IDX 44 57 45 58 60 60 82 61 47 62 30 63 31 64 40 65 32 66 33 67
REMARK SMILES IDX 39 68 41 69 34 70 35 71 36 72 37 73 38 74 64 75 65 76 74 77
REMARK SMILES IDX 66 78 67 79 73 80 75 81 68 82 69 83 70 84 71 85 72 86 48 87
REMARK SMILES IDX 49 88 58 89 50 90 51 91 57 92 59 93 52 94 53 95 54 96 55 97
REMARK SMILES IDX 56 98
REMARK H PARENT 13 7 18 29 80 48 46 59
REMARK Flexibility Score: inf
ROOT
ATOM      1  C   UNL A   1      35.484  23.157  25.618  1.00  0.00     0.023 C 
ENDROOT
BRANCH   1   2
ATOM      2  C   UNL A   1      34.732  22.448  24.484  1.00  0.00     0.023 C 
BRANCH   2   3
ATOM      3  C   UNL A   1      33.284  22.911  24.303  1.00  0.00     0.116 C 
BRANCH   3   4
ATOM      4  N   UNL A   1      32.622  23.002  25.590  1.00  0.00    -0.352 N 
ATOM      5  C   UNL A   1      31.945  23.990  26.234  1.00  0.00     0.251 C 
ATOM      6  O   UNL A   1      31.545  23.722  27.369  1.00  0.00    -0.269 OA
ATOM      7  H   UNL A   1      32.674  22.168  26.110  1.00  0.00     0.163 HD
BRANCH   5   8
ATOM      8  C   UNL A   1      31.603  25.323  25.600  1.00  0.00     0.047 C 
ATOM      9  C   UNL A   1      30.924  25.412  24.434  1.00  0.00     0.022 C 
BRANCH   9  10
ATOM     10  C   UNL A   1      30.396  26.608  23.743  1.00  0.00    -0.025 A 
ATOM     11  C   UNL A   1      29.266  28.919  22.625  1.00  0.00     0.067 A 
ATOM     12  C   UNL A   1      30.623  28.650  22.440  1.00  0.00     0.021 A 
ATOM     13  C   UNL A   1      28.458  28.034  23.337  1.00  0.00     0.021 A 
ATOM     14  C   UNL A   1      31.175  27.482  22.976  1.00  0.00     0.009 A 
ATOM     15  C   UNL A   1      29.024  26.880  23.886  1.00  0.00     0.009 A 
BRANCH  11  16
ATOM     16  S   UNL A   1      28.559  30.422  21.996  1.00  0.00     0.175 S 
ATOM     17  C   UNL A   1      27.393  30.888  23.247  1.00  0.00     0.163 C 
ATOM     18  O   UNL A   1      27.808  30.093  20.796  1.00  0.00    -0.224 OA
ATOM     19  O   UNL A   1      29.614  31.414  21.962  1.00  0.00    -0.224 OA
ENDBRANCH  11  16
ENDBRANCH   9  10
BRANCH   8  20
ATOM     20  C   UNL A   1      32.200  26.532  26.221  1.00  0.00    -0.013 A 
ATOM     21  C   UNL A   1      33.540  26.844  25.931  1.00  0.00     0.009 A 
ATOM     22  C   UNL A   1      31.457  27.417  27.014  1.00  0.00     0.009 A 
ATOM     23  C   UNL A   1      34.117  28.025  26.395  1.00  0.00     0.001 A 
ATOM     24  C   UNL A   1      32.034  28.607  27.467  1.00  0.00     0.001 A 
ATOM     25  C   UNL A   1      33.359  28.913  27.153  1.00  0.00     0.000 A 
ENDBRANCH   8  20
ENDBRANCH   5   8
ENDBRANCH   3   4
ENDBRANCH   2   3
ENDBRANCH   1   2
BRANCH   1  26
ATOM     26  C   UNL A   1      36.841  23.739  25.232  1.00  0.00     0.116 C 
BRANCH  26  27
ATOM     27  N   UNL A   1      37.935  22.795  25.402  1.00  0.00    -0.352 N 
ATOM     28  C   UNL A   1      39.134  22.981  26.046  1.00  0.00     0.251 C 
ATOM     29  H   UNL A   1      37.798  21.905  25.001  1.00  0.00     0.163 HD
ATOM     30  O   UNL A   1      40.000  22.113  25.997  1.00  0.00    -0.269 OA
BRANCH  28  31
ATOM     31  C   UNL A   1      39.381  24.248  26.762  1.00  0.00     0.039 A 
ATOM     32  C   UNL A   1      38.871  24.406  28.053  1.00  0.00     0.014 A 
ATOM     33  C   UNL A   1      40.147  25.260  26.175  1.00  0.00     0.014 A 
ATOM     34  C   UNL A   1      39.189  25.551  28.784  1.00  0.00     0.010 A 
ATOM     35  C   UNL A   1      40.515  26.370  26.929  1.00  0.00     0.010 A 
ATOM     36  C   UNL A   1      40.045  26.524  28.242  1.00  0.00    -0.014 A 
BRANCH  36  37
ATOM     37  C   UNL A   1      40.474  27.702  29.037  1.00  0.00     0.031 A 
ATOM     38  C   UNL A   1      41.786  27.677  29.772  1.00  0.00     0.074 A 
ATOM     39  C   UNL A   1      39.648  28.760  29.160  1.00  0.00     0.049 A 
ATOM     40  N   UNL A   1      42.291  28.565  30.589  1.00  0.00    -0.248 NA
ATOM     41  C   UNL A   1      42.627  26.484  29.587  1.00  0.00     0.031 C 
ATOM     42  C   UNL A   1      38.328  28.878  28.535  1.00  0.00     0.029 A 
ATOM     43  N   UNL A   1      39.786  29.929  29.864  1.00  0.00    -0.354 N 
ATOM     44  C   UNL A   1      43.497  28.033  31.027  1.00  0.00     0.074 A 
ATOM     45  C   UNL A   1      43.626  26.724  30.423  1.00  0.00     0.031 C 
ATOM     46  C   UNL A   1      37.786  30.061  28.871  1.00  0.00     0.029 A 
ATOM     47  C   UNL A   1      38.701  30.767  29.762  1.00  0.00     0.049 A 
ATOM     48  H   UNL A   1      40.588  30.147  30.392  1.00  0.00     0.167 HD
ATOM     49  C   UNL A   1      44.423  28.593  31.842  1.00  0.00     0.037 A 
ATOM     50  C   UNL A   1      38.466  31.966  30.330  1.00  0.00     0.037 A 
ATOM     51  C   UNL A   1      44.301  29.907  32.416  1.00  0.00     0.049 A 
ATOM     52  C   UNL A   1      39.513  32.571  31.226  1.00  0.00     0.074 A 
ATOM     53  C   UNL A   1      45.212  30.589  33.204  1.00  0.00     0.029 A 
ATOM     54  N   UNL A   1      43.201  30.739  32.264  1.00  0.00    -0.354 N 
ATOM     55  N   UNL A   1      40.677  32.080  31.580  1.00  0.00    -0.248 NA
ATOM     56  C   UNL A   1      39.219  33.894  31.794  1.00  0.00     0.031 C 
ATOM     57  C   UNL A   1      44.648  31.819  33.560  1.00  0.00     0.029 A 
ATOM     58  C   UNL A   1      43.404  31.921  32.958  1.00  0.00     0.049 A 
ATOM     59  H   UNL A   1      42.397  30.521  31.742  1.00  0.00     0.167 HD
ATOM     60  C   UNL A   1      41.265  33.045  32.391  1.00  0.00     0.074 A 
ATOM     61  C   UNL A   1      40.333  34.151  32.467  1.00  0.00     0.031 C 
ATOM     62  C   UNL A   1      42.468  33.017  33.014  1.00  0.00     0.037 A 
BRANCH  49  63
ATOM     63  C   UNL A   1      45.654  27.787  32.153  1.00  0.00     0.058 A 
ATOM     64  C   UNL A   1      45.721  26.952  33.280  1.00  0.00     0.135 A 
ATOM     65  C   UNL A   1      46.769  27.824  31.300  1.00  0.00     0.135 A 
ATOM     66  F   UNL A   1      44.689  26.890  34.137  1.00  0.00    -0.206 F 
ATOM     67  C   UNL A   1      46.860  26.209  33.568  1.00  0.00     0.059 A 
ATOM     68  C   UNL A   1      47.909  27.068  31.553  1.00  0.00     0.059 A 
ATOM     69  F   UNL A   1      46.759  28.605  30.208  1.00  0.00    -0.206 F 
ATOM     70  C   UNL A   1      47.951  26.275  32.701  1.00  0.00     0.060 A 
BRANCH  70  71
ATOM     71  S   UNL A   1      49.422  25.304  33.089  1.00  0.00     0.124 S 
ATOM     72  O   UNL A   1      49.975  25.072  31.758  1.00  0.00    -0.237 OA
ATOM     73  O   UNL A   1      50.183  26.213  33.941  1.00  0.00    -0.237 OA
ATOM     74  O   UNL A   1      48.884  24.125  33.759  1.00  0.00    -0.744 OA
ENDBRANCH  70  71
ENDBRANCH  49  63
BRANCH  50  75
ATOM     75  C   UNL A   1      37.194  32.683  30.051  1.00  0.00     0.058 A 
ATOM     76  C   UNL A   1      37.131  33.679  29.065  1.00  0.00     0.135 A 
ATOM     77  C   UNL A   1      36.015  32.379  30.749  1.00  0.00     0.135 A 
ATOM     78  F   UNL A   1      38.233  34.009  28.374  1.00  0.00    -0.206 F 
ATOM     79  C   UNL A   1      35.950  34.359  28.789  1.00  0.00     0.059 A 
ATOM     80  C   UNL A   1      34.815  33.030  30.475  1.00  0.00     0.059 A 
ATOM     81  F   UNL A   1      36.018  31.422  31.690  1.00  0.00    -0.206 F 
ATOM     82  C   UNL A   1      34.795  34.026  29.499  1.00  0.00     0.060 A 
BRANCH  82  83
ATOM     83  S   UNL A   1      33.255  34.879  29.099  1.00  0.00     0.124 S 
ATOM     84  O   UNL A   1      33.749  36.147  28.575  1.00  0.00    -0.237 OA
ATOM     85  O   UNL A   1      32.649  33.976  28.124  1.00  0.00    -0.237 OA
ATOM     86  O   UNL A   1      32.568  34.951  30.385  1.00  0.00    -0.744 OA
ENDBRANCH  82  83
ENDBRANCH  50  75
BRANCH  62  87
ATOM     87  C   UNL A   1      42.866  34.230  33.806  1.00  0.00     0.058 A 
ATOM     88  C   UNL A   1      42.636  34.316  35.188  1.00  0.00     0.135 A 
ATOM     89  C   UNL A   1      43.541  35.294  33.186  1.00  0.00     0.135 A 
ATOM     90  F   UNL A   1      41.988  33.330  35.828  1.00  0.00    -0.206 F 
ATOM     91  C   UNL A   1      43.047  35.422  35.924  1.00  0.00     0.059 A 
ATOM     92  C   UNL A   1      43.983  36.398  33.906  1.00  0.00     0.059 A 
ATOM     93  F   UNL A   1      43.793  35.256  31.867  1.00  0.00    -0.206 F 
ATOM     94  C   UNL A   1      43.723  36.457  35.275  1.00  0.00     0.060 A 
BRANCH  94  95
ATOM     95  S   UNL A   1      44.290  37.867  36.249  1.00  0.00     0.124 S 
ATOM     96  O   UNL A   1      45.689  37.520  36.481  1.00  0.00    -0.237 OA
ATOM     97  O   UNL A   1      44.056  38.988  35.345  1.00  0.00    -0.237 OA
ATOM     98  O   UNL A   1      43.431  37.832  37.429  1.00  0.00    -0.744 OA
ENDBRANCH  94  95
ENDBRANCH  62  87
ENDBRANCH  36  37
ENDBRANCH  28  31
ENDBRANCH  26  27
ENDBRANCH   1  26
TORSDOF 17
ENDMDL
MODEL 2
REMARK VINA RESULT:     -11.8      3.461      9.672
REMARK SMILES CS(=O)(=O)c1ccc(/C=C(/C(=O)NCCCCNC(=O)c2ccc(-c3c4nc(c(-c5c(F)cc(S(=O)(=O)[O-])cc5F)c5ccc([nH]5)c(-c5c(F)cc(S(=O)(=O)[O-])cc5F)c5nc(c(-c6c(F)cc(S(=O)(=O)[O-])cc6F)c6ccc3[nH]6)C=C5)C=C4)cc2)c2ccccc2)cc1
REMARK SMILES IDX 16 1 15 2 14 3 13 4 11 5 12 6 10 8 9 9 8 10 5 11 6 12 94 13
REMARK SMILES IDX 7 14 93 15 2 16 1 17 3 18 4 19 87 20 88 21 92 22 89 23 91 24
REMARK SMILES IDX 90 25 17 26 18 27 19 28 20 30 21 31 22 32 86 33 23 34 85 35
REMARK SMILES IDX 24 36 25 37 26 38 79 39 27 40 84 41 78 42 80 43 28 44 83 45
REMARK SMILES IDX 77 46 76 47 29 49 63 50 42 51 62 52 43 53 46 54 61 55 81 56
REMARK SMILES IDX 44 57 45 58 60 60 82 61 47 62 30 63 31 64 40 65 32 66 33 67
REMARK SMILES IDX 39 68 41 69 34 70 35 71 36 72 37 73 38 74 64 75 65 76 74 77
REMARK SMILES IDX 66 78 67 79 73 80 75 81 68 82 69 83 70 84 71 85 72 86 48 87
REMARK SMILES IDX 49 88 58 89 50 90 51 91 57 92 59 93 52 94 53 95 54 96 55 97
REMARK SMILES IDX 56 98
REMARK H PARENT 13 7 18 29 80 48 46 59
REMARK Flexibility Score: inf
ROOT
ATOM      1  C   UNL A   1      33.232  27.611  26.758  1.00  0.00     0.023 C 
ENDROOT
BRANCH   1   2
ATOM      2  C   UNL A   1      31.772  27.572  26.289  1.00  0.00     0.023 C 
BRANCH   2   3
ATOM      3  C   UNL A   1      31.386  26.298  25.533  1.00  0.00     0.116 C 
BRANCH   3   4
ATOM      4  N   UNL A   1      31.764  26.410  24.138  1.00  0.00    -0.352 N 
ATOM      5  C   UNL A   1      32.426  25.596  23.272  1.00  0.00     0.251 C 
ATOM      6  O   UNL A   1      32.612  26.047  22.139  1.00  0.00    -0.269 OA
ATOM      7  H   UNL A   1      31.479  27.258  23.728  1.00  0.00     0.163 HD
BRANCH   5   8
ATOM      8  C   UNL A   1      32.848  24.181  23.608  1.00  0.00     0.047 C 
ATOM      9  C   UNL A   1      31.951  23.182  23.770  1.00  0.00     0.022 C 
BRANCH   9  10
ATOM     10  C   UNL A   1      32.181  21.735  23.970  1.00  0.00    -0.025 A 
ATOM     11  C   UNL A   1      32.753  18.995  24.153  1.00  0.00     0.067 A 
ATOM     12  C   UNL A   1      32.741  19.780  25.306  1.00  0.00     0.021 A 
ATOM     13  C   UNL A   1      32.456  19.554  22.910  1.00  0.00     0.021 A 
ATOM     14  C   UNL A   1      32.428  21.141  25.213  1.00  0.00     0.009 A 
ATOM     15  C   UNL A   1      32.165  20.917  22.825  1.00  0.00     0.009 A 
BRANCH  11  16
ATOM     16  S   UNL A   1      33.199  17.278  24.245  1.00  0.00     0.175 S 
ATOM     17  C   UNL A   1      34.951  17.317  24.512  1.00  0.00     0.163 C 
ATOM     18  O   UNL A   1      32.967  16.687  22.938  1.00  0.00    -0.224 OA
ATOM     19  O   UNL A   1      32.569  16.732  25.429  1.00  0.00    -0.224 OA
ENDBRANCH  11  16
ENDBRANCH   9  10
BRANCH   8  20
ATOM     20  C   UNL A   1      34.283  23.969  23.928  1.00  0.00    -0.013 A 
ATOM     21  C   UNL A   1      34.751  24.351  25.197  1.00  0.00     0.009 A 
ATOM     22  C   UNL A   1      35.164  23.327  23.049  1.00  0.00     0.009 A 
ATOM     23  C   UNL A   1      36.058  24.073  25.593  1.00  0.00     0.001 A 
ATOM     24  C   UNL A   1      36.471  23.036  23.452  1.00  0.00     0.001 A 
ATOM     25  C   UNL A   1      36.914  23.404  24.723  1.00  0.00     0.000 A 
ENDBRANCH   8  20
ENDBRANCH   5   8
ENDBRANCH   3   4
ENDBRANCH   2   3
ENDBRANCH   1   2
BRANCH   1  26
ATOM     26  C   UNL A   1      34.048  28.794  26.243  1.00  0.00     0.116 C 
BRANCH  26  27
ATOM     27  N   UNL A   1      33.796  30.022  26.980  1.00  0.00    -0.352 N 
ATOM     28  C   UNL A   1      34.592  30.638  27.915  1.00  0.00     0.251 C 
ATOM     29  H   UNL A   1      32.943  30.473  26.782  1.00  0.00     0.163 HD
ATOM     30  O   UNL A   1      34.177  31.614  28.531  1.00  0.00    -0.269 OA
BRANCH  28  31
ATOM     31  C   UNL A   1      35.933  30.088  28.198  1.00  0.00     0.039 A 
ATOM     32  C   UNL A   1      36.914  30.155  27.205  1.00  0.00     0.014 A 
ATOM     33  C   UNL A   1      36.231  29.545  29.451  1.00  0.00     0.014 A 
ATOM     34  C   UNL A   1      38.215  29.742  27.493  1.00  0.00     0.010 A 
ATOM     35  C   UNL A   1      37.543  29.193  29.755  1.00  0.00     0.010 A 
ATOM     36  C   UNL A   1      38.549  29.294  28.782  1.00  0.00    -0.014 A 
BRANCH  36  37
ATOM     37  C   UNL A   1      39.945  28.941  29.139  1.00  0.00     0.031 A 
ATOM     38  C   UNL A   1      40.837  29.960  29.792  1.00  0.00     0.074 A 
ATOM     39  C   UNL A   1      40.433  27.730  28.802  1.00  0.00     0.049 A 
ATOM     40  N   UNL A   1      42.106  29.874  30.094  1.00  0.00    -0.248 NA
ATOM     41  C   UNL A   1      40.227  31.258  30.124  1.00  0.00     0.031 C 
ATOM     42  C   UNL A   1      39.680  26.675  28.119  1.00  0.00     0.029 A 
ATOM     43  N   UNL A   1      41.681  27.187  28.971  1.00  0.00    -0.354 N 
ATOM     44  C   UNL A   1      42.452  31.107  30.634  1.00  0.00     0.074 A 
ATOM     45  C   UNL A   1      41.270  31.940  30.575  1.00  0.00     0.031 C 
ATOM     46  C   UNL A   1      40.477  25.608  27.943  1.00  0.00     0.029 A 
ATOM     47  C   UNL A   1      41.804  25.915  28.466  1.00  0.00     0.049 A 
ATOM     48  H   UNL A   1      42.420  27.665  29.414  1.00  0.00     0.167 HD
ATOM     49  C   UNL A   1      43.639  31.501  31.152  1.00  0.00     0.037 A 
ATOM     50  C   UNL A   1      42.869  25.090  28.420  1.00  0.00     0.037 A 
ATOM     51  C   UNL A   1      44.802  30.657  31.234  1.00  0.00     0.049 A 
ATOM     52  C   UNL A   1      44.176  25.548  29.009  1.00  0.00     0.074 A 
ATOM     53  C   UNL A   1      46.034  30.943  31.796  1.00  0.00     0.029 A 
ATOM     54  N   UNL A   1      44.879  29.363  30.739  1.00  0.00    -0.354 N 
ATOM     55  N   UNL A   1      44.467  26.696  29.573  1.00  0.00    -0.248 NA
ATOM     56  C   UNL A   1      45.297  24.599  28.961  1.00  0.00     0.031 C 
ATOM     57  C   UNL A   1      46.868  29.835  31.609  1.00  0.00     0.029 A 
ATOM     58  C   UNL A   1      46.141  28.843  30.969  1.00  0.00     0.049 A 
ATOM     59  H   UNL A   1      44.144  28.886  30.292  1.00  0.00     0.167 HD
ATOM     60  C   UNL A   1      45.797  26.597  29.970  1.00  0.00     0.074 A 
ATOM     61  C   UNL A   1      46.249  25.275  29.591  1.00  0.00     0.031 C 
ATOM     62  C   UNL A   1      46.572  27.518  30.593  1.00  0.00     0.037 A 
BRANCH  49  63
ATOM     63  C   UNL A   1      43.736  32.907  31.678  1.00  0.00     0.058 A 
ATOM     64  C   UNL A   1      43.986  33.995  30.826  1.00  0.00     0.135 A 
ATOM     65  C   UNL A   1      43.547  33.174  33.043  1.00  0.00     0.135 A 
ATOM     66  F   UNL A   1      44.189  33.794  29.515  1.00  0.00    -0.206 F 
ATOM     67  C   UNL A   1      44.077  35.294  31.314  1.00  0.00     0.059 A 
ATOM     68  C   UNL A   1      43.607  34.470  33.550  1.00  0.00     0.059 A 
ATOM     69  F   UNL A   1      43.305  32.171  33.902  1.00  0.00    -0.206 F 
ATOM     70  C   UNL A   1      43.889  35.522  32.678  1.00  0.00     0.060 A 
BRANCH  70  71
ATOM     71  S   UNL A   1      44.011  37.213  33.295  1.00  0.00     0.124 S 
ATOM     72  O   UNL A   1      42.721  37.374  33.959  1.00  0.00    -0.237 OA
ATOM     73  O   UNL A   1      45.172  37.144  34.177  1.00  0.00    -0.237 OA
ATOM     74  O   UNL A   1      44.195  38.005  32.083  1.00  0.00    -0.744 OA
ENDBRANCH  70  71
ENDBRANCH  49  63
BRANCH  50  75
ATOM     75  C   UNL A   1      42.737  23.739  27.814  1.00  0.00     0.058 A 
ATOM     76  C   UNL A   1      42.492  22.613  28.614  1.00  0.00     0.135 A 
ATOM     77  C   UNL A   1      42.837  23.547  26.428  1.00  0.00     0.135 A 
ATOM     78  F   UNL A   1      42.393  22.745  29.946  1.00  0.00    -0.206 F 
ATOM     79  C   UNL A   1      42.364  21.342  28.064  1.00  0.00     0.059 A 
ATOM     80  C   UNL A   1      42.690  22.289  25.852  1.00  0.00     0.059 A 
ATOM     81  F   UNL A   1      43.054  24.595  25.617  1.00  0.00    -0.206 F 
ATOM     82  C   UNL A   1      42.463  21.190  26.680  1.00  0.00     0.060 A 
BRANCH  82  83
ATOM     83  S   UNL A   1      42.245  19.543  25.971  1.00  0.00     0.124 S 
ATOM     84  O   UNL A   1      40.811  19.527  25.705  1.00  0.00    -0.237 OA
ATOM     85  O   UNL A   1      43.113  19.598  24.797  1.00  0.00    -0.237 OA
ATOM     86  O   UNL A   1      42.702  18.657  27.036  1.00  0.00    -0.744 OA
ENDBRANCH  82  83
ENDBRANCH  50  75
BRANCH  62  87
ATOM     87  C   UNL A   1      47.979  27.121  30.939  1.00  0.00     0.058 A 
ATOM     88  C   UNL A   1      48.277  26.415  32.114  1.00  0.00     0.135 A 
ATOM     89  C   UNL A   1      49.033  27.396  30.053  1.00  0.00     0.135 A 
ATOM     90  F   UNL A   1      47.307  26.133  32.998  1.00  0.00    -0.206 F 
ATOM     91  C   UNL A   1      49.575  26.011  32.408  1.00  0.00     0.059 A 
ATOM     92  C   UNL A   1      50.334  26.981  30.314  1.00  0.00     0.059 A 
ATOM     93  F   UNL A   1      48.798  28.062  28.911  1.00  0.00    -0.206 F 
ATOM     94  C   UNL A   1      50.596  26.295  31.500  1.00  0.00     0.060 A 
BRANCH  94  95
ATOM     95  S   UNL A   1      52.269  25.726  31.870  1.00  0.00     0.124 S 
ATOM     96  O   UNL A   1      52.958  26.000  30.613  1.00  0.00    -0.237 OA
ATOM     97  O   UNL A   1      52.646  26.573  32.998  1.00  0.00    -0.237 OA
ATOM     98  O   UNL A   1      52.084  24.313  32.191  1.00  0.00    -0.744 OA
ENDBRANCH  94  95
ENDBRANCH  62  87
ENDBRANCH  36  37
ENDBRANCH  28  31
ENDBRANCH  26  27
ENDBRANCH   1  26
TORSDOF 17
ENDMDL
MODEL 3
REMARK VINA RESULT:     -11.6      4.653     11.326
REMARK SMILES CS(=O)(=O)c1ccc(/C=C(/C(=O)NCCCCNC(=O)c2ccc(-c3c4nc(c(-c5c(F)cc(S(=O)(=O)[O-])cc5F)c5ccc([nH]5)c(-c5c(F)cc(S(=O)(=O)[O-])cc5F)c5nc(c(-c6c(F)cc(S(=O)(=O)[O-])cc6F)c6ccc3[nH]6)C=C5)C=C4)cc2)c2ccccc2)cc1
REMARK SMILES IDX 16 1 15 2 14 3 13 4 11 5 12 6 10 8 9 9 8 10 5 11 6 12 94 13
REMARK SMILES IDX 7 14 93 15 2 16 1 17 3 18 4 19 87 20 88 21 92 22 89 23 91 24
REMARK SMILES IDX 90 25 17 26 18 27 19 28 20 30 21 31 22 32 86 33 23 34 85 35
REMARK SMILES IDX 24 36 25 37 26 38 79 39 27 40 84 41 78 42 80 43 28 44 83 45
REMARK SMILES IDX 77 46 76 47 29 49 63 50 42 51 62 52 43 53 46 54 61 55 81 56
REMARK SMILES IDX 44 57 45 58 60 60 82 61 47 62 30 63 31 64 40 65 32 66 33 67
REMARK SMILES IDX 39 68 41 69 34 70 35 71 36 72 37 73 38 74 64 75 65 76 74 77
REMARK SMILES IDX 66 78 67 79 73 80 75 81 68 82 69 83 70 84 71 85 72 86 48 87
REMARK SMILES IDX 49 88 58 89 50 90 51 91 57 92 59 93 52 94 53 95 54 96 55 97
REMARK SMILES IDX 56 98
REMARK H PARENT 13 7 18 29 80 48 46 59
REMARK Flexibility Score: inf
ROOT
ATOM      1  C   UNL A   1      34.671  32.627  29.724  1.00  0.00     0.023 C 
ENDROOT
BRANCH   1   2
ATOM      2  C   UNL A   1      36.117  33.004  30.069  1.00  0.00     0.023 C 
BRANCH   2   3
ATOM      3  C   UNL A   1      36.247  34.157  31.068  1.00  0.00     0.116 C 
BRANCH   3   4
ATOM      4  N   UNL A   1      35.470  33.877  32.259  1.00  0.00    -0.352 N 
ATOM      5  C   UNL A   1      35.695  33.139  33.379  1.00  0.00     0.251 C 
ATOM      6  O   UNL A   1      34.767  33.088  34.190  1.00  0.00    -0.269 OA
ATOM      7  H   UNL A   1      34.590  34.317  32.258  1.00  0.00     0.163 HD
BRANCH   5   8
ATOM      8  C   UNL A   1      37.019  32.476  33.694  1.00  0.00     0.047 C 
ATOM      9  C   UNL A   1      37.422  31.342  33.076  1.00  0.00     0.022 C 
BRANCH   9  10
ATOM     10  C   UNL A   1      38.717  30.635  33.160  1.00  0.00    -0.025 A 
ATOM     11  C   UNL A   1      41.115  29.180  33.119  1.00  0.00     0.067 A 
ATOM     12  C   UNL A   1      41.130  30.533  33.457  1.00  0.00     0.021 A 
ATOM     13  C   UNL A   1      39.913  28.534  32.828  1.00  0.00     0.021 A 
ATOM     14  C   UNL A   1      39.928  31.248  33.502  1.00  0.00     0.009 A 
ATOM     15  C   UNL A   1      38.721  29.262  32.857  1.00  0.00     0.009 A 
BRANCH  11  16
ATOM     16  S   UNL A   1      42.636  28.270  33.005  1.00  0.00     0.175 S 
ATOM     17  C   UNL A   1      42.589  27.201  34.418  1.00  0.00     0.163 C 
ATOM     18  O   UNL A   1      43.731  29.206  33.199  1.00  0.00    -0.224 OA
ATOM     19  O   UNL A   1      42.561  27.452  31.812  1.00  0.00    -0.224 OA
ENDBRANCH  11  16
ENDBRANCH   9  10
BRANCH   8  20
ATOM     20  C   UNL A   1      37.785  33.023  34.843  1.00  0.00    -0.013 A 
ATOM     21  C   UNL A   1      38.513  34.212  34.659  1.00  0.00     0.009 A 
ATOM     22  C   UNL A   1      37.742  32.448  36.120  1.00  0.00     0.009 A 
ATOM     23  C   UNL A   1      39.157  34.830  35.729  1.00  0.00     0.001 A 
ATOM     24  C   UNL A   1      38.377  33.078  37.195  1.00  0.00     0.001 A 
ATOM     25  C   UNL A   1      39.078  34.269  37.000  1.00  0.00     0.000 A 
ENDBRANCH   8  20
ENDBRANCH   5   8
ENDBRANCH   3   4
ENDBRANCH   2   3
ENDBRANCH   1   2
BRANCH   1  26
ATOM     26  C   UNL A   1      34.402  32.366  28.245  1.00  0.00     0.116 C 
BRANCH  26  27
ATOM     27  N   UNL A   1      33.797  31.066  27.997  1.00  0.00    -0.352 N 
ATOM     28  C   UNL A   1      34.406  29.836  27.936  1.00  0.00     0.251 C 
ATOM     29  H   UNL A   1      32.822  31.068  27.854  1.00  0.00     0.163 HD
ATOM     30  O   UNL A   1      33.762  28.847  27.600  1.00  0.00    -0.269 OA
BRANCH  28  31
ATOM     31  C   UNL A   1      35.847  29.726  28.239  1.00  0.00     0.039 A 
ATOM     32  C   UNL A   1      36.239  29.325  29.518  1.00  0.00     0.014 A 
ATOM     33  C   UNL A   1      36.804  29.981  27.252  1.00  0.00     0.014 A 
ATOM     34  C   UNL A   1      37.591  29.109  29.787  1.00  0.00     0.010 A 
ATOM     35  C   UNL A   1      38.144  29.705  27.505  1.00  0.00     0.010 A 
ATOM     36  C   UNL A   1      38.551  29.260  28.772  1.00  0.00    -0.014 A 
BRANCH  36  37
ATOM     37  C   UNL A   1      39.981  28.944  29.009  1.00  0.00     0.031 A 
ATOM     38  C   UNL A   1      40.912  30.005  29.527  1.00  0.00     0.074 A 
ATOM     39  C   UNL A   1      40.457  27.725  28.681  1.00  0.00     0.049 A 
ATOM     40  N   UNL A   1      42.206  29.950  29.710  1.00  0.00    -0.248 NA
ATOM     41  C   UNL A   1      40.313  31.308  29.857  1.00  0.00     0.031 C 
ATOM     42  C   UNL A   1      39.661  26.630  28.122  1.00  0.00     0.029 A 
ATOM     43  N   UNL A   1      41.725  27.208  28.754  1.00  0.00    -0.354 N 
ATOM     44  C   UNL A   1      42.578  31.212  30.158  1.00  0.00     0.074 A 
ATOM     45  C   UNL A   1      41.381  32.025  30.175  1.00  0.00     0.031 C 
ATOM     46  C   UNL A   1      40.457  25.566  27.919  1.00  0.00     0.029 A 
ATOM     47  C   UNL A   1      41.822  25.916  28.298  1.00  0.00     0.049 A 
ATOM     48  H   UNL A   1      42.493  27.716  29.103  1.00  0.00     0.167 HD
ATOM     49  C   UNL A   1      43.803  31.646  30.541  1.00  0.00     0.037 A 
ATOM     50  C   UNL A   1      42.893  25.105  28.187  1.00  0.00     0.037 A 
ATOM     51  C   UNL A   1      44.983  30.823  30.549  1.00  0.00     0.049 A 
ATOM     52  C   UNL A   1      44.241  25.608  28.627  1.00  0.00     0.074 A 
ATOM     53  C   UNL A   1      46.257  31.151  30.978  1.00  0.00     0.029 A 
ATOM     54  N   UNL A   1      45.036  29.508  30.108  1.00  0.00    -0.354 N 
ATOM     55  N   UNL A   1      44.564  26.785  29.108  1.00  0.00    -0.248 NA
ATOM     56  C   UNL A   1      45.370  24.673  28.514  1.00  0.00     0.031 C 
ATOM     57  C   UNL A   1      47.090  30.048  30.762  1.00  0.00     0.029 A 
ATOM     58  C   UNL A   1      46.324  29.017  30.240  1.00  0.00     0.049 A 
ATOM     59  H   UNL A   1      44.271  29.001  29.755  1.00  0.00     0.167 HD
ATOM     60  C   UNL A   1      45.927  26.723  29.380  1.00  0.00     0.074 A 
ATOM     61  C   UNL A   1      46.364  25.390  29.019  1.00  0.00     0.031 C 
ATOM     62  C   UNL A   1      46.740  27.682  29.884  1.00  0.00     0.037 A 
BRANCH  49  63
ATOM     63  C   UNL A   1      43.923  33.076  30.992  1.00  0.00     0.058 A 
ATOM     64  C   UNL A   1      44.231  34.108  30.090  1.00  0.00     0.135 A 
ATOM     65  C   UNL A   1      43.699  33.425  32.333  1.00  0.00     0.135 A 
ATOM     66  F   UNL A   1      44.470  33.828  28.799  1.00  0.00    -0.206 F 
ATOM     67  C   UNL A   1      44.345  35.429  30.508  1.00  0.00     0.059 A 
ATOM     68  C   UNL A   1      43.780  34.744  32.769  1.00  0.00     0.059 A 
ATOM     69  F   UNL A   1      43.401  32.478  33.237  1.00  0.00    -0.206 F 
ATOM     70  C   UNL A   1      44.120  35.738  31.851  1.00  0.00     0.060 A 
BRANCH  70  71
ATOM     71  S   UNL A   1      44.272  37.457  32.377  1.00  0.00     0.124 S 
ATOM     72  O   UNL A   1      43.411  37.476  33.556  1.00  0.00    -0.237 OA
ATOM     73  O   UNL A   1      45.703  37.582  32.635  1.00  0.00    -0.237 OA
ATOM     74  O   UNL A   1      43.777  38.209  31.228  1.00  0.00    -0.744 OA
ENDBRANCH  70  71
ENDBRANCH  49  63
BRANCH  50  75
ATOM     75  C   UNL A   1      42.728  23.725  27.659  1.00  0.00     0.058 A 
ATOM     76  C   UNL A   1      42.551  22.638  28.527  1.00  0.00     0.135 A 
ATOM     77  C   UNL A   1      42.729  23.467  26.279  1.00  0.00     0.135 A 
ATOM     78  F   UNL A   1      42.548  22.834  29.854  1.00  0.00    -0.206 F 
ATOM     79  C   UNL A   1      42.394  21.341  28.050  1.00  0.00     0.059 A 
ATOM     80  C   UNL A   1      42.551  22.181  25.777  1.00  0.00     0.059 A 
ATOM     81  F   UNL A   1      42.877  24.475  25.406  1.00  0.00    -0.206 F 
ATOM     82  C   UNL A   1      42.394  21.123  26.671  1.00  0.00     0.060 A 
BRANCH  82  83
ATOM     83  S   UNL A   1      42.139  19.443  26.060  1.00  0.00     0.124 S 
ATOM     84  O   UNL A   1      40.709  19.449  25.774  1.00  0.00    -0.237 OA
ATOM     85  O   UNL A   1      43.022  19.402  24.897  1.00  0.00    -0.237 OA
ATOM     86  O   UNL A   1      42.556  18.610  27.183  1.00  0.00    -0.744 OA
ENDBRANCH  82  83
ENDBRANCH  50  75
BRANCH  62  87
ATOM     87  C   UNL A   1      48.181  27.321  30.111  1.00  0.00     0.058 A 
ATOM     88  C   UNL A   1      49.173  27.618  29.164  1.00  0.00     0.135 A 
ATOM     89  C   UNL A   1      48.582  26.725  31.317  1.00  0.00     0.135 A 
ATOM     90  F   UNL A   1      48.841  28.181  27.991  1.00  0.00    -0.206 F 
ATOM     91  C   UNL A   1      50.511  27.321  29.398  1.00  0.00     0.059 A 
ATOM     92  C   UNL A   1      49.918  26.441  31.583  1.00  0.00     0.059 A 
ATOM     93  F   UNL A   1      47.673  26.428  32.259  1.00  0.00    -0.206 F 
ATOM     94  C   UNL A   1      50.874  26.736  30.613  1.00  0.00     0.060 A 
BRANCH  94  95
ATOM     95  S   UNL A   1      52.620  26.396  30.924  1.00  0.00     0.124 S 
ATOM     96  O   UNL A   1      53.146  26.293  29.566  1.00  0.00    -0.237 OA
ATOM     97  O   UNL A   1      53.039  27.572  31.679  1.00  0.00    -0.237 OA
ATOM     98  O   UNL A   1      52.593  25.149  31.683  1.00  0.00    -0.744 OA
ENDBRANCH  94  95
ENDBRANCH  62  87
ENDBRANCH  36  37
ENDBRANCH  28  31
ENDBRANCH  26  27
ENDBRANCH   1  26
TORSDOF 17
ENDMDL
