MODEL 1
REMARK VINA RESULT:     -12.1      0.000      0.000
REMARK SMILES C[C@]12CCC(=O)N1c1ccccc1C(=O)N2CCCC(=O)NCCCCNC(=O)c1ccc(-c2c3nc(c(-c4c(F)cc(S(=O)(=O)[O-])cc4F)c4ccc([nH]4)c(-c4c(F)cc(S(=O)(=O)[O-])cc4F)c4nc(c(-c5c(F)cc(S(=O)(=O)[O-])cc5F)c5ccc2[nH]5)C=C4)C=C3)cc1
REMARK SMILES IDX 24 1 23 2 22 3 20 4 21 5 19 7 18 8 17 9 16 10 1 11 2 12 3 13
REMARK SMILES IDX 7 14 4 15 5 16 8 17 14 18 6 19 9 20 13 21 15 22 10 23 12 24
REMARK SMILES IDX 11 25 25 26 26 27 27 28 28 29 29 31 30 32 31 33 95 34 32 35
REMARK SMILES IDX 94 36 33 37 34 38 35 39 88 40 36 41 93 42 87 43 89 44 37 45
REMARK SMILES IDX 92 46 86 47 85 48 38 50 72 51 51 52 71 53 52 54 55 55 70 56
REMARK SMILES IDX 90 57 53 58 54 59 69 61 91 62 56 63 39 64 40 65 49 66 41 67
REMARK SMILES IDX 42 68 48 69 50 70 43 71 44 72 45 73 46 74 47 75 73 76 74 77
REMARK SMILES IDX 83 78 75 79 76 80 82 81 84 82 77 83 78 84 79 85 80 86 81 87
REMARK SMILES IDX 57 88 58 89 67 90 59 91 60 92 66 93 68 94 61 95 62 96 63 97
REMARK SMILES IDX 64 98 65 99
REMARK H PARENT 22 6 27 30 89 49 55 60
REMARK Flexibility Score: inf
ROOT
ATOM      1  C   UNL A   1      32.337  29.832  25.338  1.00  0.00     0.023 C 
ENDROOT
BRANCH   1   2
ATOM      2  C   UNL A   1      30.883  30.155  24.986  1.00  0.00     0.116 C 
BRANCH   2   3
ATOM      3  N   UNL A   1      30.642  30.022  23.562  1.00  0.00    -0.356 N 
ATOM      4  C   UNL A   1      30.197  28.948  22.856  1.00  0.00     0.220 C 
ATOM      5  O   UNL A   1      30.090  29.038  21.633  1.00  0.00    -0.275 OA
ATOM      6  H   UNL A   1      30.830  30.827  23.027  1.00  0.00     0.163 HD
BRANCH   4   7
ATOM      7  C   UNL A   1      29.849  27.663  23.576  1.00  0.00     0.102 C 
BRANCH   7   8
ATOM      8  C   UNL A   1      30.750  26.491  23.167  1.00  0.00     0.031 C 
BRANCH   8   9
ATOM      9  C   UNL A   1      32.218  26.524  23.649  1.00  0.00     0.123 C 
BRANCH   9  10
ATOM     10  N   UNL A   1      32.724  25.253  24.171  1.00  0.00    -0.315 N 
ATOM     11  C   UNL A   1      31.791  25.773  26.437  1.00  0.00     0.060 C 
ATOM     12  C   UNL A   1      32.253  24.684  25.437  1.00  0.00     0.120 C 
ATOM     13  C   UNL A   1      31.114  23.677  25.229  1.00  0.00     0.061 C 
ATOM     14  N   UNL A   1      33.240  23.837  26.085  1.00  0.00    -0.288 N 
ATOM     15  C   UNL A   1      31.149  22.850  26.516  1.00  0.00     0.105 C 
ATOM     16  C   UNL A   1      32.612  22.888  26.915  1.00  0.00     0.229 C 
ATOM     17  C   UNL A   1      34.473  23.530  25.469  1.00  0.00     0.059 A 
ATOM     18  C   UNL A   1      33.573  24.502  23.366  1.00  0.00     0.257 C 
ATOM     19  O   UNL A   1      33.112  22.157  27.747  1.00  0.00    -0.274 OA
ATOM     20  C   UNL A   1      35.515  22.909  26.161  1.00  0.00     0.027 A 
ATOM     21  C   UNL A   1      34.610  23.746  24.095  1.00  0.00     0.063 A 
ATOM     22  O   UNL A   1      33.602  24.564  22.143  1.00  0.00    -0.269 OA
ATOM     23  C   UNL A   1      36.671  22.504  25.484  1.00  0.00     0.002 A 
ATOM     24  C   UNL A   1      35.750  23.308  23.408  1.00  0.00     0.016 A 
ATOM     25  C   UNL A   1      36.781  22.687  24.106  1.00  0.00     0.001 A 
ENDBRANCH   9  10
ENDBRANCH   8   9
ENDBRANCH   7   8
ENDBRANCH   4   7
ENDBRANCH   2   3
ENDBRANCH   1   2
BRANCH   1  26
ATOM     26  C   UNL A   1      32.505  29.045  26.628  1.00  0.00     0.023 C 
BRANCH  26  27
ATOM     27  C   UNL A   1      33.832  29.259  27.344  1.00  0.00     0.116 C 
BRANCH  27  28
ATOM     28  N   UNL A   1      33.955  30.512  28.083  1.00  0.00    -0.352 N 
ATOM     29  C   UNL A   1      35.077  30.972  28.753  1.00  0.00     0.251 C 
ATOM     30  H   UNL A   1      33.158  31.089  28.108  1.00  0.00     0.163 HD
ATOM     31  O   UNL A   1      35.065  32.016  29.395  1.00  0.00    -0.269 OA
BRANCH  29  32
ATOM     32  C   UNL A   1      36.300  30.135  28.708  1.00  0.00     0.039 A 
ATOM     33  C   UNL A   1      36.724  29.485  29.867  1.00  0.00     0.014 A 
ATOM     34  C   UNL A   1      37.111  30.149  27.570  1.00  0.00     0.014 A 
ATOM     35  C   UNL A   1      38.047  29.080  29.968  1.00  0.00     0.010 A 
ATOM     36  C   UNL A   1      38.410  29.628  27.643  1.00  0.00     0.010 A 
ATOM     37  C   UNL A   1      38.919  29.165  28.867  1.00  0.00    -0.014 A 
BRANCH  37  38
ATOM     38  C   UNL A   1      40.359  28.822  29.062  1.00  0.00     0.031 A 
ATOM     39  C   UNL A   1      40.910  27.485  28.620  1.00  0.00     0.074 A 
ATOM     40  C   UNL A   1      41.203  29.770  29.520  1.00  0.00     0.049 A 
ATOM     41  N   UNL A   1      42.146  27.048  28.667  1.00  0.00    -0.248 NA
ATOM     42  C   UNL A   1      39.963  26.508  28.055  1.00  0.00     0.031 C 
ATOM     43  C   UNL A   1      40.806  31.111  29.956  1.00  0.00     0.029 A 
ATOM     44  N   UNL A   1      42.571  29.779  29.638  1.00  0.00    -0.354 N 
ATOM     45  C   UNL A   1      42.118  25.748  28.172  1.00  0.00     0.074 A 
ATOM     46  C   UNL A   1      40.740  25.455  27.843  1.00  0.00     0.031 C 
ATOM     47  C   UNL A   1      41.905  31.843  30.191  1.00  0.00     0.029 A 
ATOM     48  C   UNL A   1      43.082  31.002  30.004  1.00  0.00     0.049 A 
ATOM     49  H   UNL A   1      43.131  28.986  29.476  1.00  0.00     0.167 HD
ATOM     50  C   UNL A   1      43.145  24.882  27.995  1.00  0.00     0.037 A 
ATOM     51  C   UNL A   1      44.354  31.409  30.176  1.00  0.00     0.037 A 
ATOM     52  C   UNL A   1      44.525  25.189  28.274  1.00  0.00     0.049 A 
ATOM     53  C   UNL A   1      45.471  30.423  29.993  1.00  0.00     0.074 A 
ATOM     54  C   UNL A   1      45.633  24.370  28.136  1.00  0.00     0.029 A 
ATOM     55  N   UNL A   1      44.989  26.414  28.722  1.00  0.00    -0.354 N 
ATOM     56  N   UNL A   1      45.410  29.181  29.582  1.00  0.00    -0.248 NA
ATOM     57  C   UNL A   1      46.825  30.886  30.324  1.00  0.00     0.031 C 
ATOM     58  C   UNL A   1      46.765  25.094  28.520  1.00  0.00     0.029 A 
ATOM     59  C   UNL A   1      46.366  26.372  28.870  1.00  0.00     0.049 A 
ATOM     60  H   UNL A   1      44.424  27.199  28.909  1.00  0.00     0.167 HD
ATOM     61  C   UNL A   1      46.717  28.711  29.611  1.00  0.00     0.074 A 
ATOM     62  C   UNL A   1      47.550  29.810  30.053  1.00  0.00     0.031 C 
ATOM     63  C   UNL A   1      47.181  27.474  29.310  1.00  0.00     0.037 A 
BRANCH  50  64
ATOM     64  C   UNL A   1      42.833  23.506  27.472  1.00  0.00     0.058 A 
ATOM     65  C   UNL A   1      42.969  23.191  26.112  1.00  0.00     0.135 A 
ATOM     66  C   UNL A   1      42.487  22.470  28.355  1.00  0.00     0.135 A 
ATOM     67  F   UNL A   1      43.285  24.148  25.224  1.00  0.00    -0.206 F 
ATOM     68  C   UNL A   1      42.771  21.896  25.643  1.00  0.00     0.059 A 
ATOM     69  C   UNL A   1      42.300  21.163  27.911  1.00  0.00     0.059 A 
ATOM     70  F   UNL A   1      42.344  22.719  29.666  1.00  0.00    -0.206 F 
ATOM     71  C   UNL A   1      42.440  20.888  26.552  1.00  0.00     0.060 A 
BRANCH  71  72
ATOM     72  S   UNL A   1      42.222  19.205  25.931  1.00  0.00     0.124 S 
ATOM     73  O   UNL A   1      43.049  19.231  24.728  1.00  0.00    -0.237 OA
ATOM     74  O   UNL A   1      42.732  18.396  27.033  1.00  0.00    -0.237 OA
ATOM     75  O   UNL A   1      40.784  19.110  25.700  1.00  0.00    -0.744 OA
ENDBRANCH  71  72
ENDBRANCH  50  64
BRANCH  51  76
ATOM     76  C   UNL A   1      44.638  32.817  30.556  1.00  0.00     0.058 A 
ATOM     77  C   UNL A   1      44.819  33.802  29.574  1.00  0.00     0.135 A 
ATOM     78  C   UNL A   1      44.714  33.208  31.901  1.00  0.00     0.135 A 
ATOM     79  F   UNL A   1      44.763  33.473  28.274  1.00  0.00    -0.206 F 
ATOM     80  C   UNL A   1      45.074  35.126  29.912  1.00  0.00     0.059 A 
ATOM     81  C   UNL A   1      44.942  34.529  32.264  1.00  0.00     0.059 A 
ATOM     82  F   UNL A   1      44.534  32.303  32.876  1.00  0.00    -0.206 F 
ATOM     83  C   UNL A   1      45.131  35.481  31.263  1.00  0.00     0.060 A 
BRANCH  83  84
ATOM     84  S   UNL A   1      45.407  37.211  31.698  1.00  0.00     0.124 S 
ATOM     85  O   UNL A   1      45.722  37.793  30.400  1.00  0.00    -0.237 OA
ATOM     86  O   UNL A   1      44.121  37.594  32.277  1.00  0.00    -0.237 OA
ATOM     87  O   UNL A   1      46.513  37.142  32.648  1.00  0.00    -0.744 OA
ENDBRANCH  83  84
ENDBRANCH  51  76
BRANCH  63  88
ATOM     88  C   UNL A   1      48.656  27.238  29.451  1.00  0.00     0.058 A 
ATOM     89  C   UNL A   1      49.539  27.527  28.401  1.00  0.00     0.135 A 
ATOM     90  C   UNL A   1      49.195  26.784  30.664  1.00  0.00     0.135 A 
ATOM     91  F   UNL A   1      49.067  27.955  27.219  1.00  0.00    -0.206 F 
ATOM     92  C   UNL A   1      50.913  27.368  28.547  1.00  0.00     0.059 A 
ATOM     93  C   UNL A   1      50.567  26.634  30.838  1.00  0.00     0.059 A 
ATOM     94  F   UNL A   1      48.388  26.500  31.698  1.00  0.00    -0.206 F 
ATOM     95  C   UNL A   1      51.417  26.925  29.771  1.00  0.00     0.060 A 
BRANCH  95  96
ATOM     96  S   UNL A   1      53.206  26.773  29.962  1.00  0.00     0.124 S 
ATOM     97  O   UNL A   1      53.304  25.838  31.078  1.00  0.00    -0.237 OA
ATOM     98  O   UNL A   1      53.618  26.254  28.662  1.00  0.00    -0.237 OA
ATOM     99  O   UNL A   1      53.634  28.140  30.247  1.00  0.00    -0.744 OA
ENDBRANCH  95  96
ENDBRANCH  63  88
ENDBRANCH  37  38
ENDBRANCH  29  32
ENDBRANCH  27  28
ENDBRANCH  26  27
ENDBRANCH   1  26
TORSDOF 17
ENDMDL
MODEL 2
REMARK VINA RESULT:     -11.7      1.665      2.494
REMARK SMILES C[C@]12CCC(=O)N1c1ccccc1C(=O)N2CCCC(=O)NCCCCNC(=O)c1ccc(-c2c3nc(c(-c4c(F)cc(S(=O)(=O)[O-])cc4F)c4ccc([nH]4)c(-c4c(F)cc(S(=O)(=O)[O-])cc4F)c4nc(c(-c5c(F)cc(S(=O)(=O)[O-])cc5F)c5ccc2[nH]5)C=C4)C=C3)cc1
REMARK SMILES IDX 24 1 23 2 22 3 20 4 21 5 19 7 18 8 17 9 16 10 1 11 2 12 3 13
REMARK SMILES IDX 7 14 4 15 5 16 8 17 14 18 6 19 9 20 13 21 15 22 10 23 12 24
REMARK SMILES IDX 11 25 25 26 26 27 27 28 28 29 29 31 30 32 31 33 95 34 32 35
REMARK SMILES IDX 94 36 33 37 34 38 35 39 88 40 36 41 93 42 87 43 89 44 37 45
REMARK SMILES IDX 92 46 86 47 85 48 38 50 72 51 51 52 71 53 52 54 55 55 70 56
REMARK SMILES IDX 90 57 53 58 54 59 69 61 91 62 56 63 39 64 40 65 49 66 41 67
REMARK SMILES IDX 42 68 48 69 50 70 43 71 44 72 45 73 46 74 47 75 73 76 74 77
REMARK SMILES IDX 83 78 75 79 76 80 82 81 84 82 77 83 78 84 79 85 80 86 81 87
REMARK SMILES IDX 57 88 58 89 67 90 59 91 60 92 66 93 68 94 61 95 62 96 63 97
REMARK SMILES IDX 64 98 65 99
REMARK H PARENT 22 6 27 30 89 49 55 60
REMARK Flexibility Score: inf
ROOT
ATOM      1  C   UNL A   1      32.480  29.506  25.003  1.00  0.00     0.023 C 
ENDROOT
BRANCH   1   2
ATOM      2  C   UNL A   1      31.523  28.477  24.398  1.00  0.00     0.116 C 
BRANCH   2   3
ATOM      3  N   UNL A   1      30.883  27.681  25.428  1.00  0.00    -0.356 N 
ATOM      4  C   UNL A   1      30.716  26.333  25.500  1.00  0.00     0.220 C 
ATOM      5  O   UNL A   1      30.109  25.855  26.460  1.00  0.00    -0.275 OA
ATOM      6  H   UNL A   1      30.516  28.190  26.186  1.00  0.00     0.163 HD
BRANCH   4   7
ATOM      7  C   UNL A   1      31.265  25.444  24.405  1.00  0.00     0.102 C 
BRANCH   7   8
ATOM      8  C   UNL A   1      32.088  24.270  24.951  1.00  0.00     0.031 C 
BRANCH   8   9
ATOM      9  C   UNL A   1      32.309  23.063  24.011  1.00  0.00     0.123 C 
BRANCH   9  10
ATOM     10  N   UNL A   1      33.142  21.994  24.566  1.00  0.00    -0.315 N 
ATOM     11  C   UNL A   1      35.157  22.907  23.389  1.00  0.00     0.060 C 
ATOM     12  C   UNL A   1      34.606  22.063  24.567  1.00  0.00     0.120 C 
ATOM     13  C   UNL A   1      35.158  22.622  25.885  1.00  0.00     0.061 C 
ATOM     14  N   UNL A   1      35.240  20.757  24.547  1.00  0.00    -0.288 N 
ATOM     15  C   UNL A   1      36.604  22.124  25.890  1.00  0.00     0.105 C 
ATOM     16  C   UNL A   1      36.525  20.819  25.119  1.00  0.00     0.229 C 
ATOM     17  C   UNL A   1      34.486  19.565  24.634  1.00  0.00     0.059 A 
ATOM     18  C   UNL A   1      32.515  20.952  25.238  1.00  0.00     0.257 C 
ATOM     19  O   UNL A   1      37.408  19.983  25.099  1.00  0.00    -0.274 OA
ATOM     20  C   UNL A   1      35.050  18.310  24.394  1.00  0.00     0.027 A 
ATOM     21  C   UNL A   1      33.167  19.636  25.089  1.00  0.00     0.063 A 
ATOM     22  O   UNL A   1      31.419  21.037  25.781  1.00  0.00    -0.269 OA
ATOM     23  C   UNL A   1      34.305  17.146  24.616  1.00  0.00     0.002 A 
ATOM     24  C   UNL A   1      32.431  18.472  25.347  1.00  0.00     0.016 A 
ATOM     25  C   UNL A   1      33.004  17.226  25.109  1.00  0.00     0.001 A 
ENDBRANCH   9  10
ENDBRANCH   8   9
ENDBRANCH   7   8
ENDBRANCH   4   7
ENDBRANCH   2   3
ENDBRANCH   1   2
BRANCH   1  26
ATOM     26  C   UNL A   1      33.651  28.898  25.758  1.00  0.00     0.023 C 
BRANCH  26  27
ATOM     27  C   UNL A   1      33.541  28.960  27.276  1.00  0.00     0.116 C 
BRANCH  27  28
ATOM     28  N   UNL A   1      33.657  30.292  27.863  1.00  0.00    -0.352 N 
ATOM     29  C   UNL A   1      34.788  30.847  28.439  1.00  0.00     0.251 C 
ATOM     30  H   UNL A   1      32.849  30.853  27.847  1.00  0.00     0.163 HD
ATOM     31  O   UNL A   1      34.772  31.958  28.957  1.00  0.00    -0.269 OA
BRANCH  29  32
ATOM     32  C   UNL A   1      36.028  30.034  28.450  1.00  0.00     0.039 A 
ATOM     33  C   UNL A   1      36.397  29.371  29.620  1.00  0.00     0.014 A 
ATOM     34  C   UNL A   1      36.903  30.084  27.362  1.00  0.00     0.014 A 
ATOM     35  C   UNL A   1      37.719  28.988  29.792  1.00  0.00     0.010 A 
ATOM     36  C   UNL A   1      38.205  29.586  27.501  1.00  0.00     0.010 A 
ATOM     37  C   UNL A   1      38.652  29.109  28.745  1.00  0.00    -0.014 A 
BRANCH  37  38
ATOM     38  C   UNL A   1      40.085  28.790  29.016  1.00  0.00     0.031 A 
ATOM     39  C   UNL A   1      40.683  27.466  28.594  1.00  0.00     0.074 A 
ATOM     40  C   UNL A   1      40.885  29.748  29.529  1.00  0.00     0.049 A 
ATOM     41  N   UNL A   1      41.922  27.051  28.707  1.00  0.00    -0.248 NA
ATOM     42  C   UNL A   1      39.787  26.479  27.969  1.00  0.00     0.031 C 
ATOM     43  C   UNL A   1      40.440  31.078  29.953  1.00  0.00     0.029 A 
ATOM     44  N   UNL A   1      42.243  29.779  29.723  1.00  0.00    -0.354 N 
ATOM     45  C   UNL A   1      41.945  25.755  28.200  1.00  0.00     0.074 A 
ATOM     46  C   UNL A   1      40.593  25.441  27.792  1.00  0.00     0.031 C 
ATOM     47  C   UNL A   1      41.511  31.826  30.255  1.00  0.00     0.029 A 
ATOM     48  C   UNL A   1      42.712  31.008  30.128  1.00  0.00     0.049 A 
ATOM     49  H   UNL A   1      42.826  28.998  29.586  1.00  0.00     0.167 HD
ATOM     50  C   UNL A   1      42.996  24.909  28.074  1.00  0.00     0.037 A 
ATOM     51  C   UNL A   1      43.965  31.435  30.375  1.00  0.00     0.037 A 
ATOM     52  C   UNL A   1      44.352  25.237  28.432  1.00  0.00     0.049 A 
ATOM     53  C   UNL A   1      45.107  30.470  30.245  1.00  0.00     0.074 A 
ATOM     54  C   UNL A   1      45.481  24.438  28.349  1.00  0.00     0.029 A 
ATOM     55  N   UNL A   1      44.768  26.466  28.916  1.00  0.00    -0.354 N 
ATOM     56  N   UNL A   1      45.092  29.231  29.821  1.00  0.00    -0.248 NA
ATOM     57  C   UNL A   1      46.433  30.953  30.656  1.00  0.00     0.031 C 
ATOM     58  C   UNL A   1      46.576  25.178  28.802  1.00  0.00     0.029 A 
ATOM     59  C   UNL A   1      46.135  26.446  29.140  1.00  0.00     0.049 A 
ATOM     60  H   UNL A   1      44.181  27.239  29.077  1.00  0.00     0.167 HD
ATOM     61  C   UNL A   1      46.403  28.784  29.919  1.00  0.00     0.074 A 
ATOM     62  C   UNL A   1      47.191  29.892  30.416  1.00  0.00     0.031 C 
ATOM     63  C   UNL A   1      46.905  27.558  29.634  1.00  0.00     0.037 A 
BRANCH  50  64
ATOM     64  C   UNL A   1      42.738  23.533  27.522  1.00  0.00     0.058 A 
ATOM     65  C   UNL A   1      42.924  23.241  26.164  1.00  0.00     0.135 A 
ATOM     66  C   UNL A   1      42.393  22.475  28.380  1.00  0.00     0.135 A 
ATOM     67  F   UNL A   1      43.240  24.219  25.299  1.00  0.00    -0.206 F 
ATOM     68  C   UNL A   1      42.776  21.948  25.671  1.00  0.00     0.059 A 
ATOM     69  C   UNL A   1      42.256  21.170  27.912  1.00  0.00     0.059 A 
ATOM     70  F   UNL A   1      42.203  22.701  29.689  1.00  0.00    -0.206 F 
ATOM     71  C   UNL A   1      42.445  20.919  26.555  1.00  0.00     0.060 A 
BRANCH  71  72
ATOM     72  S   UNL A   1      42.293  19.240  25.905  1.00  0.00     0.124 S 
ATOM     73  O   UNL A   1      43.098  19.326  24.689  1.00  0.00    -0.237 OA
ATOM     74  O   UNL A   1      42.857  18.434  26.982  1.00  0.00    -0.237 OA
ATOM     75  O   UNL A   1      40.856  19.084  25.695  1.00  0.00    -0.744 OA
ENDBRANCH  71  72
ENDBRANCH  50  64
BRANCH  51  76
ATOM     76  C   UNL A   1      44.202  32.844  30.781  1.00  0.00     0.058 A 
ATOM     77  C   UNL A   1      44.192  33.212  32.134  1.00  0.00     0.135 A 
ATOM     78  C   UNL A   1      44.462  33.843  29.830  1.00  0.00     0.135 A 
ATOM     79  F   UNL A   1      43.941  32.292  33.078  1.00  0.00    -0.206 F 
ATOM     80  C   UNL A   1      44.425  34.524  32.531  1.00  0.00     0.059 A 
ATOM     81  C   UNL A   1      44.722  35.155  30.204  1.00  0.00     0.059 A 
ATOM     82  F   UNL A   1      44.495  33.535  28.524  1.00  0.00    -0.206 F 
ATOM     83  C   UNL A   1      44.691  35.489  31.557  1.00  0.00     0.060 A 
BRANCH  83  84
ATOM     84  S   UNL A   1      45.047  37.180  32.079  1.00  0.00     0.124 S 
ATOM     85  O   UNL A   1      43.974  37.920  31.426  1.00  0.00    -0.237 OA
ATOM     86  O   UNL A   1      44.962  37.080  33.534  1.00  0.00    -0.237 OA
ATOM     87  O   UNL A   1      46.388  37.415  31.554  1.00  0.00    -0.744 OA
ENDBRANCH  83  84
ENDBRANCH  51  76
BRANCH  63  88
ATOM     88  C   UNL A   1      48.373  27.346  29.855  1.00  0.00     0.058 A 
ATOM     89  C   UNL A   1      49.302  27.582  28.831  1.00  0.00     0.135 A 
ATOM     90  C   UNL A   1      48.860  26.971  31.116  1.00  0.00     0.135 A 
ATOM     91  F   UNL A   1      48.881  27.934  27.606  1.00  0.00    -0.206 F 
ATOM     92  C   UNL A   1      50.668  27.446  29.048  1.00  0.00     0.059 A 
ATOM     93  C   UNL A   1      50.224  26.845  31.361  1.00  0.00     0.059 A 
ATOM     94  F   UNL A   1      48.009  26.740  32.129  1.00  0.00    -0.206 F 
ATOM     95  C   UNL A   1      51.120  27.082  30.317  1.00  0.00     0.060 A 
BRANCH  95  96
ATOM     96  S   UNL A   1      52.899  26.960  30.598  1.00  0.00     0.124 S 
ATOM     97  O   UNL A   1      53.146  28.133  31.431  1.00  0.00    -0.237 OA
ATOM     98  O   UNL A   1      53.023  25.669  31.268  1.00  0.00    -0.237 OA
ATOM     99  O   UNL A   1      53.460  27.016  29.251  1.00  0.00    -0.744 OA
ENDBRANCH  95  96
ENDBRANCH  63  88
ENDBRANCH  37  38
ENDBRANCH  29  32
ENDBRANCH  27  28
ENDBRANCH  26  27
ENDBRANCH   1  26
TORSDOF 17
ENDMDL
MODEL 3
REMARK VINA RESULT:     -11.6      5.386     10.785
REMARK SMILES C[C@]12CCC(=O)N1c1ccccc1C(=O)N2CCCC(=O)NCCCCNC(=O)c1ccc(-c2c3nc(c(-c4c(F)cc(S(=O)(=O)[O-])cc4F)c4ccc([nH]4)c(-c4c(F)cc(S(=O)(=O)[O-])cc4F)c4nc(c(-c5c(F)cc(S(=O)(=O)[O-])cc5F)c5ccc2[nH]5)C=C4)C=C3)cc1
REMARK SMILES IDX 24 1 23 2 22 3 20 4 21 5 19 7 18 8 17 9 16 10 1 11 2 12 3 13
REMARK SMILES IDX 7 14 4 15 5 16 8 17 14 18 6 19 9 20 13 21 15 22 10 23 12 24
REMARK SMILES IDX 11 25 25 26 26 27 27 28 28 29 29 31 30 32 31 33 95 34 32 35
REMARK SMILES IDX 94 36 33 37 34 38 35 39 88 40 36 41 93 42 87 43 89 44 37 45
REMARK SMILES IDX 92 46 86 47 85 48 38 50 72 51 51 52 71 53 52 54 55 55 70 56
REMARK SMILES IDX 90 57 53 58 54 59 69 61 91 62 56 63 39 64 40 65 49 66 41 67
REMARK SMILES IDX 42 68 48 69 50 70 43 71 44 72 45 73 46 74 47 75 73 76 74 77
REMARK SMILES IDX 83 78 75 79 76 80 82 81 84 82 77 83 78 84 79 85 80 86 81 87
REMARK SMILES IDX 57 88 58 89 67 90 59 91 60 92 66 93 68 94 61 95 62 96 63 97
REMARK SMILES IDX 64 98 65 99
REMARK H PARENT 22 6 27 30 89 49 55 60
REMARK Flexibility Score: inf
ROOT
ATOM      1  C   UNL A   1      40.038  21.164  26.123  1.00  0.00     0.023 C 
ENDROOT
BRANCH   1   2
ATOM      2  C   UNL A   1      38.584  21.246  25.654  1.00  0.00     0.116 C 
BRANCH   2   3
ATOM      3  N   UNL A   1      38.087  22.608  25.709  1.00  0.00    -0.356 N 
ATOM      4  C   UNL A   1      36.822  23.059  25.923  1.00  0.00     0.220 C 
ATOM      5  O   UNL A   1      36.606  24.271  25.898  1.00  0.00    -0.275 OA
ATOM      6  H   UNL A   1      38.764  23.308  25.569  1.00  0.00     0.163 HD
BRANCH   4   7
ATOM      7  C   UNL A   1      35.702  22.073  26.178  1.00  0.00     0.102 C 
BRANCH   7   8
ATOM      8  C   UNL A   1      34.394  22.756  26.597  1.00  0.00     0.031 C 
BRANCH   8   9
ATOM      9  C   UNL A   1      33.283  22.876  25.529  1.00  0.00     0.123 C 
BRANCH   9  10
ATOM     10  N   UNL A   1      33.022  24.238  25.060  1.00  0.00    -0.315 N 
ATOM     11  C   UNL A   1      34.628  23.928  23.161  1.00  0.00     0.060 C 
ATOM     12  C   UNL A   1      33.396  24.688  23.716  1.00  0.00     0.120 C 
ATOM     13  C   UNL A   1      32.236  24.559  22.720  1.00  0.00     0.061 C 
ATOM     14  N   UNL A   1      33.651  26.116  23.642  1.00  0.00    -0.288 N 
ATOM     15  C   UNL A   1      32.632  25.528  21.605  1.00  0.00     0.105 C 
ATOM     16  C   UNL A   1      33.428  26.594  22.336  1.00  0.00     0.229 C 
ATOM     17  C   UNL A   1      33.438  26.966  24.750  1.00  0.00     0.059 A 
ATOM     18  C   UNL A   1      32.270  25.081  25.870  1.00  0.00     0.257 C 
ATOM     19  O   UNL A   1      33.721  27.674  21.861  1.00  0.00    -0.274 OA
ATOM     20  C   UNL A   1      33.885  28.290  24.767  1.00  0.00     0.027 A 
ATOM     21  C   UNL A   1      32.655  26.505  25.811  1.00  0.00     0.063 A 
ATOM     22  O   UNL A   1      31.459  24.697  26.705  1.00  0.00    -0.269 OA
ATOM     23  C   UNL A   1      33.543  29.137  25.827  1.00  0.00     0.002 A 
ATOM     24  C   UNL A   1      32.280  27.360  26.854  1.00  0.00     0.016 A 
ATOM     25  C   UNL A   1      32.726  28.679  26.860  1.00  0.00     0.001 A 
ENDBRANCH   9  10
ENDBRANCH   8   9
ENDBRANCH   7   8
ENDBRANCH   4   7
ENDBRANCH   2   3
ENDBRANCH   1   2
BRANCH   1  26
ATOM     26  C   UNL A   1      40.354  22.036  27.328  1.00  0.00     0.023 C 
BRANCH  26  27
ATOM     27  C   UNL A   1      41.544  22.970  27.153  1.00  0.00     0.116 C 
BRANCH  27  28
ATOM     28  N   UNL A   1      41.432  23.936  26.064  1.00  0.00    -0.352 N 
ATOM     29  C   UNL A   1      41.356  25.314  26.184  1.00  0.00     0.251 C 
ATOM     30  H   UNL A   1      41.408  23.570  25.150  1.00  0.00     0.163 HD
ATOM     31  O   UNL A   1      41.208  26.042  25.209  1.00  0.00    -0.269 OA
BRANCH  29  32
ATOM     32  C   UNL A   1      41.420  25.894  27.547  1.00  0.00     0.039 A 
ATOM     33  C   UNL A   1      40.251  25.986  28.302  1.00  0.00     0.014 A 
ATOM     34  C   UNL A   1      42.596  26.503  27.991  1.00  0.00     0.014 A 
ATOM     35  C   UNL A   1      40.196  26.891  29.353  1.00  0.00     0.010 A 
ATOM     36  C   UNL A   1      42.562  27.323  29.127  1.00  0.00     0.010 A 
ATOM     37  C   UNL A   1      41.343  27.591  29.769  1.00  0.00    -0.014 A 
BRANCH  37  38
ATOM     38  C   UNL A   1      41.205  28.635  30.828  1.00  0.00     0.031 A 
ATOM     39  C   UNL A   1      40.079  29.645  30.787  1.00  0.00     0.074 A 
ATOM     40  C   UNL A   1      42.020  28.592  31.903  1.00  0.00     0.049 A 
ATOM     41  N   UNL A   1      39.785  30.583  31.654  1.00  0.00    -0.248 NA
ATOM     42  C   UNL A   1      39.167  29.605  29.631  1.00  0.00     0.031 C 
ATOM     43  C   UNL A   1      43.130  27.652  32.080  1.00  0.00     0.029 A 
ATOM     44  N   UNL A   1      42.009  29.311  33.072  1.00  0.00    -0.354 N 
ATOM     45  C   UNL A   1      38.683  31.258  31.137  1.00  0.00     0.074 A 
ATOM     46  C   UNL A   1      38.367  30.635  29.871  1.00  0.00     0.031 C 
ATOM     47  C   UNL A   1      43.621  27.778  33.321  1.00  0.00     0.029 A 
ATOM     48  C   UNL A   1      42.921  28.862  34.000  1.00  0.00     0.049 A 
ATOM     49  H   UNL A   1      41.407  30.072  33.232  1.00  0.00     0.167 HD
ATOM     50  C   UNL A   1      37.990  32.293  31.672  1.00  0.00     0.037 A 
ATOM     51  C   UNL A   1      43.173  29.275  35.257  1.00  0.00     0.037 A 
ATOM     52  C   UNL A   1      38.271  32.882  32.956  1.00  0.00     0.049 A 
ATOM     53  C   UNL A   1      42.403  30.435  35.816  1.00  0.00     0.074 A 
ATOM     54  C   UNL A   1      37.628  33.942  33.575  1.00  0.00     0.029 A 
ATOM     55  N   UNL A   1      39.257  32.450  33.828  1.00  0.00    -0.354 N 
ATOM     56  N   UNL A   1      41.406  31.094  35.280  1.00  0.00    -0.248 NA
ATOM     57  C   UNL A   1      42.813  30.927  37.139  1.00  0.00     0.031 C 
ATOM     58  C   UNL A   1      38.239  34.163  34.813  1.00  0.00     0.029 A 
ATOM     59  C   UNL A   1      39.243  33.224  34.977  1.00  0.00     0.049 A 
ATOM     60  H   UNL A   1      39.876  31.704  33.657  1.00  0.00     0.167 HD
ATOM     61  C   UNL A   1      41.072  32.082  36.198  1.00  0.00     0.074 A 
ATOM     62  C   UNL A   1      41.955  31.918  37.335  1.00  0.00     0.031 C 
ATOM     63  C   UNL A   1      40.127  33.047  36.099  1.00  0.00     0.037 A 
BRANCH  50  64
ATOM     64  C   UNL A   1      36.849  32.869  30.879  1.00  0.00     0.058 A 
ATOM     65  C   UNL A   1      35.516  32.544  31.170  1.00  0.00     0.135 A 
ATOM     66  C   UNL A   1      37.088  33.829  29.882  1.00  0.00     0.135 A 
ATOM     67  F   UNL A   1      35.234  31.622  32.105  1.00  0.00    -0.206 F 
ATOM     68  C   UNL A   1      34.458  33.149  30.499  1.00  0.00     0.059 A 
ATOM     69  C   UNL A   1      36.044  34.460  29.209  1.00  0.00     0.059 A 
ATOM     70  F   UNL A   1      38.345  34.176  29.565  1.00  0.00    -0.206 F 
ATOM     71  C   UNL A   1      34.732  34.108  29.522  1.00  0.00     0.060 A 
BRANCH  71  72
ATOM     72  S   UNL A   1      33.345  34.910  28.686  1.00  0.00     0.124 S 
ATOM     73  O   UNL A   1      32.951  33.881  27.728  1.00  0.00    -0.237 OA
ATOM     74  O   UNL A   1      32.413  35.145  29.783  1.00  0.00    -0.237 OA
ATOM     75  O   UNL A   1      33.943  36.109  28.106  1.00  0.00    -0.744 OA
ENDBRANCH  71  72
ENDBRANCH  50  64
BRANCH  51  76
ATOM     76  C   UNL A   1      44.212  28.589  36.068  1.00  0.00     0.058 A 
ATOM     77  C   UNL A   1      43.875  27.520  36.910  1.00  0.00     0.135 A 
ATOM     78  C   UNL A   1      45.559  28.976  36.004  1.00  0.00     0.135 A 
ATOM     79  F   UNL A   1      42.598  27.120  37.009  1.00  0.00    -0.206 F 
ATOM     80  C   UNL A   1      44.837  26.860  37.666  1.00  0.00     0.059 A 
ATOM     81  C   UNL A   1      46.542  28.317  36.731  1.00  0.00     0.059 A 
ATOM     82  F   UNL A   1      45.931  29.987  35.202  1.00  0.00    -0.206 F 
ATOM     83  C   UNL A   1      46.171  27.265  37.568  1.00  0.00     0.060 A 
BRANCH  83  84
ATOM     84  S   UNL A   1      47.425  26.372  38.509  1.00  0.00     0.124 S 
ATOM     85  O   UNL A   1      48.450  27.394  38.675  1.00  0.00    -0.237 OA
ATOM     86  O   UNL A   1      46.697  25.993  39.717  1.00  0.00    -0.237 OA
ATOM     87  O   UNL A   1      47.774  25.262  37.627  1.00  0.00    -0.744 OA
ENDBRANCH  83  84
ENDBRANCH  51  76
BRANCH  63  88
ATOM     88  C   UNL A   1      39.996  34.005  37.247  1.00  0.00     0.058 A 
ATOM     89  C   UNL A   1      40.662  35.239  37.240  1.00  0.00     0.135 A 
ATOM     90  C   UNL A   1      39.148  33.716  38.327  1.00  0.00     0.135 A 
ATOM     91  F   UNL A   1      41.490  35.554  36.232  1.00  0.00    -0.206 F 
ATOM     92  C   UNL A   1      40.496  36.156  38.272  1.00  0.00     0.059 A 
ATOM     93  C   UNL A   1      38.954  34.625  39.362  1.00  0.00     0.059 A 
ATOM     94  F   UNL A   1      38.486  32.549  38.372  1.00  0.00    -0.206 F 
ATOM     95  C   UNL A   1      39.636  35.841  39.326  1.00  0.00     0.060 A 
BRANCH  95  96
ATOM     96  S   UNL A   1      39.390  37.062  40.633  1.00  0.00     0.124 S 
ATOM     97  O   UNL A   1      40.766  37.399  40.984  1.00  0.00    -0.237 OA
ATOM     98  O   UNL A   1      38.636  38.107  39.947  1.00  0.00    -0.237 OA
ATOM     99  O   UNL A   1      38.644  36.326  41.650  1.00  0.00    -0.744 OA
ENDBRANCH  95  96
ENDBRANCH  63  88
ENDBRANCH  37  38
ENDBRANCH  29  32
ENDBRANCH  27  28
ENDBRANCH  26  27
ENDBRANCH   1  26
TORSDOF 17
ENDMDL
