MODEL 1
REMARK VINA RESULT:     -10.0      0.000      0.000
REMARK SMILES COc1cccc([C@H]2CC(c3ccc(S(C)(=O)=O)cc3)=NN2c2ccc(C(=O)NCCCCNC(=O)c3ccc(-c4c5nc(c(-c6c(F)cc(S(=O)(=O)[O-])cc6F)c6ccc([nH]6)c(-c6c(F)cc(S(=O)(=O)[O-])cc6F)c6nc(c(-c7c(F)cc(S(=O)(=O)[O-])cc7F)c7ccc4[nH]7)C=C6)C=C5)cc3)cc2)c1
REMARK SMILES IDX 31 1 30 2 29 3 27 4 28 5 26 7 23 8 24 9 104 10 25 11 103 12
REMARK SMILES IDX 22 13 8 14 9 15 10 16 21 17 7 18 3 19 4 20 105 21 5 22 6 23
REMARK SMILES IDX 2 24 1 25 11 26 12 27 20 28 13 29 19 30 14 31 15 32 16 33
REMARK SMILES IDX 17 34 18 35 32 36 33 37 34 38 35 39 36 41 37 42 38 43 102 44
REMARK SMILES IDX 39 45 101 46 40 47 41 48 42 49 95 50 43 51 100 52 94 53
REMARK SMILES IDX 96 54 44 55 99 56 93 57 92 58 45 60 79 61 58 62 78 63 59 64
REMARK SMILES IDX 62 65 77 66 97 67 60 68 61 69 76 71 98 72 63 73 46 74 47 75
REMARK SMILES IDX 56 76 48 77 49 78 55 79 57 80 50 81 51 82 52 83 53 84 54 85
REMARK SMILES IDX 80 86 81 87 90 88 82 89 83 90 89 91 91 92 84 93 85 94 86 95
REMARK SMILES IDX 87 96 88 97 64 98 65 99 74 100 66 101 67 102 73 103 75 104
REMARK SMILES IDX 68 105 69 106 70 107 71 108 72 109
REMARK H PARENT 29 6 34 40 96 59 62 70
REMARK Flexibility Score: inf
ROOT
ATOM      1  C   UNL A   1      34.930  32.515  30.571  1.00  0.00     0.023 C 
ENDROOT
BRANCH   1   2
ATOM      2  C   UNL A   1      36.434  32.632  30.825  1.00  0.00     0.116 C 
BRANCH   2   3
ATOM      3  N   UNL A   1      36.688  33.482  31.970  1.00  0.00    -0.352 N 
ATOM      4  C   UNL A   1      37.747  34.285  32.306  1.00  0.00     0.251 C 
ATOM      5  O   UNL A   1      37.671  34.899  33.372  1.00  0.00    -0.269 OA
ATOM      6  H   UNL A   1      35.962  33.482  32.635  1.00  0.00     0.163 HD
BRANCH   4   7
ATOM      7  C   UNL A   1      38.946  34.489  31.439  1.00  0.00     0.039 A 
ATOM      8  C   UNL A   1      41.345  34.897  29.979  1.00  0.00     0.060 A 
ATOM      9  C   UNL A   1      41.372  34.656  31.357  1.00  0.00     0.029 A 
ATOM     10  C   UNL A   1      40.106  34.886  29.337  1.00  0.00     0.029 A 
ATOM     11  C   UNL A   1      40.191  34.476  32.081  1.00  0.00     0.016 A 
ATOM     12  C   UNL A   1      38.925  34.646  30.051  1.00  0.00     0.016 A 
BRANCH   8  13
ATOM     13  N   UNL A   1      42.526  35.098  29.291  1.00  0.00    -0.257 N 
ATOM     14  C   UNL A   1      43.772  34.371  29.535  1.00  0.00     0.144 C 
ATOM     15  C   UNL A   1      44.791  35.160  28.700  1.00  0.00     0.091 C 
ATOM     16  C   UNL A   1      43.913  36.271  28.200  1.00  0.00     0.071 C 
ATOM     17  N   UNL A   1      42.664  36.214  28.535  1.00  0.00    -0.176 NA
BRANCH  14  18
ATOM     18  C   UNL A   1      43.644  32.918  29.106  1.00  0.00    -0.019 A 
ATOM     19  C   UNL A   1      44.025  31.141  27.477  1.00  0.00     0.119 A 
ATOM     20  C   UNL A   1      43.294  30.259  28.273  1.00  0.00     0.046 A 
ATOM     21  C   UNL A   1      44.179  32.468  27.882  1.00  0.00     0.052 A 
ATOM     22  C   UNL A   1      42.758  30.687  29.487  1.00  0.00     0.004 A 
ATOM     23  C   UNL A   1      42.935  32.007  29.905  1.00  0.00     0.006 A 
BRANCH  19  24
ATOM     24  O   UNL A   1      44.493  30.627  26.300  1.00  0.00    -0.497 OA
ATOM     25  C   UNL A   1      45.659  29.820  26.422  1.00  0.00     0.278 C 
ENDBRANCH  19  24
ENDBRANCH  14  18
BRANCH  16  26
ATOM     26  C   UNL A   1      44.453  37.380  27.414  1.00  0.00    -0.002 A 
ATOM     27  C   UNL A   1      45.776  37.296  26.969  1.00  0.00     0.011 A 
ATOM     28  C   UNL A   1      43.679  38.516  27.174  1.00  0.00     0.011 A 
ATOM     29  C   UNL A   1      46.333  38.360  26.262  1.00  0.00     0.021 A 
ATOM     30  C   UNL A   1      44.244  39.593  26.488  1.00  0.00     0.021 A 
ATOM     31  C   UNL A   1      45.568  39.510  26.041  1.00  0.00     0.067 A 
BRANCH  31  32
ATOM     32  S   UNL A   1      46.300  40.878  25.174  1.00  0.00     0.175 S 
ATOM     33  C   UNL A   1      44.957  42.015  24.942  1.00  0.00     0.163 C 
ATOM     34  O   UNL A   1      47.263  41.478  26.076  1.00  0.00    -0.224 OA
ATOM     35  O   UNL A   1      46.701  40.403  23.862  1.00  0.00    -0.224 OA
ENDBRANCH  31  32
ENDBRANCH  16  26
ENDBRANCH   8  13
ENDBRANCH   4   7
ENDBRANCH   2   3
ENDBRANCH   1   2
BRANCH   1  36
ATOM     36  C   UNL A   1      34.439  33.299  29.350  1.00  0.00     0.023 C 
BRANCH  36  37
ATOM     37  C   UNL A   1      35.043  32.861  28.021  1.00  0.00     0.116 C 
BRANCH  37  38
ATOM     38  N   UNL A   1      34.306  31.777  27.390  1.00  0.00    -0.352 N 
ATOM     39  C   UNL A   1      34.657  30.455  27.275  1.00  0.00     0.251 C 
ATOM     40  H   UNL A   1      33.441  32.026  26.991  1.00  0.00     0.163 HD
ATOM     41  O   UNL A   1      33.966  29.695  26.603  1.00  0.00    -0.269 OA
BRANCH  39  42
ATOM     42  C   UNL A   1      35.887  29.968  27.931  1.00  0.00     0.039 A 
ATOM     43  C   UNL A   1      37.105  30.117  27.264  1.00  0.00     0.014 A 
ATOM     44  C   UNL A   1      35.844  29.384  29.200  1.00  0.00     0.014 A 
ATOM     45  C   UNL A   1      38.287  29.728  27.895  1.00  0.00     0.010 A 
ATOM     46  C   UNL A   1      37.029  29.062  29.854  1.00  0.00     0.010 A 
ATOM     47  C   UNL A   1      38.262  29.225  29.206  1.00  0.00    -0.014 A 
BRANCH  47  48
ATOM     48  C   UNL A   1      39.520  28.863  29.905  1.00  0.00     0.031 A 
ATOM     49  C   UNL A   1      39.922  29.580  31.164  1.00  0.00     0.074 A 
ATOM     50  C   UNL A   1      40.320  27.915  29.378  1.00  0.00     0.049 A 
ATOM     51  N   UNL A   1      40.984  29.409  31.909  1.00  0.00    -0.248 NA
ATOM     52  C   UNL A   1      39.026  30.649  31.636  1.00  0.00     0.031 C 
ATOM     53  C   UNL A   1      40.069  27.195  28.128  1.00  0.00     0.029 A 
ATOM     54  N   UNL A   1      41.509  27.396  29.825  1.00  0.00    -0.354 N 
ATOM     55  C   UNL A   1      40.889  30.349  32.927  1.00  0.00     0.074 A 
ATOM     56  C   UNL A   1      39.696  31.128  32.674  1.00  0.00     0.031 C 
ATOM     57  C   UNL A   1      41.057  26.308  27.924  1.00  0.00     0.029 A 
ATOM     58  C   UNL A   1      42.024  26.415  29.013  1.00  0.00     0.049 A 
ATOM     59  H   UNL A   1      41.951  27.699  30.652  1.00  0.00     0.167 HD
ATOM     60  C   UNL A   1      41.706  30.529  33.992  1.00  0.00     0.037 A 
ATOM     61  C   UNL A   1      43.147  25.681  29.132  1.00  0.00     0.037 A 
ATOM     62  C   UNL A   1      42.878  29.735  34.252  1.00  0.00     0.049 A 
ATOM     63  C   UNL A   1      44.029  25.887  30.334  1.00  0.00     0.074 A 
ATOM     64  C   UNL A   1      43.738  29.794  35.334  1.00  0.00     0.029 A 
ATOM     65  N   UNL A   1      43.358  28.736  33.416  1.00  0.00    -0.354 N 
ATOM     66  N   UNL A   1      43.882  26.728  31.330  1.00  0.00    -0.248 NA
ATOM     67  C   UNL A   1      45.221  25.034  30.436  1.00  0.00     0.031 C 
ATOM     68  C   UNL A   1      44.758  28.857  35.135  1.00  0.00     0.029 A 
ATOM     69  C   UNL A   1      44.510  28.184  33.950  1.00  0.00     0.049 A 
ATOM     70  H   UNL A   1      42.939  28.459  32.569  1.00  0.00     0.167 HD
ATOM     71  C   UNL A   1      44.953  26.494  32.186  1.00  0.00     0.074 A 
ATOM     72  C   UNL A   1      45.726  25.418  31.600  1.00  0.00     0.031 C 
ATOM     73  C   UNL A   1      45.269  27.114  33.350  1.00  0.00     0.037 A 
BRANCH  60  74
ATOM     74  C   UNL A   1      41.351  31.623  34.962  1.00  0.00     0.058 A 
ATOM     75  C   UNL A   1      41.949  32.892  34.890  1.00  0.00     0.135 A 
ATOM     76  C   UNL A   1      40.386  31.411  35.960  1.00  0.00     0.135 A 
ATOM     77  F   UNL A   1      42.890  33.145  33.964  1.00  0.00    -0.206 F 
ATOM     78  C   UNL A   1      41.627  33.902  35.790  1.00  0.00     0.059 A 
ATOM     79  C   UNL A   1      40.029  32.415  36.856  1.00  0.00     0.059 A 
ATOM     80  F   UNL A   1      39.784  30.218  36.076  1.00  0.00    -0.206 F 
ATOM     81  C   UNL A   1      40.667  33.653  36.772  1.00  0.00     0.060 A 
BRANCH  81  82
ATOM     82  S   UNL A   1      40.261  34.973  37.934  1.00  0.00     0.124 S 
ATOM     83  O   UNL A   1      41.106  34.628  39.073  1.00  0.00    -0.237 OA
ATOM     84  O   UNL A   1      40.651  36.171  37.197  1.00  0.00    -0.237 OA
ATOM     85  O   UNL A   1      38.825  34.811  38.145  1.00  0.00    -0.744 OA
ENDBRANCH  81  82
ENDBRANCH  60  74
BRANCH  61  86
ATOM     86  C   UNL A   1      43.482  24.661  28.104  1.00  0.00     0.058 A 
ATOM     87  C   UNL A   1      42.944  23.368  28.170  1.00  0.00     0.135 A 
ATOM     88  C   UNL A   1      44.335  24.962  27.031  1.00  0.00     0.135 A 
ATOM     89  F   UNL A   1      42.127  23.032  29.181  1.00  0.00    -0.206 F 
ATOM     90  C   UNL A   1      43.251  22.401  27.219  1.00  0.00     0.059 A 
ATOM     91  C   UNL A   1      44.639  24.019  26.053  1.00  0.00     0.059 A 
ATOM     92  F   UNL A   1      44.861  26.190  26.913  1.00  0.00    -0.206 F 
ATOM     93  C   UNL A   1      44.100  22.737  26.163  1.00  0.00     0.060 A 
BRANCH  93  94
ATOM     94  S   UNL A   1      44.456  21.490  24.906  1.00  0.00     0.124 S 
ATOM     95  O   UNL A   1      44.240  22.243  23.675  1.00  0.00    -0.237 OA
ATOM     96  O   UNL A   1      45.841  21.139  25.204  1.00  0.00    -0.237 OA
ATOM     97  O   UNL A   1      43.478  20.443  25.186  1.00  0.00    -0.744 OA
ENDBRANCH  93  94
ENDBRANCH  61  86
BRANCH  73  98
ATOM     98  C   UNL A   1      46.495  26.629  34.073  1.00  0.00     0.058 A 
ATOM     99  C   UNL A   1      47.754  27.210  33.858  1.00  0.00     0.135 A 
ATOM    100  C   UNL A   1      46.403  25.589  35.012  1.00  0.00     0.135 A 
ATOM    101  F   UNL A   1      47.897  28.204  32.967  1.00  0.00    -0.206 F 
ATOM    102  C   UNL A   1      48.887  26.755  34.524  1.00  0.00     0.059 A 
ATOM    103  C   UNL A   1      47.518  25.136  35.710  1.00  0.00     0.059 A 
ATOM    104  F   UNL A   1      45.220  25.007  35.265  1.00  0.00    -0.206 F 
ATOM    105  C   UNL A   1      48.759  25.714  35.447  1.00  0.00     0.060 A 
BRANCH 105 106
ATOM    106  S   UNL A   1      50.233  25.139  36.315  1.00  0.00     0.124 S 
ATOM    107  O   UNL A   1      51.219  26.138  35.911  1.00  0.00    -0.237 OA
ATOM    108  O   UNL A   1      49.816  25.190  37.713  1.00  0.00    -0.237 OA
ATOM    109  O   UNL A   1      50.442  23.798  35.777  1.00  0.00    -0.744 OA
ENDBRANCH 105 106
ENDBRANCH  73  98
ENDBRANCH  47  48
ENDBRANCH  39  42
ENDBRANCH  37  38
ENDBRANCH  36  37
ENDBRANCH   1  36
TORSDOF 19
ENDMDL
MODEL 2
REMARK VINA RESULT:      -9.8      4.562      9.433
REMARK SMILES COc1cccc([C@H]2CC(c3ccc(S(C)(=O)=O)cc3)=NN2c2ccc(C(=O)NCCCCNC(=O)c3ccc(-c4c5nc(c(-c6c(F)cc(S(=O)(=O)[O-])cc6F)c6ccc([nH]6)c(-c6c(F)cc(S(=O)(=O)[O-])cc6F)c6nc(c(-c7c(F)cc(S(=O)(=O)[O-])cc7F)c7ccc4[nH]7)C=C6)C=C5)cc3)cc2)c1
REMARK SMILES IDX 31 1 30 2 29 3 27 4 28 5 26 7 23 8 24 9 104 10 25 11 103 12
REMARK SMILES IDX 22 13 8 14 9 15 10 16 21 17 7 18 3 19 4 20 105 21 5 22 6 23
REMARK SMILES IDX 2 24 1 25 11 26 12 27 20 28 13 29 19 30 14 31 15 32 16 33
REMARK SMILES IDX 17 34 18 35 32 36 33 37 34 38 35 39 36 41 37 42 38 43 102 44
REMARK SMILES IDX 39 45 101 46 40 47 41 48 42 49 95 50 43 51 100 52 94 53
REMARK SMILES IDX 96 54 44 55 99 56 93 57 92 58 45 60 79 61 58 62 78 63 59 64
REMARK SMILES IDX 62 65 77 66 97 67 60 68 61 69 76 71 98 72 63 73 46 74 47 75
REMARK SMILES IDX 56 76 48 77 49 78 55 79 57 80 50 81 51 82 52 83 53 84 54 85
REMARK SMILES IDX 80 86 81 87 90 88 82 89 83 90 89 91 91 92 84 93 85 94 86 95
REMARK SMILES IDX 87 96 88 97 64 98 65 99 74 100 66 101 67 102 73 103 75 104
REMARK SMILES IDX 68 105 69 106 70 107 71 108 72 109
REMARK H PARENT 29 6 34 40 96 59 62 70
REMARK Flexibility Score: inf
ROOT
ATOM      1  C   UNL A   1      34.102  32.552  27.746  1.00  0.00     0.023 C 
ENDROOT
BRANCH   1   2
ATOM      2  C   UNL A   1      33.548  31.130  27.644  1.00  0.00     0.116 C 
BRANCH   2   3
ATOM      3  N   UNL A   1      32.452  31.081  26.699  1.00  0.00    -0.352 N 
ATOM      4  C   UNL A   1      32.039  30.119  25.815  1.00  0.00     0.251 C 
ATOM      5  O   UNL A   1      31.048  30.375  25.128  1.00  0.00    -0.269 OA
ATOM      6  H   UNL A   1      31.899  31.895  26.688  1.00  0.00     0.163 HD
BRANCH   4   7
ATOM      7  C   UNL A   1      32.685  28.780  25.678  1.00  0.00     0.039 A 
ATOM      8  C   UNL A   1      33.863  26.199  25.633  1.00  0.00     0.060 A 
ATOM      9  C   UNL A   1      33.061  26.606  26.704  1.00  0.00     0.029 A 
ATOM     10  C   UNL A   1      34.030  27.083  24.567  1.00  0.00     0.029 A 
ATOM     11  C   UNL A   1      32.498  27.884  26.739  1.00  0.00     0.016 A 
ATOM     12  C   UNL A   1      33.417  28.342  24.572  1.00  0.00     0.016 A 
BRANCH   8  13
ATOM     13  N   UNL A   1      34.429  24.938  25.636  1.00  0.00    -0.257 N 
ATOM     14  C   UNL A   1      33.722  23.703  25.974  1.00  0.00     0.144 C 
ATOM     15  C   UNL A   1      34.863  22.679  26.072  1.00  0.00     0.091 C 
ATOM     16  C   UNL A   1      36.042  23.582  25.852  1.00  0.00     0.071 C 
ATOM     17  N   UNL A   1      35.779  24.825  25.609  1.00  0.00    -0.176 NA
BRANCH  14  18
ATOM     18  C   UNL A   1      32.697  23.356  24.906  1.00  0.00    -0.019 A 
ATOM     19  C   UNL A   1      31.955  21.965  23.043  1.00  0.00     0.119 A 
ATOM     20  C   UNL A   1      30.855  22.802  22.861  1.00  0.00     0.046 A 
ATOM     21  C   UNL A   1      32.882  22.255  24.047  1.00  0.00     0.052 A 
ATOM     22  C   UNL A   1      30.655  23.896  23.702  1.00  0.00     0.004 A 
ATOM     23  C   UNL A   1      31.568  24.170  24.723  1.00  0.00     0.006 A 
BRANCH  19  24
ATOM     24  O   UNL A   1      32.067  20.931  22.155  1.00  0.00    -0.497 OA
ATOM     25  C   UNL A   1      32.188  19.644  22.750  1.00  0.00     0.278 C 
ENDBRANCH  19  24
ENDBRANCH  14  18
BRANCH  16  26
ATOM     26  C   UNL A   1      37.415  23.086  25.953  1.00  0.00    -0.002 A 
ATOM     27  C   UNL A   1      37.674  21.765  25.576  1.00  0.00     0.011 A 
ATOM     28  C   UNL A   1      38.422  23.901  26.474  1.00  0.00     0.011 A 
ATOM     29  C   UNL A   1      38.962  21.251  25.709  1.00  0.00     0.021 A 
ATOM     30  C   UNL A   1      39.706  23.380  26.632  1.00  0.00     0.021 A 
ATOM     31  C   UNL A   1      39.967  22.057  26.253  1.00  0.00     0.067 A 
BRANCH  31  32
ATOM     32  S   UNL A   1      41.598  21.380  26.458  1.00  0.00     0.175 S 
ATOM     33  C   UNL A   1      41.385  19.640  26.189  1.00  0.00     0.163 C 
ATOM     34  O   UNL A   1      42.412  21.918  25.386  1.00  0.00    -0.224 OA
ATOM     35  O   UNL A   1      41.978  21.563  27.848  1.00  0.00    -0.224 OA
ENDBRANCH  31  32
ENDBRANCH  16  26
ENDBRANCH   8  13
ENDBRANCH   4   7
ENDBRANCH   2   3
ENDBRANCH   1   2
BRANCH   1  36
ATOM     36  C   UNL A   1      33.039  33.618  28.031  1.00  0.00     0.023 C 
BRANCH  36  37
ATOM     37  C   UNL A   1      33.549  34.849  28.773  1.00  0.00     0.116 C 
BRANCH  37  38
ATOM     38  N   UNL A   1      32.766  35.166  29.957  1.00  0.00    -0.352 N 
ATOM     39  C   UNL A   1      33.060  34.910  31.273  1.00  0.00     0.251 C 
ATOM     40  H   UNL A   1      31.910  35.624  29.792  1.00  0.00     0.163 HD
ATOM     41  O   UNL A   1      32.226  35.141  32.143  1.00  0.00    -0.269 OA
BRANCH  39  42
ATOM     42  C   UNL A   1      34.367  34.319  31.626  1.00  0.00     0.039 A 
ATOM     43  C   UNL A   1      35.467  35.167  31.771  1.00  0.00     0.014 A 
ATOM     44  C   UNL A   1      34.504  32.943  31.830  1.00  0.00     0.014 A 
ATOM     45  C   UNL A   1      36.695  34.640  32.174  1.00  0.00     0.010 A 
ATOM     46  C   UNL A   1      35.710  32.430  32.299  1.00  0.00     0.010 A 
ATOM     47  C   UNL A   1      36.819  33.272  32.469  1.00  0.00    -0.014 A 
BRANCH  47  48
ATOM     48  C   UNL A   1      38.105  32.714  32.953  1.00  0.00     0.031 A 
ATOM     49  C   UNL A   1      38.569  32.985  34.358  1.00  0.00     0.074 A 
ATOM     50  C   UNL A   1      38.874  31.997  32.110  1.00  0.00     0.049 A 
ATOM     51  N   UNL A   1      39.663  32.590  34.956  1.00  0.00    -0.248 NA
ATOM     52  C   UNL A   1      37.703  33.833  35.193  1.00  0.00     0.031 C 
ATOM     53  C   UNL A   1      38.561  31.722  30.706  1.00  0.00     0.029 A 
ATOM     54  N   UNL A   1      40.079  31.371  32.309  1.00  0.00    -0.354 N 
ATOM     55  C   UNL A   1      39.622  33.145  36.229  1.00  0.00     0.074 A 
ATOM     56  C   UNL A   1      38.424  33.953  36.299  1.00  0.00     0.031 C 
ATOM     57  C   UNL A   1      39.533  30.959  30.179  1.00  0.00     0.029 A 
ATOM     58  C   UNL A   1      40.550  30.714  31.198  1.00  0.00     0.049 A 
ATOM     59  H   UNL A   1      40.561  31.391  33.168  1.00  0.00     0.167 HD
ATOM     60  C   UNL A   1      40.488  32.975  37.256  1.00  0.00     0.037 A 
ATOM     61  C   UNL A   1      41.672  29.991  31.020  1.00  0.00     0.037 A 
ATOM     62  C   UNL A   1      41.666  32.150  37.188  1.00  0.00     0.049 A 
ATOM     63  C   UNL A   1      42.610  29.801  32.181  1.00  0.00     0.074 A 
ATOM     64  C   UNL A   1      42.575  31.861  38.190  1.00  0.00     0.029 A 
ATOM     65  N   UNL A   1      42.100  31.483  36.051  1.00  0.00    -0.354 N 
ATOM     66  N   UNL A   1      42.515  30.270  33.403  1.00  0.00    -0.248 NA
ATOM     67  C   UNL A   1      43.800  28.973  31.944  1.00  0.00     0.031 C 
ATOM     68  C   UNL A   1      43.579  31.049  37.650  1.00  0.00     0.029 A 
ATOM     69  C   UNL A   1      43.272  30.797  36.323  1.00  0.00     0.049 A 
ATOM     70  H   UNL A   1      41.641  31.494  35.180  1.00  0.00     0.167 HD
ATOM     71  C   UNL A   1      43.622  29.780  34.086  1.00  0.00     0.074 A 
ATOM     72  C   UNL A   1      44.361  28.960  33.146  1.00  0.00     0.031 C 
ATOM     73  C   UNL A   1      43.996  29.989  35.372  1.00  0.00     0.037 A 
BRANCH  60  74
ATOM     74  C   UNL A   1      40.186  33.690  38.545  1.00  0.00     0.058 A 
ATOM     75  C   UNL A   1      40.852  34.873  38.904  1.00  0.00     0.135 A 
ATOM     76  C   UNL A   1      39.203  33.202  39.422  1.00  0.00     0.135 A 
ATOM     77  F   UNL A   1      41.812  35.375  38.109  1.00  0.00    -0.206 F 
ATOM     78  C   UNL A   1      40.579  35.530  40.098  1.00  0.00     0.059 A 
ATOM     79  C   UNL A   1      38.894  33.858  40.610  1.00  0.00     0.059 A 
ATOM     80  F   UNL A   1      38.536  32.075  39.129  1.00  0.00    -0.206 F 
ATOM     81  C   UNL A   1      39.599  35.013  40.947  1.00  0.00     0.060 A 
BRANCH  81  82
ATOM     82  S   UNL A   1      39.255  35.877  42.494  1.00  0.00     0.124 S 
ATOM     83  O   UNL A   1      40.247  35.283  43.384  1.00  0.00    -0.237 OA
ATOM     84  O   UNL A   1      39.485  37.272  42.131  1.00  0.00    -0.237 OA
ATOM     85  O   UNL A   1      37.867  35.528  42.778  1.00  0.00    -0.744 OA
ENDBRANCH  81  82
ENDBRANCH  60  74
BRANCH  61  86
ATOM     86  C   UNL A   1      41.954  29.365  29.701  1.00  0.00     0.058 A 
ATOM     87  C   UNL A   1      42.780  30.002  28.763  1.00  0.00     0.135 A 
ATOM     88  C   UNL A   1      41.415  28.116  29.358  1.00  0.00     0.135 A 
ATOM     89  F   UNL A   1      43.314  31.200  29.044  1.00  0.00    -0.206 F 
ATOM     90  C   UNL A   1      43.049  29.432  27.524  1.00  0.00     0.059 A 
ATOM     91  C   UNL A   1      41.689  27.514  28.134  1.00  0.00     0.059 A 
ATOM     92  F   UNL A   1      40.634  27.458  30.228  1.00  0.00    -0.206 F 
ATOM     93  C   UNL A   1      42.498  28.186  27.218  1.00  0.00     0.060 A 
BRANCH  93  94
ATOM     94  S   UNL A   1      42.892  27.430  25.626  1.00  0.00     0.124 S 
ATOM     95  O   UNL A   1      42.267  26.119  25.760  1.00  0.00    -0.237 OA
ATOM     96  O   UNL A   1      42.255  28.348  24.685  1.00  0.00    -0.237 OA
ATOM     97  O   UNL A   1      44.351  27.437  25.603  1.00  0.00    -0.744 OA
ENDBRANCH  93  94
ENDBRANCH  61  86
BRANCH  73  98
ATOM     98  C   UNL A   1      45.251  29.305  35.841  1.00  0.00     0.058 A 
ATOM     99  C   UNL A   1      45.225  28.011  36.382  1.00  0.00     0.135 A 
ATOM    100  C   UNL A   1      46.497  29.942  35.720  1.00  0.00     0.135 A 
ATOM    101  F   UNL A   1      44.059  27.361  36.523  1.00  0.00    -0.206 F 
ATOM    102  C   UNL A   1      46.387  27.384  36.820  1.00  0.00     0.059 A 
ATOM    103  C   UNL A   1      47.675  29.323  36.126  1.00  0.00     0.059 A 
ATOM    104  F   UNL A   1      46.579  31.175  35.197  1.00  0.00    -0.206 F 
ATOM    105  C   UNL A   1      47.608  28.049  36.690  1.00  0.00     0.060 A 
BRANCH 105 106
ATOM    106  S   UNL A   1      49.110  27.222  37.251  1.00  0.00     0.124 S 
ATOM    107  O   UNL A   1      50.144  28.011  36.589  1.00  0.00    -0.237 OA
ATOM    108  O   UNL A   1      49.029  27.370  38.701  1.00  0.00    -0.237 OA
ATOM    109  O   UNL A   1      48.949  25.857  36.757  1.00  0.00    -0.744 OA
ENDBRANCH 105 106
ENDBRANCH  73  98
ENDBRANCH  47  48
ENDBRANCH  39  42
ENDBRANCH  37  38
ENDBRANCH  36  37
ENDBRANCH   1  36
TORSDOF 19
ENDMDL
MODEL 3
REMARK VINA RESULT:      -9.5      4.751     12.197
REMARK SMILES COc1cccc([C@H]2CC(c3ccc(S(C)(=O)=O)cc3)=NN2c2ccc(C(=O)NCCCCNC(=O)c3ccc(-c4c5nc(c(-c6c(F)cc(S(=O)(=O)[O-])cc6F)c6ccc([nH]6)c(-c6c(F)cc(S(=O)(=O)[O-])cc6F)c6nc(c(-c7c(F)cc(S(=O)(=O)[O-])cc7F)c7ccc4[nH]7)C=C6)C=C5)cc3)cc2)c1
REMARK SMILES IDX 31 1 30 2 29 3 27 4 28 5 26 7 23 8 24 9 104 10 25 11 103 12
REMARK SMILES IDX 22 13 8 14 9 15 10 16 21 17 7 18 3 19 4 20 105 21 5 22 6 23
REMARK SMILES IDX 2 24 1 25 11 26 12 27 20 28 13 29 19 30 14 31 15 32 16 33
REMARK SMILES IDX 17 34 18 35 32 36 33 37 34 38 35 39 36 41 37 42 38 43 102 44
REMARK SMILES IDX 39 45 101 46 40 47 41 48 42 49 95 50 43 51 100 52 94 53
REMARK SMILES IDX 96 54 44 55 99 56 93 57 92 58 45 60 79 61 58 62 78 63 59 64
REMARK SMILES IDX 62 65 77 66 97 67 60 68 61 69 76 71 98 72 63 73 46 74 47 75
REMARK SMILES IDX 56 76 48 77 49 78 55 79 57 80 50 81 51 82 52 83 53 84 54 85
REMARK SMILES IDX 80 86 81 87 90 88 82 89 83 90 89 91 91 92 84 93 85 94 86 95
REMARK SMILES IDX 87 96 88 97 64 98 65 99 74 100 66 101 67 102 73 103 75 104
REMARK SMILES IDX 68 105 69 106 70 107 71 108 72 109
REMARK H PARENT 29 6 34 40 96 59 62 70
REMARK Flexibility Score: inf
ROOT
ATOM      1  C   UNL A   1      33.182  29.816  25.772  1.00  0.00     0.023 C 
ENDROOT
BRANCH   1   2
ATOM      2  C   UNL A   1      31.672  29.993  25.940  1.00  0.00     0.116 C 
BRANCH   2   3
ATOM      3  N   UNL A   1      30.973  29.504  24.771  1.00  0.00    -0.352 N 
ATOM      4  C   UNL A   1      31.043  28.321  24.082  1.00  0.00     0.251 C 
ATOM      5  O   UNL A   1      30.305  28.197  23.103  1.00  0.00    -0.269 OA
ATOM      6  H   UNL A   1      30.323  30.143  24.399  1.00  0.00     0.163 HD
BRANCH   4   7
ATOM      7  C   UNL A   1      31.917  27.177  24.478  1.00  0.00     0.039 A 
ATOM      8  C   UNL A   1      33.681  25.024  25.032  1.00  0.00     0.060 A 
ATOM      9  C   UNL A   1      33.902  25.874  23.944  1.00  0.00     0.029 A 
ATOM     10  C   UNL A   1      32.593  25.294  25.863  1.00  0.00     0.029 A 
ATOM     11  C   UNL A   1      33.023  26.921  23.656  1.00  0.00     0.016 A 
ATOM     12  C   UNL A   1      31.745  26.380  25.611  1.00  0.00     0.016 A 
BRANCH   8  13
ATOM     13  N   UNL A   1      34.552  23.979  25.279  1.00  0.00    -0.257 N 
ATOM     14  C   UNL A   1      34.156  22.654  25.752  1.00  0.00     0.144 C 
ATOM     15  C   UNL A   1      35.505  22.005  26.101  1.00  0.00     0.091 C 
ATOM     16  C   UNL A   1      36.425  23.161  25.833  1.00  0.00     0.071 C 
ATOM     17  N   UNL A   1      35.878  24.240  25.376  1.00  0.00    -0.176 NA
BRANCH  14  18
ATOM     18  C   UNL A   1      33.390  21.901  24.677  1.00  0.00    -0.019 A 
ATOM     19  C   UNL A   1      32.474  19.825  23.779  1.00  0.00     0.119 A 
ATOM     20  C   UNL A   1      32.081  20.502  22.624  1.00  0.00     0.046 A 
ATOM     21  C   UNL A   1      33.144  20.517  24.788  1.00  0.00     0.052 A 
ATOM     22  C   UNL A   1      32.316  21.870  22.496  1.00  0.00     0.004 A 
ATOM     23  C   UNL A   1      32.962  22.568  23.518  1.00  0.00     0.006 A 
BRANCH  19  24
ATOM     24  O   UNL A   1      32.212  18.483  23.797  1.00  0.00    -0.497 OA
ATOM     25  C   UNL A   1      32.766  17.751  22.709  1.00  0.00     0.278 C 
ENDBRANCH  19  24
ENDBRANCH  14  18
BRANCH  16  26
ATOM     26  C   UNL A   1      37.858  23.080  26.118  1.00  0.00    -0.002 A 
ATOM     27  C   UNL A   1      38.522  21.879  25.849  1.00  0.00     0.011 A 
ATOM     28  C   UNL A   1      38.522  24.160  26.702  1.00  0.00     0.011 A 
ATOM     29  C   UNL A   1      39.875  21.757  26.157  1.00  0.00     0.021 A 
ATOM     30  C   UNL A   1      39.871  24.030  27.036  1.00  0.00     0.021 A 
ATOM     31  C   UNL A   1      40.538  22.828  26.766  1.00  0.00     0.067 A 
BRANCH  31  32
ATOM     32  S   UNL A   1      42.254  22.650  27.194  1.00  0.00     0.175 S 
ATOM     33  C   UNL A   1      43.070  22.423  25.635  1.00  0.00     0.163 C 
ATOM     34  O   UNL A   1      42.678  23.916  27.758  1.00  0.00    -0.224 OA
ATOM     35  O   UNL A   1      42.393  21.414  27.944  1.00  0.00    -0.224 OA
ENDBRANCH  31  32
ENDBRANCH  16  26
ENDBRANCH   8  13
ENDBRANCH   4   7
ENDBRANCH   2   3
ENDBRANCH   1   2
BRANCH   1  36
ATOM     36  C   UNL A   1      33.939  29.607  27.088  1.00  0.00     0.023 C 
BRANCH  36  37
ATOM     37  C   UNL A   1      34.818  30.778  27.515  1.00  0.00     0.116 C 
BRANCH  37  38
ATOM     38  N   UNL A   1      34.059  31.984  27.804  1.00  0.00    -0.352 N 
ATOM     39  C   UNL A   1      34.321  32.959  28.734  1.00  0.00     0.251 C 
ATOM     40  H   UNL A   1      33.249  32.119  27.261  1.00  0.00     0.163 HD
ATOM     41  O   UNL A   1      33.506  33.856  28.927  1.00  0.00    -0.269 OA
BRANCH  39  42
ATOM     42  C   UNL A   1      35.567  32.897  29.525  1.00  0.00     0.039 A 
ATOM     43  C   UNL A   1      35.681  31.922  30.518  1.00  0.00     0.014 A 
ATOM     44  C   UNL A   1      36.622  33.780  29.278  1.00  0.00     0.014 A 
ATOM     45  C   UNL A   1      36.876  31.799  31.229  1.00  0.00     0.010 A 
ATOM     46  C   UNL A   1      37.835  33.611  29.939  1.00  0.00     0.010 A 
ATOM     47  C   UNL A   1      37.972  32.623  30.925  1.00  0.00    -0.014 A 
BRANCH  47  48
ATOM     48  C   UNL A   1      39.264  32.460  31.635  1.00  0.00     0.031 A 
ATOM     49  C   UNL A   1      40.380  31.669  31.010  1.00  0.00     0.074 A 
ATOM     50  C   UNL A   1      39.414  32.992  32.865  1.00  0.00     0.049 A 
ATOM     51  N   UNL A   1      41.574  31.413  31.480  1.00  0.00    -0.248 NA
ATOM     52  C   UNL A   1      40.111  31.064  29.695  1.00  0.00     0.031 C 
ATOM     53  C   UNL A   1      38.382  33.725  33.601  1.00  0.00     0.029 A 
ATOM     54  N   UNL A   1      40.492  32.996  33.714  1.00  0.00    -0.354 N 
ATOM     55  C   UNL A   1      42.193  30.613  30.528  1.00  0.00     0.074 A 
ATOM     56  C   UNL A   1      41.224  30.378  29.479  1.00  0.00     0.031 C 
ATOM     57  C   UNL A   1      38.886  34.133  34.777  1.00  0.00     0.029 A 
ATOM     58  C   UNL A   1      40.265  33.668  34.891  1.00  0.00     0.049 A 
ATOM     59  H   UNL A   1      41.349  32.559  33.499  1.00  0.00     0.167 HD
ATOM     60  C   UNL A   1      43.462  30.141  30.513  1.00  0.00     0.037 A 
ATOM     61  C   UNL A   1      41.078  33.887  35.942  1.00  0.00     0.037 A 
ATOM     62  C   UNL A   1      44.430  30.400  31.548  1.00  0.00     0.049 A 
ATOM     63  C   UNL A   1      42.490  33.369  35.895  1.00  0.00     0.074 A 
ATOM     64  C   UNL A   1      45.759  30.022  31.599  1.00  0.00     0.029 A 
ATOM     65  N   UNL A   1      44.169  31.101  32.716  1.00  0.00    -0.354 N 
ATOM     66  N   UNL A   1      43.084  32.681  34.949  1.00  0.00    -0.248 NA
ATOM     67  C   UNL A   1      43.345  33.669  37.050  1.00  0.00     0.031 C 
ATOM     68  C   UNL A   1      46.293  30.462  32.815  1.00  0.00     0.029 A 
ATOM     69  C   UNL A   1      45.308  31.152  33.502  1.00  0.00     0.049 A 
ATOM     70  H   UNL A   1      43.302  31.505  32.951  1.00  0.00     0.167 HD
ATOM     71  C   UNL A   1      44.388  32.480  35.387  1.00  0.00     0.074 A 
ATOM     72  C   UNL A   1      44.501  33.139  36.673  1.00  0.00     0.031 C 
ATOM     73  C   UNL A   1      45.400  31.810  34.783  1.00  0.00     0.037 A 
BRANCH  60  74
ATOM     74  C   UNL A   1      43.879  29.305  29.333  1.00  0.00     0.058 A 
ATOM     75  C   UNL A   1      43.658  27.918  29.301  1.00  0.00     0.135 A 
ATOM     76  C   UNL A   1      44.484  29.897  28.213  1.00  0.00     0.135 A 
ATOM     77  F   UNL A   1      43.097  27.298  30.352  1.00  0.00    -0.206 F 
ATOM     78  C   UNL A   1      44.049  27.144  28.214  1.00  0.00     0.059 A 
ATOM     79  C   UNL A   1      44.860  29.146  27.103  1.00  0.00     0.059 A 
ATOM     80  F   UNL A   1      44.720  31.218  28.191  1.00  0.00    -0.206 F 
ATOM     81  C   UNL A   1      44.652  27.766  27.120  1.00  0.00     0.060 A 
BRANCH  81  82
ATOM     82  S   UNL A   1      45.155  26.747  25.718  1.00  0.00     0.124 S 
ATOM     83  O   UNL A   1      46.330  26.070  26.258  1.00  0.00    -0.237 OA
ATOM     84  O   UNL A   1      43.981  25.905  25.506  1.00  0.00    -0.237 OA
ATOM     85  O   UNL A   1      45.421  27.723  24.666  1.00  0.00    -0.744 OA
ENDBRANCH  81  82
ENDBRANCH  60  74
BRANCH  61  86
ATOM     86  C   UNL A   1      40.588  34.662  37.112  1.00  0.00     0.058 A 
ATOM     87  C   UNL A   1      39.920  34.026  38.170  1.00  0.00     0.135 A 
ATOM     88  C   UNL A   1      40.788  36.048  37.204  1.00  0.00     0.135 A 
ATOM     89  F   UNL A   1      39.701  32.703  38.124  1.00  0.00    -0.206 F 
ATOM     90  C   UNL A   1      39.451  34.738  39.268  1.00  0.00     0.059 A 
ATOM     91  C   UNL A   1      40.351  36.778  38.305  1.00  0.00     0.059 A 
ATOM     92  F   UNL A   1      41.438  36.700  36.228  1.00  0.00    -0.206 F 
ATOM     93  C   UNL A   1      39.673  36.115  39.327  1.00  0.00     0.060 A 
BRANCH  93  94
ATOM     94  S   UNL A   1      39.104  37.023  40.781  1.00  0.00     0.124 S 
ATOM     95  O   UNL A   1      38.290  38.070  40.173  1.00  0.00    -0.237 OA
ATOM     96  O   UNL A   1      38.374  35.996  41.519  1.00  0.00    -0.237 OA
ATOM     97  O   UNL A   1      40.345  37.470  41.405  1.00  0.00    -0.744 OA
ENDBRANCH  93  94
ENDBRANCH  61  86
BRANCH  73  98
ATOM     98  C   UNL A   1      46.722  31.774  35.499  1.00  0.00     0.058 A 
ATOM     99  C   UNL A   1      47.018  30.784  36.447  1.00  0.00     0.135 A 
ATOM    100  C   UNL A   1      47.714  32.726  35.212  1.00  0.00     0.135 A 
ATOM    101  F   UNL A   1      46.101  29.854  36.761  1.00  0.00    -0.206 F 
ATOM    102  C   UNL A   1      48.239  30.757  37.113  1.00  0.00     0.059 A 
ATOM    103  C   UNL A   1      48.952  32.702  35.846  1.00  0.00     0.059 A 
ATOM    104  F   UNL A   1      47.487  33.688  34.304  1.00  0.00    -0.206 F 
ATOM    105  C   UNL A   1      49.200  31.723  36.807  1.00  0.00     0.060 A 
BRANCH 105 106
ATOM    106  S   UNL A   1      50.785  31.672  37.667  1.00  0.00     0.124 S 
ATOM    107  O   UNL A   1      51.684  31.241  36.601  1.00  0.00    -0.237 OA
ATOM    108  O   UNL A   1      50.946  33.052  38.113  1.00  0.00    -0.237 OA
ATOM    109  O   UNL A   1      50.561  30.698  38.732  1.00  0.00    -0.744 OA
ENDBRANCH 105 106
ENDBRANCH  73  98
ENDBRANCH  47  48
ENDBRANCH  39  42
ENDBRANCH  37  38
ENDBRANCH  36  37
ENDBRANCH   1  36
TORSDOF 19
ENDMDL
