MODEL 1
REMARK VINA RESULT:     -10.9      0.000      0.000
REMARK SMILES C[C@](NC(=O)[C@](C)([NH3+])C(F)(F)F)(C(=O)NCCCCNC(=O)c1ccc(-c2c3nc(c(-c4c(F)cc(S(=O)(=O)[O-])cc4F)c4ccc([nH]4)c(-c4c(F)cc(S(=O)(=O)[O-])cc4F)c4nc(c(-c5c(F)cc(S(=O)(=O)[O-])cc5F)c5ccc2[nH]5)C=C4)C=C3)cc1)c1ccccc1
REMARK SMILES IDX 17 1 16 2 15 3 13 4 14 5 2 7 1 8 89 9 90 10 94 11 91 12
REMARK SMILES IDX 93 13 92 14 3 15 4 16 5 18 6 19 7 20 8 21 9 25 10 26 11 27
REMARK SMILES IDX 12 28 18 29 19 30 20 31 21 32 22 34 23 35 24 36 88 37 25 38
REMARK SMILES IDX 87 39 26 40 27 41 28 42 81 43 29 44 86 45 80 46 82 47 30 48
REMARK SMILES IDX 85 49 79 50 78 51 31 53 65 54 44 55 64 56 45 57 48 58 63 59
REMARK SMILES IDX 83 60 46 61 47 62 62 64 84 65 49 66 32 67 33 68 42 69 34 70
REMARK SMILES IDX 35 71 41 72 43 73 36 74 37 75 38 76 39 77 40 78 66 79 67 80
REMARK SMILES IDX 76 81 68 82 69 83 75 84 77 85 70 86 71 87 72 88 73 89 74 90
REMARK SMILES IDX 50 91 51 92 60 93 52 94 53 95 59 96 61 97 54 98 55 99 56 100
REMARK SMILES IDX 57 101 58 102
REMARK H PARENT 15 6 3 17 8 22 8 23 8 24 20 33 82 52 48 63
REMARK Flexibility Score: inf
ROOT
ATOM      1  C   UNL A   1      31.577  26.769  26.402  1.00  0.00     0.023 C 
ENDROOT
BRANCH   1   2
ATOM      2  C   UNL A   1      30.537  26.246  25.414  1.00  0.00     0.116 C 
BRANCH   2   3
ATOM      3  N   UNL A   1      30.147  24.853  25.537  1.00  0.00    -0.354 N 
ATOM      4  C   UNL A   1      30.756  23.667  25.221  1.00  0.00     0.250 C 
ATOM      5  O   UNL A   1      30.387  22.704  25.904  1.00  0.00    -0.272 OA
ATOM      6  H   UNL A   1      29.253  24.735  25.932  1.00  0.00     0.163 HD
BRANCH   4   7
ATOM      7  C   UNL A   1      31.915  23.544  24.166  1.00  0.00     0.142 C 
ATOM      8  C   UNL A   1      31.691  24.688  23.129  1.00  0.00     0.051 C 
BRANCH   7   9
ATOM      9  C   UNL A   1      33.340  23.827  24.718  1.00  0.00    -0.013 A 
ATOM     10  C   UNL A   1      33.653  23.749  26.088  1.00  0.00     0.007 A 
ATOM     11  C   UNL A   1      34.422  24.021  23.831  1.00  0.00     0.007 A 
ATOM     12  C   UNL A   1      34.965  23.902  26.551  1.00  0.00     0.000 A 
ATOM     13  C   UNL A   1      35.738  24.137  24.290  1.00  0.00     0.000 A 
ATOM     14  C   UNL A   1      36.008  24.087  25.653  1.00  0.00     0.000 A 
ENDBRANCH   7   9
BRANCH   7  15
ATOM     15  N   UNL A   1      31.844  22.267  23.410  1.00  0.00    -0.332 N 
ATOM     16  C   UNL A   1      32.273  20.996  23.486  1.00  0.00     0.291 C 
ATOM     17  H   UNL A   1      31.311  22.392  22.592  1.00  0.00     0.165 HD
ATOM     18  O   UNL A   1      32.080  20.398  22.404  1.00  0.00    -0.267 OA
BRANCH  16  19
ATOM     19  C   UNL A   1      32.952  20.172  24.625  1.00  0.00     0.267 C 
ATOM     20  C   UNL A   1      32.628  18.682  24.431  1.00  0.00     0.100 C 
BRANCH  19  21
ATOM     21  N   UNL A   1      32.187  20.561  25.886  1.00  0.00    -0.337 N 
ATOM     22  H   UNL A   1      32.732  21.237  26.420  1.00  0.00     0.345 HD
ATOM     23  H   UNL A   1      32.024  19.730  26.455  1.00  0.00     0.345 HD
ATOM     24  H   UNL A   1      31.292  20.975  25.626  1.00  0.00     0.345 HD
ENDBRANCH  19  21
BRANCH  19  25
ATOM     25  C   UNL A   1      34.470  20.307  24.794  1.00  0.00     0.453 C 
ATOM     26  F   UNL A   1      35.003  21.129  23.871  1.00  0.00    -0.164 F 
ATOM     27  F   UNL A   1      34.807  20.760  26.017  1.00  0.00    -0.164 F 
ATOM     28  F   UNL A   1      35.089  19.108  24.648  1.00  0.00    -0.164 F 
ENDBRANCH  19  25
ENDBRANCH  16  19
ENDBRANCH   7  15
ENDBRANCH   4   7
ENDBRANCH   2   3
ENDBRANCH   1   2
BRANCH   1  29
ATOM     29  C   UNL A   1      32.821  27.451  25.831  1.00  0.00     0.023 C 
BRANCH  29  30
ATOM     30  C   UNL A   1      33.819  27.999  26.839  1.00  0.00     0.116 C 
BRANCH  30  31
ATOM     31  N   UNL A   1      33.576  29.397  27.149  1.00  0.00    -0.352 N 
ATOM     32  C   UNL A   1      34.396  30.287  27.793  1.00  0.00     0.251 C 
ATOM     33  H   UNL A   1      32.705  29.752  26.858  1.00  0.00     0.163 HD
ATOM     34  O   UNL A   1      33.947  31.385  28.134  1.00  0.00    -0.269 OA
BRANCH  32  35
ATOM     35  C   UNL A   1      35.803  29.938  28.096  1.00  0.00     0.039 A 
ATOM     36  C   UNL A   1      36.124  29.471  29.374  1.00  0.00     0.014 A 
ATOM     37  C   UNL A   1      36.812  30.102  27.141  1.00  0.00     0.014 A 
ATOM     38  C   UNL A   1      37.445  29.137  29.685  1.00  0.00     0.010 A 
ATOM     39  C   UNL A   1      38.119  29.714  27.433  1.00  0.00     0.010 A 
ATOM     40  C   UNL A   1      38.453  29.242  28.712  1.00  0.00    -0.014 A 
BRANCH  40  41
ATOM     41  C   UNL A   1      39.865  28.902  29.025  1.00  0.00     0.031 A 
ATOM     42  C   UNL A   1      40.761  29.931  29.662  1.00  0.00     0.074 A 
ATOM     43  C   UNL A   1      40.356  27.694  28.689  1.00  0.00     0.049 A 
ATOM     44  N   UNL A   1      42.035  29.854  29.948  1.00  0.00    -0.248 NA
ATOM     45  C   UNL A   1      40.150  31.228  29.995  1.00  0.00     0.031 C 
ATOM     46  C   UNL A   1      39.600  26.626  28.031  1.00  0.00     0.029 A 
ATOM     47  N   UNL A   1      41.612  27.163  28.845  1.00  0.00    -0.354 N 
ATOM     48  C   UNL A   1      42.382  31.094  30.473  1.00  0.00     0.074 A 
ATOM     49  C   UNL A   1      41.194  31.918  30.427  1.00  0.00     0.031 C 
ATOM     50  C   UNL A   1      40.404  25.564  27.855  1.00  0.00     0.029 A 
ATOM     51  C   UNL A   1      41.736  25.883  28.360  1.00  0.00     0.049 A 
ATOM     52  H   UNL A   1      42.356  27.654  29.265  1.00  0.00     0.167 HD
ATOM     53  C   UNL A   1      43.576  31.503  30.966  1.00  0.00     0.037 A 
ATOM     54  C   UNL A   1      42.803  25.061  28.322  1.00  0.00     0.037 A 
ATOM     55  C   UNL A   1      44.745  30.666  31.046  1.00  0.00     0.049 A 
ATOM     56  C   UNL A   1      44.113  25.530  28.894  1.00  0.00     0.074 A 
ATOM     57  C   UNL A   1      45.982  30.965  31.592  1.00  0.00     0.029 A 
ATOM     58  N   UNL A   1      44.821  29.366  30.571  1.00  0.00    -0.354 N 
ATOM     59  N   UNL A   1      44.408  26.686  29.441  1.00  0.00    -0.248 NA
ATOM     60  C   UNL A   1      45.235  24.581  28.853  1.00  0.00     0.031 C 
ATOM     61  C   UNL A   1      46.816  29.855  31.417  1.00  0.00     0.029 A 
ATOM     62  C   UNL A   1      46.088  28.853  30.797  1.00  0.00     0.049 A 
ATOM     63  H   UNL A   1      44.084  28.879  30.136  1.00  0.00     0.167 HD
ATOM     64  C   UNL A   1      45.740  26.595  29.829  1.00  0.00     0.074 A 
ATOM     65  C   UNL A   1      46.191  25.268  29.464  1.00  0.00     0.031 C 
ATOM     66  C   UNL A   1      46.518  27.525  30.435  1.00  0.00     0.037 A 
BRANCH  53  67
ATOM     67  C   UNL A   1      43.676  32.919  31.462  1.00  0.00     0.058 A 
ATOM     68  C   UNL A   1      43.371  33.256  32.790  1.00  0.00     0.135 A 
ATOM     69  C   UNL A   1      44.104  33.947  30.607  1.00  0.00     0.135 A 
ATOM     70  F   UNL A   1      42.943  32.314  33.646  1.00  0.00    -0.206 F 
ATOM     71  C   UNL A   1      43.456  34.569  33.245  1.00  0.00     0.059 A 
ATOM     72  C   UNL A   1      44.219  35.262  31.047  1.00  0.00     0.059 A 
ATOM     73  F   UNL A   1      44.408  33.679  29.327  1.00  0.00    -0.206 F 
ATOM     74  C   UNL A   1      43.877  35.566  32.364  1.00  0.00     0.060 A 
BRANCH  74  75
ATOM     75  S   UNL A   1      43.979  37.265  32.966  1.00  0.00     0.124 S 
ATOM     76  O   UNL A   1      43.839  38.020  31.725  1.00  0.00    -0.237 OA
ATOM     77  O   UNL A   1      42.848  37.341  33.885  1.00  0.00    -0.237 OA
ATOM     78  O   UNL A   1      45.296  37.325  33.593  1.00  0.00    -0.744 OA
ENDBRANCH  74  75
ENDBRANCH  53  67
BRANCH  54  79
ATOM     79  C   UNL A   1      42.668  23.697  27.749  1.00  0.00     0.058 A 
ATOM     80  C   UNL A   1      42.426  22.592  28.578  1.00  0.00     0.135 A 
ATOM     81  C   UNL A   1      42.763  23.472  26.367  1.00  0.00     0.135 A 
ATOM     82  F   UNL A   1      42.335  22.758  29.907  1.00  0.00    -0.206 F 
ATOM     83  C   UNL A   1      42.294  21.308  28.060  1.00  0.00     0.059 A 
ATOM     84  C   UNL A   1      42.613  22.199  25.823  1.00  0.00     0.059 A 
ATOM     85  F   UNL A   1      42.978  24.499  25.532  1.00  0.00    -0.206 F 
ATOM     86  C   UNL A   1      42.388  21.121  26.680  1.00  0.00     0.060 A 
BRANCH  86  87
ATOM     87  S   UNL A   1      42.161  19.459  26.013  1.00  0.00     0.124 S 
ATOM     88  O   UNL A   1      42.671  18.633  27.102  1.00  0.00    -0.237 OA
ATOM     89  O   UNL A   1      40.718  19.407  25.795  1.00  0.00    -0.237 OA
ATOM     90  O   UNL A   1      42.970  19.474  24.797  1.00  0.00    -0.744 OA
ENDBRANCH  86  87
ENDBRANCH  54  79
BRANCH  66  91
ATOM     91  C   UNL A   1      47.928  27.133  30.771  1.00  0.00     0.058 A 
ATOM     92  C   UNL A   1      48.267  26.614  32.029  1.00  0.00     0.135 A 
ATOM     93  C   UNL A   1      48.941  27.231  29.805  1.00  0.00     0.135 A 
ATOM     94  F   UNL A   1      47.335  26.507  32.989  1.00  0.00    -0.206 F 
ATOM     95  C   UNL A   1      49.568  26.220  32.325  1.00  0.00     0.059 A 
ATOM     96  C   UNL A   1      50.244  26.822  30.071  1.00  0.00     0.059 A 
ATOM     97  F   UNL A   1      48.666  27.712  28.582  1.00  0.00    -0.206 F 
ATOM     98  C   UNL A   1      50.550  26.328  31.338  1.00  0.00     0.060 A 
BRANCH  98  99
ATOM     99  S   UNL A   1      52.227  25.779  31.718  1.00  0.00     0.124 S 
ATOM    100  O   UNL A   1      52.921  26.065  30.466  1.00  0.00    -0.237 OA
ATOM    101  O   UNL A   1      52.589  26.627  32.850  1.00  0.00    -0.237 OA
ATOM    102  O   UNL A   1      52.057  24.364  32.034  1.00  0.00    -0.744 OA
ENDBRANCH  98  99
ENDBRANCH  66  91
ENDBRANCH  40  41
ENDBRANCH  32  35
ENDBRANCH  30  31
ENDBRANCH  29  30
ENDBRANCH   1  29
TORSDOF 19
ENDMDL
MODEL 2
REMARK VINA RESULT:     -10.8      1.222      2.023
REMARK SMILES C[C@](NC(=O)[C@](C)([NH3+])C(F)(F)F)(C(=O)NCCCCNC(=O)c1ccc(-c2c3nc(c(-c4c(F)cc(S(=O)(=O)[O-])cc4F)c4ccc([nH]4)c(-c4c(F)cc(S(=O)(=O)[O-])cc4F)c4nc(c(-c5c(F)cc(S(=O)(=O)[O-])cc5F)c5ccc2[nH]5)C=C4)C=C3)cc1)c1ccccc1
REMARK SMILES IDX 17 1 16 2 15 3 13 4 14 5 2 7 1 8 89 9 90 10 94 11 91 12
REMARK SMILES IDX 93 13 92 14 3 15 4 16 5 18 6 19 7 20 8 21 9 25 10 26 11 27
REMARK SMILES IDX 12 28 18 29 19 30 20 31 21 32 22 34 23 35 24 36 88 37 25 38
REMARK SMILES IDX 87 39 26 40 27 41 28 42 81 43 29 44 86 45 80 46 82 47 30 48
REMARK SMILES IDX 85 49 79 50 78 51 31 53 65 54 44 55 64 56 45 57 48 58 63 59
REMARK SMILES IDX 83 60 46 61 47 62 62 64 84 65 49 66 32 67 33 68 42 69 34 70
REMARK SMILES IDX 35 71 41 72 43 73 36 74 37 75 38 76 39 77 40 78 66 79 67 80
REMARK SMILES IDX 76 81 68 82 69 83 75 84 77 85 70 86 71 87 72 88 73 89 74 90
REMARK SMILES IDX 50 91 51 92 60 93 52 94 53 95 59 96 61 97 54 98 55 99 56 100
REMARK SMILES IDX 57 101 58 102
REMARK H PARENT 15 6 3 17 8 22 8 23 8 24 20 33 82 52 48 63
REMARK Flexibility Score: inf
ROOT
ATOM      1  C   UNL A   1      32.664  28.502  24.743  1.00  0.00     0.023 C 
ENDROOT
BRANCH   1   2
ATOM      2  C   UNL A   1      32.042  27.562  23.713  1.00  0.00     0.116 C 
BRANCH   2   3
ATOM      3  N   UNL A   1      32.930  26.984  22.721  1.00  0.00    -0.354 N 
ATOM      4  C   UNL A   1      33.283  25.701  22.397  1.00  0.00     0.250 C 
ATOM      5  O   UNL A   1      33.637  25.549  21.222  1.00  0.00    -0.272 OA
ATOM      6  H   UNL A   1      33.375  27.660  22.160  1.00  0.00     0.163 HD
BRANCH   4   7
ATOM      7  C   UNL A   1      33.140  24.489  23.388  1.00  0.00     0.142 C 
ATOM      8  C   UNL A   1      32.605  23.290  22.546  1.00  0.00     0.051 C 
BRANCH   7   9
ATOM      9  C   UNL A   1      34.477  23.957  23.974  1.00  0.00    -0.013 A 
ATOM     10  C   UNL A   1      35.183  24.629  24.988  1.00  0.00     0.007 A 
ATOM     11  C   UNL A   1      34.954  22.677  23.612  1.00  0.00     0.007 A 
ATOM     12  C   UNL A   1      36.328  24.077  25.575  1.00  0.00     0.000 A 
ATOM     13  C   UNL A   1      36.076  22.109  24.223  1.00  0.00     0.000 A 
ATOM     14  C   UNL A   1      36.769  22.815  25.200  1.00  0.00     0.000 A 
ENDBRANCH   7   9
BRANCH   7  15
ATOM     15  N   UNL A   1      32.125  24.752  24.442  1.00  0.00    -0.332 N 
ATOM     16  C   UNL A   1      31.492  24.123  25.446  1.00  0.00     0.291 C 
ATOM     17  H   UNL A   1      31.820  25.686  24.386  1.00  0.00     0.165 HD
ATOM     18  O   UNL A   1      30.540  24.815  25.872  1.00  0.00    -0.267 OA
BRANCH  16  19
ATOM     19  C   UNL A   1      31.711  22.741  26.138  1.00  0.00     0.267 C 
ATOM     20  C   UNL A   1      31.793  21.646  25.062  1.00  0.00     0.100 C 
BRANCH  19  21
ATOM     21  N   UNL A   1      30.397  22.462  26.859  1.00  0.00    -0.337 N 
ATOM     22  H   UNL A   1      29.665  23.061  26.478  1.00  0.00     0.345 HD
ATOM     23  H   UNL A   1      30.508  22.654  27.855  1.00  0.00     0.345 HD
ATOM     24  H   UNL A   1      30.138  21.484  26.729  1.00  0.00     0.345 HD
ENDBRANCH  19  21
BRANCH  19  25
ATOM     25  C   UNL A   1      32.929  22.590  27.058  1.00  0.00     0.453 C 
ATOM     26  F   UNL A   1      33.793  21.668  26.594  1.00  0.00    -0.164 F 
ATOM     27  F   UNL A   1      33.589  23.753  27.221  1.00  0.00    -0.164 F 
ATOM     28  F   UNL A   1      32.560  22.184  28.299  1.00  0.00    -0.164 F 
ENDBRANCH  19  25
ENDBRANCH  16  19
ENDBRANCH   7  15
ENDBRANCH   4   7
ENDBRANCH   2   3
ENDBRANCH   1   2
BRANCH   1  29
ATOM     29  C   UNL A   1      33.869  27.993  25.535  1.00  0.00     0.023 C 
BRANCH  29  30
ATOM     30  C   UNL A   1      33.824  28.188  27.043  1.00  0.00     0.116 C 
BRANCH  30  31
ATOM     31  N   UNL A   1      33.578  29.570  27.412  1.00  0.00    -0.352 N 
ATOM     32  C   UNL A   1      34.406  30.441  28.073  1.00  0.00     0.251 C 
ATOM     33  H   UNL A   1      32.699  29.930  27.153  1.00  0.00     0.163 HD
ATOM     34  O   UNL A   1      33.957  31.521  28.465  1.00  0.00    -0.269 OA
BRANCH  32  35
ATOM     35  C   UNL A   1      35.822  30.090  28.333  1.00  0.00     0.039 A 
ATOM     36  C   UNL A   1      36.740  30.159  27.280  1.00  0.00     0.014 A 
ATOM     37  C   UNL A   1      36.241  29.657  29.595  1.00  0.00     0.014 A 
ATOM     38  C   UNL A   1      38.080  29.829  27.499  1.00  0.00     0.010 A 
ATOM     39  C   UNL A   1      37.588  29.385  29.827  1.00  0.00     0.010 A 
ATOM     40  C   UNL A   1      38.519  29.453  28.779  1.00  0.00    -0.014 A 
BRANCH  40  41
ATOM     41  C   UNL A   1      39.938  29.089  29.031  1.00  0.00     0.031 A 
ATOM     42  C   UNL A   1      40.882  30.109  29.611  1.00  0.00     0.074 A 
ATOM     43  C   UNL A   1      40.390  27.866  28.692  1.00  0.00     0.049 A 
ATOM     44  N   UNL A   1      42.166  30.010  29.840  1.00  0.00    -0.248 NA
ATOM     45  C   UNL A   1      40.312  31.422  29.952  1.00  0.00     0.031 C 
ATOM     46  C   UNL A   1      39.583  26.804  28.086  1.00  0.00     0.029 A 
ATOM     47  N   UNL A   1      41.640  27.313  28.798  1.00  0.00    -0.354 N 
ATOM     48  C   UNL A   1      42.561  31.250  30.330  1.00  0.00     0.074 A 
ATOM     49  C   UNL A   1      41.389  32.097  30.326  1.00  0.00     0.031 C 
ATOM     50  C   UNL A   1      40.357  25.724  27.889  1.00  0.00     0.029 A 
ATOM     51  C   UNL A   1      41.717  26.024  28.327  1.00  0.00     0.049 A 
ATOM     52  H   UNL A   1      42.412  27.795  29.176  1.00  0.00     0.167 HD
ATOM     53  C   UNL A   1      43.785  31.641  30.761  1.00  0.00     0.037 A 
ATOM     54  C   UNL A   1      42.765  25.180  28.253  1.00  0.00     0.037 A 
ATOM     55  C   UNL A   1      44.939  30.783  30.800  1.00  0.00     0.049 A 
ATOM     56  C   UNL A   1      44.109  25.630  28.757  1.00  0.00     0.074 A 
ATOM     57  C   UNL A   1      46.205  31.065  31.284  1.00  0.00     0.029 A 
ATOM     58  N   UNL A   1      44.968  29.475  30.342  1.00  0.00    -0.354 N 
ATOM     59  N   UNL A   1      44.451  26.788  29.272  1.00  0.00    -0.248 NA
ATOM     60  C   UNL A   1      45.209  24.659  28.679  1.00  0.00     0.031 C 
ATOM     61  C   UNL A   1      47.009  29.935  31.088  1.00  0.00     0.029 A 
ATOM     62  C   UNL A   1      46.233  28.939  30.517  1.00  0.00     0.049 A 
ATOM     63  H   UNL A   1      44.203  28.997  29.949  1.00  0.00     0.167 HD
ATOM     64  C   UNL A   1      45.797  26.675  29.601  1.00  0.00     0.074 A 
ATOM     65  C   UNL A   1      46.205  25.334  29.235  1.00  0.00     0.031 C 
ATOM     66  C   UNL A   1      46.620  27.598  30.156  1.00  0.00     0.037 A 
BRANCH  53  67
ATOM     67  C   UNL A   1      43.934  33.062  31.231  1.00  0.00     0.058 A 
ATOM     68  C   UNL A   1      43.673  33.429  32.561  1.00  0.00     0.135 A 
ATOM     69  C   UNL A   1      44.367  34.065  30.347  1.00  0.00     0.135 A 
ATOM     70  F   UNL A   1      43.243  32.513  33.442  1.00  0.00    -0.206 F 
ATOM     71  C   UNL A   1      43.805  34.746  32.991  1.00  0.00     0.059 A 
ATOM     72  C   UNL A   1      44.529  35.383  30.762  1.00  0.00     0.059 A 
ATOM     73  F   UNL A   1      44.631  33.768  29.065  1.00  0.00    -0.206 F 
ATOM     74  C   UNL A   1      44.229  35.717  32.082  1.00  0.00     0.060 A 
BRANCH  74  75
ATOM     75  S   UNL A   1      44.391  37.422  32.654  1.00  0.00     0.124 S 
ATOM     76  O   UNL A   1      43.830  38.159  31.526  1.00  0.00    -0.237 OA
ATOM     77  O   UNL A   1      43.590  37.423  33.873  1.00  0.00    -0.237 OA
ATOM     78  O   UNL A   1      45.829  37.579  32.852  1.00  0.00    -0.744 OA
ENDBRANCH  74  75
ENDBRANCH  53  67
BRANCH  54  79
ATOM     79  C   UNL A   1      42.577  23.811  27.707  1.00  0.00     0.058 A 
ATOM     80  C   UNL A   1      42.429  22.711  28.565  1.00  0.00     0.135 A 
ATOM     81  C   UNL A   1      42.527  23.575  26.325  1.00  0.00     0.135 A 
ATOM     82  F   UNL A   1      42.478  22.887  29.895  1.00  0.00    -0.206 F 
ATOM     83  C   UNL A   1      42.249  21.423  28.074  1.00  0.00     0.059 A 
ATOM     84  C   UNL A   1      42.327  22.298  25.809  1.00  0.00     0.059 A 
ATOM     85  F   UNL A   1      42.649  24.596  25.464  1.00  0.00    -0.206 F 
ATOM     86  C   UNL A   1      42.199  21.226  26.693  1.00  0.00     0.060 A 
BRANCH  86  87
ATOM     87  S   UNL A   1      41.911  19.557  26.065  1.00  0.00     0.124 S 
ATOM     88  O   UNL A   1      40.491  19.608  25.735  1.00  0.00    -0.237 OA
ATOM     89  O   UNL A   1      42.829  19.491  24.931  1.00  0.00    -0.237 OA
ATOM     90  O   UNL A   1      42.267  18.708  27.199  1.00  0.00    -0.744 OA
ENDBRANCH  86  87
ENDBRANCH  54  79
BRANCH  66  91
ATOM     91  C   UNL A   1      48.037  27.183  30.433  1.00  0.00     0.058 A 
ATOM     92  C   UNL A   1      49.072  27.450  29.526  1.00  0.00     0.135 A 
ATOM     93  C   UNL A   1      48.369  26.556  31.644  1.00  0.00     0.135 A 
ATOM     94  F   UNL A   1      48.805  28.042  28.351  1.00  0.00    -0.206 F 
ATOM     95  C   UNL A   1      50.388  27.094  29.801  1.00  0.00     0.059 A 
ATOM     96  C   UNL A   1      49.681  26.211  31.951  1.00  0.00     0.059 A 
ATOM     97  F   UNL A   1      47.415  26.286  32.550  1.00  0.00    -0.206 F 
ATOM     98  C   UNL A   1      50.683  26.475  31.018  1.00  0.00     0.060 A 
BRANCH  98  99
ATOM     99  S   UNL A   1      52.399  26.050  31.383  1.00  0.00     0.124 S 
ATOM    100  O   UNL A   1      52.994  26.062  30.050  1.00  0.00    -0.237 OA
ATOM    101  O   UNL A   1      52.811  27.135  32.270  1.00  0.00    -0.237 OA
ATOM    102  O   UNL A   1      52.297  24.739  32.015  1.00  0.00    -0.744 OA
ENDBRANCH  98  99
ENDBRANCH  66  91
ENDBRANCH  40  41
ENDBRANCH  32  35
ENDBRANCH  30  31
ENDBRANCH  29  30
ENDBRANCH   1  29
TORSDOF 19
ENDMDL
MODEL 3
REMARK VINA RESULT:     -10.7      4.781     10.226
REMARK SMILES C[C@](NC(=O)[C@](C)([NH3+])C(F)(F)F)(C(=O)NCCCCNC(=O)c1ccc(-c2c3nc(c(-c4c(F)cc(S(=O)(=O)[O-])cc4F)c4ccc([nH]4)c(-c4c(F)cc(S(=O)(=O)[O-])cc4F)c4nc(c(-c5c(F)cc(S(=O)(=O)[O-])cc5F)c5ccc2[nH]5)C=C4)C=C3)cc1)c1ccccc1
REMARK SMILES IDX 17 1 16 2 15 3 13 4 14 5 2 7 1 8 89 9 90 10 94 11 91 12
REMARK SMILES IDX 93 13 92 14 3 15 4 16 5 18 6 19 7 20 8 21 9 25 10 26 11 27
REMARK SMILES IDX 12 28 18 29 19 30 20 31 21 32 22 34 23 35 24 36 88 37 25 38
REMARK SMILES IDX 87 39 26 40 27 41 28 42 81 43 29 44 86 45 80 46 82 47 30 48
REMARK SMILES IDX 85 49 79 50 78 51 31 53 65 54 44 55 64 56 45 57 48 58 63 59
REMARK SMILES IDX 83 60 46 61 47 62 62 64 84 65 49 66 32 67 33 68 42 69 34 70
REMARK SMILES IDX 35 71 41 72 43 73 36 74 37 75 38 76 39 77 40 78 66 79 67 80
REMARK SMILES IDX 76 81 68 82 69 83 75 84 77 85 70 86 71 87 72 88 73 89 74 90
REMARK SMILES IDX 50 91 51 92 60 93 52 94 53 95 59 96 61 97 54 98 55 99 56 100
REMARK SMILES IDX 57 101 58 102
REMARK H PARENT 15 6 3 17 8 22 8 23 8 24 20 33 82 52 48 63
REMARK Flexibility Score: inf
ROOT
ATOM      1  C   UNL A   1      37.610  22.124  25.336  1.00  0.00     0.023 C 
ENDROOT
BRANCH   1   2
ATOM      2  C   UNL A   1      36.222  21.497  25.224  1.00  0.00     0.116 C 
BRANCH   2   3
ATOM      3  N   UNL A   1      35.308  21.707  26.332  1.00  0.00    -0.354 N 
ATOM      4  C   UNL A   1      33.973  21.462  26.518  1.00  0.00     0.250 C 
ATOM      5  O   UNL A   1      33.646  21.285  27.698  1.00  0.00    -0.272 OA
ATOM      6  H   UNL A   1      35.740  22.114  27.118  1.00  0.00     0.163 HD
BRANCH   4   7
ATOM      7  C   UNL A   1      32.951  21.296  25.336  1.00  0.00     0.142 C 
ATOM      8  C   UNL A   1      33.297  22.404  24.294  1.00  0.00     0.051 C 
BRANCH   7   9
ATOM      9  C   UNL A   1      33.091  19.977  24.526  1.00  0.00    -0.013 A 
ATOM     10  C   UNL A   1      33.698  18.822  25.054  1.00  0.00     0.007 A 
ATOM     11  C   UNL A   1      32.461  19.842  23.269  1.00  0.00     0.007 A 
ATOM     12  C   UNL A   1      33.717  17.615  24.347  1.00  0.00     0.000 A 
ATOM     13  C   UNL A   1      32.447  18.627  22.578  1.00  0.00     0.000 A 
ATOM     14  C   UNL A   1      33.085  17.514  23.114  1.00  0.00     0.000 A 
ENDBRANCH   7   9
BRANCH   7  15
ATOM     15  N   UNL A   1      31.553  21.546  25.772  1.00  0.00    -0.332 N 
ATOM     16  C   UNL A   1      30.715  22.567  26.021  1.00  0.00     0.291 C 
ATOM     17  H   UNL A   1      31.093  20.690  25.929  1.00  0.00     0.165 HD
ATOM     18  O   UNL A   1      29.680  22.161  26.595  1.00  0.00    -0.267 OA
BRANCH  16  19
ATOM     19  C   UNL A   1      30.802  24.102  25.746  1.00  0.00     0.267 C 
ATOM     20  C   UNL A   1      32.094  24.653  26.369  1.00  0.00     0.100 C 
BRANCH  19  21
ATOM     21  N   UNL A   1      29.687  24.705  26.595  1.00  0.00    -0.337 N 
ATOM     22  H   UNL A   1      30.018  25.565  27.031  1.00  0.00     0.345 HD
ATOM     23  H   UNL A   1      29.414  24.040  27.319  1.00  0.00     0.345 HD
ATOM     24  H   UNL A   1      28.883  24.911  26.002  1.00  0.00     0.345 HD
ENDBRANCH  19  21
BRANCH  19  25
ATOM     25  C   UNL A   1      30.745  24.568  24.287  1.00  0.00     0.453 C 
ATOM     26  F   UNL A   1      30.623  23.531  23.436  1.00  0.00    -0.164 F 
ATOM     27  F   UNL A   1      29.731  25.426  24.066  1.00  0.00    -0.164 F 
ATOM     28  F   UNL A   1      31.881  25.223  23.936  1.00  0.00    -0.164 F 
ENDBRANCH  19  25
ENDBRANCH  16  19
ENDBRANCH   7  15
ENDBRANCH   4   7
ENDBRANCH   2   3
ENDBRANCH   1   2
BRANCH   1  29
ATOM     29  C   UNL A   1      37.709  23.536  25.913  1.00  0.00     0.023 C 
BRANCH  29  30
ATOM     30  C   UNL A   1      38.842  23.793  26.895  1.00  0.00     0.116 C 
BRANCH  30  31
ATOM     31  N   UNL A   1      40.125  23.932  26.229  1.00  0.00    -0.352 N 
ATOM     32  C   UNL A   1      41.072  24.911  26.387  1.00  0.00     0.251 C 
ATOM     33  H   UNL A   1      40.343  23.229  25.575  1.00  0.00     0.163 HD
ATOM     34  O   UNL A   1      42.020  24.968  25.600  1.00  0.00    -0.269 OA
BRANCH  32  35
ATOM     35  C   UNL A   1      40.956  25.905  27.479  1.00  0.00     0.039 A 
ATOM     36  C   UNL A   1      39.906  25.785  28.395  1.00  0.00     0.014 A 
ATOM     37  C   UNL A   1      41.852  26.975  27.583  1.00  0.00     0.014 A 
ATOM     38  C   UNL A   1      39.775  26.712  29.432  1.00  0.00     0.010 A 
ATOM     39  C   UNL A   1      41.754  27.865  28.652  1.00  0.00     0.010 A 
ATOM     40  C   UNL A   1      40.706  27.753  29.578  1.00  0.00    -0.014 A 
BRANCH  40  41
ATOM     41  C   UNL A   1      40.579  28.755  30.668  1.00  0.00     0.031 A 
ATOM     42  C   UNL A   1      41.459  28.656  31.885  1.00  0.00     0.074 A 
ATOM     43  C   UNL A   1      39.640  29.718  30.590  1.00  0.00     0.049 A 
ATOM     44  N   UNL A   1      41.456  29.387  32.970  1.00  0.00    -0.248 NA
ATOM     45  C   UNL A   1      42.457  27.575  31.896  1.00  0.00     0.031 C 
ATOM     46  C   UNL A   1      38.699  29.895  29.482  1.00  0.00     0.029 A 
ATOM     47  N   UNL A   1      39.314  30.723  31.465  1.00  0.00    -0.354 N 
ATOM     48  C   UNL A   1      42.431  28.843  33.798  1.00  0.00     0.074 A 
ATOM     49  C   UNL A   1      42.978  27.695  33.108  1.00  0.00     0.031 C 
ATOM     50  C   UNL A   1      37.914  30.955  29.738  1.00  0.00     0.029 A 
ATOM     51  C   UNL A   1      38.275  31.515  31.037  1.00  0.00     0.049 A 
ATOM     52  H   UNL A   1      39.781  30.865  32.321  1.00  0.00     0.167 HD
ATOM     53  C   UNL A   1      42.846  29.271  35.015  1.00  0.00     0.037 A 
ATOM     54  C   UNL A   1      37.677  32.569  31.626  1.00  0.00     0.037 A 
ATOM     55  C   UNL A   1      42.327  30.436  35.681  1.00  0.00     0.049 A 
ATOM     56  C   UNL A   1      38.170  33.038  32.968  1.00  0.00     0.074 A 
ATOM     57  C   UNL A   1      42.730  30.992  36.883  1.00  0.00     0.029 A 
ATOM     58  N   UNL A   1      41.295  31.228  35.201  1.00  0.00    -0.354 N 
ATOM     59  N   UNL A   1      39.133  32.547  33.710  1.00  0.00    -0.248 NA
ATOM     60  C   UNL A   1      37.501  34.211  33.549  1.00  0.00     0.031 C 
ATOM     61  C   UNL A   1      41.918  32.102  37.145  1.00  0.00     0.029 A 
ATOM     62  C   UNL A   1      41.036  32.259  36.088  1.00  0.00     0.049 A 
ATOM     63  H   UNL A   1      40.816  31.079  34.354  1.00  0.00     0.167 HD
ATOM     64  C   UNL A   1      39.202  33.363  34.834  1.00  0.00     0.074 A 
ATOM     65  C   UNL A   1      38.188  34.385  34.670  1.00  0.00     0.031 C 
ATOM     66  C   UNL A   1      40.029  33.275  35.904  1.00  0.00     0.037 A 
BRANCH  53  67
ATOM     67  C   UNL A   1      43.920  28.474  35.703  1.00  0.00     0.058 A 
ATOM     68  C   UNL A   1      43.609  27.438  36.597  1.00  0.00     0.135 A 
ATOM     69  C   UNL A   1      45.277  28.733  35.447  1.00  0.00     0.135 A 
ATOM     70  F   UNL A   1      42.329  27.159  36.888  1.00  0.00    -0.206 F 
ATOM     71  C   UNL A   1      44.604  26.707  37.238  1.00  0.00     0.059 A 
ATOM     72  C   UNL A   1      46.289  27.999  36.058  1.00  0.00     0.059 A 
ATOM     73  F   UNL A   1      45.630  29.713  34.600  1.00  0.00    -0.206 F 
ATOM     74  C   UNL A   1      45.942  26.998  36.966  1.00  0.00     0.060 A 
BRANCH  74  75
ATOM     75  S   UNL A   1      47.223  26.045  37.808  1.00  0.00     0.124 S 
ATOM     76  O   UNL A   1      46.664  25.934  39.152  1.00  0.00    -0.237 OA
ATOM     77  O   UNL A   1      47.258  24.809  37.033  1.00  0.00    -0.237 OA
ATOM     78  O   UNL A   1      48.408  26.889  37.690  1.00  0.00    -0.744 OA
ENDBRANCH  74  75
ENDBRANCH  53  67
BRANCH  54  79
ATOM     79  C   UNL A   1      36.566  33.273  30.935  1.00  0.00     0.058 A 
ATOM     80  C   UNL A   1      35.241  33.121  31.370  1.00  0.00     0.135 A 
ATOM     81  C   UNL A   1      36.803  34.119  29.842  1.00  0.00     0.135 A 
ATOM     82  F   UNL A   1      34.964  32.316  32.408  1.00  0.00    -0.206 F 
ATOM     83  C   UNL A   1      34.187  33.773  30.739  1.00  0.00     0.059 A 
ATOM     84  C   UNL A   1      35.768  34.799  29.207  1.00  0.00     0.059 A 
ATOM     85  F   UNL A   1      38.055  34.308  29.398  1.00  0.00    -0.206 F 
ATOM     86  C   UNL A   1      34.461  34.612  29.658  1.00  0.00     0.060 A 
BRANCH  86  87
ATOM     87  S   UNL A   1      33.093  35.497  28.879  1.00  0.00     0.124 S 
ATOM     88  O   UNL A   1      32.461  34.436  28.104  1.00  0.00    -0.237 OA
ATOM     89  O   UNL A   1      32.340  35.980  30.033  1.00  0.00    -0.237 OA
ATOM     90  O   UNL A   1      33.766  36.534  28.102  1.00  0.00    -0.744 OA
ENDBRANCH  86  87
ENDBRANCH  54  79
BRANCH  66  91
ATOM     91  C   UNL A   1      39.898  34.327  36.967  1.00  0.00     0.058 A 
ATOM     92  C   UNL A   1      40.648  35.512  36.926  1.00  0.00     0.135 A 
ATOM     93  C   UNL A   1      38.973  34.171  38.011  1.00  0.00     0.135 A 
ATOM     94  F   UNL A   1      41.551  35.705  35.952  1.00  0.00    -0.206 F 
ATOM     95  C   UNL A   1      40.500  36.499  37.894  1.00  0.00     0.059 A 
ATOM     96  C   UNL A   1      38.791  35.155  38.977  1.00  0.00     0.059 A 
ATOM     97  F   UNL A   1      38.224  33.060  38.090  1.00  0.00    -0.206 F 
ATOM     98  C   UNL A   1      39.567  36.311  38.916  1.00  0.00     0.060 A 
BRANCH  98  99
ATOM     99  S   UNL A   1      39.353  37.615  40.147  1.00  0.00     0.124 S 
ATOM    100  O   UNL A   1      38.223  38.356  39.596  1.00  0.00    -0.237 OA
ATOM    101  O   UNL A   1      39.081  36.859  41.365  1.00  0.00    -0.237 OA
ATOM    102  O   UNL A   1      40.634  38.314  40.125  1.00  0.00    -0.744 OA
ENDBRANCH  98  99
ENDBRANCH  66  91
ENDBRANCH  40  41
ENDBRANCH  32  35
ENDBRANCH  30  31
ENDBRANCH  29  30
ENDBRANCH   1  29
TORSDOF 19
ENDMDL
