MODEL 1
REMARK VINA RESULT:     -10.4      0.000      0.000
REMARK SMILES O=C(C[NH+]1CCN(c2ncc(C(F)(F)F)cc2Cl)CC1)NCCCCNC(=O)c1ccc(-c2c3nc(c(-c4c(F)cc(S(=O)(=O)[O-])cc4F)c4ccc([nH]4)c(-c4c(F)cc(S(=O)(=O)[O-])cc4F)c4nc(c(-c5c(F)cc(S(=O)(=O)[O-])cc5F)c5ccc2[nH]5)C=C4)C=C3)cc1
REMARK SMILES IDX 23 1 22 2 21 3 1 4 2 5 3 7 4 8 5 9 20 10 6 12 19 13 7 14
REMARK SMILES IDX 8 15 9 16 17 17 10 18 16 19 18 20 11 21 12 22 13 23 14 24
REMARK SMILES IDX 15 25 24 26 25 27 26 28 27 29 28 31 29 32 30 33 94 34 31 35
REMARK SMILES IDX 93 36 32 37 33 38 34 39 87 40 35 41 92 42 86 43 88 44 36 45
REMARK SMILES IDX 91 46 85 47 84 48 37 50 71 51 50 52 70 53 51 54 54 55 69 56
REMARK SMILES IDX 89 57 52 58 53 59 68 61 90 62 55 63 38 64 39 65 48 66 40 67
REMARK SMILES IDX 41 68 47 69 49 70 42 71 43 72 44 73 45 74 46 75 72 76 73 77
REMARK SMILES IDX 82 78 74 79 75 80 81 81 83 82 76 83 77 84 78 85 79 86 80 87
REMARK SMILES IDX 56 88 57 89 66 90 58 91 59 92 65 93 67 94 60 95 61 96 62 97
REMARK SMILES IDX 63 98 64 99
REMARK H PARENT 21 6 4 11 26 30 88 49 54 60
REMARK Flexibility Score: inf
ROOT
ATOM      1  C   UNL A   1      41.375  19.306  26.074  1.00  0.00     0.023 C 
ENDROOT
BRANCH   1   2
ATOM      2  C   UNL A   1      42.716  18.580  26.171  1.00  0.00     0.116 C 
BRANCH   2   3
ATOM      3  N   UNL A   1      43.824  19.501  26.049  1.00  0.00    -0.351 N 
ATOM      4  O   UNL A   1      44.330  19.035  23.856  1.00  0.00    -0.269 OA
ATOM      5  C   UNL A   1      44.524  19.692  24.874  1.00  0.00     0.275 C 
ATOM      6  H   UNL A   1      44.093  20.017  26.843  1.00  0.00     0.163 HD
BRANCH   5   7
ATOM      7  C   UNL A   1      45.579  20.804  24.978  1.00  0.00     0.363 C 
BRANCH   7   8
ATOM      8  N   UNL A   1      45.300  21.926  24.057  1.00  0.00    -0.324 N 
ATOM      9  C   UNL A   1      44.008  22.617  24.303  1.00  0.00     0.284 C 
ATOM     10  C   UNL A   1      46.391  22.938  24.127  1.00  0.00     0.284 C 
ATOM     11  H   UNL A   1      45.244  21.499  23.132  1.00  0.00     0.348 HD
ATOM     12  C   UNL A   1      43.943  23.450  25.606  1.00  0.00     0.179 C 
ATOM     13  C   UNL A   1      46.385  23.846  25.387  1.00  0.00     0.179 C 
ATOM     14  N   UNL A   1      45.048  24.392  25.588  1.00  0.00    -0.344 N 
BRANCH  14  15
ATOM     15  C   UNL A   1      44.831  25.674  26.030  1.00  0.00     0.147 A 
ATOM     16  N   UNL A   1      44.051  26.469  25.256  1.00  0.00    -0.237 NA
ATOM     17  C   UNL A   1      45.460  26.184  27.178  1.00  0.00     0.084 A 
ATOM     18  C   UNL A   1      43.868  27.761  25.631  1.00  0.00     0.126 A 
ATOM     19  C   UNL A   1      45.271  27.520  27.530  1.00  0.00     0.039 A 
ATOM     20  Cl  UNL A   1      46.569  25.259  28.131  1.00  0.00    -0.080 Cl
ATOM     21  C   UNL A   1      44.454  28.335  26.747  1.00  0.00     0.075 A 
BRANCH  21  22
ATOM     22  C   UNL A   1      44.207  29.774  27.078  1.00  0.00     0.417 C 
ATOM     23  F   UNL A   1      43.049  30.243  26.549  1.00  0.00    -0.166 F 
ATOM     24  F   UNL A   1      44.135  29.988  28.419  1.00  0.00    -0.166 F 
ATOM     25  F   UNL A   1      45.193  30.598  26.624  1.00  0.00    -0.166 F 
ENDBRANCH  21  22
ENDBRANCH  14  15
ENDBRANCH   7   8
ENDBRANCH   5   7
ENDBRANCH   2   3
ENDBRANCH   1   2
BRANCH   1  26
ATOM     26  C   UNL A   1      41.160  20.427  27.100  1.00  0.00     0.023 C 
BRANCH  26  27
ATOM     27  C   UNL A   1      41.047  21.834  26.523  1.00  0.00     0.116 C 
BRANCH  27  28
ATOM     28  N   UNL A   1      39.779  22.051  25.844  1.00  0.00    -0.352 N 
ATOM     29  C   UNL A   1      38.886  23.087  25.960  1.00  0.00     0.251 C 
ATOM     30  H   UNL A   1      39.524  21.348  25.204  1.00  0.00     0.163 HD
ATOM     31  O   UNL A   1      37.773  22.982  25.440  1.00  0.00    -0.269 OA
BRANCH  29  32
ATOM     32  C   UNL A   1      39.232  24.311  26.716  1.00  0.00     0.039 A 
ATOM     33  C   UNL A   1      38.721  24.473  28.008  1.00  0.00     0.014 A 
ATOM     34  C   UNL A   1      40.029  25.314  26.157  1.00  0.00     0.014 A 
ATOM     35  C   UNL A   1      39.062  25.602  28.758  1.00  0.00     0.010 A 
ATOM     36  C   UNL A   1      40.426  26.404  26.931  1.00  0.00     0.010 A 
ATOM     37  C   UNL A   1      39.948  26.562  28.242  1.00  0.00    -0.014 A 
BRANCH  37  38
ATOM     38  C   UNL A   1      40.397  27.721  29.061  1.00  0.00     0.031 A 
ATOM     39  C   UNL A   1      41.720  27.683  29.780  1.00  0.00     0.074 A 
ATOM     40  C   UNL A   1      39.583  28.786  29.209  1.00  0.00     0.049 A 
ATOM     41  N   UNL A   1      42.245  28.567  30.590  1.00  0.00    -0.248 NA
ATOM     42  C   UNL A   1      42.550  26.484  29.582  1.00  0.00     0.031 C 
ATOM     43  C   UNL A   1      38.260  28.931  28.598  1.00  0.00     0.029 A 
ATOM     44  N   UNL A   1      39.743  29.947  29.925  1.00  0.00    -0.354 N 
ATOM     45  C   UNL A   1      43.458  28.028  31.008  1.00  0.00     0.074 A 
ATOM     46  C   UNL A   1      43.567  26.719  30.400  1.00  0.00     0.031 C 
ATOM     47  C   UNL A   1      37.741  30.120  28.946  1.00  0.00     0.029 A 
ATOM     48  C   UNL A   1      38.670  30.804  29.839  1.00  0.00     0.049 A 
ATOM     49  H   UNL A   1      40.551  30.148  30.451  1.00  0.00     0.167 HD
ATOM     50  C   UNL A   1      44.401  28.582  31.809  1.00  0.00     0.037 A 
ATOM     51  C   UNL A   1      38.452  32.001  30.419  1.00  0.00     0.037 A 
ATOM     52  C   UNL A   1      44.297  29.895  32.392  1.00  0.00     0.049 A 
ATOM     53  C   UNL A   1      39.510  32.588  31.315  1.00  0.00     0.074 A 
ATOM     54  C   UNL A   1      45.228  30.567  33.165  1.00  0.00     0.029 A 
ATOM     55  N   UNL A   1      43.199  30.735  32.273  1.00  0.00    -0.354 N 
ATOM     56  N   UNL A   1      40.678  32.091  31.646  1.00  0.00    -0.248 NA
ATOM     57  C   UNL A   1      39.223  33.898  31.915  1.00  0.00     0.031 C 
ATOM     58  C   UNL A   1      44.673  31.788  33.559  1.00  0.00     0.029 A 
ATOM     59  C   UNL A   1      43.419  31.905  32.981  1.00  0.00     0.049 A 
ATOM     60  H   UNL A   1      42.384  30.528  31.760  1.00  0.00     0.167 HD
ATOM     61  C   UNL A   1      41.278  33.042  32.465  1.00  0.00     0.074 A 
ATOM     62  C   UNL A   1      40.348  34.147  32.570  1.00  0.00     0.031 C 
ATOM     63  C   UNL A   1      42.490  33.005  33.072  1.00  0.00     0.037 A 
BRANCH  50  64
ATOM     64  C   UNL A   1      45.633  27.769  32.108  1.00  0.00     0.058 A 
ATOM     65  C   UNL A   1      45.700  26.907  33.215  1.00  0.00     0.135 A 
ATOM     66  C   UNL A   1      46.742  27.813  31.248  1.00  0.00     0.135 A 
ATOM     67  F   UNL A   1      44.673  26.834  34.078  1.00  0.00    -0.206 F 
ATOM     68  C   UNL A   1      46.830  26.139  33.473  1.00  0.00     0.059 A 
ATOM     69  C   UNL A   1      47.872  27.031  31.470  1.00  0.00     0.059 A 
ATOM     70  F   UNL A   1      46.734  28.618  30.174  1.00  0.00    -0.206 F 
ATOM     71  C   UNL A   1      47.912  26.207  32.593  1.00  0.00     0.060 A 
BRANCH  71  72
ATOM     72  S   UNL A   1      49.366  25.195  32.937  1.00  0.00     0.124 S 
ATOM     73  O   UNL A   1      48.793  24.130  33.754  1.00  0.00    -0.237 OA
ATOM     74  O   UNL A   1      49.798  24.805  31.598  1.00  0.00    -0.237 OA
ATOM     75  O   UNL A   1      50.261  26.111  33.639  1.00  0.00    -0.744 OA
ENDBRANCH  71  72
ENDBRANCH  50  64
BRANCH  51  76
ATOM     76  C   UNL A   1      37.184  32.736  30.160  1.00  0.00     0.058 A 
ATOM     77  C   UNL A   1      36.058  32.542  30.973  1.00  0.00     0.135 A 
ATOM     78  C   UNL A   1      37.073  33.648  29.097  1.00  0.00     0.135 A 
ATOM     79  F   UNL A   1      36.113  31.676  31.997  1.00  0.00    -0.206 F 
ATOM     80  C   UNL A   1      34.860  33.206  30.733  1.00  0.00     0.059 A 
ATOM     81  C   UNL A   1      35.894  34.346  28.854  1.00  0.00     0.059 A 
ATOM     82  F   UNL A   1      38.125  33.884  28.299  1.00  0.00    -0.206 F 
ATOM     83  C   UNL A   1      34.788  34.108  29.669  1.00  0.00     0.060 A 
BRANCH  83  84
ATOM     84  S   UNL A   1      33.240  34.995  29.390  1.00  0.00     0.124 S 
ATOM     85  O   UNL A   1      33.725  36.306  28.975  1.00  0.00    -0.237 OA
ATOM     86  O   UNL A   1      32.609  34.189  28.351  1.00  0.00    -0.237 OA
ATOM     87  O   UNL A   1      32.586  34.948  30.695  1.00  0.00    -0.744 OA
ENDBRANCH  83  84
ENDBRANCH  51  76
BRANCH  63  88
ATOM     88  C   UNL A   1      42.905  34.209  33.874  1.00  0.00     0.058 A 
ATOM     89  C   UNL A   1      42.629  34.317  35.246  1.00  0.00     0.135 A 
ATOM     90  C   UNL A   1      43.634  35.246  33.269  1.00  0.00     0.135 A 
ATOM     91  F   UNL A   1      41.930  33.359  35.873  1.00  0.00    -0.206 F 
ATOM     92  C   UNL A   1      43.042  35.422  35.985  1.00  0.00     0.059 A 
ATOM     93  C   UNL A   1      44.084  36.344  33.995  1.00  0.00     0.059 A 
ATOM     94  F   UNL A   1      43.934  35.189  31.961  1.00  0.00    -0.206 F 
ATOM     95  C   UNL A   1      43.772  36.430  35.350  1.00  0.00     0.060 A 
BRANCH  95  96
ATOM     96  S   UNL A   1      44.331  37.840  36.329  1.00  0.00     0.124 S 
ATOM     97  O   UNL A   1      45.721  37.483  36.594  1.00  0.00    -0.237 OA
ATOM     98  O   UNL A   1      44.127  38.957  35.411  1.00  0.00    -0.237 OA
ATOM     99  O   UNL A   1      43.445  37.821  37.490  1.00  0.00    -0.744 OA
ENDBRANCH  95  96
ENDBRANCH  63  88
ENDBRANCH  37  38
ENDBRANCH  29  32
ENDBRANCH  27  28
ENDBRANCH  26  27
ENDBRANCH   1  26
TORSDOF 17
ENDMDL
MODEL 2
REMARK VINA RESULT:     -10.3      5.060      7.576
REMARK SMILES O=C(C[NH+]1CCN(c2ncc(C(F)(F)F)cc2Cl)CC1)NCCCCNC(=O)c1ccc(-c2c3nc(c(-c4c(F)cc(S(=O)(=O)[O-])cc4F)c4ccc([nH]4)c(-c4c(F)cc(S(=O)(=O)[O-])cc4F)c4nc(c(-c5c(F)cc(S(=O)(=O)[O-])cc5F)c5ccc2[nH]5)C=C4)C=C3)cc1
REMARK SMILES IDX 23 1 22 2 21 3 1 4 2 5 3 7 4 8 5 9 20 10 6 12 19 13 7 14
REMARK SMILES IDX 8 15 9 16 17 17 10 18 16 19 18 20 11 21 12 22 13 23 14 24
REMARK SMILES IDX 15 25 24 26 25 27 26 28 27 29 28 31 29 32 30 33 94 34 31 35
REMARK SMILES IDX 93 36 32 37 33 38 34 39 87 40 35 41 92 42 86 43 88 44 36 45
REMARK SMILES IDX 91 46 85 47 84 48 37 50 71 51 50 52 70 53 51 54 54 55 69 56
REMARK SMILES IDX 89 57 52 58 53 59 68 61 90 62 55 63 38 64 39 65 48 66 40 67
REMARK SMILES IDX 41 68 47 69 49 70 42 71 43 72 44 73 45 74 46 75 72 76 73 77
REMARK SMILES IDX 82 78 74 79 75 80 81 81 83 82 76 83 77 84 78 85 79 86 80 87
REMARK SMILES IDX 56 88 57 89 66 90 58 91 59 92 65 93 67 94 60 95 61 96 62 97
REMARK SMILES IDX 63 98 64 99
REMARK H PARENT 21 6 4 11 26 30 88 49 54 60
REMARK Flexibility Score: inf
ROOT
ATOM      1  C   UNL A   1      37.492  21.934  25.220  1.00  0.00     0.023 C 
ENDROOT
BRANCH   1   2
ATOM      2  C   UNL A   1      36.159  21.192  25.129  1.00  0.00     0.116 C 
BRANCH   2   3
ATOM      3  N   UNL A   1      35.176  21.961  24.399  1.00  0.00    -0.351 N 
ATOM      4  O   UNL A   1      33.470  21.747  25.924  1.00  0.00    -0.269 OA
ATOM      5  C   UNL A   1      33.908  22.220  24.880  1.00  0.00     0.275 C 
ATOM      6  H   UNL A   1      35.424  22.318  23.516  1.00  0.00     0.163 HD
BRANCH   5   7
ATOM      7  C   UNL A   1      33.099  23.152  23.965  1.00  0.00     0.363 C 
BRANCH   7   8
ATOM      8  N   UNL A   1      33.676  24.511  23.902  1.00  0.00    -0.324 N 
ATOM      9  C   UNL A   1      33.287  25.288  22.697  1.00  0.00     0.284 C 
ATOM     10  C   UNL A   1      33.288  25.295  25.107  1.00  0.00     0.284 C 
ATOM     11  H   UNL A   1      34.685  24.368  23.857  1.00  0.00     0.348 HD
ATOM     12  C   UNL A   1      31.805  25.732  22.647  1.00  0.00     0.179 C 
ATOM     13  C   UNL A   1      31.825  25.814  25.129  1.00  0.00     0.179 C 
ATOM     14  N   UNL A   1      31.520  26.472  23.864  1.00  0.00    -0.344 N 
BRANCH  14  15
ATOM     15  C   UNL A   1      30.742  27.601  23.785  1.00  0.00     0.147 A 
ATOM     16  N   UNL A   1      29.487  27.451  23.296  1.00  0.00    -0.237 NA
ATOM     17  C   UNL A   1      31.243  28.876  24.099  1.00  0.00     0.084 A 
ATOM     18  C   UNL A   1      28.713  28.557  23.145  1.00  0.00     0.126 A 
ATOM     19  C   UNL A   1      30.434  29.997  23.916  1.00  0.00     0.039 A 
ATOM     20  Cl  UNL A   1      32.877  29.146  24.601  1.00  0.00    -0.080 Cl
ATOM     21  C   UNL A   1      29.136  29.844  23.432  1.00  0.00     0.075 A 
BRANCH  21  22
ATOM     22  C   UNL A   1      28.218  31.008  23.222  1.00  0.00     0.417 C 
ATOM     23  F   UNL A   1      27.728  31.068  21.957  1.00  0.00    -0.166 F 
ATOM     24  F   UNL A   1      27.143  30.972  24.053  1.00  0.00    -0.166 F 
ATOM     25  F   UNL A   1      28.824  32.207  23.451  1.00  0.00    -0.166 F 
ENDBRANCH  21  22
ENDBRANCH  14  15
ENDBRANCH   7   8
ENDBRANCH   5   7
ENDBRANCH   2   3
ENDBRANCH   1   2
BRANCH   1  26
ATOM     26  C   UNL A   1      37.387  23.461  25.326  1.00  0.00     0.023 C 
BRANCH  26  27
ATOM     27  C   UNL A   1      38.261  24.108  26.396  1.00  0.00     0.116 C 
BRANCH  27  28
ATOM     28  N   UNL A   1      39.679  23.896  26.150  1.00  0.00    -0.352 N 
ATOM     29  C   UNL A   1      40.762  24.630  26.566  1.00  0.00     0.251 C 
ATOM     30  H   UNL A   1      39.894  23.107  25.603  1.00  0.00     0.163 HD
ATOM     31  O   UNL A   1      41.871  24.392  26.083  1.00  0.00    -0.269 OA
BRANCH  29  32
ATOM     32  C   UNL A   1      40.612  25.713  27.564  1.00  0.00     0.039 A 
ATOM     33  C   UNL A   1      39.623  25.594  28.545  1.00  0.00     0.014 A 
ATOM     34  C   UNL A   1      41.416  26.856  27.526  1.00  0.00     0.014 A 
ATOM     35  C   UNL A   1      39.485  26.585  29.522  1.00  0.00     0.010 A 
ATOM     36  C   UNL A   1      41.324  27.808  28.541  1.00  0.00     0.010 A 
ATOM     37  C   UNL A   1      40.359  27.685  29.552  1.00  0.00    -0.014 A 
BRANCH  37  38
ATOM     38  C   UNL A   1      40.287  28.699  30.640  1.00  0.00     0.031 A 
ATOM     39  C   UNL A   1      41.164  28.576  31.858  1.00  0.00     0.074 A 
ATOM     40  C   UNL A   1      39.387  29.700  30.558  1.00  0.00     0.049 A 
ATOM     41  N   UNL A   1      41.194  29.324  32.932  1.00  0.00    -0.248 NA
ATOM     42  C   UNL A   1      42.115  27.454  31.884  1.00  0.00     0.031 C 
ATOM     43  C   UNL A   1      38.453  29.909  29.449  1.00  0.00     0.029 A 
ATOM     44  N   UNL A   1      39.102  30.725  31.426  1.00  0.00    -0.354 N 
ATOM     45  C   UNL A   1      42.152  28.757  33.765  1.00  0.00     0.074 A 
ATOM     46  C   UNL A   1      42.646  27.574  33.093  1.00  0.00     0.031 C 
ATOM     47  C   UNL A   1      37.717  31.005  29.693  1.00  0.00     0.029 A 
ATOM     48  C   UNL A   1      38.093  31.553  30.993  1.00  0.00     0.049 A 
ATOM     49  H   UNL A   1      39.577  30.857  32.278  1.00  0.00     0.167 HD
ATOM     50  C   UNL A   1      42.593  29.192  34.971  1.00  0.00     0.037 A 
ATOM     51  C   UNL A   1      37.524  32.627  31.577  1.00  0.00     0.037 A 
ATOM     52  C   UNL A   1      42.115  30.383  35.625  1.00  0.00     0.049 A 
ATOM     53  C   UNL A   1      38.023  33.082  32.923  1.00  0.00     0.074 A 
ATOM     54  C   UNL A   1      42.545  30.940  36.818  1.00  0.00     0.029 A 
ATOM     55  N   UNL A   1      41.098  31.199  35.150  1.00  0.00    -0.354 N 
ATOM     56  N   UNL A   1      38.976  32.570  33.665  1.00  0.00    -0.248 NA
ATOM     57  C   UNL A   1      37.373  34.262  33.510  1.00  0.00     0.031 C 
ATOM     58  C   UNL A   1      41.753  32.060  37.091  1.00  0.00     0.029 A 
ATOM     59  C   UNL A   1      40.869  32.238  36.039  1.00  0.00     0.049 A 
ATOM     60  H   UNL A   1      40.612  31.060  34.305  1.00  0.00     0.167 HD
ATOM     61  C   UNL A   1      39.061  33.384  34.789  1.00  0.00     0.074 A 
ATOM     62  C   UNL A   1      38.071  34.428  34.624  1.00  0.00     0.031 C 
ATOM     63  C   UNL A   1      39.887  33.279  35.860  1.00  0.00     0.037 A 
BRANCH  50  64
ATOM     64  C   UNL A   1      43.649  28.376  35.670  1.00  0.00     0.058 A 
ATOM     65  C   UNL A   1      45.018  28.622  35.483  1.00  0.00     0.135 A 
ATOM     66  C   UNL A   1      43.285  27.369  36.578  1.00  0.00     0.135 A 
ATOM     67  F   UNL A   1      45.424  29.565  34.617  1.00  0.00    -0.206 F 
ATOM     68  C   UNL A   1      45.989  27.883  36.150  1.00  0.00     0.059 A 
ATOM     69  C   UNL A   1      44.239  26.637  37.280  1.00  0.00     0.059 A 
ATOM     70  F   UNL A   1      41.990  27.091  36.798  1.00  0.00    -0.206 F 
ATOM     71  C   UNL A   1      45.589  26.892  37.049  1.00  0.00     0.060 A 
BRANCH  71  72
ATOM     72  S   UNL A   1      46.862  25.950  37.914  1.00  0.00     0.124 S 
ATOM     73  O   UNL A   1      46.056  25.128  38.811  1.00  0.00    -0.237 OA
ATOM     74  O   UNL A   1      47.519  25.238  36.822  1.00  0.00    -0.237 OA
ATOM     75  O   UNL A   1      47.668  26.980  38.562  1.00  0.00    -0.744 OA
ENDBRANCH  71  72
ENDBRANCH  50  64
BRANCH  51  76
ATOM     76  C   UNL A   1      36.427  33.359  30.888  1.00  0.00     0.058 A 
ATOM     77  C   UNL A   1      35.103  33.270  31.343  1.00  0.00     0.135 A 
ATOM     78  C   UNL A   1      36.679  34.162  29.763  1.00  0.00     0.135 A 
ATOM     79  F   UNL A   1      34.810  32.510  32.409  1.00  0.00    -0.206 F 
ATOM     80  C   UNL A   1      34.063  33.932  30.698  1.00  0.00     0.059 A 
ATOM     81  C   UNL A   1      35.660  34.857  29.119  1.00  0.00     0.059 A 
ATOM     82  F   UNL A   1      37.930  34.296  29.297  1.00  0.00    -0.206 F 
ATOM     83  C   UNL A   1      34.353  34.725  29.586  1.00  0.00     0.060 A 
BRANCH  83  84
ATOM     84  S   UNL A   1      33.002  35.612  28.780  1.00  0.00     0.124 S 
ATOM     85  O   UNL A   1      32.360  34.543  28.023  1.00  0.00    -0.237 OA
ATOM     86  O   UNL A   1      32.252  36.128  29.919  1.00  0.00    -0.237 OA
ATOM     87  O   UNL A   1      33.692  36.622  27.983  1.00  0.00    -0.744 OA
ENDBRANCH  83  84
ENDBRANCH  51  76
BRANCH  63  88
ATOM     88  C   UNL A   1      39.788  34.339  36.923  1.00  0.00     0.058 A 
ATOM     89  C   UNL A   1      40.503  35.544  36.838  1.00  0.00     0.135 A 
ATOM     90  C   UNL A   1      38.925  34.166  38.018  1.00  0.00     0.135 A 
ATOM     91  F   UNL A   1      41.346  35.758  35.818  1.00  0.00    -0.206 F 
ATOM     92  C   UNL A   1      40.383  36.530  37.813  1.00  0.00     0.059 A 
ATOM     93  C   UNL A   1      38.766  35.151  38.987  1.00  0.00     0.059 A 
ATOM     94  F   UNL A   1      38.210  33.037  38.145  1.00  0.00    -0.206 F 
ATOM     95  C   UNL A   1      39.509  36.326  38.883  1.00  0.00     0.060 A 
BRANCH  95  96
ATOM     96  S   UNL A   1      39.338  37.629  40.121  1.00  0.00     0.124 S 
ATOM     97  O   UNL A   1      39.175  36.852  41.345  1.00  0.00    -0.237 OA
ATOM     98  O   UNL A   1      40.600  38.350  39.991  1.00  0.00    -0.237 OA
ATOM     99  O   UNL A   1      38.155  38.363  39.681  1.00  0.00    -0.744 OA
ENDBRANCH  95  96
ENDBRANCH  63  88
ENDBRANCH  37  38
ENDBRANCH  29  32
ENDBRANCH  27  28
ENDBRANCH  26  27
ENDBRANCH   1  26
TORSDOF 17
ENDMDL
MODEL 3
REMARK VINA RESULT:     -10.3      5.961     12.239
REMARK SMILES O=C(C[NH+]1CCN(c2ncc(C(F)(F)F)cc2Cl)CC1)NCCCCNC(=O)c1ccc(-c2c3nc(c(-c4c(F)cc(S(=O)(=O)[O-])cc4F)c4ccc([nH]4)c(-c4c(F)cc(S(=O)(=O)[O-])cc4F)c4nc(c(-c5c(F)cc(S(=O)(=O)[O-])cc5F)c5ccc2[nH]5)C=C4)C=C3)cc1
REMARK SMILES IDX 23 1 22 2 21 3 1 4 2 5 3 7 4 8 5 9 20 10 6 12 19 13 7 14
REMARK SMILES IDX 8 15 9 16 17 17 10 18 16 19 18 20 11 21 12 22 13 23 14 24
REMARK SMILES IDX 15 25 24 26 25 27 26 28 27 29 28 31 29 32 30 33 94 34 31 35
REMARK SMILES IDX 93 36 32 37 33 38 34 39 87 40 35 41 92 42 86 43 88 44 36 45
REMARK SMILES IDX 91 46 85 47 84 48 37 50 71 51 50 52 70 53 51 54 54 55 69 56
REMARK SMILES IDX 89 57 52 58 53 59 68 61 90 62 55 63 38 64 39 65 48 66 40 67
REMARK SMILES IDX 41 68 47 69 49 70 42 71 43 72 44 73 45 74 46 75 72 76 73 77
REMARK SMILES IDX 82 78 74 79 75 80 81 81 83 82 76 83 77 84 78 85 79 86 80 87
REMARK SMILES IDX 56 88 57 89 66 90 58 91 59 92 65 93 67 94 60 95 61 96 62 97
REMARK SMILES IDX 63 98 64 99
REMARK H PARENT 21 6 4 11 26 30 88 49 54 60
REMARK Flexibility Score: inf
ROOT
ATOM      1  C   UNL A   1      32.912  29.857  27.062  1.00  0.00     0.023 C 
ENDROOT
BRANCH   1   2
ATOM      2  C   UNL A   1      32.023  29.306  25.948  1.00  0.00     0.116 C 
BRANCH   2   3
ATOM      3  N   UNL A   1      31.727  27.905  26.154  1.00  0.00    -0.351 N 
ATOM      4  O   UNL A   1      30.786  27.516  24.094  1.00  0.00    -0.269 OA
ATOM      5  C   UNL A   1      31.166  27.099  25.184  1.00  0.00     0.275 C 
ATOM      6  H   UNL A   1      31.935  27.507  27.030  1.00  0.00     0.163 HD
BRANCH   5   7
ATOM      7  C   UNL A   1      31.058  25.629  25.615  1.00  0.00     0.363 C 
BRANCH   7   8
ATOM      8  N   UNL A   1      32.354  25.084  26.073  1.00  0.00    -0.324 N 
ATOM      9  C   UNL A   1      32.245  23.852  26.895  1.00  0.00     0.284 C 
ATOM     10  C   UNL A   1      33.235  24.793  24.908  1.00  0.00     0.284 C 
ATOM     11  H   UNL A   1      32.749  25.812  26.669  1.00  0.00     0.348 HD
ATOM     12  C   UNL A   1      31.793  22.585  26.129  1.00  0.00     0.179 C 
ATOM     13  C   UNL A   1      32.877  23.517  24.098  1.00  0.00     0.179 C 
ATOM     14  N   UNL A   1      32.699  22.393  25.010  1.00  0.00    -0.344 N 
BRANCH  14  15
ATOM     15  C   UNL A   1      33.114  21.120  24.705  1.00  0.00     0.147 A 
ATOM     16  N   UNL A   1      32.184  20.275  24.195  1.00  0.00    -0.237 NA
ATOM     17  C   UNL A   1      34.412  20.669  24.995  1.00  0.00     0.084 A 
ATOM     18  C   UNL A   1      32.544  18.990  23.943  1.00  0.00     0.126 A 
ATOM     19  C   UNL A   1      34.751  19.340  24.744  1.00  0.00     0.039 A 
ATOM     20  Cl  UNL A   1      35.601  21.662  25.766  1.00  0.00    -0.080 Cl
ATOM     21  C   UNL A   1      33.803  18.473  24.202  1.00  0.00     0.075 A 
BRANCH  21  22
ATOM     22  C   UNL A   1      34.109  17.038  23.904  1.00  0.00     0.417 C 
ATOM     23  F   UNL A   1      34.426  16.829  22.601  1.00  0.00    -0.166 F 
ATOM     24  F   UNL A   1      35.155  16.573  24.637  1.00  0.00    -0.166 F 
ATOM     25  F   UNL A   1      33.065  16.206  24.179  1.00  0.00    -0.166 F 
ENDBRANCH  21  22
ENDBRANCH  14  15
ENDBRANCH   7   8
ENDBRANCH   5   7
ENDBRANCH   2   3
ENDBRANCH   1   2
BRANCH   1  26
ATOM     26  C   UNL A   1      34.357  29.343  27.064  1.00  0.00     0.023 C 
BRANCH  26  27
ATOM     27  C   UNL A   1      35.396  30.303  27.638  1.00  0.00     0.116 C 
BRANCH  27  28
ATOM     28  N   UNL A   1      35.298  30.419  29.084  1.00  0.00    -0.352 N 
ATOM     29  C   UNL A   1      36.237  30.160  30.052  1.00  0.00     0.251 C 
ATOM     30  H   UNL A   1      34.427  30.731  29.419  1.00  0.00     0.163 HD
ATOM     31  O   UNL A   1      35.889  30.132  31.234  1.00  0.00    -0.269 OA
BRANCH  29  32
ATOM     32  C   UNL A   1      37.648  29.891  29.694  1.00  0.00     0.039 A 
ATOM     33  C   UNL A   1      38.545  29.540  30.707  1.00  0.00     0.014 A 
ATOM     34  C   UNL A   1      38.101  30.009  28.377  1.00  0.00     0.014 A 
ATOM     35  C   UNL A   1      39.875  29.244  30.391  1.00  0.00     0.010 A 
ATOM     36  C   UNL A   1      39.409  29.645  28.054  1.00  0.00     0.010 A 
ATOM     37  C   UNL A   1      40.311  29.257  29.056  1.00  0.00    -0.014 A 
BRANCH  37  38
ATOM     38  C   UNL A   1      41.697  28.854  28.692  1.00  0.00     0.031 A 
ATOM     39  C   UNL A   1      42.805  29.874  28.651  1.00  0.00     0.074 A 
ATOM     40  C   UNL A   1      41.948  27.577  28.338  1.00  0.00     0.049 A 
ATOM     41  N   UNL A   1      44.055  29.721  28.295  1.00  0.00    -0.248 NA
ATOM     42  C   UNL A   1      42.457  31.250  29.039  1.00  0.00     0.031 C 
ATOM     43  C   UNL A   1      40.955  26.500  28.299  1.00  0.00     0.029 A 
ATOM     44  N   UNL A   1      43.111  26.967  27.936  1.00  0.00    -0.354 N 
ATOM     45  C   UNL A   1      44.638  30.980  28.401  1.00  0.00     0.074 A 
ATOM     46  C   UNL A   1      43.593  31.894  28.809  1.00  0.00     0.031 C 
ATOM     47  C   UNL A   1      41.556  25.360  27.918  1.00  0.00     0.029 A 
ATOM     48  C   UNL A   1      42.963  25.631  27.643  1.00  0.00     0.049 A 
ATOM     49  H   UNL A   1      43.970  27.442  27.865  1.00  0.00     0.167 HD
ATOM     50  C   UNL A   1      45.930  31.337  28.196  1.00  0.00     0.037 A 
ATOM     51  C   UNL A   1      43.855  24.725  27.195  1.00  0.00     0.037 A 
ATOM     52  C   UNL A   1      46.971  30.418  27.813  1.00  0.00     0.049 A 
ATOM     53  C   UNL A   1      45.281  25.150  26.962  1.00  0.00     0.074 A 
ATOM     54  C   UNL A   1      48.322  30.673  27.643  1.00  0.00     0.029 A 
ATOM     55  N   UNL A   1      46.783  29.072  27.535  1.00  0.00    -0.354 N 
ATOM     56  N   UNL A   1      45.827  26.331  27.131  1.00  0.00    -0.248 NA
ATOM     57  C   UNL A   1      46.212  24.121  26.480  1.00  0.00     0.031 C 
ATOM     58  C   UNL A   1      48.939  29.496  27.209  1.00  0.00     0.029 A 
ATOM     59  C   UNL A   1      47.987  28.491  27.168  1.00  0.00     0.049 A 
ATOM     60  H   UNL A   1      45.921  28.599  27.590  1.00  0.00     0.167 HD
ATOM     61  C   UNL A   1      47.172  26.177  26.809  1.00  0.00     0.074 A 
ATOM     62  C   UNL A   1      47.357  24.788  26.445  1.00  0.00     0.031 C 
ATOM     63  C   UNL A   1      48.163  27.103  26.816  1.00  0.00     0.037 A 
BRANCH  50  64
ATOM     64  C   UNL A   1      46.296  32.786  28.379  1.00  0.00     0.058 A 
ATOM     65  C   UNL A   1      46.214  33.708  27.324  1.00  0.00     0.135 A 
ATOM     66  C   UNL A   1      46.683  33.269  29.640  1.00  0.00     0.135 A 
ATOM     67  F   UNL A   1      45.862  33.300  26.094  1.00  0.00    -0.206 F 
ATOM     68  C   UNL A   1      46.529  35.051  27.504  1.00  0.00     0.059 A 
ATOM     69  C   UNL A   1      46.973  34.614  29.850  1.00  0.00     0.059 A 
ATOM     70  F   UNL A   1      46.777  32.433  30.686  1.00  0.00    -0.206 F 
ATOM     71  C   UNL A   1      46.906  35.495  28.772  1.00  0.00     0.060 A 
BRANCH  71  72
ATOM     72  S   UNL A   1      47.300  37.243  28.991  1.00  0.00     0.124 S 
ATOM     73  O   UNL A   1      46.917  37.456  30.383  1.00  0.00    -0.237 OA
ATOM     74  O   UNL A   1      48.734  37.276  28.716  1.00  0.00    -0.237 OA
ATOM     75  O   UNL A   1      46.460  37.909  28.000  1.00  0.00    -0.744 OA
ENDBRANCH  71  72
ENDBRANCH  50  64
BRANCH  51  76
ATOM     76  C   UNL A   1      43.433  23.319  26.950  1.00  0.00     0.058 A 
ATOM     77  C   UNL A   1      43.251  22.425  28.015  1.00  0.00     0.135 A 
ATOM     78  C   UNL A   1      43.203  22.842  25.650  1.00  0.00     0.135 A 
ATOM     79  F   UNL A   1      43.466  22.831  29.276  1.00  0.00    -0.206 F 
ATOM     80  C   UNL A   1      42.876  21.102  27.802  1.00  0.00     0.059 A 
ATOM     81  C   UNL A   1      42.799  21.532  25.413  1.00  0.00     0.059 A 
ATOM     82  F   UNL A   1      43.346  23.661  24.596  1.00  0.00    -0.206 F 
ATOM     83  C   UNL A   1      42.652  20.665  26.495  1.00  0.00     0.060 A 
BRANCH  83  84
ATOM     84  S   UNL A   1      42.127  18.958  26.232  1.00  0.00     0.124 S 
ATOM     85  O   UNL A   1      42.270  18.397  27.571  1.00  0.00    -0.237 OA
ATOM     86  O   UNL A   1      40.759  19.128  25.754  1.00  0.00    -0.237 OA
ATOM     87  O   UNL A   1      43.075  18.465  25.236  1.00  0.00    -0.744 OA
ENDBRANCH  83  84
ENDBRANCH  51  76
BRANCH  63  88
ATOM     88  C   UNL A   1      49.550  26.641  26.460  1.00  0.00     0.058 A 
ATOM     89  C   UNL A   1      50.391  26.023  27.398  1.00  0.00     0.135 A 
ATOM     90  C   UNL A   1      50.024  26.774  25.144  1.00  0.00     0.135 A 
ATOM     91  F   UNL A   1      49.992  25.877  28.670  1.00  0.00    -0.206 F 
ATOM     92  C   UNL A   1      51.662  25.574  27.050  1.00  0.00     0.059 A 
ATOM     93  C   UNL A   1      51.278  26.305  24.767  1.00  0.00     0.059 A 
ATOM     94  F   UNL A   1      49.257  27.349  24.203  1.00  0.00    -0.206 F 
ATOM     95  C   UNL A   1      52.095  25.717  25.730  1.00  0.00     0.060 A 
BRANCH  95  96
ATOM     96  S   UNL A   1      53.732  25.098  25.286  1.00  0.00     0.124 S 
ATOM     97  O   UNL A   1      54.559  25.666  26.346  1.00  0.00    -0.237 OA
ATOM     98  O   UNL A   1      53.543  23.652  25.335  1.00  0.00    -0.237 OA
ATOM     99  O   UNL A   1      53.955  25.651  23.953  1.00  0.00    -0.744 OA
ENDBRANCH  95  96
ENDBRANCH  63  88
ENDBRANCH  37  38
ENDBRANCH  29  32
ENDBRANCH  27  28
ENDBRANCH  26  27
ENDBRANCH   1  26
TORSDOF 17
ENDMDL
