MODEL 1
REMARK VINA RESULT:     -11.1      0.000      0.000
REMARK SMILES O=C(NCCCCNC(=O)c1ccc(Cl)cc1-c1ccc(O)c(F)c1)c1ccc(-c2c3nc(c(-c4c(F)cc(S(=O)(=O)[O-])cc4F)c4ccc([nH]4)c(-c4c(F)cc(S(=O)(=O)[O-])cc4F)c4nc(c(-c5c(F)cc(S(=O)(=O)[O-])cc5F)c5ccc2[nH]5)C=C4)C=C3)cc1
REMARK SMILES IDX 5 1 4 2 3 3 1 4 2 5 26 7 27 8 91 9 28 10 90 11 29 12 30 13
REMARK SMILES IDX 31 14 84 15 32 16 89 17 83 18 85 19 33 20 88 21 82 22 81 23
REMARK SMILES IDX 34 25 68 26 47 27 67 28 48 29 51 30 66 31 86 32 49 33 50 34
REMARK SMILES IDX 65 36 87 37 52 38 35 39 36 40 45 41 37 42 38 43 44 44 46 45
REMARK SMILES IDX 39 46 40 47 41 48 42 49 43 50 69 51 70 52 79 53 71 54 72 55
REMARK SMILES IDX 78 56 80 57 73 58 74 59 75 60 76 61 77 62 53 63 54 64 63 65
REMARK SMILES IDX 55 66 56 67 62 68 64 69 57 70 58 71 59 72 60 73 61 74 6 75
REMARK SMILES IDX 7 76 8 77 9 78 10 80 11 81 12 82 17 83 13 84 16 85 14 86
REMARK SMILES IDX 15 87 18 88 19 89 25 90 20 91 23 92 21 93 24 94 22 95
REMARK H PARENT 3 6 85 24 51 35 8 79 22 96
REMARK Flexibility Score: inf
ROOT
ATOM      1  C   UNL A   1      33.385  27.141  25.550  1.00  0.00     0.023 C 
ENDROOT
BRANCH   1   2
ATOM      2  C   UNL A   1      34.166  27.800  26.678  1.00  0.00     0.116 C 
BRANCH   2   3
ATOM      3  N   UNL A   1      33.671  29.121  27.035  1.00  0.00    -0.352 N 
ATOM      4  O   UNL A   1      33.694  31.149  28.026  1.00  0.00    -0.269 OA
ATOM      5  C   UNL A   1      34.311  30.134  27.717  1.00  0.00     0.251 C 
ATOM      6  H   UNL A   1      32.750  29.319  26.748  1.00  0.00     0.163 HD
BRANCH   5   7
ATOM      7  C   UNL A   1      35.731  29.975  28.104  1.00  0.00     0.039 A 
ATOM      8  C   UNL A   1      36.747  30.223  27.181  1.00  0.00     0.014 A 
ATOM      9  C   UNL A   1      36.052  29.540  29.395  1.00  0.00     0.014 A 
ATOM     10  C   UNL A   1      38.053  29.863  27.483  1.00  0.00     0.010 A 
ATOM     11  C   UNL A   1      37.386  29.279  29.731  1.00  0.00     0.010 A 
ATOM     12  C   UNL A   1      38.394  29.399  28.765  1.00  0.00    -0.014 A 
BRANCH  12  13
ATOM     13  C   UNL A   1      39.825  29.112  29.056  1.00  0.00     0.031 A 
ATOM     14  C   UNL A   1      40.455  27.791  28.705  1.00  0.00     0.074 A 
ATOM     15  C   UNL A   1      40.577  30.103  29.575  1.00  0.00     0.049 A 
ATOM     16  N   UNL A   1      41.709  27.428  28.813  1.00  0.00    -0.248 NA
ATOM     17  C   UNL A   1      39.574  26.740  28.174  1.00  0.00     0.031 C 
ATOM     18  C   UNL A   1      40.067  31.416  29.985  1.00  0.00     0.029 A 
ATOM     19  N   UNL A   1      41.924  30.185  29.811  1.00  0.00    -0.354 N 
ATOM     20  C   UNL A   1      41.768  26.110  28.374  1.00  0.00     0.074 A 
ATOM     21  C   UNL A   1      40.417  25.725  28.024  1.00  0.00     0.031 C 
ATOM     22  C   UNL A   1      41.094  32.192  30.356  1.00  0.00     0.029 A 
ATOM     23  C   UNL A   1      42.326  31.417  30.270  1.00  0.00     0.049 A 
ATOM     24  H   UNL A   1      42.544  29.435  29.665  1.00  0.00     0.167 HD
ATOM     25  C   UNL A   1      42.851  25.301  28.264  1.00  0.00     0.037 A 
ATOM     26  C   UNL A   1      43.548  31.877  30.594  1.00  0.00     0.037 A 
ATOM     27  C   UNL A   1      44.197  25.695  28.603  1.00  0.00     0.049 A 
ATOM     28  C   UNL A   1      44.730  30.967  30.440  1.00  0.00     0.074 A 
ATOM     29  C   UNL A   1      45.360  24.949  28.523  1.00  0.00     0.029 A 
ATOM     30  N   UNL A   1      44.561  26.946  29.080  1.00  0.00    -0.354 N 
ATOM     31  N   UNL A   1      44.763  29.727  30.014  1.00  0.00    -0.248 NA
ATOM     32  C   UNL A   1      46.041  31.515  30.811  1.00  0.00     0.031 C 
ATOM     33  C   UNL A   1      46.423  25.738  28.977  1.00  0.00     0.029 A 
ATOM     34  C   UNL A   1      45.928  26.990  29.305  1.00  0.00     0.049 A 
ATOM     35  H   UNL A   1      43.940  27.694  29.236  1.00  0.00     0.167 HD
ATOM     36  C   UNL A   1      46.096  29.343  30.072  1.00  0.00     0.074 A 
ATOM     37  C   UNL A   1      46.842  30.496  30.536  1.00  0.00     0.031 C 
ATOM     38  C   UNL A   1      46.651  28.142  29.782  1.00  0.00     0.037 A 
BRANCH  25  39
ATOM     39  C   UNL A   1      42.635  23.901  27.754  1.00  0.00     0.058 A 
ATOM     40  C   UNL A   1      42.486  22.816  28.631  1.00  0.00     0.135 A 
ATOM     41  C   UNL A   1      42.507  23.651  26.378  1.00  0.00     0.135 A 
ATOM     42  F   UNL A   1      42.615  22.994  29.956  1.00  0.00    -0.206 F 
ATOM     43  C   UNL A   1      42.233  21.530  28.162  1.00  0.00     0.059 A 
ATOM     44  C   UNL A   1      42.233  22.376  25.887  1.00  0.00     0.059 A 
ATOM     45  F   UNL A   1      42.640  24.652  25.494  1.00  0.00    -0.206 F 
ATOM     46  C   UNL A   1      42.107  21.320  26.788  1.00  0.00     0.060 A 
BRANCH  46  47
ATOM     47  S   UNL A   1      41.758  19.649  26.198  1.00  0.00     0.124 S 
ATOM     48  O   UNL A   1      42.608  19.576  25.013  1.00  0.00    -0.237 OA
ATOM     49  O   UNL A   1      42.175  18.824  27.328  1.00  0.00    -0.237 OA
ATOM     50  O   UNL A   1      40.322  19.673  25.939  1.00  0.00    -0.744 OA
ENDBRANCH  46  47
ENDBRANCH  25  39
BRANCH  26  51
ATOM     51  C   UNL A   1      43.700  33.261  31.110  1.00  0.00     0.058 A 
ATOM     52  C   UNL A   1      44.011  34.329  30.257  1.00  0.00     0.135 A 
ATOM     53  C   UNL A   1      43.510  33.544  32.472  1.00  0.00     0.135 A 
ATOM     54  F   UNL A   1      44.202  34.108  28.947  1.00  0.00    -0.206 F 
ATOM     55  C   UNL A   1      44.144  35.628  30.737  1.00  0.00     0.059 A 
ATOM     56  C   UNL A   1      43.609  34.837  32.971  1.00  0.00     0.059 A 
ATOM     57  F   UNL A   1      43.190  32.558  33.325  1.00  0.00    -0.206 F 
ATOM     58  C   UNL A   1      43.940  35.871  32.096  1.00  0.00     0.060 A 
BRANCH  58  59
ATOM     59  S   UNL A   1      44.063  37.565  32.711  1.00  0.00     0.124 S 
ATOM     60  O   UNL A   1      43.784  38.333  31.503  1.00  0.00    -0.237 OA
ATOM     61  O   UNL A   1      43.031  37.598  33.742  1.00  0.00    -0.237 OA
ATOM     62  O   UNL A   1      45.434  37.639  33.206  1.00  0.00    -0.744 OA
ENDBRANCH  58  59
ENDBRANCH  26  51
BRANCH  38  63
ATOM     63  C   UNL A   1      48.137  28.025  29.963  1.00  0.00     0.058 A 
ATOM     64  C   UNL A   1      49.025  28.303  28.911  1.00  0.00     0.135 A 
ATOM     65  C   UNL A   1      48.680  27.630  31.196  1.00  0.00     0.135 A 
ATOM     66  F   UNL A   1      48.555  28.678  27.712  1.00  0.00    -0.206 F 
ATOM     67  C   UNL A   1      50.400  28.154  29.064  1.00  0.00     0.059 A 
ATOM     68  C   UNL A   1      50.052  27.498  31.377  1.00  0.00     0.059 A 
ATOM     69  F   UNL A   1      47.873  27.362  32.235  1.00  0.00    -0.206 F 
ATOM     70  C   UNL A   1      50.903  27.743  30.299  1.00  0.00     0.060 A 
BRANCH  70  71
ATOM     71  S   UNL A   1      52.687  27.545  30.486  1.00  0.00     0.124 S 
ATOM     72  O   UNL A   1      52.834  26.098  30.373  1.00  0.00    -0.237 OA
ATOM     73  O   UNL A   1      53.211  28.324  29.369  1.00  0.00    -0.237 OA
ATOM     74  O   UNL A   1      52.952  28.103  31.809  1.00  0.00    -0.744 OA
ENDBRANCH  70  71
ENDBRANCH  38  63
ENDBRANCH  12  13
ENDBRANCH   5   7
ENDBRANCH   2   3
ENDBRANCH   1   2
BRANCH   1  75
ATOM     75  C   UNL A   1      34.011  27.248  24.163  1.00  0.00     0.023 C 
BRANCH  75  76
ATOM     76  C   UNL A   1      33.143  26.759  23.008  1.00  0.00     0.116 C 
BRANCH  76  77
ATOM     77  N   UNL A   1      33.699  25.609  22.312  1.00  0.00    -0.352 N 
ATOM     78  C   UNL A   1      33.524  24.270  22.568  1.00  0.00     0.251 C 
ATOM     79  H   UNL A   1      34.284  25.819  21.550  1.00  0.00     0.163 HD
ATOM     80  O   UNL A   1      34.047  23.422  21.854  1.00  0.00    -0.269 OA
BRANCH  78  81
ATOM     81  C   UNL A   1      32.684  23.862  23.716  1.00  0.00     0.047 A 
ATOM     82  C   UNL A   1      31.290  23.981  23.577  1.00  0.00     0.016 A 
ATOM     83  C   UNL A   1      33.257  23.352  24.899  1.00  0.00    -0.004 A 
ATOM     84  C   UNL A   1      30.452  23.677  24.647  1.00  0.00     0.021 A 
ATOM     85  C   UNL A   1      32.385  23.054  25.966  1.00  0.00     0.030 A 
ATOM     86  C   UNL A   1      31.005  23.229  25.842  1.00  0.00     0.041 A 
ATOM     87  Cl  UNL A   1      29.977  22.879  27.176  1.00  0.00    -0.084 Cl
BRANCH  83  88
ATOM     88  C   UNL A   1      34.699  23.091  25.064  1.00  0.00    -0.014 A 
ATOM     89  C   UNL A   1      35.596  24.092  25.476  1.00  0.00     0.013 A 
ATOM     90  C   UNL A   1      35.210  21.805  24.817  1.00  0.00     0.052 A 
ATOM     91  C   UNL A   1      36.962  23.821  25.629  1.00  0.00     0.050 A 
ATOM     92  C   UNL A   1      36.565  21.537  24.978  1.00  0.00     0.165 A 
ATOM     93  C   UNL A   1      37.442  22.539  25.380  1.00  0.00     0.151 A 
ATOM     94  F   UNL A   1      37.013  20.295  24.740  1.00  0.00    -0.203 F 
BRANCH  93  95
ATOM     95  O   UNL A   1      38.767  22.243  25.528  1.00  0.00    -0.505 OA
ATOM     96  H   UNL A   1      39.418  22.848  25.230  1.00  0.00     0.293 HD
ENDBRANCH  93  95
ENDBRANCH  83  88
ENDBRANCH  78  81
ENDBRANCH  76  77
ENDBRANCH  75  76
ENDBRANCH   1  75
TORSDOF 16
ENDMDL
MODEL 2
REMARK VINA RESULT:     -11.0      5.118      9.608
REMARK SMILES O=C(NCCCCNC(=O)c1ccc(Cl)cc1-c1ccc(O)c(F)c1)c1ccc(-c2c3nc(c(-c4c(F)cc(S(=O)(=O)[O-])cc4F)c4ccc([nH]4)c(-c4c(F)cc(S(=O)(=O)[O-])cc4F)c4nc(c(-c5c(F)cc(S(=O)(=O)[O-])cc5F)c5ccc2[nH]5)C=C4)C=C3)cc1
REMARK SMILES IDX 5 1 4 2 3 3 1 4 2 5 26 7 27 8 91 9 28 10 90 11 29 12 30 13
REMARK SMILES IDX 31 14 84 15 32 16 89 17 83 18 85 19 33 20 88 21 82 22 81 23
REMARK SMILES IDX 34 25 68 26 47 27 67 28 48 29 51 30 66 31 86 32 49 33 50 34
REMARK SMILES IDX 65 36 87 37 52 38 35 39 36 40 45 41 37 42 38 43 44 44 46 45
REMARK SMILES IDX 39 46 40 47 41 48 42 49 43 50 69 51 70 52 79 53 71 54 72 55
REMARK SMILES IDX 78 56 80 57 73 58 74 59 75 60 76 61 77 62 53 63 54 64 63 65
REMARK SMILES IDX 55 66 56 67 62 68 64 69 57 70 58 71 59 72 60 73 61 74 6 75
REMARK SMILES IDX 7 76 8 77 9 78 10 80 11 81 12 82 17 83 13 84 16 85 14 86
REMARK SMILES IDX 15 87 18 88 19 89 25 90 20 91 23 92 21 93 24 94 22 95
REMARK H PARENT 3 6 85 24 51 35 8 79 22 96
REMARK Flexibility Score: inf
ROOT
ATOM      1  C   UNL A   1      38.077  23.695  26.037  1.00  0.00     0.023 C 
ENDROOT
BRANCH   1   2
ATOM      2  C   UNL A   1      39.348  23.635  26.871  1.00  0.00     0.116 C 
BRANCH   2   3
ATOM      3  N   UNL A   1      40.538  24.063  26.150  1.00  0.00    -0.352 N 
ATOM      4  O   UNL A   1      42.212  25.452  25.546  1.00  0.00    -0.269 OA
ATOM      5  C   UNL A   1      41.298  25.199  26.326  1.00  0.00     0.251 C 
ATOM      6  H   UNL A   1      40.842  23.456  25.437  1.00  0.00     0.163 HD
BRANCH   5   7
ATOM      7  C   UNL A   1      40.985  26.128  27.436  1.00  0.00     0.039 A 
ATOM      8  C   UNL A   1      41.691  27.323  27.578  1.00  0.00     0.014 A 
ATOM      9  C   UNL A   1      39.998  25.786  28.366  1.00  0.00     0.014 A 
ATOM     10  C   UNL A   1      41.544  28.075  28.735  1.00  0.00     0.010 A 
ATOM     11  C   UNL A   1      39.777  26.604  29.481  1.00  0.00     0.010 A 
ATOM     12  C   UNL A   1      40.577  27.734  29.697  1.00  0.00    -0.014 A 
BRANCH  12  13
ATOM     13  C   UNL A   1      40.405  28.628  30.874  1.00  0.00     0.031 A 
ATOM     14  C   UNL A   1      41.312  28.543  32.073  1.00  0.00     0.074 A 
ATOM     15  C   UNL A   1      39.457  29.584  30.811  1.00  0.00     0.049 A 
ATOM     16  N   UNL A   1      41.344  29.313  33.132  1.00  0.00    -0.248 NA
ATOM     17  C   UNL A   1      42.303  27.456  32.096  1.00  0.00     0.031 C 
ATOM     18  C   UNL A   1      38.498  29.743  29.713  1.00  0.00     0.029 A 
ATOM     19  N   UNL A   1      39.165  30.622  31.656  1.00  0.00    -0.354 N 
ATOM     20  C   UNL A   1      42.346  28.802  33.949  1.00  0.00     0.074 A 
ATOM     21  C   UNL A   1      42.882  27.637  33.277  1.00  0.00     0.031 C 
ATOM     22  C   UNL A   1      37.771  30.850  29.917  1.00  0.00     0.029 A 
ATOM     23  C   UNL A   1      38.168  31.447  31.188  1.00  0.00     0.049 A 
ATOM     24  H   UNL A   1      39.623  30.765  32.515  1.00  0.00     0.167 HD
ATOM     25  C   UNL A   1      42.786  29.270  35.144  1.00  0.00     0.037 A 
ATOM     26  C   UNL A   1      37.625  32.556  31.719  1.00  0.00     0.037 A 
ATOM     27  C   UNL A   1      42.256  30.440  35.803  1.00  0.00     0.049 A 
ATOM     28  C   UNL A   1      38.147  33.063  33.031  1.00  0.00     0.074 A 
ATOM     29  C   UNL A   1      42.636  30.994  37.013  1.00  0.00     0.029 A 
ATOM     30  N   UNL A   1      41.236  31.237  35.304  1.00  0.00    -0.354 N 
ATOM     31  N   UNL A   1      39.102  32.569  33.781  1.00  0.00    -0.248 NA
ATOM     32  C   UNL A   1      37.518  34.275  33.570  1.00  0.00     0.031 C 
ATOM     33  C   UNL A   1      41.829  32.111  37.259  1.00  0.00     0.029 A 
ATOM     34  C   UNL A   1      40.970  32.275  36.185  1.00  0.00     0.049 A 
ATOM     35  H   UNL A   1      40.770  31.090  34.450  1.00  0.00     0.167 HD
ATOM     36  C   UNL A   1      39.185  33.406  34.886  1.00  0.00     0.074 A 
ATOM     37  C   UNL A   1      38.211  34.460  34.684  1.00  0.00     0.031 C 
ATOM     38  C   UNL A   1      39.985  33.305  35.975  1.00  0.00     0.037 A 
BRANCH  25  39
ATOM     39  C   UNL A   1      43.899  28.521  35.827  1.00  0.00     0.058 A 
ATOM     40  C   UNL A   1      45.246  28.855  35.615  1.00  0.00     0.135 A 
ATOM     41  C   UNL A   1      43.615  27.505  36.754  1.00  0.00     0.135 A 
ATOM     42  F   UNL A   1      45.574  29.808  34.728  1.00  0.00    -0.206 F 
ATOM     43  C   UNL A   1      46.273  28.199  36.287  1.00  0.00     0.059 A 
ATOM     44  C   UNL A   1      44.626  26.849  37.454  1.00  0.00     0.059 A 
ATOM     45  F   UNL A   1      42.345  27.146  36.996  1.00  0.00    -0.206 F 
ATOM     46  C   UNL A   1      45.953  27.198  37.206  1.00  0.00     0.060 A 
BRANCH  46  47
ATOM     47  S   UNL A   1      47.298  26.370  38.083  1.00  0.00     0.124 S 
ATOM     48  O   UNL A   1      46.590  25.799  39.226  1.00  0.00    -0.237 OA
ATOM     49  O   UNL A   1      47.777  25.412  37.093  1.00  0.00    -0.237 OA
ATOM     50  O   UNL A   1      48.219  27.458  38.396  1.00  0.00    -0.744 OA
ENDBRANCH  46  47
ENDBRANCH  25  39
BRANCH  26  51
ATOM     51  C   UNL A   1      36.516  33.244  31.011  1.00  0.00     0.058 A 
ATOM     52  C   UNL A   1      35.192  33.153  31.463  1.00  0.00     0.135 A 
ATOM     53  C   UNL A   1      36.768  34.031  29.876  1.00  0.00     0.135 A 
ATOM     54  F   UNL A   1      34.902  32.412  32.544  1.00  0.00    -0.206 F 
ATOM     55  C   UNL A   1      34.153  33.805  30.807  1.00  0.00     0.059 A 
ATOM     56  C   UNL A   1      35.751  34.715  29.220  1.00  0.00     0.059 A 
ATOM     57  F   UNL A   1      38.022  34.167  29.417  1.00  0.00    -0.206 F 
ATOM     58  C   UNL A   1      34.444  34.585  29.686  1.00  0.00     0.060 A 
BRANCH  58  59
ATOM     59  S   UNL A   1      33.103  35.472  28.864  1.00  0.00     0.124 S 
ATOM     60  O   UNL A   1      32.480  34.404  28.090  1.00  0.00    -0.237 OA
ATOM     61  O   UNL A   1      32.328  35.979  29.992  1.00  0.00    -0.237 OA
ATOM     62  O   UNL A   1      33.805  36.490  28.089  1.00  0.00    -0.744 OA
ENDBRANCH  58  59
ENDBRANCH  26  51
BRANCH  38  63
ATOM     63  C   UNL A   1      39.829  34.366  37.026  1.00  0.00     0.058 A 
ATOM     64  C   UNL A   1      40.552  35.568  36.964  1.00  0.00     0.135 A 
ATOM     65  C   UNL A   1      38.952  34.180  38.107  1.00  0.00     0.135 A 
ATOM     66  F   UNL A   1      41.409  35.789  35.954  1.00  0.00    -0.206 F 
ATOM     67  C   UNL A   1      40.442  36.534  37.959  1.00  0.00     0.059 A 
ATOM     68  C   UNL A   1      38.808  35.143  39.100  1.00  0.00     0.059 A 
ATOM     69  F   UNL A   1      38.231  33.053  38.206  1.00  0.00    -0.206 F 
ATOM     70  C   UNL A   1      39.573  36.308  39.027  1.00  0.00     0.060 A 
BRANCH  70  71
ATOM     71  S   UNL A   1      39.441  37.562  40.318  1.00  0.00     0.124 S 
ATOM     72  O   UNL A   1      40.677  38.313  40.124  1.00  0.00    -0.237 OA
ATOM     73  O   UNL A   1      38.212  38.261  39.955  1.00  0.00    -0.237 OA
ATOM     74  O   UNL A   1      39.368  36.777  41.546  1.00  0.00    -0.744 OA
ENDBRANCH  70  71
ENDBRANCH  38  63
ENDBRANCH  12  13
ENDBRANCH   5   7
ENDBRANCH   2   3
ENDBRANCH   1   2
BRANCH   1  75
ATOM     75  C   UNL A   1      37.415  22.352  25.744  1.00  0.00     0.023 C 
BRANCH  75  76
ATOM     76  C   UNL A   1      35.910  22.397  25.501  1.00  0.00     0.116 C 
BRANCH  76  77
ATOM     77  N   UNL A   1      35.554  22.559  24.099  1.00  0.00    -0.352 N 
ATOM     78  C   UNL A   1      34.314  22.734  23.533  1.00  0.00     0.251 C 
ATOM     79  H   UNL A   1      36.308  22.542  23.468  1.00  0.00     0.163 HD
ATOM     80  O   UNL A   1      34.195  22.889  22.323  1.00  0.00    -0.269 OA
BRANCH  78  81
ATOM     81  C   UNL A   1      33.121  22.743  24.406  1.00  0.00     0.047 A 
ATOM     82  C   UNL A   1      32.673  23.987  24.885  1.00  0.00     0.016 A 
ATOM     83  C   UNL A   1      32.441  21.551  24.730  1.00  0.00    -0.004 A 
ATOM     84  C   UNL A   1      31.595  24.051  25.764  1.00  0.00     0.021 A 
ATOM     85  C   UNL A   1      31.355  21.646  25.624  1.00  0.00     0.030 A 
ATOM     86  C   UNL A   1      30.950  22.878  26.142  1.00  0.00     0.041 A 
ATOM     87  Cl  UNL A   1      29.637  22.949  27.251  1.00  0.00    -0.084 Cl
BRANCH  83  88
ATOM     88  C   UNL A   1      32.786  20.232  24.168  1.00  0.00    -0.014 A 
ATOM     89  C   UNL A   1      32.133  19.709  23.038  1.00  0.00     0.013 A 
ATOM     90  C   UNL A   1      33.803  19.464  24.760  1.00  0.00     0.052 A 
ATOM     91  C   UNL A   1      32.479  18.454  22.519  1.00  0.00     0.050 A 
ATOM     92  C   UNL A   1      34.150  18.221  24.237  1.00  0.00     0.165 A 
ATOM     93  C   UNL A   1      33.491  17.714  23.123  1.00  0.00     0.151 A 
ATOM     94  F   UNL A   1      35.132  17.522  24.826  1.00  0.00    -0.203 F 
BRANCH  93  95
ATOM     95  O   UNL A   1      33.855  16.492  22.635  1.00  0.00    -0.505 OA
ATOM     96  H   UNL A   1      34.484  15.972  23.096  1.00  0.00     0.293 HD
ENDBRANCH  93  95
ENDBRANCH  83  88
ENDBRANCH  78  81
ENDBRANCH  76  77
ENDBRANCH  75  76
ENDBRANCH   1  75
TORSDOF 16
ENDMDL
MODEL 3
REMARK VINA RESULT:     -11.0      5.208      9.721
REMARK SMILES O=C(NCCCCNC(=O)c1ccc(Cl)cc1-c1ccc(O)c(F)c1)c1ccc(-c2c3nc(c(-c4c(F)cc(S(=O)(=O)[O-])cc4F)c4ccc([nH]4)c(-c4c(F)cc(S(=O)(=O)[O-])cc4F)c4nc(c(-c5c(F)cc(S(=O)(=O)[O-])cc5F)c5ccc2[nH]5)C=C4)C=C3)cc1
REMARK SMILES IDX 5 1 4 2 3 3 1 4 2 5 26 7 27 8 91 9 28 10 90 11 29 12 30 13
REMARK SMILES IDX 31 14 84 15 32 16 89 17 83 18 85 19 33 20 88 21 82 22 81 23
REMARK SMILES IDX 34 25 68 26 47 27 67 28 48 29 51 30 66 31 86 32 49 33 50 34
REMARK SMILES IDX 65 36 87 37 52 38 35 39 36 40 45 41 37 42 38 43 44 44 46 45
REMARK SMILES IDX 39 46 40 47 41 48 42 49 43 50 69 51 70 52 79 53 71 54 72 55
REMARK SMILES IDX 78 56 80 57 73 58 74 59 75 60 76 61 77 62 53 63 54 64 63 65
REMARK SMILES IDX 55 66 56 67 62 68 64 69 57 70 58 71 59 72 60 73 61 74 6 75
REMARK SMILES IDX 7 76 8 77 9 78 10 80 11 81 12 82 17 83 13 84 16 85 14 86
REMARK SMILES IDX 15 87 18 88 19 89 25 90 20 91 23 92 21 93 24 94 22 95
REMARK H PARENT 3 6 85 24 51 35 8 79 22 96
REMARK Flexibility Score: inf
ROOT
ATOM      1  C   UNL A   1      37.711  23.161  25.647  1.00  0.00     0.023 C 
ENDROOT
BRANCH   1   2
ATOM      2  C   UNL A   1      38.537  24.166  26.435  1.00  0.00     0.116 C 
BRANCH   2   3
ATOM      3  N   UNL A   1      39.932  24.226  26.020  1.00  0.00    -0.352 N 
ATOM      4  O   UNL A   1      42.030  25.050  25.904  1.00  0.00    -0.269 OA
ATOM      5  C   UNL A   1      40.930  25.073  26.450  1.00  0.00     0.251 C 
ATOM      6  H   UNL A   1      40.198  23.568  25.338  1.00  0.00     0.163 HD
BRANCH   5   7
ATOM      7  C   UNL A   1      40.659  26.032  27.545  1.00  0.00     0.039 A 
ATOM      8  C   UNL A   1      41.422  27.193  27.672  1.00  0.00     0.014 A 
ATOM      9  C   UNL A   1      39.654  25.752  28.476  1.00  0.00     0.014 A 
ATOM     10  C   UNL A   1      41.307  27.969  28.818  1.00  0.00     0.010 A 
ATOM     11  C   UNL A   1      39.468  26.596  29.578  1.00  0.00     0.010 A 
ATOM     12  C   UNL A   1      40.322  27.690  29.780  1.00  0.00    -0.014 A 
BRANCH  12  13
ATOM     13  C   UNL A   1      40.189  28.608  30.943  1.00  0.00     0.031 A 
ATOM     14  C   UNL A   1      41.111  28.520  32.131  1.00  0.00     0.074 A 
ATOM     15  C   UNL A   1      39.267  29.588  30.876  1.00  0.00     0.049 A 
ATOM     16  N   UNL A   1      41.177  29.307  33.176  1.00  0.00    -0.248 NA
ATOM     17  C   UNL A   1      42.073  27.408  32.161  1.00  0.00     0.031 C 
ATOM     18  C   UNL A   1      38.297  29.752  29.788  1.00  0.00     0.029 A 
ATOM     19  N   UNL A   1      39.013  30.648  31.706  1.00  0.00    -0.354 N 
ATOM     20  C   UNL A   1      42.177  28.784  33.989  1.00  0.00     0.074 A 
ATOM     21  C   UNL A   1      42.673  27.594  33.330  1.00  0.00     0.031 C 
ATOM     22  C   UNL A   1      37.603  30.882  29.982  1.00  0.00     0.029 A 
ATOM     23  C   UNL A   1      38.033  31.490  31.236  1.00  0.00     0.049 A 
ATOM     24  H   UNL A   1      39.487  30.793  32.556  1.00  0.00     0.167 HD
ATOM     25  C   UNL A   1      42.645  29.261  35.169  1.00  0.00     0.037 A 
ATOM     26  C   UNL A   1      37.526  32.623  31.755  1.00  0.00     0.037 A 
ATOM     27  C   UNL A   1      42.155  30.455  35.814  1.00  0.00     0.049 A 
ATOM     28  C   UNL A   1      38.079  33.139  33.051  1.00  0.00     0.074 A 
ATOM     29  C   UNL A   1      42.567  31.021  37.009  1.00  0.00     0.029 A 
ATOM     30  N   UNL A   1      41.150  31.271  35.314  1.00  0.00    -0.354 N 
ATOM     31  N   UNL A   1      39.031  32.633  33.797  1.00  0.00    -0.248 NA
ATOM     32  C   UNL A   1      37.489  34.376  33.576  1.00  0.00     0.031 C 
ATOM     33  C   UNL A   1      41.792  32.163  37.246  1.00  0.00     0.029 A 
ATOM     34  C   UNL A   1      40.924  32.331  36.180  1.00  0.00     0.049 A 
ATOM     35  H   UNL A   1      40.668  31.121  34.470  1.00  0.00     0.167 HD
ATOM     36  C   UNL A   1      39.152  33.486  34.885  1.00  0.00     0.074 A 
ATOM     37  C   UNL A   1      38.202  34.562  34.678  1.00  0.00     0.031 C 
ATOM     38  C   UNL A   1      39.964  33.383  35.965  1.00  0.00     0.037 A 
BRANCH  25  39
ATOM     39  C   UNL A   1      43.748  28.495  35.851  1.00  0.00     0.058 A 
ATOM     40  C   UNL A   1      45.097  28.838  35.674  1.00  0.00     0.135 A 
ATOM     41  C   UNL A   1      43.450  27.451  36.742  1.00  0.00     0.135 A 
ATOM     42  F   UNL A   1      45.440  29.817  34.821  1.00  0.00    -0.206 F 
ATOM     43  C   UNL A   1      46.113  28.164  36.346  1.00  0.00     0.059 A 
ATOM     44  C   UNL A   1      44.449  26.777  37.441  1.00  0.00     0.059 A 
ATOM     45  F   UNL A   1      42.176  27.082  36.949  1.00  0.00    -0.206 F 
ATOM     46  C   UNL A   1      45.779  27.136  37.228  1.00  0.00     0.060 A 
BRANCH  46  47
ATOM     47  S   UNL A   1      47.110  26.286  38.106  1.00  0.00     0.124 S 
ATOM     48  O   UNL A   1      47.448  27.264  39.136  1.00  0.00    -0.237 OA
ATOM     49  O   UNL A   1      46.450  25.073  38.578  1.00  0.00    -0.237 OA
ATOM     50  O   UNL A   1      48.123  26.085  37.074  1.00  0.00    -0.744 OA
ENDBRANCH  46  47
ENDBRANCH  25  39
BRANCH  26  51
ATOM     51  C   UNL A   1      36.426  33.328  31.049  1.00  0.00     0.058 A 
ATOM     52  C   UNL A   1      35.110  33.296  31.532  1.00  0.00     0.135 A 
ATOM     53  C   UNL A   1      36.680  34.071  29.886  1.00  0.00     0.135 A 
ATOM     54  F   UNL A   1      34.818  32.598  32.641  1.00  0.00    -0.206 F 
ATOM     55  C   UNL A   1      34.080  33.964  30.879  1.00  0.00     0.059 A 
ATOM     56  C   UNL A   1      35.673  34.770  29.231  1.00  0.00     0.059 A 
ATOM     57  F   UNL A   1      37.927  34.149  29.397  1.00  0.00    -0.206 F 
ATOM     58  C   UNL A   1      34.372  34.699  29.728  1.00  0.00     0.060 A 
BRANCH  58  59
ATOM     59  S   UNL A   1      33.044  35.607  28.908  1.00  0.00     0.124 S 
ATOM     60  O   UNL A   1      32.425  34.557  28.108  1.00  0.00    -0.237 OA
ATOM     61  O   UNL A   1      32.260  36.099  30.036  1.00  0.00    -0.237 OA
ATOM     62  O   UNL A   1      33.760  36.636  28.159  1.00  0.00    -0.744 OA
ENDBRANCH  58  59
ENDBRANCH  26  51
BRANCH  38  63
ATOM     63  C   UNL A   1      39.850  34.466  36.999  1.00  0.00     0.058 A 
ATOM     64  C   UNL A   1      40.587  35.657  36.894  1.00  0.00     0.135 A 
ATOM     65  C   UNL A   1      39.001  34.313  38.107  1.00  0.00     0.135 A 
ATOM     66  F   UNL A   1      41.418  35.847  35.857  1.00  0.00    -0.206 F 
ATOM     67  C   UNL A   1      40.516  36.643  37.873  1.00  0.00     0.059 A 
ATOM     68  C   UNL A   1      38.896  35.296  39.085  1.00  0.00     0.059 A 
ATOM     69  F   UNL A   1      38.268  33.197  38.248  1.00  0.00    -0.206 F 
ATOM     70  C   UNL A   1      39.674  36.449  38.968  1.00  0.00     0.060 A 
BRANCH  70  71
ATOM     71  S   UNL A   1      39.593  37.730  40.238  1.00  0.00     0.124 S 
ATOM     72  O   UNL A   1      40.977  38.193  40.274  1.00  0.00    -0.237 OA
ATOM     73  O   UNL A   1      38.626  38.668  39.678  1.00  0.00    -0.237 OA
ATOM     74  O   UNL A   1      39.141  37.005  41.421  1.00  0.00    -0.744 OA
ENDBRANCH  70  71
ENDBRANCH  38  63
ENDBRANCH  12  13
ENDBRANCH   5   7
ENDBRANCH   2   3
ENDBRANCH   1   2
BRANCH   1  75
ATOM     75  C   UNL A   1      36.269  22.983  26.112  1.00  0.00     0.023 C 
BRANCH  75  76
ATOM     76  C   UNL A   1      35.234  23.843  25.394  1.00  0.00     0.116 C 
BRANCH  76  77
ATOM     77  N   UNL A   1      34.045  24.104  26.192  1.00  0.00    -0.352 N 
ATOM     78  C   UNL A   1      32.848  23.428  26.214  1.00  0.00     0.251 C 
ATOM     79  H   UNL A   1      34.106  24.874  26.801  1.00  0.00     0.163 HD
ATOM     80  O   UNL A   1      31.952  23.767  26.979  1.00  0.00    -0.269 OA
BRANCH  78  81
ATOM     81  C   UNL A   1      32.657  22.275  25.308  1.00  0.00     0.047 A 
ATOM     82  C   UNL A   1      32.870  20.990  25.836  1.00  0.00     0.016 A 
ATOM     83  C   UNL A   1      32.256  22.455  23.968  1.00  0.00    -0.004 A 
ATOM     84  C   UNL A   1      32.771  19.870  25.013  1.00  0.00     0.021 A 
ATOM     85  C   UNL A   1      32.166  21.304  23.158  1.00  0.00     0.030 A 
ATOM     86  C   UNL A   1      32.434  20.034  23.673  1.00  0.00     0.041 A 
ATOM     87  Cl  UNL A   1      32.340  18.658  22.646  1.00  0.00    -0.084 Cl
BRANCH  83  88
ATOM     88  C   UNL A   1      31.903  23.763  23.387  1.00  0.00    -0.014 A 
ATOM     89  C   UNL A   1      30.656  24.370  23.617  1.00  0.00     0.013 A 
ATOM     90  C   UNL A   1      32.833  24.445  22.583  1.00  0.00     0.052 A 
ATOM     91  C   UNL A   1      30.344  25.616  23.057  1.00  0.00     0.050 A 
ATOM     92  C   UNL A   1      32.523  25.685  22.033  1.00  0.00     0.165 A 
ATOM     93  C   UNL A   1      31.282  26.271  22.265  1.00  0.00     0.151 A 
ATOM     94  F   UNL A   1      33.440  26.307  21.278  1.00  0.00    -0.203 F 
BRANCH  93  95
ATOM     95  O   UNL A   1      31.009  27.488  21.712  1.00  0.00    -0.505 OA
ATOM     96  H   UNL A   1      30.471  27.544  20.946  1.00  0.00     0.293 HD
ENDBRANCH  93  95
ENDBRANCH  83  88
ENDBRANCH  78  81
ENDBRANCH  76  77
ENDBRANCH  75  76
ENDBRANCH   1  75
TORSDOF 16
ENDMDL
