MODEL 1
REMARK VINA RESULT:     -12.6      0.000      0.000
REMARK SMILES NC(=O)[C@H]1CN(C(=O)CSc2ccccc2C(=O)NCCCCNC(=O)c2ccc(-c3c4nc(c(-c5c(F)cc(S(=O)(=O)[O-])cc5F)c5ccc([nH]5)c(-c5c(F)cc(S(=O)(=O)[O-])cc5F)c5nc(c(-c6c(F)cc(S(=O)(=O)[O-])cc6F)c6ccc3[nH]6)C=C5)C=C4)cc2)c2ccccc2O1
REMARK SMILES IDX 20 1 19 2 17 3 18 4 16 6 11 7 12 8 13 9 15 10 14 11 10 12
REMARK SMILES IDX 9 13 7 14 8 15 6 16 4 17 5 18 99 19 98 20 93 21 97 22 94 23
REMARK SMILES IDX 96 24 95 25 2 26 1 27 3 30 21 31 22 32 23 33 24 34 25 35
REMARK SMILES IDX 26 37 27 38 28 39 92 40 29 41 91 42 30 43 31 44 32 45 85 46
REMARK SMILES IDX 33 47 90 48 84 49 86 50 34 51 89 52 83 53 82 54 35 56 69 57
REMARK SMILES IDX 48 58 68 59 49 60 52 61 67 62 87 63 50 64 51 65 66 67 88 68
REMARK SMILES IDX 53 69 36 70 37 71 46 72 38 73 39 74 45 75 47 76 40 77 41 78
REMARK SMILES IDX 42 79 43 80 44 81 70 82 71 83 80 84 72 85 73 86 79 87 81 88
REMARK SMILES IDX 74 89 75 90 76 91 77 92 78 93 54 94 55 95 64 96 56 97 57 98
REMARK SMILES IDX 63 99 65 100 58 101 59 102 60 103 61 104 62 105
REMARK H PARENT 19 5 1 28 1 29 24 36 86 55 52 66
REMARK Flexibility Score: inf
ROOT
ATOM      1  C   UNL A   1      33.904  30.340  27.292  1.00  0.00     0.116 C 
ENDROOT
BRANCH   1   2
ATOM      2  N   UNL A   1      32.764  29.556  27.744  1.00  0.00    -0.352 N 
ATOM      3  C   UNL A   1      32.058  28.528  27.150  1.00  0.00     0.252 C 
ATOM      4  O   UNL A   1      31.095  28.050  27.745  1.00  0.00    -0.269 OA
ATOM      5  H   UNL A   1      32.434  29.805  28.639  1.00  0.00     0.163 HD
BRANCH   3   6
ATOM      6  C   UNL A   1      32.292  28.090  25.763  1.00  0.00     0.053 A 
ATOM      7  C   UNL A   1      32.695  26.830  25.334  1.00  0.00     0.020 A 
ATOM      8  C   UNL A   1      33.293  26.768  24.050  1.00  0.00     0.016 A 
ATOM      9  C   UNL A   1      33.302  27.858  23.168  1.00  0.00     0.001 A 
ATOM     10  C   UNL A   1      32.166  29.144  24.821  1.00  0.00     0.015 A 
ATOM     11  C   UNL A   1      32.653  29.026  23.525  1.00  0.00     0.001 A 
BRANCH   7  12
ATOM     12  S   UNL A   1      32.443  25.209  26.063  1.00  0.00    -0.115 SA
BRANCH  12  13
ATOM     13  C   UNL A   1      31.530  24.092  24.929  1.00  0.00     0.175 C 
BRANCH  13  14
ATOM     14  C   UNL A   1      32.299  23.108  24.074  1.00  0.00     0.237 C 
ATOM     15  O   UNL A   1      32.313  23.261  22.849  1.00  0.00    -0.274 OA
BRANCH  14  16
ATOM     16  N   UNL A   1      33.075  22.133  24.744  1.00  0.00    -0.304 N 
ATOM     17  C   UNL A   1      33.314  19.685  24.757  1.00  0.00     0.281 C 
ATOM     18  C   UNL A   1      32.592  20.883  25.392  1.00  0.00     0.181 C 
ATOM     19  O   UNL A   1      34.698  19.722  25.090  1.00  0.00    -0.477 OA
ATOM     20  C   UNL A   1      35.243  20.952  24.814  1.00  0.00     0.144 A 
ATOM     21  C   UNL A   1      34.506  22.146  24.655  1.00  0.00     0.086 A 
ATOM     22  C   UNL A   1      36.629  20.947  24.700  1.00  0.00     0.049 A 
ATOM     23  C   UNL A   1      35.206  23.340  24.477  1.00  0.00     0.030 A 
ATOM     24  C   UNL A   1      37.306  22.140  24.478  1.00  0.00     0.004 A 
ATOM     25  C   UNL A   1      36.598  23.336  24.393  1.00  0.00     0.002 A 
BRANCH  17  26
ATOM     26  C   UNL A   1      32.741  18.322  25.127  1.00  0.00     0.260 C 
ATOM     27  N   UNL A   1      32.763  18.001  26.452  1.00  0.00    -0.366 N 
ATOM     28  H   UNL A   1      32.407  17.134  26.754  1.00  0.00     0.159 HD
ATOM     29  H   UNL A   1      33.136  18.636  27.106  1.00  0.00     0.159 HD
ATOM     30  O   UNL A   1      32.399  17.477  24.298  1.00  0.00    -0.271 OA
ENDBRANCH  17  26
ENDBRANCH  14  16
ENDBRANCH  13  14
ENDBRANCH  12  13
ENDBRANCH   7  12
ENDBRANCH   3   6
ENDBRANCH   1   2
BRANCH   1  31
ATOM     31  C   UNL A   1      34.019  31.743  27.911  1.00  0.00     0.023 C 
BRANCH  31  32
ATOM     32  C   UNL A   1      35.337  32.559  27.982  1.00  0.00     0.023 C 
BRANCH  32  33
ATOM     33  C   UNL A   1      36.188  32.692  29.246  1.00  0.00     0.116 C 
BRANCH  33  34
ATOM     34  N   UNL A   1      35.875  31.735  30.287  1.00  0.00    -0.352 N 
ATOM     35  C   UNL A   1      36.586  30.641  30.729  1.00  0.00     0.251 C 
ATOM     36  H   UNL A   1      35.021  31.890  30.752  1.00  0.00     0.163 HD
ATOM     37  O   UNL A   1      36.087  29.920  31.591  1.00  0.00    -0.269 OA
BRANCH  35  38
ATOM     38  C   UNL A   1      37.916  30.279  30.170  1.00  0.00     0.039 A 
ATOM     39  C   UNL A   1      38.994  30.186  31.057  1.00  0.00     0.014 A 
ATOM     40  C   UNL A   1      38.147  30.117  28.799  1.00  0.00     0.014 A 
ATOM     41  C   UNL A   1      40.277  29.880  30.587  1.00  0.00     0.010 A 
ATOM     42  C   UNL A   1      39.429  29.769  28.333  1.00  0.00     0.010 A 
ATOM     43  C   UNL A   1      40.510  29.640  29.222  1.00  0.00    -0.014 A 
BRANCH  43  44
ATOM     44  C   UNL A   1      41.869  29.227  28.754  1.00  0.00     0.031 A 
ATOM     45  C   UNL A   1      43.012  30.210  28.687  1.00  0.00     0.074 A 
ATOM     46  C   UNL A   1      42.087  27.945  28.389  1.00  0.00     0.049 A 
ATOM     47  N   UNL A   1      44.258  30.006  28.333  1.00  0.00    -0.248 NA
ATOM     48  C   UNL A   1      42.717  31.602  29.055  1.00  0.00     0.031 C 
ATOM     49  C   UNL A   1      41.071  26.891  28.375  1.00  0.00     0.029 A 
ATOM     50  N   UNL A   1      43.227  27.307  27.960  1.00  0.00    -0.354 N 
ATOM     51  C   UNL A   1      44.896  31.239  28.438  1.00  0.00     0.074 A 
ATOM     52  C   UNL A   1      43.885  32.195  28.843  1.00  0.00     0.031 C 
ATOM     53  C   UNL A   1      41.636  25.737  27.986  1.00  0.00     0.029 A 
ATOM     54  C   UNL A   1      43.046  25.970  27.684  1.00  0.00     0.049 A 
ATOM     55  H   UNL A   1      44.094  27.763  27.860  1.00  0.00     0.167 HD
ATOM     56  C   UNL A   1      46.202  31.545  28.235  1.00  0.00     0.037 A 
ATOM     57  C   UNL A   1      43.906  25.035  27.231  1.00  0.00     0.037 A 
ATOM     58  C   UNL A   1      47.213  30.594  27.837  1.00  0.00     0.049 A 
ATOM     59  C   UNL A   1      45.344  25.406  26.982  1.00  0.00     0.074 A 
ATOM     60  C   UNL A   1      48.569  30.808  27.652  1.00  0.00     0.029 A 
ATOM     61  N   UNL A   1      46.983  29.256  27.553  1.00  0.00    -0.354 N 
ATOM     62  N   UNL A   1      45.938  26.564  27.149  1.00  0.00    -0.248 NA
ATOM     63  C   UNL A   1      46.233  24.344  26.489  1.00  0.00     0.031 C 
ATOM     64  C   UNL A   1      49.147  29.617  27.203  1.00  0.00     0.029 A 
ATOM     65  C   UNL A   1      48.164  28.642  27.167  1.00  0.00     0.049 A 
ATOM     66  H   UNL A   1      46.108  28.808  27.616  1.00  0.00     0.167 HD
ATOM     67  C   UNL A   1      47.272  26.361  26.810  1.00  0.00     0.074 A 
ATOM     68  C   UNL A   1      47.402  24.967  26.443  1.00  0.00     0.031 C 
ATOM     69  C   UNL A   1      48.295  27.251  26.806  1.00  0.00     0.037 A 
BRANCH  56  70
ATOM     70  C   UNL A   1      46.630  32.976  28.435  1.00  0.00     0.058 A 
ATOM     71  C   UNL A   1      46.591  33.912  27.390  1.00  0.00     0.135 A 
ATOM     72  C   UNL A   1      47.020  33.436  29.705  1.00  0.00     0.135 A 
ATOM     73  F   UNL A   1      46.233  33.530  26.153  1.00  0.00    -0.206 F 
ATOM     74  C   UNL A   1      46.947  35.244  27.588  1.00  0.00     0.059 A 
ATOM     75  C   UNL A   1      47.353  34.770  29.933  1.00  0.00     0.059 A 
ATOM     76  F   UNL A   1      47.070  32.589  30.744  1.00  0.00    -0.206 F 
ATOM     77  C   UNL A   1      47.325  35.663  28.863  1.00  0.00     0.060 A 
BRANCH  77  78
ATOM     78  S   UNL A   1      47.774  37.396  29.104  1.00  0.00     0.124 S 
ATOM     79  O   UNL A   1      46.996  38.046  28.054  1.00  0.00    -0.237 OA
ATOM     80  O   UNL A   1      47.327  37.646  30.470  1.00  0.00    -0.237 OA
ATOM     81  O   UNL A   1      49.220  37.405  28.908  1.00  0.00    -0.744 OA
ENDBRANCH  77  78
ENDBRANCH  56  70
BRANCH  57  82
ATOM     82  C   UNL A   1      43.432  23.644  26.982  1.00  0.00     0.058 A 
ATOM     83  C   UNL A   1      43.147  23.191  25.686  1.00  0.00     0.135 A 
ATOM     84  C   UNL A   1      43.248  22.741  28.042  1.00  0.00     0.135 A 
ATOM     85  F   UNL A   1      43.294  24.018  24.639  1.00  0.00    -0.206 F 
ATOM     86  C   UNL A   1      42.678  21.902  25.448  1.00  0.00     0.059 A 
ATOM     87  C   UNL A   1      42.812  21.438  27.827  1.00  0.00     0.059 A 
ATOM     88  F   UNL A   1      43.517  23.118  29.302  1.00  0.00    -0.206 F 
ATOM     89  C   UNL A   1      42.517  21.032  26.527  1.00  0.00     0.060 A 
BRANCH  89  90
ATOM     90  S   UNL A   1      41.947  19.348  26.205  1.00  0.00     0.124 S 
ATOM     91  O   UNL A   1      42.787  18.964  25.077  1.00  0.00    -0.237 OA
ATOM     92  O   UNL A   1      42.233  18.681  27.472  1.00  0.00    -0.237 OA
ATOM     93  O   UNL A   1      40.529  19.525  25.906  1.00  0.00    -0.744 OA
ENDBRANCH  89  90
ENDBRANCH  57  82
BRANCH  69  94
ATOM     94  C   UNL A   1      49.662  26.744  26.425  1.00  0.00     0.058 A 
ATOM     95  C   UNL A   1      50.461  26.018  27.322  1.00  0.00     0.135 A 
ATOM     96  C   UNL A   1      50.159  26.947  25.127  1.00  0.00     0.135 A 
ATOM     97  F   UNL A   1      50.040  25.800  28.579  1.00  0.00    -0.206 F 
ATOM     98  C   UNL A   1      51.714  25.534  26.954  1.00  0.00     0.059 A 
ATOM     99  C   UNL A   1      51.395  26.445  24.728  1.00  0.00     0.059 A 
ATOM    100  F   UNL A   1      49.435  27.626  24.223  1.00  0.00    -0.206 F 
ATOM    101  C   UNL A   1      52.172  25.750  25.653  1.00  0.00     0.060 A 
BRANCH 101 102
ATOM    102  S   UNL A   1      53.784  25.088  25.181  1.00  0.00     0.124 S 
ATOM    103  O   UNL A   1      53.592  23.658  25.404  1.00  0.00    -0.237 OA
ATOM    104  O   UNL A   1      53.895  25.502  23.786  1.00  0.00    -0.237 OA
ATOM    105  O   UNL A   1      54.706  25.748  26.099  1.00  0.00    -0.744 OA
ENDBRANCH 101 102
ENDBRANCH  69  94
ENDBRANCH  43  44
ENDBRANCH  35  38
ENDBRANCH  33  34
ENDBRANCH  32  33
ENDBRANCH  31  32
ENDBRANCH   1  31
TORSDOF 19
ENDMDL
MODEL 2
REMARK VINA RESULT:     -12.6      2.631      8.550
REMARK SMILES NC(=O)[C@H]1CN(C(=O)CSc2ccccc2C(=O)NCCCCNC(=O)c2ccc(-c3c4nc(c(-c5c(F)cc(S(=O)(=O)[O-])cc5F)c5ccc([nH]5)c(-c5c(F)cc(S(=O)(=O)[O-])cc5F)c5nc(c(-c6c(F)cc(S(=O)(=O)[O-])cc6F)c6ccc3[nH]6)C=C5)C=C4)cc2)c2ccccc2O1
REMARK SMILES IDX 20 1 19 2 17 3 18 4 16 6 11 7 12 8 13 9 15 10 14 11 10 12
REMARK SMILES IDX 9 13 7 14 8 15 6 16 4 17 5 18 99 19 98 20 93 21 97 22 94 23
REMARK SMILES IDX 96 24 95 25 2 26 1 27 3 30 21 31 22 32 23 33 24 34 25 35
REMARK SMILES IDX 26 37 27 38 28 39 92 40 29 41 91 42 30 43 31 44 32 45 85 46
REMARK SMILES IDX 33 47 90 48 84 49 86 50 34 51 89 52 83 53 82 54 35 56 69 57
REMARK SMILES IDX 48 58 68 59 49 60 52 61 67 62 87 63 50 64 51 65 66 67 88 68
REMARK SMILES IDX 53 69 36 70 37 71 46 72 38 73 39 74 45 75 47 76 40 77 41 78
REMARK SMILES IDX 42 79 43 80 44 81 70 82 71 83 80 84 72 85 73 86 79 87 81 88
REMARK SMILES IDX 74 89 75 90 76 91 77 92 78 93 54 94 55 95 64 96 56 97 57 98
REMARK SMILES IDX 63 99 65 100 58 101 59 102 60 103 61 104 62 105
REMARK H PARENT 19 5 1 28 1 29 24 36 86 55 52 66
REMARK Flexibility Score: inf
ROOT
ATOM      1  C   UNL A   1      33.711  27.974  23.158  1.00  0.00     0.116 C 
ENDROOT
BRANCH   1   2
ATOM      2  N   UNL A   1      33.167  27.130  22.103  1.00  0.00    -0.352 N 
ATOM      3  C   UNL A   1      31.872  26.766  21.790  1.00  0.00     0.252 C 
ATOM      4  O   UNL A   1      31.684  25.999  20.847  1.00  0.00    -0.269 OA
ATOM      5  H   UNL A   1      33.848  26.748  21.502  1.00  0.00     0.163 HD
BRANCH   3   6
ATOM      6  C   UNL A   1      30.714  27.110  22.633  1.00  0.00     0.053 A 
ATOM      7  C   UNL A   1      30.058  26.286  23.541  1.00  0.00     0.020 A 
ATOM      8  C   UNL A   1      28.733  26.658  23.879  1.00  0.00     0.016 A 
ATOM      9  C   UNL A   1      28.171  27.883  23.494  1.00  0.00     0.001 A 
ATOM     10  C   UNL A   1      30.206  28.409  22.371  1.00  0.00     0.015 A 
ATOM     11  C   UNL A   1      28.948  28.802  22.811  1.00  0.00     0.001 A 
BRANCH   7  12
ATOM     12  S   UNL A   1      30.657  24.895  24.506  1.00  0.00    -0.115 SA
BRANCH  12  13
ATOM     13  C   UNL A   1      31.176  23.501  23.432  1.00  0.00     0.175 C 
BRANCH  13  14
ATOM     14  C   UNL A   1      32.646  23.164  23.309  1.00  0.00     0.237 C 
ATOM     15  O   UNL A   1      33.360  23.857  22.578  1.00  0.00    -0.274 OA
BRANCH  14  16
ATOM     16  N   UNL A   1      33.152  22.143  24.148  1.00  0.00    -0.304 N 
ATOM     17  C   UNL A   1      33.242  19.686  24.182  1.00  0.00     0.281 C 
ATOM     18  C   UNL A   1      32.441  20.923  24.616  1.00  0.00     0.181 C 
ATOM     19  O   UNL A   1      34.480  19.641  24.882  1.00  0.00    -0.477 OA
ATOM     20  C   UNL A   1      35.148  20.838  24.789  1.00  0.00     0.144 A 
ATOM     21  C   UNL A   1      34.551  22.073  24.456  1.00  0.00     0.086 A 
ATOM     22  C   UNL A   1      36.509  20.752  25.061  1.00  0.00     0.049 A 
ATOM     23  C   UNL A   1      35.338  23.225  24.498  1.00  0.00     0.030 A 
ATOM     24  C   UNL A   1      37.287  21.903  25.054  1.00  0.00     0.004 A 
ATOM     25  C   UNL A   1      36.697  23.139  24.800  1.00  0.00     0.002 A 
BRANCH  17  26
ATOM     26  C   UNL A   1      32.514  18.358  24.356  1.00  0.00     0.260 C 
ATOM     27  N   UNL A   1      32.133  17.727  23.208  1.00  0.00    -0.366 N 
ATOM     28  H   UNL A   1      31.658  16.866  23.255  1.00  0.00     0.159 HD
ATOM     29  H   UNL A   1      32.331  18.134  22.334  1.00  0.00     0.159 HD
ATOM     30  O   UNL A   1      32.149  17.917  25.446  1.00  0.00    -0.271 OA
ENDBRANCH  17  26
ENDBRANCH  14  16
ENDBRANCH  13  14
ENDBRANCH  12  13
ENDBRANCH   7  12
ENDBRANCH   3   6
ENDBRANCH   1   2
BRANCH   1  31
ATOM     31  C   UNL A   1      33.844  27.297  24.532  1.00  0.00     0.023 C 
BRANCH  31  32
ATOM     32  C   UNL A   1      33.018  27.698  25.784  1.00  0.00     0.023 C 
BRANCH  32  33
ATOM     33  C   UNL A   1      33.642  28.110  27.118  1.00  0.00     0.116 C 
BRANCH  33  34
ATOM     34  N   UNL A   1      33.455  29.503  27.467  1.00  0.00    -0.352 N 
ATOM     35  C   UNL A   1      34.337  30.406  28.019  1.00  0.00     0.251 C 
ATOM     36  H   UNL A   1      32.556  29.861  27.281  1.00  0.00     0.163 HD
ATOM     37  O   UNL A   1      33.932  31.533  28.298  1.00  0.00    -0.269 OA
BRANCH  35  38
ATOM     38  C   UNL A   1      35.748  30.050  28.327  1.00  0.00     0.039 A 
ATOM     39  C   UNL A   1      36.668  30.059  27.272  1.00  0.00     0.014 A 
ATOM     40  C   UNL A   1      36.168  29.629  29.594  1.00  0.00     0.014 A 
ATOM     41  C   UNL A   1      38.005  29.703  27.493  1.00  0.00     0.010 A 
ATOM     42  C   UNL A   1      37.520  29.312  29.822  1.00  0.00     0.010 A 
ATOM     43  C   UNL A   1      38.457  29.351  28.776  1.00  0.00    -0.014 A 
BRANCH  43  44
ATOM     44  C   UNL A   1      39.907  29.062  29.006  1.00  0.00     0.031 A 
ATOM     45  C   UNL A   1      40.508  27.722  28.660  1.00  0.00     0.074 A 
ATOM     46  C   UNL A   1      40.702  30.020  29.529  1.00  0.00     0.049 A 
ATOM     47  N   UNL A   1      41.751  27.320  28.769  1.00  0.00    -0.248 NA
ATOM     48  C   UNL A   1      39.595  26.697  28.133  1.00  0.00     0.031 C 
ATOM     49  C   UNL A   1      40.255  31.353  29.937  1.00  0.00     0.029 A 
ATOM     50  N   UNL A   1      42.050  30.027  29.806  1.00  0.00    -0.354 N 
ATOM     51  C   UNL A   1      41.772  26.002  28.324  1.00  0.00     0.074 A 
ATOM     52  C   UNL A   1      40.406  25.657  27.988  1.00  0.00     0.031 C 
ATOM     53  C   UNL A   1      41.308  32.054  30.386  1.00  0.00     0.029 A 
ATOM     54  C   UNL A   1      42.502  31.214  30.337  1.00  0.00     0.049 A 
ATOM     55  H   UNL A   1      42.637  29.255  29.640  1.00  0.00     0.167 HD
ATOM     56  C   UNL A   1      42.830  25.162  28.189  1.00  0.00     0.037 A 
ATOM     57  C   UNL A   1      43.730  31.589  30.747  1.00  0.00     0.037 A 
ATOM     58  C   UNL A   1      44.193  25.504  28.517  1.00  0.00     0.049 A 
ATOM     59  C   UNL A   1      44.883  30.628  30.617  1.00  0.00     0.074 A 
ATOM     60  C   UNL A   1      45.333  24.731  28.369  1.00  0.00     0.029 A 
ATOM     61  N   UNL A   1      44.603  26.710  29.066  1.00  0.00    -0.354 N 
ATOM     62  N   UNL A   1      44.890  29.409  30.133  1.00  0.00    -0.248 NA
ATOM     63  C   UNL A   1      46.198  31.094  31.082  1.00  0.00     0.031 C 
ATOM     64  C   UNL A   1      46.421  25.445  28.880  1.00  0.00     0.029 A 
ATOM     65  C   UNL A   1      45.972  26.690  29.290  1.00  0.00     0.049 A 
ATOM     66  H   UNL A   1      44.010  27.470  29.268  1.00  0.00     0.167 HD
ATOM     67  C   UNL A   1      46.210  28.975  30.210  1.00  0.00     0.074 A 
ATOM     68  C   UNL A   1      46.976  30.067  30.772  1.00  0.00     0.031 C 
ATOM     69  C   UNL A   1      46.736  27.780  29.845  1.00  0.00     0.037 A 
BRANCH  56  70
ATOM     70  C   UNL A   1      42.566  23.774  27.662  1.00  0.00     0.058 A 
ATOM     71  C   UNL A   1      42.521  23.503  26.286  1.00  0.00     0.135 A 
ATOM     72  C   UNL A   1      42.423  22.689  28.545  1.00  0.00     0.135 A 
ATOM     73  F   UNL A   1      42.645  24.500  25.396  1.00  0.00    -0.206 F 
ATOM     74  C   UNL A   1      42.319  22.213  25.802  1.00  0.00     0.059 A 
ATOM     75  C   UNL A   1      42.249  21.386  28.083  1.00  0.00     0.059 A 
ATOM     76  F   UNL A   1      42.464  22.887  29.871  1.00  0.00    -0.206 F 
ATOM     77  C   UNL A   1      42.186  21.161  26.709  1.00  0.00     0.060 A 
BRANCH  77  78
ATOM     78  S   UNL A   1      41.935  19.493  26.063  1.00  0.00     0.124 S 
ATOM     79  O   UNL A   1      42.294  18.677  27.218  1.00  0.00    -0.237 OA
ATOM     80  O   UNL A   1      40.518  19.505  25.714  1.00  0.00    -0.237 OA
ATOM     81  O   UNL A   1      42.856  19.421  24.934  1.00  0.00    -0.744 OA
ENDBRANCH  77  78
ENDBRANCH  56  70
BRANCH  57  82
ATOM     82  C   UNL A   1      43.942  32.947  31.323  1.00  0.00     0.058 A 
ATOM     83  C   UNL A   1      43.867  33.173  32.706  1.00  0.00     0.135 A 
ATOM     84  C   UNL A   1      44.218  34.049  30.498  1.00  0.00     0.135 A 
ATOM     85  F   UNL A   1      43.593  32.156  33.538  1.00  0.00    -0.206 F 
ATOM     86  C   UNL A   1      44.036  34.443  33.248  1.00  0.00     0.059 A 
ATOM     87  C   UNL A   1      44.423  35.322  31.020  1.00  0.00     0.059 A 
ATOM     88  F   UNL A   1      44.314  33.887  29.169  1.00  0.00    -0.206 F 
ATOM     89  C   UNL A   1      44.317  35.512  32.396  1.00  0.00     0.060 A 
BRANCH  89  90
ATOM     90  S   UNL A   1      44.577  37.149  33.113  1.00  0.00     0.124 S 
ATOM     91  O   UNL A   1      43.679  37.114  34.261  1.00  0.00    -0.237 OA
ATOM     92  O   UNL A   1      46.005  37.128  33.416  1.00  0.00    -0.237 OA
ATOM     93  O   UNL A   1      44.187  38.053  32.034  1.00  0.00    -0.744 OA
ENDBRANCH  89  90
ENDBRANCH  57  82
BRANCH  69  94
ATOM     94  C   UNL A   1      48.223  27.592  30.006  1.00  0.00     0.058 A 
ATOM     95  C   UNL A   1      49.125  27.880  28.969  1.00  0.00     0.135 A 
ATOM     96  C   UNL A   1      48.757  27.163  31.233  1.00  0.00     0.135 A 
ATOM     97  F   UNL A   1      48.671  28.288  27.772  1.00  0.00    -0.206 F 
ATOM     98  C   UNL A   1      50.499  27.725  29.133  1.00  0.00     0.059 A 
ATOM     99  C   UNL A   1      50.128  27.030  31.430  1.00  0.00     0.059 A 
ATOM    100  F   UNL A   1      47.944  26.882  32.263  1.00  0.00    -0.206 F 
ATOM    101  C   UNL A   1      50.992  27.302  30.369  1.00  0.00     0.060 A 
BRANCH 101 102
ATOM    102  S   UNL A   1      52.778  27.137  30.578  1.00  0.00     0.124 S 
ATOM    103  O   UNL A   1      53.256  27.380  29.221  1.00  0.00    -0.237 OA
ATOM    104  O   UNL A   1      53.076  28.183  31.552  1.00  0.00    -0.237 OA
ATOM    105  O   UNL A   1      52.939  25.771  31.066  1.00  0.00    -0.744 OA
ENDBRANCH 101 102
ENDBRANCH  69  94
ENDBRANCH  43  44
ENDBRANCH  35  38
ENDBRANCH  33  34
ENDBRANCH  32  33
ENDBRANCH  31  32
ENDBRANCH   1  31
TORSDOF 19
ENDMDL
MODEL 3
REMARK VINA RESULT:     -12.3      2.847      8.722
REMARK SMILES NC(=O)[C@H]1CN(C(=O)CSc2ccccc2C(=O)NCCCCNC(=O)c2ccc(-c3c4nc(c(-c5c(F)cc(S(=O)(=O)[O-])cc5F)c5ccc([nH]5)c(-c5c(F)cc(S(=O)(=O)[O-])cc5F)c5nc(c(-c6c(F)cc(S(=O)(=O)[O-])cc6F)c6ccc3[nH]6)C=C5)C=C4)cc2)c2ccccc2O1
REMARK SMILES IDX 20 1 19 2 17 3 18 4 16 6 11 7 12 8 13 9 15 10 14 11 10 12
REMARK SMILES IDX 9 13 7 14 8 15 6 16 4 17 5 18 99 19 98 20 93 21 97 22 94 23
REMARK SMILES IDX 96 24 95 25 2 26 1 27 3 30 21 31 22 32 23 33 24 34 25 35
REMARK SMILES IDX 26 37 27 38 28 39 92 40 29 41 91 42 30 43 31 44 32 45 85 46
REMARK SMILES IDX 33 47 90 48 84 49 86 50 34 51 89 52 83 53 82 54 35 56 69 57
REMARK SMILES IDX 48 58 68 59 49 60 52 61 67 62 87 63 50 64 51 65 66 67 88 68
REMARK SMILES IDX 53 69 36 70 37 71 46 72 38 73 39 74 45 75 47 76 40 77 41 78
REMARK SMILES IDX 42 79 43 80 44 81 70 82 71 83 80 84 72 85 73 86 79 87 81 88
REMARK SMILES IDX 74 89 75 90 76 91 77 92 78 93 54 94 55 95 64 96 56 97 57 98
REMARK SMILES IDX 63 99 65 100 58 101 59 102 60 103 61 104 62 105
REMARK H PARENT 19 5 1 28 1 29 24 36 86 55 52 66
REMARK Flexibility Score: inf
ROOT
ATOM      1  C   UNL A   1      33.349  28.767  22.825  1.00  0.00     0.116 C 
ENDROOT
BRANCH   1   2
ATOM      2  N   UNL A   1      32.980  27.604  22.030  1.00  0.00    -0.352 N 
ATOM      3  C   UNL A   1      31.784  26.928  21.886  1.00  0.00     0.252 C 
ATOM      4  O   UNL A   1      31.749  25.935  21.161  1.00  0.00    -0.269 OA
ATOM      5  H   UNL A   1      33.719  27.231  21.497  1.00  0.00     0.163 HD
BRANCH   3   6
ATOM      6  C   UNL A   1      30.588  27.230  22.690  1.00  0.00     0.053 A 
ATOM      7  C   UNL A   1      29.911  26.372  23.550  1.00  0.00     0.020 A 
ATOM      8  C   UNL A   1      28.566  26.713  23.843  1.00  0.00     0.016 A 
ATOM      9  C   UNL A   1      27.999  27.938  23.468  1.00  0.00     0.001 A 
ATOM     10  C   UNL A   1      30.068  28.527  22.442  1.00  0.00     0.015 A 
ATOM     11  C   UNL A   1      28.786  28.888  22.841  1.00  0.00     0.001 A 
BRANCH   7  12
ATOM     12  S   UNL A   1      30.495  24.966  24.501  1.00  0.00    -0.115 SA
BRANCH  12  13
ATOM     13  C   UNL A   1      32.316  24.778  24.381  1.00  0.00     0.175 C 
BRANCH  13  14
ATOM     14  C   UNL A   1      33.052  23.974  25.431  1.00  0.00     0.237 C 
ATOM     15  O   UNL A   1      32.619  23.962  26.588  1.00  0.00    -0.274 OA
BRANCH  14  16
ATOM     16  N   UNL A   1      34.130  23.168  24.997  1.00  0.00    -0.304 N 
ATOM     17  C   UNL A   1      36.399  22.596  25.752  1.00  0.00     0.281 C 
ATOM     18  C   UNL A   1      35.563  23.556  24.893  1.00  0.00     0.181 C 
ATOM     19  O   UNL A   1      36.365  21.289  25.189  1.00  0.00    -0.477 OA
ATOM     20  C   UNL A   1      35.074  20.887  24.944  1.00  0.00     0.144 A 
ATOM     21  C   UNL A   1      33.967  21.754  24.825  1.00  0.00     0.086 A 
ATOM     22  C   UNL A   1      34.923  19.511  24.809  1.00  0.00     0.049 A 
ATOM     23  C   UNL A   1      32.731  21.209  24.474  1.00  0.00     0.030 A 
ATOM     24  C   UNL A   1      33.676  18.982  24.504  1.00  0.00     0.004 A 
ATOM     25  C   UNL A   1      32.589  19.831  24.311  1.00  0.00     0.002 A 
BRANCH  17  26
ATOM     26  C   UNL A   1      37.849  23.019  25.959  1.00  0.00     0.260 C 
ATOM     27  N   UNL A   1      38.708  22.043  26.370  1.00  0.00    -0.366 N 
ATOM     28  H   UNL A   1      39.657  22.254  26.521  1.00  0.00     0.159 HD
ATOM     29  H   UNL A   1      38.377  21.127  26.516  1.00  0.00     0.159 HD
ATOM     30  O   UNL A   1      38.233  24.188  25.906  1.00  0.00    -0.271 OA
ENDBRANCH  17  26
ENDBRANCH  14  16
ENDBRANCH  13  14
ENDBRANCH  12  13
ENDBRANCH   7  12
ENDBRANCH   3   6
ENDBRANCH   1   2
BRANCH   1  31
ATOM     31  C   UNL A   1      34.060  28.452  24.151  1.00  0.00     0.023 C 
BRANCH  31  32
ATOM     32  C   UNL A   1      33.354  27.859  25.399  1.00  0.00     0.023 C 
BRANCH  32  33
ATOM     33  C   UNL A   1      33.803  28.123  26.837  1.00  0.00     0.116 C 
BRANCH  33  34
ATOM     34  N   UNL A   1      33.540  29.465  27.314  1.00  0.00    -0.352 N 
ATOM     35  C   UNL A   1      34.361  30.344  27.986  1.00  0.00     0.251 C 
ATOM     36  H   UNL A   1      32.634  29.801  27.130  1.00  0.00     0.163 HD
ATOM     37  O   UNL A   1      33.896  31.420  28.359  1.00  0.00    -0.269 OA
BRANCH  35  38
ATOM     38  C   UNL A   1      35.775  30.020  28.311  1.00  0.00     0.039 A 
ATOM     39  C   UNL A   1      36.716  30.091  27.277  1.00  0.00     0.014 A 
ATOM     40  C   UNL A   1      36.182  29.568  29.572  1.00  0.00     0.014 A 
ATOM     41  C   UNL A   1      38.058  29.767  27.514  1.00  0.00     0.010 A 
ATOM     42  C   UNL A   1      37.538  29.283  29.818  1.00  0.00     0.010 A 
ATOM     43  C   UNL A   1      38.495  29.384  28.794  1.00  0.00    -0.014 A 
BRANCH  43  44
ATOM     44  C   UNL A   1      39.948  29.130  29.044  1.00  0.00     0.031 A 
ATOM     45  C   UNL A   1      40.583  27.800  28.718  1.00  0.00     0.074 A 
ATOM     46  C   UNL A   1      40.715  30.110  29.568  1.00  0.00     0.049 A 
ATOM     47  N   UNL A   1      41.833  27.428  28.846  1.00  0.00    -0.248 NA
ATOM     48  C   UNL A   1      39.699  26.751  28.189  1.00  0.00     0.031 C 
ATOM     49  C   UNL A   1      40.233  31.437  29.958  1.00  0.00     0.029 A 
ATOM     50  N   UNL A   1      42.058  30.149  29.862  1.00  0.00    -0.354 N 
ATOM     51  C   UNL A   1      41.889  26.106  28.413  1.00  0.00     0.074 A 
ATOM     52  C   UNL A   1      40.535  25.728  28.064  1.00  0.00     0.031 C 
ATOM     53  C   UNL A   1      41.264  32.165  30.414  1.00  0.00     0.029 A 
ATOM     54  C   UNL A   1      42.477  31.351  30.388  1.00  0.00     0.049 A 
ATOM     55  H   UNL A   1      42.664  29.389  29.710  1.00  0.00     0.167 HD
ATOM     56  C   UNL A   1      42.966  25.290  28.300  1.00  0.00     0.037 A 
ATOM     57  C   UNL A   1      43.692  31.758  30.810  1.00  0.00     0.037 A 
ATOM     58  C   UNL A   1      44.317  25.665  28.641  1.00  0.00     0.049 A 
ATOM     59  C   UNL A   1      44.867  30.821  30.703  1.00  0.00     0.074 A 
ATOM     60  C   UNL A   1      45.476  24.916  28.515  1.00  0.00     0.029 A 
ATOM     61  N   UNL A   1      44.694  26.884  29.184  1.00  0.00    -0.354 N 
ATOM     62  N   UNL A   1      44.907  29.598  30.230  1.00  0.00    -0.248 NA
ATOM     63  C   UNL A   1      46.165  31.321  31.180  1.00  0.00     0.031 C 
ATOM     64  C   UNL A   1      46.542  25.659  29.033  1.00  0.00     0.029 A 
ATOM     65  C   UNL A   1      46.060  26.897  29.425  1.00  0.00     0.049 A 
ATOM     66  H   UNL A   1      44.082  27.633  29.372  1.00  0.00     0.167 HD
ATOM     67  C   UNL A   1      46.235  29.195  30.327  1.00  0.00     0.074 A 
ATOM     68  C   UNL A   1      46.970  30.308  30.889  1.00  0.00     0.031 C 
ATOM     69  C   UNL A   1      46.793  28.009  29.979  1.00  0.00     0.037 A 
BRANCH  56  70
ATOM     70  C   UNL A   1      42.740  23.892  27.782  1.00  0.00     0.058 A 
ATOM     71  C   UNL A   1      42.581  22.800  28.650  1.00  0.00     0.135 A 
ATOM     72  C   UNL A   1      42.612  23.651  26.403  1.00  0.00     0.135 A 
ATOM     73  F   UNL A   1      42.700  22.968  29.977  1.00  0.00    -0.206 F 
ATOM     74  C   UNL A   1      42.331  21.517  28.171  1.00  0.00     0.059 A 
ATOM     75  C   UNL A   1      42.332  22.381  25.903  1.00  0.00     0.059 A 
ATOM     76  F   UNL A   1      42.746  24.657  25.526  1.00  0.00    -0.206 F 
ATOM     77  C   UNL A   1      42.206  21.318  26.796  1.00  0.00     0.060 A 
BRANCH  77  78
ATOM     78  S   UNL A   1      41.871  19.649  26.193  1.00  0.00     0.124 S 
ATOM     79  O   UNL A   1      42.674  19.611  24.976  1.00  0.00    -0.237 OA
ATOM     80  O   UNL A   1      42.351  18.818  27.293  1.00  0.00    -0.237 OA
ATOM     81  O   UNL A   1      40.425  19.642  25.990  1.00  0.00    -0.744 OA
ENDBRANCH  77  78
ENDBRANCH  56  70
BRANCH  57  82
ATOM     82  C   UNL A   1      43.866  33.124  31.376  1.00  0.00     0.058 A 
ATOM     83  C   UNL A   1      43.686  33.377  32.744  1.00  0.00     0.135 A 
ATOM     84  C   UNL A   1      44.210  34.211  30.555  1.00  0.00     0.135 A 
ATOM     85  F   UNL A   1      43.345  32.376  33.571  1.00  0.00    -0.206 F 
ATOM     86  C   UNL A   1      43.820  34.656  33.276  1.00  0.00     0.059 A 
ATOM     87  C   UNL A   1      44.381  35.492  31.068  1.00  0.00     0.059 A 
ATOM     88  F   UNL A   1      44.406  34.024  29.240  1.00  0.00    -0.206 F 
ATOM     89  C   UNL A   1      44.171  35.707  32.428  1.00  0.00     0.060 A 
BRANCH  89  90
ATOM     90  S   UNL A   1      44.384  37.357  33.133  1.00  0.00     0.124 S 
ATOM     91  O   UNL A   1      43.144  37.518  33.883  1.00  0.00    -0.237 OA
ATOM     92  O   UNL A   1      45.597  37.195  33.930  1.00  0.00    -0.237 OA
ATOM     93  O   UNL A   1      44.526  38.209  31.956  1.00  0.00    -0.744 OA
ENDBRANCH  89  90
ENDBRANCH  57  82
BRANCH  69  94
ATOM     94  C   UNL A   1      48.281  27.856  30.161  1.00  0.00     0.058 A 
ATOM     95  C   UNL A   1      48.837  27.360  31.351  1.00  0.00     0.135 A 
ATOM     96  C   UNL A   1      49.161  28.165  29.110  1.00  0.00     0.135 A 
ATOM     97  F   UNL A   1      48.044  27.054  32.392  1.00  0.00    -0.206 F 
ATOM     98  C   UNL A   1      50.212  27.201  31.503  1.00  0.00     0.059 A 
ATOM     99  C   UNL A   1      50.536  27.985  29.228  1.00  0.00     0.059 A 
ATOM    100  F   UNL A   1      48.686  28.633  27.946  1.00  0.00    -0.206 F 
ATOM    101  C   UNL A   1      51.054  27.513  30.434  1.00  0.00     0.060 A 
BRANCH 101 102
ATOM    102  S   UNL A   1      52.833  27.271  30.633  1.00  0.00     0.124 S 
ATOM    103  O   UNL A   1      52.913  25.825  30.819  1.00  0.00    -0.237 OA
ATOM    104  O   UNL A   1      53.360  27.778  29.370  1.00  0.00    -0.237 OA
ATOM    105  O   UNL A   1      53.156  28.074  31.808  1.00  0.00    -0.744 OA
ENDBRANCH 101 102
ENDBRANCH  69  94
ENDBRANCH  43  44
ENDBRANCH  35  38
ENDBRANCH  33  34
ENDBRANCH  32  33
ENDBRANCH  31  32
ENDBRANCH   1  31
TORSDOF 19
ENDMDL
