MODEL 1
REMARK VINA RESULT:     -12.8      0.000      0.000
REMARK SMILES Nc1ccc(-c2cc(Cl)cc3c2O[C@H](C(F)(F)F)C(C(=O)NCCCCNC(=O)c2ccc(-c4c5nc(c(-c6c(F)cc(S(=O)(=O)[O-])cc6F)c6ccc([nH]6)c(-c6c(F)cc(S(=O)(=O)[O-])cc6F)c6nc(c(-c7c(F)cc(S(=O)(=O)[O-])cc7F)c7ccc4[nH]7)C=C6)C=C5)cc2)=C3)cc1
REMARK SMILES IDX 25 1 24 2 23 3 22 4 20 5 21 6 19 8 6 9 7 10 12 11 8 12 11 13
REMARK SMILES IDX 13 14 9 15 10 16 96 17 14 18 5 19 2 20 3 21 98 22 4 23 97 24
REMARK SMILES IDX 1 25 15 28 16 29 17 30 18 31 26 32 27 33 28 34 29 36 30 37
REMARK SMILES IDX 31 38 95 39 32 40 94 41 33 42 34 43 35 44 88 45 36 46 93 47
REMARK SMILES IDX 87 48 89 49 37 50 92 51 86 52 85 53 38 55 72 56 51 57 71 58
REMARK SMILES IDX 52 59 55 60 70 61 90 62 53 63 54 64 69 66 91 67 56 68 39 69
REMARK SMILES IDX 40 70 49 71 41 72 42 73 48 74 50 75 43 76 44 77 45 78 46 79
REMARK SMILES IDX 47 80 73 81 74 82 83 83 75 84 76 85 82 86 84 87 77 88 78 89
REMARK SMILES IDX 79 90 80 91 81 92 57 93 58 94 67 95 59 96 60 97 66 98 68 99
REMARK SMILES IDX 61 100 62 101 63 102 64 103 65 104
REMARK H PARENT 22 7 1 26 1 27 27 35 89 54 55 65
REMARK Flexibility Score: inf
ROOT
ATOM      1  C   UNL A   1      32.669  28.759  26.292  1.00  0.00     0.023 C 
ENDROOT
BRANCH   1   2
ATOM      2  C   UNL A   1      33.023  28.384  24.849  1.00  0.00     0.023 C 
BRANCH   2   3
ATOM      3  C   UNL A   1      31.977  27.523  24.145  1.00  0.00     0.116 C 
BRANCH   3   4
ATOM      4  N   UNL A   1      31.057  26.896  25.081  1.00  0.00    -0.352 N 
ATOM      5  C   UNL A   1      30.954  25.703  25.714  1.00  0.00     0.251 C 
ATOM      6  O   UNL A   1      29.980  25.582  26.463  1.00  0.00    -0.270 OA
ATOM      7  H   UNL A   1      30.315  27.496  25.317  1.00  0.00     0.163 HD
BRANCH   5   8
ATOM      8  C   UNL A   1      31.908  24.564  25.570  1.00  0.00     0.067 C 
ATOM      9  C   UNL A   1      34.664  21.381  25.387  1.00  0.00     0.026 A 
ATOM     10  C   UNL A   1      36.029  21.662  25.538  1.00  0.00     0.033 A 
ATOM     11  C   UNL A   1      33.750  22.443  25.527  1.00  0.00     0.135 A 
ATOM     12  C   UNL A   1      36.456  22.963  25.817  1.00  0.00     0.042 A 
ATOM     13  C   UNL A   1      34.175  23.749  25.800  1.00  0.00     0.019 A 
ATOM     14  O   UNL A   1      32.413  22.144  25.450  1.00  0.00    -0.475 OA
ATOM     15  Cl  UNL A   1      38.138  23.282  26.000  1.00  0.00    -0.084 Cl
ATOM     16  C   UNL A   1      35.539  24.005  25.948  1.00  0.00     0.032 A 
ATOM     17  C   UNL A   1      33.179  24.806  25.948  1.00  0.00     0.025 C 
ATOM     18  C   UNL A   1      31.544  23.221  25.010  1.00  0.00     0.314 C 
BRANCH   9  19
ATOM     19  C   UNL A   1      34.205  20.020  25.069  1.00  0.00    -0.014 A 
ATOM     20  C   UNL A   1      33.320  17.453  24.263  1.00  0.00     0.031 A 
ATOM     21  C   UNL A   1      34.678  17.766  24.268  1.00  0.00     0.026 A 
ATOM     22  C   UNL A   1      32.415  18.403  24.740  1.00  0.00     0.026 A 
ATOM     23  C   UNL A   1      35.115  19.036  24.656  1.00  0.00     0.011 A 
ATOM     24  C   UNL A   1      32.848  19.678  25.128  1.00  0.00     0.011 A 
BRANCH  20  25
ATOM     25  N   UNL A   1      32.892  16.180  23.920  1.00  0.00    -0.399 N 
ATOM     26  H   UNL A   1      31.930  15.982  23.866  1.00  0.00     0.156 HD
ATOM     27  H   UNL A   1      33.552  15.473  23.731  1.00  0.00     0.156 HD
ENDBRANCH  20  25
ENDBRANCH   9  19
BRANCH  18  28
ATOM     28  C   UNL A   1      31.454  23.212  23.473  1.00  0.00     0.429 C 
ATOM     29  F   UNL A   1      30.212  23.579  23.067  1.00  0.00    -0.167 F 
ATOM     30  F   UNL A   1      32.319  24.076  22.895  1.00  0.00    -0.167 F 
ATOM     31  F   UNL A   1      31.702  21.992  22.941  1.00  0.00    -0.167 F 
ENDBRANCH  18  28
ENDBRANCH   5   8
ENDBRANCH   3   4
ENDBRANCH   2   3
ENDBRANCH   1   2
BRANCH   1  32
ATOM     32  C   UNL A   1      33.858  28.986  27.223  1.00  0.00     0.116 C 
BRANCH  32  33
ATOM     33  N   UNL A   1      33.805  30.232  27.977  1.00  0.00    -0.352 N 
ATOM     34  C   UNL A   1      34.817  30.812  28.712  1.00  0.00     0.251 C 
ATOM     35  H   UNL A   1      32.947  30.715  27.959  1.00  0.00     0.163 HD
ATOM     36  O   UNL A   1      34.613  31.831  29.364  1.00  0.00    -0.269 OA
BRANCH  34  37
ATOM     37  C   UNL A   1      36.134  30.144  28.747  1.00  0.00     0.039 A 
ATOM     38  C   UNL A   1      36.613  29.604  29.941  1.00  0.00     0.014 A 
ATOM     39  C   UNL A   1      36.935  30.159  27.602  1.00  0.00     0.014 A 
ATOM     40  C   UNL A   1      37.953  29.251  30.040  1.00  0.00     0.010 A 
ATOM     41  C   UNL A   1      38.263  29.728  27.685  1.00  0.00     0.010 A 
ATOM     42  C   UNL A   1      38.799  29.332  28.921  1.00  0.00    -0.014 A 
BRANCH  42  43
ATOM     43  C   UNL A   1      40.247  29.042  29.088  1.00  0.00     0.031 A 
ATOM     44  C   UNL A   1      40.814  27.708  28.674  1.00  0.00     0.074 A 
ATOM     45  C   UNL A   1      41.067  30.016  29.527  1.00  0.00     0.049 A 
ATOM     46  N   UNL A   1      42.058  27.300  28.698  1.00  0.00    -0.248 NA
ATOM     47  C   UNL A   1      39.866  26.700  28.170  1.00  0.00     0.031 C 
ATOM     48  C   UNL A   1      40.636  31.353  29.940  1.00  0.00     0.029 A 
ATOM     49  N   UNL A   1      42.431  30.050  29.661  1.00  0.00    -0.354 N 
ATOM     50  C   UNL A   1      42.040  25.990  28.231  1.00  0.00     0.074 A 
ATOM     51  C   UNL A   1      40.660  25.659  27.955  1.00  0.00     0.031 C 
ATOM     52  C   UNL A   1      41.717  32.096  30.218  1.00  0.00     0.029 A 
ATOM     53  C   UNL A   1      42.913  31.275  30.056  1.00  0.00     0.049 A 
ATOM     54  H   UNL A   1      43.009  29.271  29.490  1.00  0.00     0.167 HD
ATOM     55  C   UNL A   1      43.081  25.144  28.041  1.00  0.00     0.037 A 
ATOM     56  C   UNL A   1      44.176  31.691  30.268  1.00  0.00     0.037 A 
ATOM     57  C   UNL A   1      44.458  25.487  28.285  1.00  0.00     0.049 A 
ATOM     58  C   UNL A   1      45.310  30.728  30.071  1.00  0.00     0.074 A 
ATOM     59  C   UNL A   1      45.585  24.701  28.106  1.00  0.00     0.029 A 
ATOM     60  N   UNL A   1      44.899  26.716  28.750  1.00  0.00    -0.354 N 
ATOM     61  N   UNL A   1      45.269  29.488  29.648  1.00  0.00    -0.248 NA
ATOM     62  C   UNL A   1      46.658  31.213  30.398  1.00  0.00     0.031 C 
ATOM     63  C   UNL A   1      46.704  25.448  28.490  1.00  0.00     0.029 A 
ATOM     64  C   UNL A   1      46.277  26.706  28.879  1.00  0.00     0.049 A 
ATOM     65  H   UNL A   1      44.316  27.482  28.958  1.00  0.00     0.167 HD
ATOM     66  C   UNL A   1      46.584  29.040  29.662  1.00  0.00     0.074 A 
ATOM     67  C   UNL A   1      47.400  30.151  30.112  1.00  0.00     0.031 C 
ATOM     68  C   UNL A   1      47.070  27.818  29.340  1.00  0.00     0.037 A 
BRANCH  55  69
ATOM     69  C   UNL A   1      42.778  23.759  27.544  1.00  0.00     0.058 A 
ATOM     70  C   UNL A   1      42.790  23.451  26.176  1.00  0.00     0.135 A 
ATOM     71  C   UNL A   1      42.531  22.715  28.451  1.00  0.00     0.135 A 
ATOM     72  F   UNL A   1      43.003  24.416  25.267  1.00  0.00    -0.206 F 
ATOM     73  C   UNL A   1      42.555  22.157  25.721  1.00  0.00     0.059 A 
ATOM     74  C   UNL A   1      42.312  21.410  28.019  1.00  0.00     0.059 A 
ATOM     75  F   UNL A   1      42.506  22.958  29.770  1.00  0.00    -0.206 F 
ATOM     76  C   UNL A   1      42.317  21.143  26.650  1.00  0.00     0.060 A 
BRANCH  76  77
ATOM     77  S   UNL A   1      42.026  19.467  26.044  1.00  0.00     0.124 S 
ATOM     78  O   UNL A   1      42.437  18.667  27.194  1.00  0.00    -0.237 OA
ATOM     79  O   UNL A   1      40.594  19.480  25.762  1.00  0.00    -0.237 OA
ATOM     80  O   UNL A   1      42.892  19.373  24.873  1.00  0.00    -0.744 OA
ENDBRANCH  76  77
ENDBRANCH  55  69
BRANCH  56  81
ATOM     81  C   UNL A   1      44.423  33.093  30.689  1.00  0.00     0.058 A 
ATOM     82  C   UNL A   1      44.520  33.429  32.047  1.00  0.00     0.135 A 
ATOM     83  C   UNL A   1      44.612  34.112  29.744  1.00  0.00     0.135 A 
ATOM     84  F   UNL A   1      44.340  32.488  32.986  1.00  0.00    -0.206 F 
ATOM     85  C   UNL A   1      44.800  34.729  32.454  1.00  0.00     0.059 A 
ATOM     86  C   UNL A   1      44.914  35.414  30.126  1.00  0.00     0.059 A 
ATOM     87  F   UNL A   1      44.543  33.834  28.432  1.00  0.00    -0.206 F 
ATOM     88  C   UNL A   1      45.001  35.714  31.485  1.00  0.00     0.060 A 
BRANCH  88  89
ATOM     89  S   UNL A   1      45.440  37.382  32.019  1.00  0.00     0.124 S 
ATOM     90  O   UNL A   1      45.997  37.944  30.794  1.00  0.00    -0.237 OA
ATOM     91  O   UNL A   1      44.151  37.921  32.441  1.00  0.00    -0.237 OA
ATOM     92  O   UNL A   1      46.393  37.146  33.099  1.00  0.00    -0.744 OA
ENDBRANCH  88  89
ENDBRANCH  56  81
BRANCH  68  93
ATOM     93  C   UNL A   1      48.550  27.607  29.474  1.00  0.00     0.058 A 
ATOM     94  C   UNL A   1      49.095  27.015  30.623  1.00  0.00     0.135 A 
ATOM     95  C   UNL A   1      49.420  27.936  28.423  1.00  0.00     0.135 A 
ATOM     96  F   UNL A   1      48.302  26.690  31.656  1.00  0.00    -0.206 F 
ATOM     97  C   UNL A   1      50.458  26.762  30.729  1.00  0.00     0.059 A 
ATOM     98  C   UNL A   1      50.784  27.676  28.501  1.00  0.00     0.059 A 
ATOM     99  F   UNL A   1      48.943  28.499  27.302  1.00  0.00    -0.206 F 
ATOM    100  C   UNL A   1      51.295  27.093  29.661  1.00  0.00     0.060 A 
BRANCH 100 101
ATOM    101  S   UNL A   1      53.054  26.711  29.791  1.00  0.00     0.124 S 
ATOM    102  O   UNL A   1      53.308  26.054  28.513  1.00  0.00    -0.237 OA
ATOM    103  O   UNL A   1      53.651  28.033  29.954  1.00  0.00    -0.237 OA
ATOM    104  O   UNL A   1      53.128  25.848  30.966  1.00  0.00    -0.744 OA
ENDBRANCH 100 101
ENDBRANCH  68  93
ENDBRANCH  42  43
ENDBRANCH  34  37
ENDBRANCH  32  33
ENDBRANCH   1  32
TORSDOF 17
ENDMDL
MODEL 2
REMARK VINA RESULT:     -12.5      3.496      9.589
REMARK SMILES Nc1ccc(-c2cc(Cl)cc3c2O[C@H](C(F)(F)F)C(C(=O)NCCCCNC(=O)c2ccc(-c4c5nc(c(-c6c(F)cc(S(=O)(=O)[O-])cc6F)c6ccc([nH]6)c(-c6c(F)cc(S(=O)(=O)[O-])cc6F)c6nc(c(-c7c(F)cc(S(=O)(=O)[O-])cc7F)c7ccc4[nH]7)C=C6)C=C5)cc2)=C3)cc1
REMARK SMILES IDX 25 1 24 2 23 3 22 4 20 5 21 6 19 8 6 9 7 10 12 11 8 12 11 13
REMARK SMILES IDX 13 14 9 15 10 16 96 17 14 18 5 19 2 20 3 21 98 22 4 23 97 24
REMARK SMILES IDX 1 25 15 28 16 29 17 30 18 31 26 32 27 33 28 34 29 36 30 37
REMARK SMILES IDX 31 38 95 39 32 40 94 41 33 42 34 43 35 44 88 45 36 46 93 47
REMARK SMILES IDX 87 48 89 49 37 50 92 51 86 52 85 53 38 55 72 56 51 57 71 58
REMARK SMILES IDX 52 59 55 60 70 61 90 62 53 63 54 64 69 66 91 67 56 68 39 69
REMARK SMILES IDX 40 70 49 71 41 72 42 73 48 74 50 75 43 76 44 77 45 78 46 79
REMARK SMILES IDX 47 80 73 81 74 82 83 83 75 84 76 85 82 86 84 87 77 88 78 89
REMARK SMILES IDX 79 90 80 91 81 92 57 93 58 94 67 95 59 96 60 97 66 98 68 99
REMARK SMILES IDX 61 100 62 101 63 102 64 103 65 104
REMARK H PARENT 22 7 1 26 1 27 27 35 89 54 55 65
REMARK Flexibility Score: inf
ROOT
ATOM      1  C   UNL A   1      35.835  23.317  26.132  1.00  0.00     0.023 C 
ENDROOT
BRANCH   1   2
ATOM      2  C   UNL A   1      35.018  22.039  25.917  1.00  0.00     0.023 C 
BRANCH   2   3
ATOM      3  C   UNL A   1      33.659  22.262  25.257  1.00  0.00     0.116 C 
BRANCH   3   4
ATOM      4  N   UNL A   1      33.772  22.506  23.828  1.00  0.00    -0.352 N 
ATOM      5  C   UNL A   1      33.568  23.545  22.984  1.00  0.00     0.251 C 
ATOM      6  O   UNL A   1      33.803  23.317  21.794  1.00  0.00    -0.270 OA
ATOM      7  H   UNL A   1      34.078  21.704  23.347  1.00  0.00     0.163 HD
BRANCH   5   8
ATOM      8  C   UNL A   1      33.094  24.902  23.387  1.00  0.00     0.067 C 
ATOM      9  C   UNL A   1      31.967  28.816  24.468  1.00  0.00     0.026 A 
ATOM     10  C   UNL A   1      32.600  29.421  25.564  1.00  0.00     0.033 A 
ATOM     11  C   UNL A   1      32.408  27.538  24.072  1.00  0.00     0.135 A 
ATOM     12  C   UNL A   1      33.634  28.763  26.235  1.00  0.00     0.042 A 
ATOM     13  C   UNL A   1      33.440  26.874  24.746  1.00  0.00     0.019 A 
ATOM     14  O   UNL A   1      31.833  26.988  22.954  1.00  0.00    -0.475 OA
ATOM     15  Cl  UNL A   1      34.396  29.527  27.576  1.00  0.00    -0.084 Cl
ATOM     16  C   UNL A   1      34.056  27.496  25.833  1.00  0.00     0.032 A 
ATOM     17  C   UNL A   1      33.863  25.556  24.280  1.00  0.00     0.025 C 
ATOM     18  C   UNL A   1      31.828  25.538  22.891  1.00  0.00     0.314 C 
BRANCH   9  19
ATOM     19  C   UNL A   1      30.862  29.490  23.769  1.00  0.00    -0.014 A 
ATOM     20  C   UNL A   1      28.606  30.674  22.533  1.00  0.00     0.031 A 
ATOM     21  C   UNL A   1      29.092  31.167  23.743  1.00  0.00     0.026 A 
ATOM     22  C   UNL A   1      29.302  29.638  21.907  1.00  0.00     0.026 A 
ATOM     23  C   UNL A   1      30.200  30.578  24.359  1.00  0.00     0.011 A 
ATOM     24  C   UNL A   1      30.410  29.042  22.521  1.00  0.00     0.011 A 
BRANCH  20  25
ATOM     25  N   UNL A   1      27.535  31.288  21.903  1.00  0.00    -0.399 N 
ATOM     26  H   UNL A   1      27.123  32.089  22.300  1.00  0.00     0.156 HD
ATOM     27  H   UNL A   1      27.185  30.923  21.058  1.00  0.00     0.156 HD
ENDBRANCH  20  25
ENDBRANCH   9  19
BRANCH  18  28
ATOM     28  C   UNL A   1      30.567  24.997  23.589  1.00  0.00     0.429 C 
ATOM     29  F   UNL A   1      30.830  24.708  24.889  1.00  0.00    -0.167 F 
ATOM     30  F   UNL A   1      29.550  25.889  23.591  1.00  0.00    -0.167 F 
ATOM     31  F   UNL A   1      30.097  23.865  23.017  1.00  0.00    -0.167 F 
ENDBRANCH  18  28
ENDBRANCH   5   8
ENDBRANCH   3   4
ENDBRANCH   2   3
ENDBRANCH   1   2
BRANCH   1  32
ATOM     32  C   UNL A   1      36.992  23.531  25.159  1.00  0.00     0.116 C 
BRANCH  32  33
ATOM     33  N   UNL A   1      38.128  22.642  25.366  1.00  0.00    -0.352 N 
ATOM     34  C   UNL A   1      39.284  22.907  26.068  1.00  0.00     0.251 C 
ATOM     35  H   UNL A   1      38.062  21.749  24.957  1.00  0.00     0.163 HD
ATOM     36  O   UNL A   1      40.199  22.091  26.101  1.00  0.00    -0.269 OA
BRANCH  34  37
ATOM     37  C   UNL A   1      39.421  24.222  26.728  1.00  0.00     0.039 A 
ATOM     38  C   UNL A   1      40.172  25.232  26.125  1.00  0.00     0.014 A 
ATOM     39  C   UNL A   1      38.885  24.401  28.006  1.00  0.00     0.014 A 
ATOM     40  C   UNL A   1      40.543  26.343  26.872  1.00  0.00     0.010 A 
ATOM     41  C   UNL A   1      39.196  25.559  28.727  1.00  0.00     0.010 A 
ATOM     42  C   UNL A   1      40.080  26.508  28.189  1.00  0.00    -0.014 A 
BRANCH  42  43
ATOM     43  C   UNL A   1      40.577  27.656  28.990  1.00  0.00     0.031 A 
ATOM     44  C   UNL A   1      39.701  28.859  29.233  1.00  0.00     0.074 A 
ATOM     45  C   UNL A   1      41.786  27.573  29.579  1.00  0.00     0.049 A 
ATOM     46  N   UNL A   1      39.948  29.925  29.949  1.00  0.00    -0.248 NA
ATOM     47  C   UNL A   1      38.377  28.868  28.587  1.00  0.00     0.031 C 
ATOM     48  C   UNL A   1      42.716  26.451  29.432  1.00  0.00     0.029 A 
ATOM     49  N   UNL A   1      42.423  28.423  30.446  1.00  0.00    -0.354 N 
ATOM     50  C   UNL A   1      38.825  30.737  29.828  1.00  0.00     0.074 A 
ATOM     51  C   UNL A   1      37.903  30.053  28.949  1.00  0.00     0.031 C 
ATOM     52  C   UNL A   1      43.773  26.651  30.234  1.00  0.00     0.029 A 
ATOM     53  C   UNL A   1      43.623  27.937  30.908  1.00  0.00     0.049 A 
ATOM     54  H   UNL A   1      42.056  29.297  30.712  1.00  0.00     0.167 HD
ATOM     55  C   UNL A   1      38.581  31.937  30.406  1.00  0.00     0.037 A 
ATOM     56  C   UNL A   1      44.506  28.467  31.775  1.00  0.00     0.037 A 
ATOM     57  C   UNL A   1      39.486  32.601  31.308  1.00  0.00     0.049 A 
ATOM     58  C   UNL A   1      44.222  29.809  32.385  1.00  0.00     0.074 A 
ATOM     59  C   UNL A   1      39.319  33.814  31.957  1.00  0.00     0.029 A 
ATOM     60  N   UNL A   1      40.722  32.108  31.697  1.00  0.00    -0.354 N 
ATOM     61  N   UNL A   1      43.163  30.568  32.242  1.00  0.00    -0.248 NA
ATOM     62  C   UNL A   1      45.260  30.376  33.257  1.00  0.00     0.031 C 
ATOM     63  C   UNL A   1      40.467  34.065  32.716  1.00  0.00     0.029 A 
ATOM     64  C   UNL A   1      41.334  32.996  32.564  1.00  0.00     0.049 A 
ATOM     65  H   UNL A   1      41.106  31.251  31.400  1.00  0.00     0.167 HD
ATOM     66  C   UNL A   1      43.407  31.705  33.002  1.00  0.00     0.074 A 
ATOM     67  C   UNL A   1      44.704  31.524  33.622  1.00  0.00     0.031 C 
ATOM     68  C   UNL A   1      42.631  32.803  33.163  1.00  0.00     0.037 A 
BRANCH  55  69
ATOM     69  C   UNL A   1      37.282  32.621  30.084  1.00  0.00     0.058 A 
ATOM     70  C   UNL A   1      36.108  32.340  30.798  1.00  0.00     0.135 A 
ATOM     71  C   UNL A   1      37.225  33.609  29.087  1.00  0.00     0.135 A 
ATOM     72  F   UNL A   1      36.105  31.391  31.748  1.00  0.00    -0.206 F 
ATOM     73  C   UNL A   1      34.917  33.008  30.528  1.00  0.00     0.059 A 
ATOM     74  C   UNL A   1      36.050  34.303  28.814  1.00  0.00     0.059 A 
ATOM     75  F   UNL A   1      38.320  33.913  28.373  1.00  0.00    -0.206 F 
ATOM     76  C   UNL A   1      34.898  33.988  29.534  1.00  0.00     0.060 A 
BRANCH  76  77
ATOM     77  S   UNL A   1      33.347  34.854  29.206  1.00  0.00     0.124 S 
ATOM     78  O   UNL A   1      33.832  36.114  28.652  1.00  0.00    -0.237 OA
ATOM     79  O   UNL A   1      32.684  33.960  28.261  1.00  0.00    -0.237 OA
ATOM     80  O   UNL A   1      32.723  34.945  30.522  1.00  0.00    -0.744 OA
ENDBRANCH  76  77
ENDBRANCH  55  69
BRANCH  56  81
ATOM     81  C   UNL A   1      45.740  27.716  32.113  1.00  0.00     0.058 A 
ATOM     82  C   UNL A   1      45.744  26.761  33.140  1.00  0.00     0.135 A 
ATOM     83  C   UNL A   1      46.926  27.904  31.387  1.00  0.00     0.135 A 
ATOM     84  F   UNL A   1      44.634  26.552  33.864  1.00  0.00    -0.206 F 
ATOM     85  C   UNL A   1      46.880  26.015  33.434  1.00  0.00     0.059 A 
ATOM     86  C   UNL A   1      48.069  27.157  31.648  1.00  0.00     0.059 A 
ATOM     87  F   UNL A   1      46.966  28.798  30.386  1.00  0.00    -0.206 F 
ATOM     88  C   UNL A   1      48.036  26.217  32.678  1.00  0.00     0.060 A 
BRANCH  88  89
ATOM     89  S   UNL A   1      49.485  25.191  33.015  1.00  0.00     0.124 S 
ATOM     90  O   UNL A   1      50.338  26.121  33.744  1.00  0.00    -0.237 OA
ATOM     91  O   UNL A   1      48.914  24.099  33.797  1.00  0.00    -0.237 OA
ATOM     92  O   UNL A   1      49.947  24.819  31.681  1.00  0.00    -0.744 OA
ENDBRANCH  88  89
ENDBRANCH  56  81
BRANCH  68  93
ATOM     93  C   UNL A   1      43.165  33.903  34.033  1.00  0.00     0.058 A 
ATOM     94  C   UNL A   1      44.024  34.883  33.514  1.00  0.00     0.135 A 
ATOM     95  C   UNL A   1      42.764  34.017  35.373  1.00  0.00     0.135 A 
ATOM     96  F   UNL A   1      44.440  34.811  32.240  1.00  0.00    -0.206 F 
ATOM     97  C   UNL A   1      44.474  35.939  34.299  1.00  0.00     0.059 A 
ATOM     98  C   UNL A   1      43.188  35.074  36.171  1.00  0.00     0.059 A 
ATOM     99  F   UNL A   1      41.937  33.106  35.911  1.00  0.00    -0.206 F 
ATOM    100  C   UNL A   1      44.048  36.028  35.626  1.00  0.00     0.060 A 
BRANCH 100 101
ATOM    101  S   UNL A   1      44.600  37.431  36.618  1.00  0.00     0.124 S 
ATOM    102  O   UNL A   1      46.048  37.348  36.464  1.00  0.00    -0.237 OA
ATOM    103  O   UNL A   1      43.954  38.559  35.953  1.00  0.00    -0.237 OA
ATOM    104  O   UNL A   1      44.091  37.125  37.952  1.00  0.00    -0.744 OA
ENDBRANCH 100 101
ENDBRANCH  68  93
ENDBRANCH  42  43
ENDBRANCH  34  37
ENDBRANCH  32  33
ENDBRANCH   1  32
TORSDOF 17
ENDMDL
MODEL 3
REMARK VINA RESULT:     -12.4      3.361      8.716
REMARK SMILES Nc1ccc(-c2cc(Cl)cc3c2O[C@H](C(F)(F)F)C(C(=O)NCCCCNC(=O)c2ccc(-c4c5nc(c(-c6c(F)cc(S(=O)(=O)[O-])cc6F)c6ccc([nH]6)c(-c6c(F)cc(S(=O)(=O)[O-])cc6F)c6nc(c(-c7c(F)cc(S(=O)(=O)[O-])cc7F)c7ccc4[nH]7)C=C6)C=C5)cc2)=C3)cc1
REMARK SMILES IDX 25 1 24 2 23 3 22 4 20 5 21 6 19 8 6 9 7 10 12 11 8 12 11 13
REMARK SMILES IDX 13 14 9 15 10 16 96 17 14 18 5 19 2 20 3 21 98 22 4 23 97 24
REMARK SMILES IDX 1 25 15 28 16 29 17 30 18 31 26 32 27 33 28 34 29 36 30 37
REMARK SMILES IDX 31 38 95 39 32 40 94 41 33 42 34 43 35 44 88 45 36 46 93 47
REMARK SMILES IDX 87 48 89 49 37 50 92 51 86 52 85 53 38 55 72 56 51 57 71 58
REMARK SMILES IDX 52 59 55 60 70 61 90 62 53 63 54 64 69 66 91 67 56 68 39 69
REMARK SMILES IDX 40 70 49 71 41 72 42 73 48 74 50 75 43 76 44 77 45 78 46 79
REMARK SMILES IDX 47 80 73 81 74 82 83 83 75 84 76 85 82 86 84 87 77 88 78 89
REMARK SMILES IDX 79 90 80 91 81 92 57 93 58 94 67 95 59 96 60 97 66 98 68 99
REMARK SMILES IDX 61 100 62 101 63 102 64 103 65 104
REMARK H PARENT 22 7 1 26 1 27 27 35 89 54 55 65
REMARK Flexibility Score: inf
ROOT
ATOM      1  C   UNL A   1      36.009  23.292  26.247  1.00  0.00     0.023 C 
ENDROOT
BRANCH   1   2
ATOM      2  C   UNL A   1      35.328  21.926  26.116  1.00  0.00     0.023 C 
BRANCH   2   3
ATOM      3  C   UNL A   1      34.045  21.937  25.288  1.00  0.00     0.116 C 
BRANCH   3   4
ATOM      4  N   UNL A   1      34.299  22.185  23.878  1.00  0.00    -0.352 N 
ATOM      5  C   UNL A   1      34.083  23.191  22.998  1.00  0.00     0.251 C 
ATOM      6  O   UNL A   1      34.482  22.985  21.847  1.00  0.00    -0.270 OA
ATOM      7  H   UNL A   1      34.747  21.420  23.450  1.00  0.00     0.163 HD
BRANCH   5   8
ATOM      8  C   UNL A   1      33.417  24.488  23.317  1.00  0.00     0.067 C 
ATOM      9  C   UNL A   1      31.739  28.257  24.177  1.00  0.00     0.026 A 
ATOM     10  C   UNL A   1      32.211  28.966  25.291  1.00  0.00     0.033 A 
ATOM     11  C   UNL A   1      32.362  27.035  23.858  1.00  0.00     0.135 A 
ATOM     12  C   UNL A   1      33.266  28.462  26.055  1.00  0.00     0.042 A 
ATOM     13  C   UNL A   1      33.416  26.524  24.625  1.00  0.00     0.019 A 
ATOM     14  O   UNL A   1      31.943  26.386  22.724  1.00  0.00    -0.475 OA
ATOM     15  Cl  UNL A   1      33.828  29.352  27.418  1.00  0.00    -0.084 Cl
ATOM     16  C   UNL A   1      33.870  27.247  25.729  1.00  0.00     0.032 A 
ATOM     17  C   UNL A   1      34.032  25.258  24.237  1.00  0.00     0.025 C 
ATOM     18  C   UNL A   1      32.122  24.946  22.712  1.00  0.00     0.314 C 
BRANCH   9  19
ATOM     19  C   UNL A   1      30.613  28.767  23.380  1.00  0.00    -0.014 A 
ATOM     20  C   UNL A   1      28.438  29.908  21.969  1.00  0.00     0.031 A 
ATOM     21  C   UNL A   1      29.749  30.282  21.676  1.00  0.00     0.026 A 
ATOM     22  C   UNL A   1      28.227  28.904  22.916  1.00  0.00     0.026 A 
ATOM     23  C   UNL A   1      30.822  29.726  22.377  1.00  0.00     0.011 A 
ATOM     24  C   UNL A   1      29.300  28.346  23.624  1.00  0.00     0.011 A 
BRANCH  20  25
ATOM     25  N   UNL A   1      27.379  30.428  21.242  1.00  0.00    -0.399 N 
ATOM     26  H   UNL A   1      27.426  30.462  20.260  1.00  0.00     0.156 HD
ATOM     27  H   UNL A   1      26.579  30.763  21.709  1.00  0.00     0.156 HD
ENDBRANCH  20  25
ENDBRANCH   9  19
BRANCH  18  28
ATOM     28  C   UNL A   1      30.890  24.270  23.342  1.00  0.00     0.429 C 
ATOM     29  F   UNL A   1      30.774  22.990  22.905  1.00  0.00    -0.167 F 
ATOM     30  F   UNL A   1      30.961  24.211  24.691  1.00  0.00    -0.167 F 
ATOM     31  F   UNL A   1      29.733  24.901  23.036  1.00  0.00    -0.167 F 
ENDBRANCH  18  28
ENDBRANCH   5   8
ENDBRANCH   3   4
ENDBRANCH   2   3
ENDBRANCH   1   2
BRANCH   1  32
ATOM     32  C   UNL A   1      37.150  23.557  25.266  1.00  0.00     0.116 C 
BRANCH  32  33
ATOM     33  N   UNL A   1      38.330  22.729  25.475  1.00  0.00    -0.352 N 
ATOM     34  C   UNL A   1      39.457  23.041  26.204  1.00  0.00     0.251 C 
ATOM     35  H   UNL A   1      38.321  21.843  25.045  1.00  0.00     0.163 HD
ATOM     36  O   UNL A   1      40.416  22.278  26.236  1.00  0.00    -0.269 OA
BRANCH  34  37
ATOM     37  C   UNL A   1      39.508  24.346  26.895  1.00  0.00     0.039 A 
ATOM     38  C   UNL A   1      40.198  25.415  26.321  1.00  0.00     0.014 A 
ATOM     39  C   UNL A   1      38.955  24.462  28.173  1.00  0.00     0.014 A 
ATOM     40  C   UNL A   1      40.495  26.529  27.097  1.00  0.00     0.010 A 
ATOM     41  C   UNL A   1      39.189  25.619  28.923  1.00  0.00     0.010 A 
ATOM     42  C   UNL A   1      40.016  26.633  28.413  1.00  0.00    -0.014 A 
BRANCH  42  43
ATOM     43  C   UNL A   1      40.435  27.791  29.245  1.00  0.00     0.031 A 
ATOM     44  C   UNL A   1      41.838  27.873  29.794  1.00  0.00     0.074 A 
ATOM     45  C   UNL A   1      39.579  28.815  29.429  1.00  0.00     0.049 A 
ATOM     46  N   UNL A   1      42.393  28.830  30.492  1.00  0.00    -0.248 NA
ATOM     47  C   UNL A   1      42.732  26.734  29.526  1.00  0.00     0.031 C 
ATOM     48  C   UNL A   1      38.202  28.857  28.931  1.00  0.00     0.029 A 
ATOM     49  N   UNL A   1      39.748  30.028  30.044  1.00  0.00    -0.354 N 
ATOM     50  C   UNL A   1      43.690  28.406  30.761  1.00  0.00     0.074 A 
ATOM     51  C   UNL A   1      43.833  27.092  30.173  1.00  0.00     0.031 C 
ATOM     52  C   UNL A   1      37.675  30.060  29.203  1.00  0.00     0.029 A 
ATOM     53  C   UNL A   1      38.653  30.853  29.940  1.00  0.00     0.049 A 
ATOM     54  H   UNL A   1      40.574  30.283  30.515  1.00  0.00     0.167 HD
ATOM     55  C   UNL A   1      44.672  29.056  31.428  1.00  0.00     0.037 A 
ATOM     56  C   UNL A   1      38.457  32.107  30.390  1.00  0.00     0.037 A 
ATOM     57  C   UNL A   1      44.538  30.378  31.984  1.00  0.00     0.049 A 
ATOM     58  C   UNL A   1      39.555  32.797  31.145  1.00  0.00     0.074 A 
ATOM     59  C   UNL A   1      45.485  31.126  32.663  1.00  0.00     0.029 A 
ATOM     60  N   UNL A   1      43.391  31.153  31.916  1.00  0.00    -0.354 N 
ATOM     61  N   UNL A   1      40.767  32.369  31.405  1.00  0.00    -0.248 NA
ATOM     62  C   UNL A   1      39.254  34.130  31.684  1.00  0.00     0.031 C 
ATOM     63  C   UNL A   1      44.899  32.343  33.031  1.00  0.00     0.029 A 
ATOM     64  C   UNL A   1      43.599  32.363  32.554  1.00  0.00     0.049 A 
ATOM     65  H   UNL A   1      42.551  30.881  31.479  1.00  0.00     0.167 HD
ATOM     66  C   UNL A   1      41.373  33.378  32.143  1.00  0.00     0.074 A 
ATOM     67  C   UNL A   1      40.403  34.448  32.267  1.00  0.00     0.031 C 
ATOM     68  C   UNL A   1      42.618  33.411  32.677  1.00  0.00     0.037 A 
BRANCH  55  69
ATOM     69  C   UNL A   1      45.989  28.351  31.601  1.00  0.00     0.058 A 
ATOM     70  C   UNL A   1      46.230  27.502  32.691  1.00  0.00     0.135 A 
ATOM     71  C   UNL A   1      46.999  28.482  30.634  1.00  0.00     0.135 A 
ATOM     72  F   UNL A   1      45.304  27.357  33.652  1.00  0.00    -0.206 F 
ATOM     73  C   UNL A   1      47.433  26.815  32.824  1.00  0.00     0.059 A 
ATOM     74  C   UNL A   1      48.202  27.790  30.737  1.00  0.00     0.059 A 
ATOM     75  F   UNL A   1      46.819  29.285  29.573  1.00  0.00    -0.206 F 
ATOM     76  C   UNL A   1      48.413  26.965  31.841  1.00  0.00     0.060 A 
BRANCH  76  77
ATOM     77  S   UNL A   1      49.963  26.056  32.022  1.00  0.00     0.124 S 
ATOM     78  O   UNL A   1      49.733  25.338  33.272  1.00  0.00    -0.237 OA
ATOM     79  O   UNL A   1      49.986  25.235  30.816  1.00  0.00    -0.237 OA
ATOM     80  O   UNL A   1      50.971  27.110  32.081  1.00  0.00    -0.744 OA
ENDBRANCH  76  77
ENDBRANCH  55  69
BRANCH  56  81
ATOM     81  C   UNL A   1      37.162  32.782  30.129  1.00  0.00     0.058 A 
ATOM     82  C   UNL A   1      36.077  32.621  31.003  1.00  0.00     0.135 A 
ATOM     83  C   UNL A   1      36.997  33.637  29.029  1.00  0.00     0.135 A 
ATOM     84  F   UNL A   1      36.187  31.809  32.065  1.00  0.00    -0.206 F 
ATOM     85  C   UNL A   1      34.874  33.287  30.798  1.00  0.00     0.059 A 
ATOM     86  C   UNL A   1      35.811  34.330  28.813  1.00  0.00     0.059 A 
ATOM     87  F   UNL A   1      38.013  33.833  28.172  1.00  0.00    -0.206 F 
ATOM     88  C   UNL A   1      34.753  34.145  29.702  1.00  0.00     0.060 A 
BRANCH  88  89
ATOM     89  S   UNL A   1      33.214  35.065  29.485  1.00  0.00     0.124 S 
ATOM     90  O   UNL A   1      32.552  34.285  28.447  1.00  0.00    -0.237 OA
ATOM     91  O   UNL A   1      32.621  34.993  30.816  1.00  0.00    -0.237 OA
ATOM     92  O   UNL A   1      33.673  36.391  29.085  1.00  0.00    -0.744 OA
ENDBRANCH  88  89
ENDBRANCH  56  81
BRANCH  68  93
ATOM     93  C   UNL A   1      43.001  34.634  33.457  1.00  0.00     0.058 A 
ATOM     94  C   UNL A   1      42.936  34.649  34.858  1.00  0.00     0.135 A 
ATOM     95  C   UNL A   1      43.499  35.774  32.806  1.00  0.00     0.135 A 
ATOM     96  F   UNL A   1      42.459  33.585  35.523  1.00  0.00    -0.206 F 
ATOM     97  C   UNL A   1      43.347  35.757  35.589  1.00  0.00     0.059 A 
ATOM     98  C   UNL A   1      43.932  36.886  33.518  1.00  0.00     0.059 A 
ATOM     99  F   UNL A   1      43.586  35.803  31.466  1.00  0.00    -0.206 F 
ATOM    100  C   UNL A   1      43.847  36.871  34.911  1.00  0.00     0.060 A 
BRANCH 100 101
ATOM    101  S   UNL A   1      44.424  38.284  35.875  1.00  0.00     0.124 S 
ATOM    102  O   UNL A   1      43.716  38.087  37.136  1.00  0.00    -0.237 OA
ATOM    103  O   UNL A   1      45.867  38.066  35.918  1.00  0.00    -0.237 OA
ATOM    104  O   UNL A   1      43.993  39.433  35.085  1.00  0.00    -0.744 OA
ENDBRANCH 100 101
ENDBRANCH  68  93
ENDBRANCH  42  43
ENDBRANCH  34  37
ENDBRANCH  32  33
ENDBRANCH   1  32
TORSDOF 17
ENDMDL
