MODEL 1
REMARK VINA RESULT:     -11.2      0.000      0.000
REMARK SMILES CC[C@](C)([NH2+]CC(=O)Nc1c(Cl)ccc(C)c1Cl)C(=O)NCCCCNC(=O)c1ccc(-c2c3nc(c(-c4c(F)cc(S(=O)(=O)[O-])cc4F)c4ccc([nH]4)c(-c4c(F)cc(S(=O)(=O)[O-])cc4F)c4nc(c(-c5c(F)cc(S(=O)(=O)[O-])cc5F)c5ccc2[nH]5)C=C4)C=C3)cc1
REMARK SMILES IDX 23 1 22 2 21 3 19 4 20 5 3 7 4 8 2 9 1 10 5 11 6 14 7 15
REMARK SMILES IDX 8 16 9 17 10 19 11 20 17 21 12 22 13 23 15 24 18 25 14 26
REMARK SMILES IDX 16 27 24 28 25 29 26 30 27 31 28 33 29 34 30 35 94 36 31 37
REMARK SMILES IDX 93 38 32 39 33 40 34 41 87 42 35 43 92 44 86 45 88 46 36 47
REMARK SMILES IDX 91 48 85 49 84 50 37 52 71 53 50 54 70 55 51 56 54 57 69 58
REMARK SMILES IDX 89 59 52 60 53 61 68 63 90 64 55 65 38 66 39 67 48 68 40 69
REMARK SMILES IDX 41 70 47 71 49 72 42 73 43 74 44 75 45 76 46 77 72 78 73 79
REMARK SMILES IDX 82 80 74 81 75 82 81 83 83 84 76 85 77 86 78 87 79 88 80 89
REMARK SMILES IDX 56 90 57 91 66 92 58 93 59 94 65 95 67 96 60 97 61 98 62 99
REMARK SMILES IDX 63 100 64 101
REMARK H PARENT 21 6 5 12 5 13 9 18 26 32 88 51 54 62
REMARK Flexibility Score: inf
ROOT
ATOM      1  C   UNL A   1      31.861  28.792  25.161  1.00  0.00     0.023 C 
ENDROOT
BRANCH   1   2
ATOM      2  C   UNL A   1      31.529  28.026  23.870  1.00  0.00     0.116 C 
BRANCH   2   3
ATOM      3  N   UNL A   1      32.671  27.439  23.138  1.00  0.00    -0.351 N 
ATOM      4  C   UNL A   1      33.029  26.176  22.698  1.00  0.00     0.281 C 
ATOM      5  O   UNL A   1      33.540  26.176  21.564  1.00  0.00    -0.268 OA
ATOM      6  H   UNL A   1      33.346  28.116  22.904  1.00  0.00     0.163 HD
BRANCH   4   7
ATOM      7  C   UNL A   1      33.153  24.869  23.604  1.00  0.00     0.172 C 
ATOM      8  C   UNL A   1      34.445  25.323  24.408  1.00  0.00     0.090 C 
BRANCH   7   9
ATOM      9  C   UNL A   1      33.651  23.433  23.157  1.00  0.00     0.075 C 
ATOM     10  C   UNL A   1      35.109  23.037  22.905  1.00  0.00     0.011 C 
ENDBRANCH   7   9
BRANCH   7  11
ATOM     11  N   UNL A   1      32.054  24.787  24.539  1.00  0.00    -0.326 N 
ATOM     12  H   UNL A   1      31.430  25.564  24.318  1.00  0.00     0.347 HD
ATOM     13  H   UNL A   1      32.533  24.785  25.439  1.00  0.00     0.347 HD
BRANCH  11  14
ATOM     14  C   UNL A   1      31.212  23.594  24.628  1.00  0.00     0.363 C 
BRANCH  14  15
ATOM     15  C   UNL A   1      31.213  22.506  25.728  1.00  0.00     0.279 C 
ATOM     16  O   UNL A   1      30.092  22.334  26.261  1.00  0.00    -0.268 OA
ATOM     17  N   UNL A   1      32.115  21.611  26.223  1.00  0.00    -0.319 N 
ATOM     18  H   UNL A   1      31.789  21.252  27.080  1.00  0.00     0.170 HD
BRANCH  17  19
ATOM     19  C   UNL A   1      33.374  21.028  25.905  1.00  0.00     0.079 A 
ATOM     20  C   UNL A   1      33.568  20.044  24.913  1.00  0.00     0.066 A 
ATOM     21  C   UNL A   1      34.547  21.745  26.248  1.00  0.00     0.069 A 
ATOM     22  Cl  UNL A   1      32.389  19.583  23.742  1.00  0.00    -0.082 Cl
ATOM     23  C   UNL A   1      34.837  19.523  24.619  1.00  0.00     0.023 A 
ATOM     24  C   UNL A   1      35.833  21.349  25.798  1.00  0.00    -0.030 A 
ATOM     25  Cl  UNL A   1      34.400  23.213  27.171  1.00  0.00    -0.082 Cl
ATOM     26  C   UNL A   1      35.971  20.166  25.073  1.00  0.00     0.006 A 
ATOM     27  C   UNL A   1      37.049  22.222  25.944  1.00  0.00     0.046 C 
ENDBRANCH  17  19
ENDBRANCH  14  15
ENDBRANCH  11  14
ENDBRANCH   7  11
ENDBRANCH   4   7
ENDBRANCH   2   3
ENDBRANCH   1   2
BRANCH   1  28
ATOM     28  C   UNL A   1      33.272  28.524  25.724  1.00  0.00     0.023 C 
BRANCH  28  29
ATOM     29  C   UNL A   1      33.486  28.656  27.236  1.00  0.00     0.116 C 
BRANCH  29  30
ATOM     30  N   UNL A   1      33.497  30.025  27.735  1.00  0.00    -0.352 N 
ATOM     31  C   UNL A   1      34.542  30.733  28.299  1.00  0.00     0.251 C 
ATOM     32  H   UNL A   1      32.645  30.513  27.658  1.00  0.00     0.163 HD
ATOM     33  O   UNL A   1      34.359  31.877  28.717  1.00  0.00    -0.269 OA
BRANCH  31  34
ATOM     34  C   UNL A   1      35.873  30.098  28.452  1.00  0.00     0.039 A 
ATOM     35  C   UNL A   1      36.751  30.088  27.364  1.00  0.00     0.014 A 
ATOM     36  C   UNL A   1      36.274  29.564  29.678  1.00  0.00     0.014 A 
ATOM     37  C   UNL A   1      38.069  29.648  27.538  1.00  0.00     0.010 A 
ATOM     38  C   UNL A   1      37.605  29.189  29.866  1.00  0.00     0.010 A 
ATOM     39  C   UNL A   1      38.524  29.248  28.805  1.00  0.00    -0.014 A 
BRANCH  39  40
ATOM     40  C   UNL A   1      39.958  28.921  29.050  1.00  0.00     0.031 A 
ATOM     41  C   UNL A   1      40.895  29.967  29.591  1.00  0.00     0.074 A 
ATOM     42  C   UNL A   1      40.436  27.707  28.704  1.00  0.00     0.049 A 
ATOM     43  N   UNL A   1      42.189  29.900  29.778  1.00  0.00    -0.248 NA
ATOM     44  C   UNL A   1      40.306  31.268  29.936  1.00  0.00     0.031 C 
ATOM     45  C   UNL A   1      39.649  26.623  28.110  1.00  0.00     0.029 A 
ATOM     46  N   UNL A   1      41.704  27.184  28.786  1.00  0.00    -0.354 N 
ATOM     47  C   UNL A   1      42.570  31.154  30.244  1.00  0.00     0.074 A 
ATOM     48  C   UNL A   1      41.379  31.976  30.258  1.00  0.00     0.031 C 
ATOM     49  C   UNL A   1      40.445  25.563  27.901  1.00  0.00     0.029 A 
ATOM     50  C   UNL A   1      41.804  25.895  28.314  1.00  0.00     0.049 A 
ATOM     51  H   UNL A   1      42.470  27.684  29.150  1.00  0.00     0.167 HD
ATOM     52  C   UNL A   1      43.793  31.575  30.648  1.00  0.00     0.037 A 
ATOM     53  C   UNL A   1      42.870  25.075  28.218  1.00  0.00     0.037 A 
ATOM     54  C   UNL A   1      44.970  30.746  30.665  1.00  0.00     0.049 A 
ATOM     55  C   UNL A   1      44.212  25.554  28.701  1.00  0.00     0.074 A 
ATOM     56  C   UNL A   1      46.241  31.063  31.110  1.00  0.00     0.029 A 
ATOM     57  N   UNL A   1      45.018  29.431  30.224  1.00  0.00    -0.354 N 
ATOM     58  N   UNL A   1      44.541  26.725  29.193  1.00  0.00    -0.248 NA
ATOM     59  C   UNL A   1      45.329  24.600  28.623  1.00  0.00     0.031 C 
ATOM     60  C   UNL A   1      47.065  29.951  30.910  1.00  0.00     0.029 A 
ATOM     61  C   UNL A   1      46.299  28.927  30.377  1.00  0.00     0.049 A 
ATOM     62  H   UNL A   1      44.254  28.931  29.855  1.00  0.00     0.167 HD
ATOM     63  C   UNL A   1      45.893  26.640  29.506  1.00  0.00     0.074 A 
ATOM     64  C   UNL A   1      46.319  25.300  29.158  1.00  0.00     0.031 C 
ATOM     65  C   UNL A   1      46.706  27.588  30.034  1.00  0.00     0.037 A 
BRANCH  52  66
ATOM     66  C   UNL A   1      43.912  32.999  31.118  1.00  0.00     0.058 A 
ATOM     67  C   UNL A   1      43.523  33.379  32.413  1.00  0.00     0.135 A 
ATOM     68  C   UNL A   1      44.433  33.993  30.275  1.00  0.00     0.135 A 
ATOM     69  F   UNL A   1      43.006  32.471  33.257  1.00  0.00    -0.206 F 
ATOM     70  C   UNL A   1      43.607  34.698  32.841  1.00  0.00     0.059 A 
ATOM     71  C   UNL A   1      44.554  35.316  30.692  1.00  0.00     0.059 A 
ATOM     72  F   UNL A   1      44.823  33.686  29.027  1.00  0.00    -0.206 F 
ATOM     73  C   UNL A   1      44.119  35.662  31.971  1.00  0.00     0.060 A 
BRANCH  73  74
ATOM     74  S   UNL A   1      44.210  37.374  32.535  1.00  0.00     0.124 S 
ATOM     75  O   UNL A   1      45.629  37.499  32.852  1.00  0.00    -0.237 OA
ATOM     76  O   UNL A   1      43.757  38.116  31.362  1.00  0.00    -0.237 OA
ATOM     77  O   UNL A   1      43.305  37.403  33.679  1.00  0.00    -0.744 OA
ENDBRANCH  73  74
ENDBRANCH  52  66
BRANCH  53  78
ATOM     78  C   UNL A   1      42.705  23.701  27.668  1.00  0.00     0.058 A 
ATOM     79  C   UNL A   1      42.480  22.608  28.517  1.00  0.00     0.135 A 
ATOM     80  C   UNL A   1      42.751  23.458  26.287  1.00  0.00     0.135 A 
ATOM     81  F   UNL A   1      42.435  22.790  29.846  1.00  0.00    -0.206 F 
ATOM     82  C   UNL A   1      42.321  21.318  28.020  1.00  0.00     0.059 A 
ATOM     83  C   UNL A   1      42.572  22.180  25.764  1.00  0.00     0.059 A 
ATOM     84  F   UNL A   1      42.948  24.472  25.431  1.00  0.00    -0.206 F 
ATOM     85  C   UNL A   1      42.366  21.115  26.640  1.00  0.00     0.060 A 
BRANCH  85  86
ATOM     86  S   UNL A   1      42.102  19.446  26.001  1.00  0.00     0.124 S 
ATOM     87  O   UNL A   1      40.659  19.437  25.789  1.00  0.00    -0.237 OA
ATOM     88  O   UNL A   1      42.926  19.444  24.797  1.00  0.00    -0.237 OA
ATOM     89  O   UNL A   1      42.587  18.594  27.084  1.00  0.00    -0.744 OA
ENDBRANCH  85  86
ENDBRANCH  53  78
BRANCH  65  90
ATOM     90  C   UNL A   1      48.136  27.203  30.298  1.00  0.00     0.058 A 
ATOM     91  C   UNL A   1      49.160  27.509  29.390  1.00  0.00     0.135 A 
ATOM     92  C   UNL A   1      48.490  26.574  31.503  1.00  0.00     0.135 A 
ATOM     93  F   UNL A   1      48.872  28.104  28.222  1.00  0.00    -0.206 F 
ATOM     94  C   UNL A   1      50.487  27.187  29.658  1.00  0.00     0.059 A 
ATOM     95  C   UNL A   1      49.813  26.264  31.802  1.00  0.00     0.059 A 
ATOM     96  F   UNL A   1      47.548  26.269  32.410  1.00  0.00    -0.206 F 
ATOM     97  C   UNL A   1      50.804  26.567  30.868  1.00  0.00     0.060 A 
BRANCH  97  98
ATOM     98  S   UNL A   1      52.534  26.190  31.222  1.00  0.00     0.124 S 
ATOM     99  O   UNL A   1      53.098  26.111  29.880  1.00  0.00    -0.237 OA
ATOM    100  O   UNL A   1      52.949  27.342  32.018  1.00  0.00    -0.237 OA
ATOM    101  O   UNL A   1      52.463  24.927  31.950  1.00  0.00    -0.744 OA
ENDBRANCH  97  98
ENDBRANCH  65  90
ENDBRANCH  39  40
ENDBRANCH  31  34
ENDBRANCH  29  30
ENDBRANCH  28  29
ENDBRANCH   1  28
TORSDOF 19
ENDMDL
MODEL 2
REMARK VINA RESULT:     -10.9      2.746      3.773
REMARK SMILES CC[C@](C)([NH2+]CC(=O)Nc1c(Cl)ccc(C)c1Cl)C(=O)NCCCCNC(=O)c1ccc(-c2c3nc(c(-c4c(F)cc(S(=O)(=O)[O-])cc4F)c4ccc([nH]4)c(-c4c(F)cc(S(=O)(=O)[O-])cc4F)c4nc(c(-c5c(F)cc(S(=O)(=O)[O-])cc5F)c5ccc2[nH]5)C=C4)C=C3)cc1
REMARK SMILES IDX 23 1 22 2 21 3 19 4 20 5 3 7 4 8 2 9 1 10 5 11 6 14 7 15
REMARK SMILES IDX 8 16 9 17 10 19 11 20 17 21 12 22 13 23 15 24 18 25 14 26
REMARK SMILES IDX 16 27 24 28 25 29 26 30 27 31 28 33 29 34 30 35 94 36 31 37
REMARK SMILES IDX 93 38 32 39 33 40 34 41 87 42 35 43 92 44 86 45 88 46 36 47
REMARK SMILES IDX 91 48 85 49 84 50 37 52 71 53 50 54 70 55 51 56 54 57 69 58
REMARK SMILES IDX 89 59 52 60 53 61 68 63 90 64 55 65 38 66 39 67 48 68 40 69
REMARK SMILES IDX 41 70 47 71 49 72 42 73 43 74 44 75 45 76 46 77 72 78 73 79
REMARK SMILES IDX 82 80 74 81 75 82 81 83 83 84 76 85 77 86 78 87 79 88 80 89
REMARK SMILES IDX 56 90 57 91 66 92 58 93 59 94 65 95 67 96 60 97 61 98 62 99
REMARK SMILES IDX 63 100 64 101
REMARK H PARENT 21 6 5 12 5 13 9 18 26 32 88 51 54 62
REMARK Flexibility Score: inf
ROOT
ATOM      1  C   UNL A   1      33.426  30.078  26.690  1.00  0.00     0.023 C 
ENDROOT
BRANCH   1   2
ATOM      2  C   UNL A   1      31.942  30.279  26.342  1.00  0.00     0.116 C 
BRANCH   2   3
ATOM      3  N   UNL A   1      31.559  30.064  24.931  1.00  0.00    -0.351 N 
ATOM      4  C   UNL A   1      31.049  29.014  24.186  1.00  0.00     0.281 C 
ATOM      5  O   UNL A   1      30.184  29.367  23.364  1.00  0.00    -0.268 OA
ATOM      6  H   UNL A   1      31.703  30.869  24.383  1.00  0.00     0.163 HD
BRANCH   4   7
ATOM      7  C   UNL A   1      31.685  27.557  24.062  1.00  0.00     0.172 C 
ATOM      8  C   UNL A   1      30.671  26.828  25.044  1.00  0.00     0.090 C 
BRANCH   7   9
ATOM      9  C   UNL A   1      33.039  27.042  24.704  1.00  0.00     0.075 C 
ATOM     10  C   UNL A   1      33.154  26.196  25.977  1.00  0.00     0.011 C 
ENDBRANCH   7   9
BRANCH   7  11
ATOM     11  N   UNL A   1      31.484  27.020  22.737  1.00  0.00    -0.326 N 
ATOM     12  H   UNL A   1      31.011  27.748  22.200  1.00  0.00     0.347 HD
ATOM     13  H   UNL A   1      30.987  26.150  22.927  1.00  0.00     0.347 HD
BRANCH  11  14
ATOM     14  C   UNL A   1      32.606  26.566  21.915  1.00  0.00     0.363 C 
BRANCH  14  15
ATOM     15  C   UNL A   1      32.821  25.173  21.279  1.00  0.00     0.279 C 
ATOM     16  O   UNL A   1      33.135  25.221  20.066  1.00  0.00    -0.268 OA
ATOM     17  N   UNL A   1      32.835  23.882  21.720  1.00  0.00    -0.319 N 
ATOM     18  H   UNL A   1      32.781  23.269  20.952  1.00  0.00     0.170 HD
BRANCH  17  19
ATOM     19  C   UNL A   1      32.903  23.135  22.930  1.00  0.00     0.079 A 
ATOM     20  C   UNL A   1      34.102  22.783  23.583  1.00  0.00     0.066 A 
ATOM     21  C   UNL A   1      31.760  23.117  23.768  1.00  0.00     0.069 A 
ATOM     22  Cl  UNL A   1      35.657  23.420  23.192  1.00  0.00    -0.082 Cl
ATOM     23  C   UNL A   1      34.111  22.069  24.790  1.00  0.00     0.023 A 
ATOM     24  C   UNL A   1      31.792  22.573  25.077  1.00  0.00    -0.030 A 
ATOM     25  Cl  UNL A   1      30.292  23.869  23.211  1.00  0.00    -0.082 Cl
ATOM     26  C   UNL A   1      32.954  21.950  25.532  1.00  0.00     0.006 A 
ATOM     27  C   UNL A   1      30.670  22.761  26.063  1.00  0.00     0.046 C 
ENDBRANCH  17  19
ENDBRANCH  14  15
ENDBRANCH  11  14
ENDBRANCH   7  11
ENDBRANCH   4   7
ENDBRANCH   2   3
ENDBRANCH   1   2
BRANCH   1  28
ATOM     28  C   UNL A   1      33.997  31.106  27.689  1.00  0.00     0.023 C 
BRANCH  28  29
ATOM     29  C   UNL A   1      35.349  30.804  28.347  1.00  0.00     0.116 C 
BRANCH  29  30
ATOM     30  N   UNL A   1      35.472  31.257  29.726  1.00  0.00    -0.352 N 
ATOM     31  C   UNL A   1      36.535  31.105  30.595  1.00  0.00     0.251 C 
ATOM     32  H   UNL A   1      34.693  31.738  30.088  1.00  0.00     0.163 HD
ATOM     33  O   UNL A   1      36.449  31.510  31.755  1.00  0.00    -0.269 OA
BRANCH  31  34
ATOM     34  C   UNL A   1      37.765  30.406  30.151  1.00  0.00     0.039 A 
ATOM     35  C   UNL A   1      38.081  30.383  28.789  1.00  0.00     0.014 A 
ATOM     36  C   UNL A   1      38.630  29.821  31.078  1.00  0.00     0.014 A 
ATOM     37  C   UNL A   1      39.318  29.878  28.370  1.00  0.00     0.010 A 
ATOM     38  C   UNL A   1      39.889  29.381  30.666  1.00  0.00     0.010 A 
ATOM     39  C   UNL A   1      40.257  29.424  29.311  1.00  0.00    -0.014 A 
BRANCH  39  40
ATOM     40  C   UNL A   1      41.634  29.025  28.906  1.00  0.00     0.031 A 
ATOM     41  C   UNL A   1      42.738  30.048  28.850  1.00  0.00     0.074 A 
ATOM     42  C   UNL A   1      41.873  27.758  28.506  1.00  0.00     0.049 A 
ATOM     43  N   UNL A   1      43.970  29.911  28.430  1.00  0.00    -0.248 NA
ATOM     44  C   UNL A   1      42.401  31.409  29.292  1.00  0.00     0.031 C 
ATOM     45  C   UNL A   1      40.879  26.684  28.450  1.00  0.00     0.029 A 
ATOM     46  N   UNL A   1      43.025  27.162  28.053  1.00  0.00    -0.354 N 
ATOM     47  C   UNL A   1      44.549  31.171  28.541  1.00  0.00     0.074 A 
ATOM     48  C   UNL A   1      43.517  32.068  29.013  1.00  0.00     0.031 C 
ATOM     49  C   UNL A   1      41.467  25.560  28.010  1.00  0.00     0.029 A 
ATOM     50  C   UNL A   1      42.870  25.835  27.720  1.00  0.00     0.049 A 
ATOM     51  H   UNL A   1      43.883  27.639  27.974  1.00  0.00     0.167 HD
ATOM     52  C   UNL A   1      45.829  31.543  28.296  1.00  0.00     0.037 A 
ATOM     53  C   UNL A   1      43.754  24.942  27.232  1.00  0.00     0.037 A 
ATOM     54  C   UNL A   1      46.863  30.643  27.858  1.00  0.00     0.049 A 
ATOM     55  C   UNL A   1      45.177  25.369  26.997  1.00  0.00     0.074 A 
ATOM     56  C   UNL A   1      48.203  30.911  27.638  1.00  0.00     0.029 A 
ATOM     57  N   UNL A   1      46.676  29.296  27.580  1.00  0.00    -0.354 N 
ATOM     58  N   UNL A   1      45.720  26.552  27.163  1.00  0.00    -0.248 NA
ATOM     59  C   UNL A   1      46.112  24.341  26.516  1.00  0.00     0.031 C 
ATOM     60  C   UNL A   1      48.819  29.734  27.199  1.00  0.00     0.029 A 
ATOM     61  C   UNL A   1      47.872  28.723  27.181  1.00  0.00     0.049 A 
ATOM     62  H   UNL A   1      45.817  28.819  27.654  1.00  0.00     0.167 HD
ATOM     63  C   UNL A   1      47.063  26.405  26.831  1.00  0.00     0.074 A 
ATOM     64  C   UNL A   1      47.252  25.016  26.465  1.00  0.00     0.031 C 
ATOM     65  C   UNL A   1      48.047  27.337  26.829  1.00  0.00     0.037 A 
BRANCH  52  66
ATOM     66  C   UNL A   1      46.182  32.989  28.512  1.00  0.00     0.058 A 
ATOM     67  C   UNL A   1      46.596  33.463  29.767  1.00  0.00     0.135 A 
ATOM     68  C   UNL A   1      46.119  33.910  27.454  1.00  0.00     0.135 A 
ATOM     69  F   UNL A   1      46.661  32.629  30.817  1.00  0.00    -0.206 F 
ATOM     70  C   UNL A   1      46.897  34.804  29.977  1.00  0.00     0.059 A 
ATOM     71  C   UNL A   1      46.444  35.252  27.633  1.00  0.00     0.059 A 
ATOM     72  F   UNL A   1      45.731  33.511  26.232  1.00  0.00    -0.206 F 
ATOM     73  C   UNL A   1      46.813  35.693  28.904  1.00  0.00     0.060 A 
BRANCH  73  74
ATOM     74  S   UNL A   1      47.193  37.434  29.193  1.00  0.00     0.124 S 
ATOM     75  O   UNL A   1      46.018  37.865  29.943  1.00  0.00    -0.237 OA
ATOM     76  O   UNL A   1      48.437  37.361  29.953  1.00  0.00    -0.237 OA
ATOM     77  O   UNL A   1      47.315  37.983  27.847  1.00  0.00    -0.744 OA
ENDBRANCH  73  74
ENDBRANCH  52  66
BRANCH  53  78
ATOM     78  C   UNL A   1      43.325  23.542  26.962  1.00  0.00     0.058 A 
ATOM     79  C   UNL A   1      43.100  22.642  28.014  1.00  0.00     0.135 A 
ATOM     80  C   UNL A   1      43.116  23.083  25.652  1.00  0.00     0.135 A 
ATOM     81  F   UNL A   1      43.294  23.033  29.283  1.00  0.00    -0.206 F 
ATOM     82  C   UNL A   1      42.696  21.331  27.779  1.00  0.00     0.059 A 
ATOM     83  C   UNL A   1      42.691  21.783  25.393  1.00  0.00     0.059 A 
ATOM     84  F   UNL A   1      43.303  23.910  24.611  1.00  0.00    -0.206 F 
ATOM     85  C   UNL A   1      42.492  20.912  26.464  1.00  0.00     0.060 A 
BRANCH  85  86
ATOM     86  S   UNL A   1      41.914  19.226  26.172  1.00  0.00     0.124 S 
ATOM     87  O   UNL A   1      42.674  18.855  24.984  1.00  0.00    -0.237 OA
ATOM     88  O   UNL A   1      42.292  18.552  27.410  1.00  0.00    -0.237 OA
ATOM     89  O   UNL A   1      40.476  19.395  25.975  1.00  0.00    -0.744 OA
ENDBRANCH  85  86
ENDBRANCH  53  78
BRANCH  65  90
ATOM     90  C   UNL A   1      49.429  26.882  26.449  1.00  0.00     0.058 A 
ATOM     91  C   UNL A   1      50.316  26.348  27.395  1.00  0.00     0.135 A 
ATOM     92  C   UNL A   1      49.848  26.930  25.109  1.00  0.00     0.135 A 
ATOM     93  F   UNL A   1      49.965  26.288  28.690  1.00  0.00    -0.206 F 
ATOM     94  C   UNL A   1      51.578  25.892  27.031  1.00  0.00     0.059 A 
ATOM     95  C   UNL A   1      51.096  26.457  24.718  1.00  0.00     0.059 A 
ATOM     96  F   UNL A   1      49.033  27.423  24.162  1.00  0.00    -0.206 F 
ATOM     97  C   UNL A   1      51.959  25.949  25.688  1.00  0.00     0.060 A 
BRANCH  97  98
ATOM     98  S   UNL A   1      53.585  25.317  25.221  1.00  0.00     0.124 S 
ATOM     99  O   UNL A   1      53.406  23.881  25.404  1.00  0.00    -0.237 OA
ATOM    100  O   UNL A   1      53.711  25.770  23.839  1.00  0.00    -0.237 OA
ATOM    101  O   UNL A   1      54.485  25.964  26.171  1.00  0.00    -0.744 OA
ENDBRANCH  97  98
ENDBRANCH  65  90
ENDBRANCH  39  40
ENDBRANCH  31  34
ENDBRANCH  29  30
ENDBRANCH  28  29
ENDBRANCH   1  28
TORSDOF 19
ENDMDL
MODEL 3
REMARK VINA RESULT:     -10.6      4.840     10.470
REMARK SMILES CC[C@](C)([NH2+]CC(=O)Nc1c(Cl)ccc(C)c1Cl)C(=O)NCCCCNC(=O)c1ccc(-c2c3nc(c(-c4c(F)cc(S(=O)(=O)[O-])cc4F)c4ccc([nH]4)c(-c4c(F)cc(S(=O)(=O)[O-])cc4F)c4nc(c(-c5c(F)cc(S(=O)(=O)[O-])cc5F)c5ccc2[nH]5)C=C4)C=C3)cc1
REMARK SMILES IDX 23 1 22 2 21 3 19 4 20 5 3 7 4 8 2 9 1 10 5 11 6 14 7 15
REMARK SMILES IDX 8 16 9 17 10 19 11 20 17 21 12 22 13 23 15 24 18 25 14 26
REMARK SMILES IDX 16 27 24 28 25 29 26 30 27 31 28 33 29 34 30 35 94 36 31 37
REMARK SMILES IDX 93 38 32 39 33 40 34 41 87 42 35 43 92 44 86 45 88 46 36 47
REMARK SMILES IDX 91 48 85 49 84 50 37 52 71 53 50 54 70 55 51 56 54 57 69 58
REMARK SMILES IDX 89 59 52 60 53 61 68 63 90 64 55 65 38 66 39 67 48 68 40 69
REMARK SMILES IDX 41 70 47 71 49 72 42 73 43 74 44 75 45 76 46 77 72 78 73 79
REMARK SMILES IDX 82 80 74 81 75 82 81 83 83 84 76 85 77 86 78 87 79 88 80 89
REMARK SMILES IDX 56 90 57 91 66 92 58 93 59 94 65 95 67 96 60 97 61 98 62 99
REMARK SMILES IDX 63 100 64 101
REMARK H PARENT 21 6 5 12 5 13 9 18 26 32 88 51 54 62
REMARK Flexibility Score: inf
ROOT
ATOM      1  C   UNL A   1      38.584  22.920  26.033  1.00  0.00     0.023 C 
ENDROOT
BRANCH   1   2
ATOM      2  C   UNL A   1      37.421  22.001  25.625  1.00  0.00     0.116 C 
BRANCH   2   3
ATOM      3  N   UNL A   1      36.115  22.262  26.266  1.00  0.00    -0.351 N 
ATOM      4  C   UNL A   1      34.909  21.591  26.378  1.00  0.00     0.281 C 
ATOM      5  O   UNL A   1      34.399  21.680  27.508  1.00  0.00    -0.268 OA
ATOM      6  H   UNL A   1      36.099  23.130  26.730  1.00  0.00     0.163 HD
BRANCH   4   7
ATOM      7  C   UNL A   1      34.021  21.055  25.167  1.00  0.00     0.172 C 
ATOM      8  C   UNL A   1      32.614  21.486  25.764  1.00  0.00     0.090 C 
BRANCH   7   9
ATOM      9  C   UNL A   1      33.673  19.548  24.823  1.00  0.00     0.075 C 
ATOM     10  C   UNL A   1      32.640  19.087  23.790  1.00  0.00     0.011 C 
ENDBRANCH   7   9
BRANCH   7  11
ATOM     11  N   UNL A   1      34.255  21.835  23.973  1.00  0.00    -0.326 N 
ATOM     12  H   UNL A   1      34.117  21.203  23.185  1.00  0.00     0.347 HD
ATOM     13  H   UNL A   1      35.186  22.215  24.140  1.00  0.00     0.347 HD
BRANCH  11  14
ATOM     14  C   UNL A   1      33.474  23.037  23.679  1.00  0.00     0.363 C 
BRANCH  14  15
ATOM     15  C   UNL A   1      33.676  24.466  24.236  1.00  0.00     0.279 C 
ATOM     16  O   UNL A   1      34.861  24.710  24.566  1.00  0.00    -0.268 OA
ATOM     17  N   UNL A   1      32.903  25.579  24.391  1.00  0.00    -0.319 N 
ATOM     18  H   UNL A   1      33.350  26.211  24.999  1.00  0.00     0.170 HD
BRANCH  17  19
ATOM     19  C   UNL A   1      31.660  26.123  23.960  1.00  0.00     0.079 A 
ATOM     20  C   UNL A   1      30.420  25.864  24.579  1.00  0.00     0.066 A 
ATOM     21  C   UNL A   1      31.685  27.308  23.183  1.00  0.00     0.069 A 
ATOM     22  Cl  UNL A   1      30.227  25.082  26.104  1.00  0.00    -0.082 Cl
ATOM     23  C   UNL A   1      29.227  26.450  24.130  1.00  0.00     0.023 A 
ATOM     24  C   UNL A   1      30.505  28.035  22.877  1.00  0.00    -0.030 A 
ATOM     25  Cl  UNL A   1      33.218  27.948  22.666  1.00  0.00    -0.082 Cl
ATOM     26  C   UNL A   1      29.267  27.526  23.268  1.00  0.00     0.006 A 
ATOM     27  C   UNL A   1      30.534  29.410  22.269  1.00  0.00     0.046 C 
ENDBRANCH  17  19
ENDBRANCH  14  15
ENDBRANCH  11  14
ENDBRANCH   7  11
ENDBRANCH   4   7
ENDBRANCH   2   3
ENDBRANCH   1   2
BRANCH   1  28
ATOM     28  C   UNL A   1      39.690  22.231  26.858  1.00  0.00     0.023 C 
BRANCH  28  29
ATOM     29  C   UNL A   1      41.025  22.964  27.037  1.00  0.00     0.116 C 
BRANCH  29  30
ATOM     30  N   UNL A   1      41.377  23.867  25.949  1.00  0.00    -0.352 N 
ATOM     31  C   UNL A   1      41.626  25.226  25.998  1.00  0.00     0.251 C 
ATOM     32  H   UNL A   1      41.448  23.454  25.058  1.00  0.00     0.163 HD
ATOM     33  O   UNL A   1      41.862  25.848  24.963  1.00  0.00    -0.269 OA
BRANCH  31  34
ATOM     34  C   UNL A   1      41.558  25.948  27.291  1.00  0.00     0.039 A 
ATOM     35  C   UNL A   1      42.651  26.718  27.700  1.00  0.00     0.014 A 
ATOM     36  C   UNL A   1      40.401  25.910  28.072  1.00  0.00     0.014 A 
ATOM     37  C   UNL A   1      42.542  27.539  28.828  1.00  0.00     0.010 A 
ATOM     38  C   UNL A   1      40.270  26.779  29.156  1.00  0.00     0.010 A 
ATOM     39  C   UNL A   1      41.330  27.620  29.534  1.00  0.00    -0.014 A 
BRANCH  39  40
ATOM     40  C   UNL A   1      41.140  28.596  30.644  1.00  0.00     0.031 A 
ATOM     41  C   UNL A   1      41.974  28.501  31.893  1.00  0.00     0.074 A 
ATOM     42  C   UNL A   1      40.156  29.517  30.564  1.00  0.00     0.049 A 
ATOM     43  N   UNL A   1      41.889  29.196  32.999  1.00  0.00    -0.248 NA
ATOM     44  C   UNL A   1      43.020  27.468  31.913  1.00  0.00     0.031 C 
ATOM     45  C   UNL A   1      39.233  29.677  29.437  1.00  0.00     0.029 A 
ATOM     46  N   UNL A   1      39.756  30.484  31.454  1.00  0.00    -0.354 N 
ATOM     47  C   UNL A   1      42.855  28.672  33.851  1.00  0.00     0.074 A 
ATOM     48  C   UNL A   1      43.475  27.566  33.154  1.00  0.00     0.031 C 
ATOM     49  C   UNL A   1      38.392  30.690  29.696  1.00  0.00     0.029 A 
ATOM     50  C   UNL A   1      38.689  31.235  31.016  1.00  0.00     0.049 A 
ATOM     51  H   UNL A   1      40.193  30.628  32.325  1.00  0.00     0.167 HD
ATOM     52  C   UNL A   1      43.212  29.089  35.091  1.00  0.00     0.037 A 
ATOM     53  C   UNL A   1      38.021  32.244  31.611  1.00  0.00     0.037 A 
ATOM     54  C   UNL A   1      42.617  30.209  35.770  1.00  0.00     0.049 A 
ATOM     55  C   UNL A   1      38.454  32.709  32.975  1.00  0.00     0.074 A 
ATOM     56  C   UNL A   1      42.947  30.745  37.002  1.00  0.00     0.029 A 
ATOM     57  N   UNL A   1      41.571  30.974  35.271  1.00  0.00    -0.354 N 
ATOM     58  N   UNL A   1      39.409  32.238  33.741  1.00  0.00    -0.248 NA
ATOM     59  C   UNL A   1      37.726  33.848  33.554  1.00  0.00     0.031 C 
ATOM     60  C   UNL A   1      42.083  31.814  37.262  1.00  0.00     0.029 A 
ATOM     61  C   UNL A   1      41.238  31.969  36.175  1.00  0.00     0.049 A 
ATOM     62  H   UNL A   1      41.130  30.828  34.403  1.00  0.00     0.167 HD
ATOM     63  C   UNL A   1      39.412  33.036  34.879  1.00  0.00     0.074 A 
ATOM     64  C   UNL A   1      38.371  34.028  34.697  1.00  0.00     0.031 C 
ATOM     65  C   UNL A   1      40.206  32.955  35.975  1.00  0.00     0.037 A 
BRANCH  52  66
ATOM     66  C   UNL A   1      44.309  28.330  35.785  1.00  0.00     0.058 A 
ATOM     67  C   UNL A   1      45.659  28.686  35.629  1.00  0.00     0.135 A 
ATOM     68  C   UNL A   1      44.013  27.246  36.625  1.00  0.00     0.135 A 
ATOM     69  F   UNL A   1      46.000  29.707  34.826  1.00  0.00    -0.206 F 
ATOM     70  C   UNL A   1      46.678  27.971  36.248  1.00  0.00     0.059 A 
ATOM     71  C   UNL A   1      45.015  26.532  37.279  1.00  0.00     0.059 A 
ATOM     72  F   UNL A   1      42.740  26.863  36.813  1.00  0.00    -0.206 F 
ATOM     73  C   UNL A   1      46.346  26.891  37.067  1.00  0.00     0.060 A 
BRANCH  73  74
ATOM     74  S   UNL A   1      47.679  25.962  37.854  1.00  0.00     0.124 S 
ATOM     75  O   UNL A   1      48.775  26.178  36.914  1.00  0.00    -0.237 OA
ATOM     76  O   UNL A   1      47.811  26.634  39.143  1.00  0.00    -0.237 OA
ATOM     77  O   UNL A   1      47.158  24.601  37.910  1.00  0.00    -0.744 OA
ENDBRANCH  73  74
ENDBRANCH  52  66
BRANCH  53  78
ATOM     78  C   UNL A   1      36.888  32.904  30.906  1.00  0.00     0.058 A 
ATOM     79  C   UNL A   1      37.121  33.857  29.904  1.00  0.00     0.135 A 
ATOM     80  C   UNL A   1      35.555  32.584  31.206  1.00  0.00     0.135 A 
ATOM     81  F   UNL A   1      38.379  34.202  29.587  1.00  0.00    -0.206 F 
ATOM     82  C   UNL A   1      36.075  34.482  29.233  1.00  0.00     0.059 A 
ATOM     83  C   UNL A   1      34.492  33.178  30.533  1.00  0.00     0.059 A 
ATOM     84  F   UNL A   1      35.278  31.665  32.145  1.00  0.00    -0.206 F 
ATOM     85  C   UNL A   1      34.762  34.133  29.553  1.00  0.00     0.060 A 
BRANCH  85  86
ATOM     86  S   UNL A   1      33.411  34.908  28.638  1.00  0.00     0.124 S 
ATOM     87  O   UNL A   1      34.111  35.969  27.923  1.00  0.00    -0.237 OA
ATOM     88  O   UNL A   1      32.919  33.804  27.821  1.00  0.00    -0.237 OA
ATOM     89  O   UNL A   1      32.503  35.349  29.693  1.00  0.00    -0.744 OA
ENDBRANCH  85  86
ENDBRANCH  53  78
BRANCH  65  90
ATOM     90  C   UNL A   1      40.004  33.982  37.054  1.00  0.00     0.058 A 
ATOM     91  C   UNL A   1      40.624  35.239  37.000  1.00  0.00     0.135 A 
ATOM     92  C   UNL A   1      39.132  33.724  38.125  1.00  0.00     0.135 A 
ATOM     93  F   UNL A   1      41.471  35.531  36.001  1.00  0.00    -0.206 F 
ATOM     94  C   UNL A   1      40.402  36.200  37.980  1.00  0.00     0.059 A 
ATOM     95  C   UNL A   1      38.877  34.680  39.103  1.00  0.00     0.059 A 
ATOM     96  F   UNL A   1      38.506  32.540  38.218  1.00  0.00    -0.206 F 
ATOM     97  C   UNL A   1      39.524  35.912  39.028  1.00  0.00     0.060 A 
BRANCH  97  98
ATOM     98  S   UNL A   1      39.213  37.183  40.272  1.00  0.00     0.124 S 
ATOM     99  O   UNL A   1      40.569  37.566  40.648  1.00  0.00    -0.237 OA
ATOM    100  O   UNL A   1      38.457  38.180  39.519  1.00  0.00    -0.237 OA
ATOM    101  O   UNL A   1      38.453  36.473  41.297  1.00  0.00    -0.744 OA
ENDBRANCH  97  98
ENDBRANCH  65  90
ENDBRANCH  39  40
ENDBRANCH  31  34
ENDBRANCH  29  30
ENDBRANCH  28  29
ENDBRANCH   1  28
TORSDOF 19
ENDMDL
