MODEL 1
REMARK VINA RESULT:     -12.7      0.000      0.000
REMARK SMILES O=C(NCCCCNC(=O)c1ccc(-c2c3nc(c(-c4c(F)cc(S(=O)(=O)[O-])cc4F)c4ccc([nH]4)c(-c4c(F)cc(S(=O)(=O)[O-])cc4F)c4nc(c(-c5c(F)cc(S(=O)(=O)[O-])cc5F)c5ccc2[nH]5)C=C4)C=C3)cc1)c1ccc(C[C@H]2CCN(C(=O)Cc3cccc(O)c3)C2)cc1
REMARK SMILES IDX 4 1 3 2 1 3 2 4 77 6 78 7 98 8 79 9 97 10 80 11 81 12 82 13
REMARK SMILES IDX 83 14 96 15 84 16 85 17 86 18 87 19 88 20 89 21 90 22 95 23
REMARK SMILES IDX 91 24 93 25 92 26 94 27 5 29 6 30 7 31 8 32 9 33 10 35 11 36
REMARK SMILES IDX 12 37 76 38 13 39 75 40 14 41 15 42 16 43 69 44 17 45 74 46
REMARK SMILES IDX 68 47 70 48 18 49 73 50 67 51 66 52 19 54 53 55 32 56 52 57
REMARK SMILES IDX 33 58 36 59 51 60 71 61 34 62 35 63 50 65 72 66 37 67 20 68
REMARK SMILES IDX 21 69 30 70 22 71 23 72 29 73 31 74 24 75 25 76 26 77 27 78
REMARK SMILES IDX 28 79 54 80 55 81 64 82 56 83 57 84 63 85 65 86 58 87 59 88
REMARK SMILES IDX 60 89 61 90 62 91 38 92 39 93 48 94 40 95 41 96 47 97 49 98
REMARK SMILES IDX 42 99 43 100 44 101 45 102 46 103
REMARK H PARENT 3 5 94 28 8 34 70 53 36 64
REMARK Flexibility Score: inf
ROOT
ATOM      1  C   UNL A   1      32.546  29.995  25.667  1.00  0.00     0.116 C 
ENDROOT
BRANCH   1   2
ATOM      2  N   UNL A   1      31.285  30.293  25.008  1.00  0.00    -0.352 N 
ATOM      3  O   UNL A   1      29.683  30.103  23.416  1.00  0.00    -0.269 OA
ATOM      4  C   UNL A   1      30.687  29.646  23.953  1.00  0.00     0.251 C 
ATOM      5  H   UNL A   1      30.791  31.066  25.365  1.00  0.00     0.163 HD
BRANCH   4   6
ATOM      6  C   UNL A   1      31.274  28.391  23.454  1.00  0.00     0.039 A 
ATOM      7  C   UNL A   1      30.598  27.181  23.627  1.00  0.00     0.014 A 
ATOM      8  C   UNL A   1      32.514  28.427  22.813  1.00  0.00     0.014 A 
ATOM      9  C   UNL A   1      31.207  25.994  23.226  1.00  0.00     0.004 A 
ATOM     10  C   UNL A   1      33.125  27.234  22.424  1.00  0.00     0.004 A 
ATOM     11  C   UNL A   1      32.488  26.005  22.651  1.00  0.00    -0.048 A 
BRANCH  11  12
ATOM     12  C   UNL A   1      33.181  24.702  22.329  1.00  0.00     0.041 C 
BRANCH  12  13
ATOM     13  C   UNL A   1      33.997  24.149  23.505  1.00  0.00     0.015 C 
ATOM     14  C   UNL A   1      33.763  24.882  24.833  1.00  0.00     0.027 C 
ATOM     15  C   UNL A   1      33.622  22.698  23.841  1.00  0.00     0.123 C 
ATOM     16  C   UNL A   1      34.139  23.850  25.875  1.00  0.00     0.120 C 
ATOM     17  N   UNL A   1      33.702  22.598  25.291  1.00  0.00    -0.342 N 
BRANCH  17  18
ATOM     18  C   UNL A   1      33.403  21.421  25.945  1.00  0.00     0.227 C 
ATOM     19  O   UNL A   1      33.858  21.171  27.064  1.00  0.00    -0.275 OA
BRANCH  18  20
ATOM     20  C   UNL A   1      32.511  20.410  25.235  1.00  0.00     0.135 C 
BRANCH  20  21
ATOM     21  C   UNL A   1      33.133  19.040  25.129  1.00  0.00    -0.035 A 
ATOM     22  C   UNL A   1      34.309  18.837  24.392  1.00  0.00     0.004 A 
ATOM     23  C   UNL A   1      32.524  17.940  25.751  1.00  0.00     0.050 A 
ATOM     24  C   UNL A   1      34.848  17.558  24.248  1.00  0.00     0.004 A 
ATOM     25  C   UNL A   1      33.087  16.672  25.623  1.00  0.00     0.115 A 
ATOM     26  C   UNL A   1      34.234  16.472  24.866  1.00  0.00     0.046 A 
BRANCH  25  27
ATOM     27  O   UNL A   1      32.534  15.587  26.237  1.00  0.00    -0.508 OA
ATOM     28  H   UNL A   1      31.999  15.702  26.998  1.00  0.00     0.293 HD
ENDBRANCH  25  27
ENDBRANCH  20  21
ENDBRANCH  18  20
ENDBRANCH  17  18
ENDBRANCH  12  13
ENDBRANCH  11  12
ENDBRANCH   4   6
ENDBRANCH   1   2
BRANCH   1  29
ATOM     29  C   UNL A   1      32.353  29.267  26.996  1.00  0.00     0.023 C 
BRANCH  29  30
ATOM     30  C   UNL A   1      33.600  28.577  27.547  1.00  0.00     0.023 C 
BRANCH  30  31
ATOM     31  C   UNL A   1      34.867  29.426  27.577  1.00  0.00     0.116 C 
BRANCH  31  32
ATOM     32  N   UNL A   1      34.937  30.318  28.726  1.00  0.00    -0.352 N 
ATOM     33  C   UNL A   1      36.004  30.568  29.557  1.00  0.00     0.251 C 
ATOM     34  H   UNL A   1      34.109  30.809  28.935  1.00  0.00     0.163 HD
ATOM     35  O   UNL A   1      35.861  31.277  30.548  1.00  0.00    -0.269 OA
BRANCH  33  36
ATOM     36  C   UNL A   1      37.312  29.942  29.267  1.00  0.00     0.039 A 
ATOM     37  C   UNL A   1      37.776  29.916  27.949  1.00  0.00     0.014 A 
ATOM     38  C   UNL A   1      38.098  29.428  30.301  1.00  0.00     0.014 A 
ATOM     39  C   UNL A   1      39.068  29.455  27.679  1.00  0.00     0.010 A 
ATOM     40  C   UNL A   1      39.405  29.028  30.038  1.00  0.00     0.010 A 
ATOM     41  C   UNL A   1      39.908  29.050  28.727  1.00  0.00    -0.014 A 
BRANCH  41  42
ATOM     42  C   UNL A   1      41.322  28.653  28.495  1.00  0.00     0.031 A 
ATOM     43  C   UNL A   1      42.394  29.709  28.455  1.00  0.00     0.074 A 
ATOM     44  C   UNL A   1      41.621  27.370  28.207  1.00  0.00     0.049 A 
ATOM     45  N   UNL A   1      43.643  29.602  28.085  1.00  0.00    -0.248 NA
ATOM     46  C   UNL A   1      41.998  31.070  28.853  1.00  0.00     0.031 C 
ATOM     47  C   UNL A   1      40.666  26.260  28.170  1.00  0.00     0.029 A 
ATOM     48  N   UNL A   1      42.816  26.787  27.859  1.00  0.00    -0.354 N 
ATOM     49  C   UNL A   1      44.171  30.885  28.163  1.00  0.00     0.074 A 
ATOM     50  C   UNL A   1      43.103  31.758  28.597  1.00  0.00     0.031 C 
ATOM     51  C   UNL A   1      41.309  25.134  27.818  1.00  0.00     0.029 A 
ATOM     52  C   UNL A   1      42.713  25.446  27.565  1.00  0.00     0.049 A 
ATOM     53  H   UNL A   1      43.666  27.282  27.823  1.00  0.00     0.167 HD
ATOM     54  C   UNL A   1      45.436  31.294  27.907  1.00  0.00     0.037 A 
ATOM     55  C   UNL A   1      43.638  24.573  27.120  1.00  0.00     0.037 A 
ATOM     56  C   UNL A   1      46.511  30.412  27.538  1.00  0.00     0.049 A 
ATOM     57  C   UNL A   1      45.046  25.050  26.881  1.00  0.00     0.074 A 
ATOM     58  C   UNL A   1      47.846  30.722  27.343  1.00  0.00     0.029 A 
ATOM     59  N   UNL A   1      46.379  29.050  27.321  1.00  0.00    -0.354 N 
ATOM     60  N   UNL A   1      45.541  26.257  27.018  1.00  0.00    -0.248 NA
ATOM     61  C   UNL A   1      46.023  24.048  26.427  1.00  0.00     0.031 C 
ATOM     62  C   UNL A   1      48.517  29.551  26.980  1.00  0.00     0.029 A 
ATOM     63  C   UNL A   1      47.606  28.506  26.984  1.00  0.00     0.049 A 
ATOM     64  H   UNL A   1      45.537  28.544  27.395  1.00  0.00     0.167 HD
ATOM     65  C   UNL A   1      46.892  26.151  26.703  1.00  0.00     0.074 A 
ATOM     66  C   UNL A   1      47.139  24.764  26.369  1.00  0.00     0.031 C 
ATOM     67  C   UNL A   1      47.842  27.116  26.693  1.00  0.00     0.037 A 
BRANCH  54  68
ATOM     68  C   UNL A   1      45.742  32.759  28.026  1.00  0.00     0.058 A 
ATOM     69  C   UNL A   1      45.586  33.633  26.941  1.00  0.00     0.135 A 
ATOM     70  C   UNL A   1      46.120  33.306  29.263  1.00  0.00     0.135 A 
ATOM     71  F   UNL A   1      45.243  33.158  25.733  1.00  0.00    -0.206 F 
ATOM     72  C   UNL A   1      45.802  35.000  27.074  1.00  0.00     0.059 A 
ATOM     73  C   UNL A   1      46.320  34.673  29.426  1.00  0.00     0.059 A 
ATOM     74  F   UNL A   1      46.287  32.510  30.332  1.00  0.00    -0.206 F 
ATOM     75  C   UNL A   1      46.164  35.512  28.322  1.00  0.00     0.060 A 
BRANCH  75  76
ATOM     76  S   UNL A   1      46.400  37.294  28.490  1.00  0.00     0.124 S 
ATOM     77  O   UNL A   1      45.882  37.777  27.214  1.00  0.00    -0.237 OA
ATOM     78  O   UNL A   1      45.587  37.608  29.662  1.00  0.00    -0.237 OA
ATOM     79  O   UNL A   1      47.840  37.430  28.675  1.00  0.00    -0.744 OA
ENDBRANCH  75  76
ENDBRANCH  54  68
BRANCH  55  80
ATOM     80  C   UNL A   1      43.275  23.154  26.864  1.00  0.00     0.058 A 
ATOM     81  C   UNL A   1      43.033  22.270  27.926  1.00  0.00     0.135 A 
ATOM     82  C   UNL A   1      43.196  22.644  25.559  1.00  0.00     0.135 A 
ATOM     83  F   UNL A   1      43.102  22.711  29.192  1.00  0.00    -0.206 F 
ATOM     84  C   UNL A   1      42.761  20.924  27.709  1.00  0.00     0.059 A 
ATOM     85  C   UNL A   1      42.902  21.306  25.314  1.00  0.00     0.059 A 
ATOM     86  F   UNL A   1      43.400  23.452  24.508  1.00  0.00    -0.206 F 
ATOM     87  C   UNL A   1      42.706  20.449  26.397  1.00  0.00     0.060 A 
BRANCH  87  88
ATOM     88  S   UNL A   1      42.346  18.701  26.118  1.00  0.00     0.124 S 
ATOM     89  O   UNL A   1      42.656  18.129  27.423  1.00  0.00    -0.237 OA
ATOM     90  O   UNL A   1      40.934  18.729  25.751  1.00  0.00    -0.237 OA
ATOM     91  O   UNL A   1      43.259  18.343  25.037  1.00  0.00    -0.744 OA
ENDBRANCH  87  88
ENDBRANCH  55  80
BRANCH  67  92
ATOM     92  C   UNL A   1      49.249  26.709  26.370  1.00  0.00     0.058 A 
ATOM     93  C   UNL A   1      50.094  26.145  27.337  1.00  0.00     0.135 A 
ATOM     94  C   UNL A   1      49.726  26.806  25.053  1.00  0.00     0.135 A 
ATOM     95  F   UNL A   1      49.685  26.038  28.611  1.00  0.00    -0.206 F 
ATOM     96  C   UNL A   1      51.369  25.694  27.010  1.00  0.00     0.059 A 
ATOM     97  C   UNL A   1      50.989  26.343  24.699  1.00  0.00     0.059 A 
ATOM     98  F   UNL A   1      48.951  27.331  24.090  1.00  0.00    -0.206 F 
ATOM     99  C   UNL A   1      51.806  25.793  25.687  1.00  0.00     0.060 A 
BRANCH  99 100
ATOM    100  S   UNL A   1      53.434  25.144  25.258  1.00  0.00     0.124 S 
ATOM    101  O   UNL A   1      54.272  25.751  26.287  1.00  0.00    -0.237 OA
ATOM    102  O   UNL A   1      53.239  23.701  25.372  1.00  0.00    -0.237 OA
ATOM    103  O   UNL A   1      53.649  25.636  23.900  1.00  0.00    -0.744 OA
ENDBRANCH  99 100
ENDBRANCH  67  92
ENDBRANCH  41  42
ENDBRANCH  33  36
ENDBRANCH  31  32
ENDBRANCH  30  31
ENDBRANCH  29  30
ENDBRANCH   1  29
TORSDOF 20
ENDMDL
MODEL 2
REMARK VINA RESULT:     -12.6      1.307      2.613
REMARK SMILES O=C(NCCCCNC(=O)c1ccc(-c2c3nc(c(-c4c(F)cc(S(=O)(=O)[O-])cc4F)c4ccc([nH]4)c(-c4c(F)cc(S(=O)(=O)[O-])cc4F)c4nc(c(-c5c(F)cc(S(=O)(=O)[O-])cc5F)c5ccc2[nH]5)C=C4)C=C3)cc1)c1ccc(C[C@H]2CCN(C(=O)Cc3cccc(O)c3)C2)cc1
REMARK SMILES IDX 4 1 3 2 1 3 2 4 77 6 78 7 98 8 79 9 97 10 80 11 81 12 82 13
REMARK SMILES IDX 83 14 96 15 84 16 85 17 86 18 87 19 88 20 89 21 90 22 95 23
REMARK SMILES IDX 91 24 93 25 92 26 94 27 5 29 6 30 7 31 8 32 9 33 10 35 11 36
REMARK SMILES IDX 12 37 76 38 13 39 75 40 14 41 15 42 16 43 69 44 17 45 74 46
REMARK SMILES IDX 68 47 70 48 18 49 73 50 67 51 66 52 19 54 53 55 32 56 52 57
REMARK SMILES IDX 33 58 36 59 51 60 71 61 34 62 35 63 50 65 72 66 37 67 20 68
REMARK SMILES IDX 21 69 30 70 22 71 23 72 29 73 31 74 24 75 25 76 26 77 27 78
REMARK SMILES IDX 28 79 54 80 55 81 64 82 56 83 57 84 63 85 65 86 58 87 59 88
REMARK SMILES IDX 60 89 61 90 62 91 38 92 39 93 48 94 40 95 41 96 47 97 49 98
REMARK SMILES IDX 42 99 43 100 44 101 45 102 46 103
REMARK H PARENT 3 5 94 28 8 34 70 53 36 64
REMARK Flexibility Score: inf
ROOT
ATOM      1  C   UNL A   1      32.692  29.531  25.149  1.00  0.00     0.116 C 
ENDROOT
BRANCH   1   2
ATOM      2  N   UNL A   1      31.477  30.110  24.600  1.00  0.00    -0.352 N 
ATOM      3  O   UNL A   1      29.569  30.151  23.378  1.00  0.00    -0.269 OA
ATOM      4  C   UNL A   1      30.468  29.497  23.897  1.00  0.00     0.251 C 
ATOM      5  H   UNL A   1      31.361  31.076  24.751  1.00  0.00     0.163 HD
BRANCH   4   6
ATOM      6  C   UNL A   1      30.478  28.031  23.756  1.00  0.00     0.039 A 
ATOM      7  C   UNL A   1      30.035  27.221  24.804  1.00  0.00     0.014 A 
ATOM      8  C   UNL A   1      30.941  27.465  22.567  1.00  0.00     0.014 A 
ATOM      9  C   UNL A   1      30.133  25.836  24.687  1.00  0.00     0.004 A 
ATOM     10  C   UNL A   1      31.049  26.077  22.458  1.00  0.00     0.004 A 
ATOM     11  C   UNL A   1      30.669  25.252  23.528  1.00  0.00    -0.048 A 
BRANCH  11  12
ATOM     12  C   UNL A   1      30.876  23.758  23.463  1.00  0.00     0.041 C 
BRANCH  12  13
ATOM     13  C   UNL A   1      31.794  23.229  24.573  1.00  0.00     0.015 C 
ATOM     14  C   UNL A   1      31.337  21.898  25.186  1.00  0.00     0.027 C 
ATOM     15  C   UNL A   1      33.204  22.905  24.057  1.00  0.00     0.123 C 
ATOM     16  C   UNL A   1      32.616  21.310  25.742  1.00  0.00     0.120 C 
ATOM     17  N   UNL A   1      33.626  21.718  24.787  1.00  0.00    -0.342 N 
BRANCH  17  18
ATOM     18  C   UNL A   1      34.853  21.133  24.552  1.00  0.00     0.227 C 
ATOM     19  O   UNL A   1      35.080  19.962  24.868  1.00  0.00    -0.275 OA
BRANCH  18  20
ATOM     20  C   UNL A   1      35.945  21.982  23.914  1.00  0.00     0.135 C 
BRANCH  20  21
ATOM     21  C   UNL A   1      36.997  22.433  24.895  1.00  0.00    -0.035 A 
ATOM     22  C   UNL A   1      37.009  23.747  25.387  1.00  0.00     0.004 A 
ATOM     23  C   UNL A   1      37.999  21.544  25.312  1.00  0.00     0.050 A 
ATOM     24  C   UNL A   1      38.019  24.175  26.250  1.00  0.00     0.004 A 
ATOM     25  C   UNL A   1      38.986  21.976  26.195  1.00  0.00     0.115 A 
ATOM     26  C   UNL A   1      39.011  23.287  26.654  1.00  0.00     0.046 A 
BRANCH  25  27
ATOM     27  O   UNL A   1      39.958  21.129  26.639  1.00  0.00    -0.508 OA
ATOM     28  H   UNL A   1      39.844  20.202  26.560  1.00  0.00     0.293 HD
ENDBRANCH  25  27
ENDBRANCH  20  21
ENDBRANCH  18  20
ENDBRANCH  17  18
ENDBRANCH  12  13
ENDBRANCH  11  12
ENDBRANCH   4   6
ENDBRANCH   1   2
BRANCH   1  29
ATOM     29  C   UNL A   1      32.676  29.476  26.675  1.00  0.00     0.023 C 
BRANCH  29  30
ATOM     30  C   UNL A   1      33.811  28.674  27.310  1.00  0.00     0.023 C 
BRANCH  30  31
ATOM     31  C   UNL A   1      35.137  29.411  27.463  1.00  0.00     0.116 C 
BRANCH  31  32
ATOM     32  N   UNL A   1      35.183  30.281  28.629  1.00  0.00    -0.352 N 
ATOM     33  C   UNL A   1      36.230  30.508  29.493  1.00  0.00     0.251 C 
ATOM     34  H   UNL A   1      34.353  30.774  28.827  1.00  0.00     0.163 HD
ATOM     35  O   UNL A   1      36.066  31.199  30.494  1.00  0.00    -0.269 OA
BRANCH  33  36
ATOM     36  C   UNL A   1      37.541  29.878  29.225  1.00  0.00     0.039 A 
ATOM     37  C   UNL A   1      38.041  29.879  27.920  1.00  0.00     0.014 A 
ATOM     38  C   UNL A   1      38.293  29.334  30.268  1.00  0.00     0.014 A 
ATOM     39  C   UNL A   1      39.337  29.414  27.676  1.00  0.00     0.010 A 
ATOM     40  C   UNL A   1      39.604  28.930  30.033  1.00  0.00     0.010 A 
ATOM     41  C   UNL A   1      40.144  28.978  28.738  1.00  0.00    -0.014 A 
BRANCH  41  42
ATOM     42  C   UNL A   1      41.561  28.575  28.536  1.00  0.00     0.031 A 
ATOM     43  C   UNL A   1      42.640  29.625  28.535  1.00  0.00     0.074 A 
ATOM     44  C   UNL A   1      41.860  27.294  28.241  1.00  0.00     0.049 A 
ATOM     45  N   UNL A   1      43.897  29.515  28.194  1.00  0.00    -0.248 NA
ATOM     46  C   UNL A   1      42.242  30.984  28.937  1.00  0.00     0.031 C 
ATOM     47  C   UNL A   1      40.900  26.190  28.169  1.00  0.00     0.029 A 
ATOM     48  N   UNL A   1      43.060  26.707  27.917  1.00  0.00    -0.354 N 
ATOM     49  C   UNL A   1      44.430  30.793  28.300  1.00  0.00     0.074 A 
ATOM     50  C   UNL A   1      43.357  31.668  28.716  1.00  0.00     0.031 C 
ATOM     51  C   UNL A   1      41.545  25.064  27.820  1.00  0.00     0.029 A 
ATOM     52  C   UNL A   1      42.956  25.370  27.605  1.00  0.00     0.049 A 
ATOM     53  H   UNL A   1      43.914  27.197  27.906  1.00  0.00     0.167 HD
ATOM     54  C   UNL A   1      45.703  31.198  28.079  1.00  0.00     0.037 A 
ATOM     55  C   UNL A   1      43.887  24.496  27.173  1.00  0.00     0.037 A 
ATOM     56  C   UNL A   1      46.782  30.313  27.727  1.00  0.00     0.049 A 
ATOM     57  C   UNL A   1      45.304  24.967  26.975  1.00  0.00     0.074 A 
ATOM     58  C   UNL A   1      48.123  30.618  27.569  1.00  0.00     0.029 A 
ATOM     59  N   UNL A   1      46.647  28.955  27.492  1.00  0.00    -0.354 N 
ATOM     60  N   UNL A   1      45.801  26.170  27.137  1.00  0.00    -0.248 NA
ATOM     61  C   UNL A   1      46.286  23.966  26.533  1.00  0.00     0.031 C 
ATOM     62  C   UNL A   1      48.796  29.447  27.209  1.00  0.00     0.029 A 
ATOM     63  C   UNL A   1      47.880  28.407  27.178  1.00  0.00     0.049 A 
ATOM     64  H   UNL A   1      45.802  28.453  27.539  1.00  0.00     0.167 HD
ATOM     65  C   UNL A   1      47.159  26.060  26.854  1.00  0.00     0.074 A 
ATOM     66  C   UNL A   1      47.406  24.675  26.511  1.00  0.00     0.031 C 
ATOM     67  C   UNL A   1      48.115  27.019  26.878  1.00  0.00     0.037 A 
BRANCH  54  68
ATOM     68  C   UNL A   1      46.015  32.660  28.222  1.00  0.00     0.058 A 
ATOM     69  C   UNL A   1      46.465  33.200  29.434  1.00  0.00     0.135 A 
ATOM     70  C   UNL A   1      45.938  33.513  27.109  1.00  0.00     0.135 A 
ATOM     71  F   UNL A   1      46.540  32.430  30.532  1.00  0.00    -0.206 F 
ATOM     72  C   UNL A   1      46.822  34.539  29.544  1.00  0.00     0.059 A 
ATOM     73  C   UNL A   1      46.311  34.851  27.189  1.00  0.00     0.059 A 
ATOM     74  F   UNL A   1      45.510  33.045  25.926  1.00  0.00    -0.206 F 
ATOM     75  C   UNL A   1      46.746  35.357  28.414  1.00  0.00     0.060 A 
BRANCH  75  76
ATOM     76  S   UNL A   1      47.252  37.083  28.561  1.00  0.00     0.124 S 
ATOM     77  O   UNL A   1      48.515  36.955  29.281  1.00  0.00    -0.237 OA
ATOM     78  O   UNL A   1      47.359  37.498  27.165  1.00  0.00    -0.237 OA
ATOM     79  O   UNL A   1      46.160  37.694  29.311  1.00  0.00    -0.744 OA
ENDBRANCH  75  76
ENDBRANCH  54  68
BRANCH  55  80
ATOM     80  C   UNL A   1      43.523  23.083  26.893  1.00  0.00     0.058 A 
ATOM     81  C   UNL A   1      43.277  22.181  27.940  1.00  0.00     0.135 A 
ATOM     82  C   UNL A   1      43.445  22.595  25.579  1.00  0.00     0.135 A 
ATOM     83  F   UNL A   1      43.345  22.601  29.213  1.00  0.00    -0.206 F 
ATOM     84  C   UNL A   1      43.004  20.839  27.698  1.00  0.00     0.059 A 
ATOM     85  C   UNL A   1      43.150  21.262  25.311  1.00  0.00     0.059 A 
ATOM     86  F   UNL A   1      43.653  23.421  24.542  1.00  0.00    -0.206 F 
ATOM     87  C   UNL A   1      42.950  20.387  26.379  1.00  0.00     0.060 A 
BRANCH  87  88
ATOM     88  S   UNL A   1      42.588  18.645  26.070  1.00  0.00     0.124 S 
ATOM     89  O   UNL A   1      43.502  18.348  24.972  1.00  0.00    -0.237 OA
ATOM     90  O   UNL A   1      42.910  18.028  27.353  1.00  0.00    -0.237 OA
ATOM     91  O   UNL A   1      41.170  18.656  25.728  1.00  0.00    -0.744 OA
ENDBRANCH  87  88
ENDBRANCH  55  80
BRANCH  67  92
ATOM     92  C   UNL A   1      49.528  26.607  26.586  1.00  0.00     0.058 A 
ATOM     93  C   UNL A   1      50.050  26.637  25.285  1.00  0.00     0.135 A 
ATOM     94  C   UNL A   1      50.392  26.261  27.637  1.00  0.00     0.135 A 
ATOM     95  F   UNL A   1      49.260  26.955  24.247  1.00  0.00    -0.206 F 
ATOM     96  C   UNL A   1      51.384  26.333  25.034  1.00  0.00     0.059 A 
ATOM     97  C   UNL A   1      51.734  25.973  27.411  1.00  0.00     0.059 A 
ATOM     98  F   UNL A   1      49.940  26.225  28.901  1.00  0.00    -0.206 F 
ATOM     99  C   UNL A   1      52.220  26.007  26.104  1.00  0.00     0.060 A 
BRANCH  99 100
ATOM    100  S   UNL A   1      53.964  25.680  25.777  1.00  0.00     0.124 S 
ATOM    101  O   UNL A   1      54.437  26.997  25.363  1.00  0.00    -0.237 OA
ATOM    102  O   UNL A   1      54.447  25.213  27.074  1.00  0.00    -0.237 OA
ATOM    103  O   UNL A   1      53.928  24.666  24.727  1.00  0.00    -0.744 OA
ENDBRANCH  99 100
ENDBRANCH  67  92
ENDBRANCH  41  42
ENDBRANCH  33  36
ENDBRANCH  31  32
ENDBRANCH  30  31
ENDBRANCH  29  30
ENDBRANCH   1  29
TORSDOF 20
ENDMDL
MODEL 3
REMARK VINA RESULT:     -12.2      6.210     10.493
REMARK SMILES O=C(NCCCCNC(=O)c1ccc(-c2c3nc(c(-c4c(F)cc(S(=O)(=O)[O-])cc4F)c4ccc([nH]4)c(-c4c(F)cc(S(=O)(=O)[O-])cc4F)c4nc(c(-c5c(F)cc(S(=O)(=O)[O-])cc5F)c5ccc2[nH]5)C=C4)C=C3)cc1)c1ccc(C[C@H]2CCN(C(=O)Cc3cccc(O)c3)C2)cc1
REMARK SMILES IDX 4 1 3 2 1 3 2 4 77 6 78 7 98 8 79 9 97 10 80 11 81 12 82 13
REMARK SMILES IDX 83 14 96 15 84 16 85 17 86 18 87 19 88 20 89 21 90 22 95 23
REMARK SMILES IDX 91 24 93 25 92 26 94 27 5 29 6 30 7 31 8 32 9 33 10 35 11 36
REMARK SMILES IDX 12 37 76 38 13 39 75 40 14 41 15 42 16 43 69 44 17 45 74 46
REMARK SMILES IDX 68 47 70 48 18 49 73 50 67 51 66 52 19 54 53 55 32 56 52 57
REMARK SMILES IDX 33 58 36 59 51 60 71 61 34 62 35 63 50 65 72 66 37 67 20 68
REMARK SMILES IDX 21 69 30 70 22 71 23 72 29 73 31 74 24 75 25 76 26 77 27 78
REMARK SMILES IDX 28 79 54 80 55 81 64 82 56 83 57 84 63 85 65 86 58 87 59 88
REMARK SMILES IDX 60 89 61 90 62 91 38 92 39 93 48 94 40 95 41 96 47 97 49 98
REMARK SMILES IDX 42 99 43 100 44 101 45 102 46 103
REMARK H PARENT 3 5 94 28 8 34 70 53 36 64
REMARK Flexibility Score: inf
ROOT
ATOM      1  C   UNL A   1      32.441  29.384  25.288  1.00  0.00     0.116 C 
ENDROOT
BRANCH   1   2
ATOM      2  N   UNL A   1      31.201  28.685  24.991  1.00  0.00    -0.352 N 
ATOM      3  O   UNL A   1      29.913  26.979  24.242  1.00  0.00    -0.269 OA
ATOM      4  C   UNL A   1      31.017  27.385  24.588  1.00  0.00     0.251 C 
ATOM      5  H   UNL A   1      30.379  29.218  25.092  1.00  0.00     0.163 HD
BRANCH   4   6
ATOM      6  C   UNL A   1      32.172  26.471  24.559  1.00  0.00     0.039 A 
ATOM      7  C   UNL A   1      32.703  25.972  25.750  1.00  0.00     0.014 A 
ATOM      8  C   UNL A   1      32.729  26.117  23.328  1.00  0.00     0.014 A 
ATOM      9  C   UNL A   1      33.848  25.179  25.709  1.00  0.00     0.004 A 
ATOM     10  C   UNL A   1      33.883  25.332  23.293  1.00  0.00     0.004 A 
ATOM     11  C   UNL A   1      34.466  24.878  24.485  1.00  0.00    -0.048 A 
BRANCH  11  12
ATOM     12  C   UNL A   1      35.770  24.115  24.467  1.00  0.00     0.041 C 
BRANCH  12  13
ATOM     13  C   UNL A   1      35.580  22.597  24.574  1.00  0.00     0.015 C 
ATOM     14  C   UNL A   1      35.560  22.066  26.014  1.00  0.00     0.027 C 
ATOM     15  C   UNL A   1      34.222  22.140  24.019  1.00  0.00     0.123 C 
ATOM     16  C   UNL A   1      34.785  20.770  25.899  1.00  0.00     0.120 C 
ATOM     17  N   UNL A   1      33.789  21.054  24.886  1.00  0.00    -0.342 N 
BRANCH  17  18
ATOM     18  C   UNL A   1      32.582  20.417  24.686  1.00  0.00     0.227 C 
ATOM     19  O   UNL A   1      31.560  20.770  25.282  1.00  0.00    -0.275 OA
BRANCH  18  20
ATOM     20  C   UNL A   1      32.541  19.236  23.724  1.00  0.00     0.135 C 
BRANCH  20  21
ATOM     21  C   UNL A   1      33.095  17.966  24.319  1.00  0.00    -0.035 A 
ATOM     22  C   UNL A   1      34.409  17.556  24.051  1.00  0.00     0.004 A 
ATOM     23  C   UNL A   1      32.287  17.160  25.135  1.00  0.00     0.050 A 
ATOM     24  C   UNL A   1      34.897  16.351  24.556  1.00  0.00     0.004 A 
ATOM     25  C   UNL A   1      32.794  15.972  25.656  1.00  0.00     0.115 A 
ATOM     26  C   UNL A   1      34.086  15.556  25.361  1.00  0.00     0.046 A 
BRANCH  25  27
ATOM     27  O   UNL A   1      32.043  15.179  26.473  1.00  0.00    -0.508 OA
ATOM     28  H   UNL A   1      31.926  14.273  26.269  1.00  0.00     0.293 HD
ENDBRANCH  25  27
ENDBRANCH  20  21
ENDBRANCH  18  20
ENDBRANCH  17  18
ENDBRANCH  12  13
ENDBRANCH  11  12
ENDBRANCH   4   6
ENDBRANCH   1   2
BRANCH   1  29
ATOM     29  C   UNL A   1      32.478  29.929  26.714  1.00  0.00     0.023 C 
BRANCH  29  30
ATOM     30  C   UNL A   1      32.089  31.401  26.859  1.00  0.00     0.023 C 
BRANCH  30  31
ATOM     31  C   UNL A   1      33.167  32.315  27.431  1.00  0.00     0.116 C 
BRANCH  31  32
ATOM     32  N   UNL A   1      32.702  33.674  27.672  1.00  0.00    -0.352 N 
ATOM     33  C   UNL A   1      33.176  34.597  28.575  1.00  0.00     0.251 C 
ATOM     34  H   UNL A   1      31.948  33.972  27.113  1.00  0.00     0.163 HD
ATOM     35  O   UNL A   1      32.598  35.671  28.721  1.00  0.00    -0.269 OA
BRANCH  33  36
ATOM     36  C   UNL A   1      34.361  34.268  29.396  1.00  0.00     0.039 A 
ATOM     37  C   UNL A   1      34.177  33.657  30.640  1.00  0.00     0.014 A 
ATOM     38  C   UNL A   1      35.648  34.517  28.916  1.00  0.00     0.014 A 
ATOM     39  C   UNL A   1      35.288  33.214  31.363  1.00  0.00     0.010 A 
ATOM     40  C   UNL A   1      36.748  34.019  29.608  1.00  0.00     0.010 A 
ATOM     41  C   UNL A   1      36.579  33.351  30.832  1.00  0.00    -0.014 A 
BRANCH  41  42
ATOM     42  C   UNL A   1      37.777  32.800  31.519  1.00  0.00     0.031 A 
ATOM     43  C   UNL A   1      38.448  31.568  30.973  1.00  0.00     0.074 A 
ATOM     44  C   UNL A   1      38.187  33.333  32.688  1.00  0.00     0.049 A 
ATOM     45  N   UNL A   1      39.375  30.825  31.515  1.00  0.00    -0.248 NA
ATOM     46  C   UNL A   1      37.988  31.093  29.657  1.00  0.00     0.031 C 
ATOM     47  C   UNL A   1      37.593  34.501  33.345  1.00  0.00     0.029 A 
ATOM     48  N   UNL A   1      39.184  32.943  33.549  1.00  0.00    -0.354 N 
ATOM     49  C   UNL A   1      39.582  29.773  30.631  1.00  0.00     0.074 A 
ATOM     50  C   UNL A   1      38.669  29.962  29.526  1.00  0.00     0.031 C 
ATOM     51  C   UNL A   1      38.235  34.730  34.504  1.00  0.00     0.029 A 
ATOM     52  C   UNL A   1      39.257  33.705  34.694  1.00  0.00     0.049 A 
ATOM     53  H   UNL A   1      39.789  32.189  33.365  1.00  0.00     0.167 HD
ATOM     54  C   UNL A   1      40.461  28.749  30.729  1.00  0.00     0.037 A 
ATOM     55  C   UNL A   1      40.042  33.578  35.782  1.00  0.00     0.037 A 
ATOM     56  C   UNL A   1      41.412  28.600  31.798  1.00  0.00     0.049 A 
ATOM     57  C   UNL A   1      41.038  32.450  35.844  1.00  0.00     0.074 A 
ATOM     58  C   UNL A   1      42.403  27.643  31.938  1.00  0.00     0.029 A 
ATOM     59  N   UNL A   1      41.501  29.434  32.901  1.00  0.00    -0.354 N 
ATOM     60  N   UNL A   1      41.259  31.498  34.969  1.00  0.00    -0.248 NA
ATOM     61  C   UNL A   1      41.892  32.377  37.040  1.00  0.00     0.031 C 
ATOM     62  C   UNL A   1      43.073  27.881  33.141  1.00  0.00     0.029 A 
ATOM     63  C   UNL A   1      42.522  29.007  33.733  1.00  0.00     0.049 A 
ATOM     64  H   UNL A   1      40.923  30.213  33.070  1.00  0.00     0.167 HD
ATOM     65  C   UNL A   1      42.300  30.737  35.492  1.00  0.00     0.074 A 
ATOM     66  C   UNL A   1      42.667  31.338  36.757  1.00  0.00     0.031 C 
ATOM     67  C   UNL A   1      42.899  29.641  34.969  1.00  0.00     0.037 A 
BRANCH  54  68
ATOM     68  C   UNL A   1      40.456  27.706  29.648  1.00  0.00     0.058 A 
ATOM     69  C   UNL A   1      41.428  27.689  28.639  1.00  0.00     0.135 A 
ATOM     70  C   UNL A   1      39.511  26.666  29.671  1.00  0.00     0.135 A 
ATOM     71  F   UNL A   1      42.343  28.669  28.563  1.00  0.00    -0.206 F 
ATOM     72  C   UNL A   1      41.463  26.681  27.682  1.00  0.00     0.059 A 
ATOM     73  C   UNL A   1      39.539  25.635  28.737  1.00  0.00     0.059 A 
ATOM     74  F   UNL A   1      38.557  26.640  30.615  1.00  0.00    -0.206 F 
ATOM     75  C   UNL A   1      40.516  25.655  27.742  1.00  0.00     0.060 A 
BRANCH  75  76
ATOM     76  S   UNL A   1      40.599  24.331  26.518  1.00  0.00     0.124 S 
ATOM     77  O   UNL A   1      39.294  24.449  25.874  1.00  0.00    -0.237 OA
ATOM     78  O   UNL A   1      41.744  24.729  25.704  1.00  0.00    -0.237 OA
ATOM     79  O   UNL A   1      40.794  23.132  27.326  1.00  0.00    -0.744 OA
ENDBRANCH  75  76
ENDBRANCH  54  68
BRANCH  55  80
ATOM     80  C   UNL A   1      39.926  34.537  36.912  1.00  0.00     0.058 A 
ATOM     81  C   UNL A   1      39.164  34.223  38.047  1.00  0.00     0.135 A 
ATOM     82  C   UNL A   1      40.544  35.796  36.867  1.00  0.00     0.135 A 
ATOM     83  F   UNL A   1      38.550  33.033  38.133  1.00  0.00    -0.206 F 
ATOM     84  C   UNL A   1      38.987  35.135  39.082  1.00  0.00     0.059 A 
ATOM     85  C   UNL A   1      40.402  36.717  37.900  1.00  0.00     0.059 A 
ATOM     86  F   UNL A   1      41.299  36.137  35.812  1.00  0.00    -0.206 F 
ATOM     87  C   UNL A   1      39.605  36.384  38.996  1.00  0.00     0.060 A 
BRANCH  87  88
ATOM     88  S   UNL A   1      39.378  37.562  40.346  1.00  0.00     0.124 S 
ATOM     89  O   UNL A   1      38.605  38.611  39.690  1.00  0.00    -0.237 OA
ATOM     90  O   UNL A   1      38.661  36.766  41.337  1.00  0.00    -0.237 OA
ATOM     91  O   UNL A   1      40.746  37.917  40.710  1.00  0.00    -0.744 OA
ENDBRANCH  87  88
ENDBRANCH  55  80
BRANCH  67  92
ATOM     92  C   UNL A   1      44.052  29.047  35.724  1.00  0.00     0.058 A 
ATOM     93  C   UNL A   1      43.874  27.993  36.631  1.00  0.00     0.135 A 
ATOM     94  C   UNL A   1      45.362  29.484  35.468  1.00  0.00     0.135 A 
ATOM     95  F   UNL A   1      42.641  27.546  36.914  1.00  0.00    -0.206 F 
ATOM     96  C   UNL A   1      44.959  27.393  37.265  1.00  0.00     0.059 A 
ATOM     97  C   UNL A   1      46.461  28.886  36.074  1.00  0.00     0.059 A 
ATOM     98  F   UNL A   1      45.583  30.486  34.601  1.00  0.00    -0.206 F 
ATOM     99  C   UNL A   1      46.249  27.843  36.975  1.00  0.00     0.060 A 
BRANCH  99 100
ATOM    100  S   UNL A   1      47.653  27.014  37.750  1.00  0.00     0.124 S 
ATOM    101  O   UNL A   1      47.930  27.899  38.877  1.00  0.00    -0.237 OA
ATOM    102  O   UNL A   1      47.098  25.708  38.093  1.00  0.00    -0.237 OA
ATOM    103  O   UNL A   1      48.663  27.002  36.696  1.00  0.00    -0.744 OA
ENDBRANCH  99 100
ENDBRANCH  67  92
ENDBRANCH  41  42
ENDBRANCH  33  36
ENDBRANCH  31  32
ENDBRANCH  30  31
ENDBRANCH  29  30
ENDBRANCH   1  29
TORSDOF 20
ENDMDL
