MODEL 1
REMARK VINA RESULT:     -11.6      0.000      0.000
REMARK SMILES C[C@H](C(=O)NCCCCNC(=O)c1ccc(-c2c3nc(c(-c4c(F)cc(S(=O)(=O)[O-])cc4F)c4ccc([nH]4)c(-c4c(F)cc(S(=O)(=O)[O-])cc4F)c4nc(c(-c5c(F)cc(S(=O)(=O)[O-])cc5F)c5ccc2[nH]5)C=C4)C=C3)cc1)[C@H](C)[NH+]1CCN(S(C)(=O)=O)CC1
REMARK SMILES IDX 7 1 6 2 5 3 3 4 4 5 2 7 1 8 79 9 80 10 81 11 82 12 90 13
REMARK SMILES IDX 83 15 89 16 84 17 85 18 86 19 87 20 88 21 8 22 9 23 10 24
REMARK SMILES IDX 11 25 12 27 13 28 14 29 78 30 15 31 77 32 16 33 17 34 18 35
REMARK SMILES IDX 71 36 19 37 76 38 70 39 72 40 20 41 75 42 69 43 68 44 21 46
REMARK SMILES IDX 55 47 34 48 54 49 35 50 38 51 53 52 73 53 36 54 37 55 52 57
REMARK SMILES IDX 74 58 39 59 22 60 23 61 32 62 24 63 25 64 31 65 33 66 26 67
REMARK SMILES IDX 27 68 28 69 29 70 30 71 56 72 57 73 66 74 58 75 59 76 65 77
REMARK SMILES IDX 67 78 60 79 61 80 62 81 63 82 64 83 40 84 41 85 50 86 42 87
REMARK SMILES IDX 43 88 49 89 51 90 44 91 45 92 46 93 47 94 48 95
REMARK H PARENT 5 6 81 14 10 26 72 45 38 56
REMARK Flexibility Score: inf
ROOT
ATOM      1  C   UNL A   1      35.955  23.151  25.571  1.00  0.00     0.023 C 
ENDROOT
BRANCH   1   2
ATOM      2  C   UNL A   1      35.000  24.191  25.010  1.00  0.00     0.116 C 
BRANCH   2   3
ATOM      3  N   UNL A   1      34.761  23.957  23.596  1.00  0.00    -0.356 N 
ATOM      4  C   UNL A   1      33.616  23.542  22.975  1.00  0.00     0.228 C 
ATOM      5  O   UNL A   1      33.636  23.416  21.755  1.00  0.00    -0.275 OA
ATOM      6  H   UNL A   1      35.530  24.119  23.003  1.00  0.00     0.163 HD
BRANCH   4   7
ATOM      7  C   UNL A   1      32.359  23.439  23.832  1.00  0.00     0.133 C 
ATOM      8  C   UNL A   1      31.307  24.200  23.023  1.00  0.00     0.024 C 
BRANCH   7   9
ATOM      9  C   UNL A   1      31.978  22.026  24.385  1.00  0.00     0.193 C 
ATOM     10  C   UNL A   1      31.621  21.917  25.873  1.00  0.00     0.076 C 
BRANCH   9  11
ATOM     11  N   UNL A   1      32.802  20.866  24.020  1.00  0.00    -0.330 N 
ATOM     12  C   UNL A   1      33.519  20.160  25.072  1.00  0.00     0.279 C 
ATOM     13  C   UNL A   1      32.470  20.051  22.854  1.00  0.00     0.279 C 
ATOM     14  H   UNL A   1      33.511  21.471  23.606  1.00  0.00     0.348 HD
ATOM     15  C   UNL A   1      32.901  18.813  25.449  1.00  0.00     0.163 C 
ATOM     16  C   UNL A   1      31.987  18.600  23.117  1.00  0.00     0.163 C 
ATOM     17  N   UNL A   1      32.673  17.953  24.263  1.00  0.00    -0.191 NA
BRANCH  17  18
ATOM     18  S   UNL A   1      33.680  16.653  23.951  1.00  0.00     0.211 S 
ATOM     19  C   UNL A   1      35.174  17.124  24.796  1.00  0.00     0.176 C 
ATOM     20  O   UNL A   1      33.146  15.478  24.599  1.00  0.00    -0.212 OA
ATOM     21  O   UNL A   1      33.971  16.657  22.530  1.00  0.00    -0.212 OA
ENDBRANCH  17  18
ENDBRANCH   9  11
ENDBRANCH   7   9
ENDBRANCH   4   7
ENDBRANCH   2   3
ENDBRANCH   1   2
BRANCH   1  22
ATOM     22  C   UNL A   1      37.413  23.426  25.212  1.00  0.00     0.023 C 
BRANCH  22  23
ATOM     23  C   UNL A   1      38.219  24.069  26.334  1.00  0.00     0.116 C 
BRANCH  23  24
ATOM     24  N   UNL A   1      39.626  23.697  26.283  1.00  0.00    -0.352 N 
ATOM     25  C   UNL A   1      40.703  24.407  26.755  1.00  0.00     0.251 C 
ATOM     26  H   UNL A   1      39.830  22.831  25.861  1.00  0.00     0.163 HD
ATOM     27  O   UNL A   1      41.850  24.066  26.488  1.00  0.00    -0.269 OA
BRANCH  25  28
ATOM     28  C   UNL A   1      40.437  25.612  27.561  1.00  0.00     0.039 A 
ATOM     29  C   UNL A   1      39.467  25.554  28.562  1.00  0.00     0.014 A 
ATOM     30  C   UNL A   1      41.241  26.745  27.401  1.00  0.00     0.014 A 
ATOM     31  C   UNL A   1      39.363  26.610  29.468  1.00  0.00     0.010 A 
ATOM     32  C   UNL A   1      41.183  27.761  28.349  1.00  0.00     0.010 A 
ATOM     33  C   UNL A   1      40.256  27.693  29.401  1.00  0.00    -0.014 A 
BRANCH  33  34
ATOM     34  C   UNL A   1      40.279  28.736  30.457  1.00  0.00     0.031 A 
ATOM     35  C   UNL A   1      41.180  28.580  31.651  1.00  0.00     0.074 A 
ATOM     36  C   UNL A   1      39.420  29.773  30.380  1.00  0.00     0.049 A 
ATOM     37  N   UNL A   1      41.265  29.329  32.718  1.00  0.00    -0.248 NA
ATOM     38  C   UNL A   1      42.086  27.420  31.658  1.00  0.00     0.031 C 
ATOM     39  C   UNL A   1      38.462  30.000  29.293  1.00  0.00     0.029 A 
ATOM     40  N   UNL A   1      39.194  30.821  31.239  1.00  0.00    -0.354 N 
ATOM     41  C   UNL A   1      42.217  28.726  33.530  1.00  0.00     0.074 A 
ATOM     42  C   UNL A   1      42.660  27.531  32.849  1.00  0.00     0.031 C 
ATOM     43  C   UNL A   1      37.758  31.114  29.549  1.00  0.00     0.029 A 
ATOM     44  C   UNL A   1      38.175  31.656  30.838  1.00  0.00     0.049 A 
ATOM     45  H   UNL A   1      39.712  30.961  32.064  1.00  0.00     0.167 HD
ATOM     46  C   UNL A   1      42.685  29.145  34.729  1.00  0.00     0.037 A 
ATOM     47  C   UNL A   1      37.618  32.718  31.453  1.00  0.00     0.037 A 
ATOM     48  C   UNL A   1      42.259  30.354  35.383  1.00  0.00     0.049 A 
ATOM     49  C   UNL A   1      38.151  33.146  32.795  1.00  0.00     0.074 A 
ATOM     50  C   UNL A   1      42.746  30.910  36.553  1.00  0.00     0.029 A 
ATOM     51  N   UNL A   1      41.241  31.185  34.938  1.00  0.00    -0.354 N 
ATOM     52  N   UNL A   1      39.129  32.624  33.498  1.00  0.00    -0.248 NA
ATOM     53  C   UNL A   1      37.509  34.305  33.431  1.00  0.00     0.031 C 
ATOM     54  C   UNL A   1      41.977  32.038  36.852  1.00  0.00     0.029 A 
ATOM     55  C   UNL A   1      41.053  32.221  35.837  1.00  0.00     0.049 A 
ATOM     56  H   UNL A   1      40.729  31.056  34.107  1.00  0.00     0.167 HD
ATOM     57  C   UNL A   1      39.226  33.400  34.647  1.00  0.00     0.074 A 
ATOM     58  C   UNL A   1      38.230  34.444  34.535  1.00  0.00     0.031 C 
ATOM     59  C   UNL A   1      40.060  33.258  35.706  1.00  0.00     0.037 A 
BRANCH  46  60
ATOM     60  C   UNL A   1      43.714  28.302  35.430  1.00  0.00     0.058 A 
ATOM     61  C   UNL A   1      43.354  27.342  36.387  1.00  0.00     0.135 A 
ATOM     62  C   UNL A   1      45.065  28.380  35.053  1.00  0.00     0.135 A 
ATOM     63  F   UNL A   1      42.079  27.237  36.796  1.00  0.00    -0.206 F 
ATOM     64  C   UNL A   1      44.297  26.483  36.943  1.00  0.00     0.059 A 
ATOM     65  C   UNL A   1      46.020  27.515  35.577  1.00  0.00     0.059 A 
ATOM     66  F   UNL A   1      45.462  29.287  34.147  1.00  0.00    -0.206 F 
ATOM     67  C   UNL A   1      45.626  26.569  36.521  1.00  0.00     0.060 A 
BRANCH  67  68
ATOM     68  S   UNL A   1      46.821  25.402  37.203  1.00  0.00     0.124 S 
ATOM     69  O   UNL A   1      46.998  24.478  36.086  1.00  0.00    -0.237 OA
ATOM     70  O   UNL A   1      47.962  26.263  37.498  1.00  0.00    -0.237 OA
ATOM     71  O   UNL A   1      46.136  24.851  38.368  1.00  0.00    -0.744 OA
ENDBRANCH  67  68
ENDBRANCH  46  60
BRANCH  47  72
ATOM     72  C   UNL A   1      36.469  33.434  30.832  1.00  0.00     0.058 A 
ATOM     73  C   UNL A   1      36.644  34.263  29.715  1.00  0.00     0.135 A 
ATOM     74  C   UNL A   1      35.175  33.333  31.371  1.00  0.00     0.135 A 
ATOM     75  F   UNL A   1      37.861  34.398  29.165  1.00  0.00    -0.206 F 
ATOM     76  C   UNL A   1      35.591  34.997  29.177  1.00  0.00     0.059 A 
ATOM     77  C   UNL A   1      34.099  34.030  30.831  1.00  0.00     0.059 A 
ATOM     78  F   UNL A   1      34.946  32.540  32.428  1.00  0.00    -0.206 F 
ATOM     79  C   UNL A   1      34.322  34.877  29.746  1.00  0.00     0.060 A 
BRANCH  79  80
ATOM     80  S   UNL A   1      32.960  35.831  29.041  1.00  0.00     0.124 S 
ATOM     81  O   UNL A   1      32.180  36.148  30.232  1.00  0.00    -0.237 OA
ATOM     82  O   UNL A   1      33.661  36.950  28.419  1.00  0.00    -0.237 OA
ATOM     83  O   UNL A   1      32.341  34.892  28.110  1.00  0.00    -0.744 OA
ENDBRANCH  79  80
ENDBRANCH  47  72
BRANCH  59  84
ATOM     84  C   UNL A   1      39.948  34.259  36.823  1.00  0.00     0.058 A 
ATOM     85  C   UNL A   1      40.636  35.481  36.785  1.00  0.00     0.135 A 
ATOM     86  C   UNL A   1      39.087  34.024  37.908  1.00  0.00     0.135 A 
ATOM     87  F   UNL A   1      41.479  35.751  35.776  1.00  0.00    -0.206 F 
ATOM     88  C   UNL A   1      40.487  36.430  37.791  1.00  0.00     0.059 A 
ATOM     89  C   UNL A   1      38.898  34.972  38.909  1.00  0.00     0.059 A 
ATOM     90  F   UNL A   1      38.398  32.874  37.989  1.00  0.00    -0.206 F 
ATOM     91  C   UNL A   1      39.609  36.169  38.845  1.00  0.00     0.060 A 
BRANCH  91  92
ATOM     92  S   UNL A   1      39.385  37.435  40.113  1.00  0.00     0.124 S 
ATOM     93  O   UNL A   1      40.748  37.926  40.283  1.00  0.00    -0.237 OA
ATOM     94  O   UNL A   1      38.454  38.357  39.470  1.00  0.00    -0.237 OA
ATOM     95  O   UNL A   1      38.841  36.691  41.244  1.00  0.00    -0.744 OA
ENDBRANCH  91  92
ENDBRANCH  59  84
ENDBRANCH  33  34
ENDBRANCH  25  28
ENDBRANCH  23  24
ENDBRANCH  22  23
ENDBRANCH   1  22
TORSDOF 17
ENDMDL
MODEL 2
REMARK VINA RESULT:     -11.4      4.402      6.021
REMARK SMILES C[C@H](C(=O)NCCCCNC(=O)c1ccc(-c2c3nc(c(-c4c(F)cc(S(=O)(=O)[O-])cc4F)c4ccc([nH]4)c(-c4c(F)cc(S(=O)(=O)[O-])cc4F)c4nc(c(-c5c(F)cc(S(=O)(=O)[O-])cc5F)c5ccc2[nH]5)C=C4)C=C3)cc1)[C@H](C)[NH+]1CCN(S(C)(=O)=O)CC1
REMARK SMILES IDX 7 1 6 2 5 3 3 4 4 5 2 7 1 8 79 9 80 10 81 11 82 12 90 13
REMARK SMILES IDX 83 15 89 16 84 17 85 18 86 19 87 20 88 21 8 22 9 23 10 24
REMARK SMILES IDX 11 25 12 27 13 28 14 29 78 30 15 31 77 32 16 33 17 34 18 35
REMARK SMILES IDX 71 36 19 37 76 38 70 39 72 40 20 41 75 42 69 43 68 44 21 46
REMARK SMILES IDX 55 47 34 48 54 49 35 50 38 51 53 52 73 53 36 54 37 55 52 57
REMARK SMILES IDX 74 58 39 59 22 60 23 61 32 62 24 63 25 64 31 65 33 66 26 67
REMARK SMILES IDX 27 68 28 69 29 70 30 71 56 72 57 73 66 74 58 75 59 76 65 77
REMARK SMILES IDX 67 78 60 79 61 80 62 81 63 82 64 83 40 84 41 85 50 86 42 87
REMARK SMILES IDX 43 88 49 89 51 90 44 91 45 92 46 93 47 94 48 95
REMARK H PARENT 5 6 81 14 10 26 72 45 38 56
REMARK Flexibility Score: inf
ROOT
ATOM      1  C   UNL A   1      44.208  23.778  30.457  1.00  0.00     0.023 C 
ENDROOT
BRANCH   1   2
ATOM      2  C   UNL A   1      44.780  25.107  29.997  1.00  0.00     0.116 C 
BRANCH   2   3
ATOM      3  N   UNL A   1      46.059  24.912  29.334  1.00  0.00    -0.356 N 
ATOM      4  C   UNL A   1      46.367  25.035  28.009  1.00  0.00     0.228 C 
ATOM      5  O   UNL A   1      47.527  24.828  27.666  1.00  0.00    -0.275 OA
ATOM      6  H   UNL A   1      46.806  24.655  29.922  1.00  0.00     0.163 HD
BRANCH   4   7
ATOM      7  C   UNL A   1      45.283  25.589  27.091  1.00  0.00     0.133 C 
ATOM      8  C   UNL A   1      45.537  27.097  27.100  1.00  0.00     0.024 C 
BRANCH   7   9
ATOM      9  C   UNL A   1      45.082  24.888  25.707  1.00  0.00     0.193 C 
ATOM     10  C   UNL A   1      43.712  25.027  25.031  1.00  0.00     0.076 C 
BRANCH   9  11
ATOM     11  N   UNL A   1      45.550  23.506  25.527  1.00  0.00    -0.330 N 
ATOM     12  C   UNL A   1      44.976  22.461  26.363  1.00  0.00     0.279 C 
ATOM     13  C   UNL A   1      46.048  23.049  24.234  1.00  0.00     0.279 C 
ATOM     14  H   UNL A   1      46.436  23.722  25.983  1.00  0.00     0.348 HD
ATOM     15  C   UNL A   1      43.982  21.557  25.633  1.00  0.00     0.163 C 
ATOM     16  C   UNL A   1      45.196  21.998  23.475  1.00  0.00     0.163 C 
ATOM     17  N   UNL A   1      44.546  21.011  24.375  1.00  0.00    -0.191 NA
BRANCH  17  18
ATOM     18  S   UNL A   1      45.044  19.415  24.289  1.00  0.00     0.211 S 
ATOM     19  C   UNL A   1      43.932  18.614  25.425  1.00  0.00     0.176 C 
ATOM     20  O   UNL A   1      44.777  18.910  22.963  1.00  0.00    -0.212 OA
ATOM     21  O   UNL A   1      46.372  19.340  24.865  1.00  0.00    -0.212 OA
ENDBRANCH  17  18
ENDBRANCH   9  11
ENDBRANCH   7   9
ENDBRANCH   4   7
ENDBRANCH   2   3
ENDBRANCH   1   2
BRANCH   1  22
ATOM     22  C   UNL A   1      43.601  22.964  29.317  1.00  0.00     0.023 C 
BRANCH  22  23
ATOM     23  C   UNL A   1      42.086  23.083  29.204  1.00  0.00     0.116 C 
BRANCH  23  24
ATOM     24  N   UNL A   1      41.639  23.124  27.818  1.00  0.00    -0.352 N 
ATOM     25  C   UNL A   1      40.938  24.123  27.188  1.00  0.00     0.251 C 
ATOM     26  H   UNL A   1      41.867  22.341  27.267  1.00  0.00     0.163 HD
ATOM     27  O   UNL A   1      40.467  23.954  26.069  1.00  0.00    -0.269 OA
BRANCH  25  28
ATOM     28  C   UNL A   1      40.741  25.392  27.912  1.00  0.00     0.039 A 
ATOM     29  C   UNL A   1      39.557  25.586  28.623  1.00  0.00     0.014 A 
ATOM     30  C   UNL A   1      41.786  26.319  27.984  1.00  0.00     0.014 A 
ATOM     31  C   UNL A   1      39.454  26.679  29.484  1.00  0.00     0.010 A 
ATOM     32  C   UNL A   1      41.707  27.364  28.897  1.00  0.00     0.010 A 
ATOM     33  C   UNL A   1      40.548  27.543  29.668  1.00  0.00    -0.014 A 
BRANCH  33  34
ATOM     34  C   UNL A   1      40.523  28.602  30.708  1.00  0.00     0.031 A 
ATOM     35  C   UNL A   1      41.398  28.485  31.925  1.00  0.00     0.074 A 
ATOM     36  C   UNL A   1      39.644  29.619  30.593  1.00  0.00     0.049 A 
ATOM     37  N   UNL A   1      41.440  29.252  32.982  1.00  0.00    -0.248 NA
ATOM     38  C   UNL A   1      42.328  27.345  31.973  1.00  0.00     0.031 C 
ATOM     39  C   UNL A   1      38.708  29.808  29.480  1.00  0.00     0.029 A 
ATOM     40  N   UNL A   1      39.375  30.675  31.429  1.00  0.00    -0.354 N 
ATOM     41  C   UNL A   1      42.385  28.683  33.826  1.00  0.00     0.074 A 
ATOM     42  C   UNL A   1      42.870  27.487  33.175  1.00  0.00     0.031 C 
ATOM     43  C   UNL A   1      37.975  30.911  29.701  1.00  0.00     0.029 A 
ATOM     44  C   UNL A   1      38.349  31.481  30.991  1.00  0.00     0.049 A 
ATOM     45  H   UNL A   1      39.870  30.839  32.264  1.00  0.00     0.167 HD
ATOM     46  C   UNL A   1      42.815  29.131  35.029  1.00  0.00     0.037 A 
ATOM     47  C   UNL A   1      37.755  32.541  31.575  1.00  0.00     0.037 A 
ATOM     48  C   UNL A   1      42.348  30.341  35.653  1.00  0.00     0.049 A 
ATOM     49  C   UNL A   1      38.246  33.002  32.922  1.00  0.00     0.074 A 
ATOM     50  C   UNL A   1      42.794  30.925  36.825  1.00  0.00     0.029 A 
ATOM     51  N   UNL A   1      41.324  31.142  35.171  1.00  0.00    -0.354 N 
ATOM     52  N   UNL A   1      39.217  32.512  33.656  1.00  0.00    -0.248 NA
ATOM     53  C   UNL A   1      37.563  34.157  33.523  1.00  0.00     0.031 C 
ATOM     54  C   UNL A   1      41.994  32.040  37.087  1.00  0.00     0.029 A 
ATOM     55  C   UNL A   1      41.092  32.188  36.047  1.00  0.00     0.049 A 
ATOM     56  H   UNL A   1      40.834  30.988  34.329  1.00  0.00     0.167 HD
ATOM     57  C   UNL A   1      39.270  33.308  34.795  1.00  0.00     0.074 A 
ATOM     58  C   UNL A   1      38.255  34.329  34.641  1.00  0.00     0.031 C 
ATOM     59  C   UNL A   1      40.080  33.201  35.876  1.00  0.00     0.037 A 
BRANCH  46  60
ATOM     60  C   UNL A   1      43.844  28.321  35.768  1.00  0.00     0.058 A 
ATOM     61  C   UNL A   1      45.218  28.564  35.624  1.00  0.00     0.135 A 
ATOM     62  C   UNL A   1      43.441  27.366  36.717  1.00  0.00     0.135 A 
ATOM     63  F   UNL A   1      45.657  29.453  34.719  1.00  0.00    -0.206 F 
ATOM     64  C   UNL A   1      46.158  27.893  36.400  1.00  0.00     0.059 A 
ATOM     65  C   UNL A   1      44.362  26.702  37.521  1.00  0.00     0.059 A 
ATOM     66  F   UNL A   1      42.138  27.091  36.887  1.00  0.00    -0.206 F 
ATOM     67  C   UNL A   1      45.719  26.973  37.355  1.00  0.00     0.060 A 
BRANCH  67  68
ATOM     68  S   UNL A   1      46.949  26.165  38.398  1.00  0.00     0.124 S 
ATOM     69  O   UNL A   1      47.597  27.311  39.030  1.00  0.00    -0.237 OA
ATOM     70  O   UNL A   1      46.120  25.345  39.276  1.00  0.00    -0.237 OA
ATOM     71  O   UNL A   1      47.772  25.425  37.447  1.00  0.00    -0.744 OA
ENDBRANCH  67  68
ENDBRANCH  46  60
BRANCH  47  72
ATOM     72  C   UNL A   1      36.606  33.222  30.915  1.00  0.00     0.058 A 
ATOM     73  C   UNL A   1      36.794  34.058  29.804  1.00  0.00     0.135 A 
ATOM     74  C   UNL A   1      35.298  33.081  31.409  1.00  0.00     0.135 A 
ATOM     75  F   UNL A   1      38.024  34.231  29.296  1.00  0.00    -0.206 F 
ATOM     76  C   UNL A   1      35.738  34.760  29.230  1.00  0.00     0.059 A 
ATOM     77  C   UNL A   1      34.221  33.745  30.832  1.00  0.00     0.059 A 
ATOM     78  F   UNL A   1      35.057  32.280  32.458  1.00  0.00    -0.206 F 
ATOM     79  C   UNL A   1      34.454  34.600  29.755  1.00  0.00     0.060 A 
BRANCH  79  80
ATOM     80  S   UNL A   1      33.089  35.512  29.005  1.00  0.00     0.124 S 
ATOM     81  O   UNL A   1      32.302  35.877  30.177  1.00  0.00    -0.237 OA
ATOM     82  O   UNL A   1      33.785  36.608  28.337  1.00  0.00    -0.237 OA
ATOM     83  O   UNL A   1      32.479  34.530  28.113  1.00  0.00    -0.744 OA
ENDBRANCH  79  80
ENDBRANCH  47  72
BRANCH  59  84
ATOM     84  C   UNL A   1      39.920  34.217  36.973  1.00  0.00     0.058 A 
ATOM     85  C   UNL A   1      40.474  35.502  36.870  1.00  0.00     0.135 A 
ATOM     86  C   UNL A   1      39.144  33.926  38.107  1.00  0.00     0.135 A 
ATOM     87  F   UNL A   1      41.232  35.828  35.812  1.00  0.00    -0.206 F 
ATOM     88  C   UNL A   1      40.276  36.459  37.860  1.00  0.00     0.059 A 
ATOM     89  C   UNL A   1      38.907  34.877  39.094  1.00  0.00     0.059 A 
ATOM     90  F   UNL A   1      38.584  32.713  38.251  1.00  0.00    -0.206 F 
ATOM     91  C   UNL A   1      39.484  36.139  38.964  1.00  0.00     0.060 A 
BRANCH  91  92
ATOM     92  S   UNL A   1      39.192  37.411  40.212  1.00  0.00     0.124 S 
ATOM     93  O   UNL A   1      38.603  36.631  41.296  1.00  0.00    -0.237 OA
ATOM     94  O   UNL A   1      40.537  37.922  40.456  1.00  0.00    -0.237 OA
ATOM     95  O   UNL A   1      38.286  38.341  39.545  1.00  0.00    -0.744 OA
ENDBRANCH  91  92
ENDBRANCH  59  84
ENDBRANCH  33  34
ENDBRANCH  25  28
ENDBRANCH  23  24
ENDBRANCH  22  23
ENDBRANCH   1  22
TORSDOF 17
ENDMDL
MODEL 3
REMARK VINA RESULT:     -11.2      1.229      2.211
REMARK SMILES C[C@H](C(=O)NCCCCNC(=O)c1ccc(-c2c3nc(c(-c4c(F)cc(S(=O)(=O)[O-])cc4F)c4ccc([nH]4)c(-c4c(F)cc(S(=O)(=O)[O-])cc4F)c4nc(c(-c5c(F)cc(S(=O)(=O)[O-])cc5F)c5ccc2[nH]5)C=C4)C=C3)cc1)[C@H](C)[NH+]1CCN(S(C)(=O)=O)CC1
REMARK SMILES IDX 7 1 6 2 5 3 3 4 4 5 2 7 1 8 79 9 80 10 81 11 82 12 90 13
REMARK SMILES IDX 83 15 89 16 84 17 85 18 86 19 87 20 88 21 8 22 9 23 10 24
REMARK SMILES IDX 11 25 12 27 13 28 14 29 78 30 15 31 77 32 16 33 17 34 18 35
REMARK SMILES IDX 71 36 19 37 76 38 70 39 72 40 20 41 75 42 69 43 68 44 21 46
REMARK SMILES IDX 55 47 34 48 54 49 35 50 38 51 53 52 73 53 36 54 37 55 52 57
REMARK SMILES IDX 74 58 39 59 22 60 23 61 32 62 24 63 25 64 31 65 33 66 26 67
REMARK SMILES IDX 27 68 28 69 29 70 30 71 56 72 57 73 66 74 58 75 59 76 65 77
REMARK SMILES IDX 67 78 60 79 61 80 62 81 63 82 64 83 40 84 41 85 50 86 42 87
REMARK SMILES IDX 43 88 49 89 51 90 44 91 45 92 46 93 47 94 48 95
REMARK H PARENT 5 6 81 14 10 26 72 45 38 56
REMARK Flexibility Score: inf
ROOT
ATOM      1  C   UNL A   1      39.388  22.114  26.057  1.00  0.00     0.023 C 
ENDROOT
BRANCH   1   2
ATOM      2  C   UNL A   1      38.028  22.790  26.053  1.00  0.00     0.116 C 
BRANCH   2   3
ATOM      3  N   UNL A   1      37.467  22.803  24.712  1.00  0.00    -0.356 N 
ATOM      4  C   UNL A   1      36.185  23.065  24.319  1.00  0.00     0.228 C 
ATOM      5  O   UNL A   1      35.931  23.027  23.119  1.00  0.00    -0.275 OA
ATOM      6  H   UNL A   1      38.099  22.594  23.986  1.00  0.00     0.163 HD
BRANCH   4   7
ATOM      7  C   UNL A   1      35.215  23.553  25.390  1.00  0.00     0.133 C 
ATOM      8  C   UNL A   1      35.579  25.028  25.562  1.00  0.00     0.024 C 
BRANCH   7   9
ATOM      9  C   UNL A   1      33.705  23.185  25.217  1.00  0.00     0.193 C 
ATOM     10  C   UNL A   1      32.670  24.084  25.907  1.00  0.00     0.076 C 
BRANCH   9  11
ATOM     11  N   UNL A   1      33.283  21.786  25.376  1.00  0.00    -0.330 N 
ATOM     12  C   UNL A   1      32.197  21.286  24.546  1.00  0.00     0.279 C 
ATOM     13  C   UNL A   1      34.230  20.768  25.823  1.00  0.00     0.279 C 
ATOM     14  H   UNL A   1      32.832  21.999  26.265  1.00  0.00     0.348 HD
ATOM     15  C   UNL A   1      32.653  20.365  23.414  1.00  0.00     0.163 C 
ATOM     16  C   UNL A   1      34.637  19.678  24.797  1.00  0.00     0.163 C 
ATOM     17  N   UNL A   1      33.524  19.269  23.903  1.00  0.00    -0.191 NA
BRANCH  17  18
ATOM     18  S   UNL A   1      32.932  17.710  24.040  1.00  0.00     0.211 S 
ATOM     19  C   UNL A   1      34.396  16.787  24.452  1.00  0.00     0.176 C 
ATOM     20  O   UNL A   1      32.027  17.648  25.164  1.00  0.00    -0.212 OA
ATOM     21  O   UNL A   1      32.514  17.283  22.719  1.00  0.00    -0.212 OA
ENDBRANCH  17  18
ENDBRANCH   9  11
ENDBRANCH   7   9
ENDBRANCH   4   7
ENDBRANCH   2   3
ENDBRANCH   1   2
BRANCH   1  22
ATOM     22  C   UNL A   1      40.154  22.328  27.360  1.00  0.00     0.023 C 
BRANCH  22  23
ATOM     23  C   UNL A   1      41.536  22.945  27.176  1.00  0.00     0.116 C 
BRANCH  23  24
ATOM     24  N   UNL A   1      41.586  23.853  26.039  1.00  0.00    -0.352 N 
ATOM     25  C   UNL A   1      41.473  25.222  26.049  1.00  0.00     0.251 C 
ATOM     26  H   UNL A   1      41.717  23.436  25.157  1.00  0.00     0.163 HD
ATOM     27  O   UNL A   1      41.350  25.853  25.005  1.00  0.00    -0.269 OA
BRANCH  25  28
ATOM     28  C   UNL A   1      41.467  25.906  27.355  1.00  0.00     0.039 A 
ATOM     29  C   UNL A   1      42.571  26.678  27.717  1.00  0.00     0.014 A 
ATOM     30  C   UNL A   1      40.315  25.877  28.148  1.00  0.00     0.014 A 
ATOM     31  C   UNL A   1      42.485  27.499  28.842  1.00  0.00     0.010 A 
ATOM     32  C   UNL A   1      40.208  26.750  29.224  1.00  0.00     0.010 A 
ATOM     33  C   UNL A   1      41.285  27.582  29.570  1.00  0.00    -0.014 A 
BRANCH  33  34
ATOM     34  C   UNL A   1      41.114  28.578  30.658  1.00  0.00     0.031 A 
ATOM     35  C   UNL A   1      41.920  28.460  31.921  1.00  0.00     0.074 A 
ATOM     36  C   UNL A   1      40.166  29.529  30.538  1.00  0.00     0.049 A 
ATOM     37  N   UNL A   1      41.839  29.169  33.015  1.00  0.00    -0.248 NA
ATOM     38  C   UNL A   1      42.933  27.393  31.971  1.00  0.00     0.031 C 
ATOM     39  C   UNL A   1      39.286  29.708  29.378  1.00  0.00     0.029 A 
ATOM     40  N   UNL A   1      39.764  30.515  31.407  1.00  0.00    -0.354 N 
ATOM     41  C   UNL A   1      42.773  28.627  33.888  1.00  0.00     0.074 A 
ATOM     42  C   UNL A   1      43.389  27.509  33.211  1.00  0.00     0.031 C 
ATOM     43  C   UNL A   1      38.455  30.738  29.608  1.00  0.00     0.029 A 
ATOM     44  C   UNL A   1      38.705  31.263  30.945  1.00  0.00     0.049 A 
ATOM     45  H   UNL A   1      40.193  30.669  32.280  1.00  0.00     0.167 HD
ATOM     46  C   UNL A   1      43.094  29.039  35.137  1.00  0.00     0.037 A 
ATOM     47  C   UNL A   1      37.995  32.241  31.543  1.00  0.00     0.037 A 
ATOM     48  C   UNL A   1      42.496  30.174  35.790  1.00  0.00     0.049 A 
ATOM     49  C   UNL A   1      38.367  32.663  32.940  1.00  0.00     0.074 A 
ATOM     50  C   UNL A   1      42.823  30.725  37.017  1.00  0.00     0.029 A 
ATOM     51  N   UNL A   1      41.442  30.920  35.284  1.00  0.00    -0.354 N 
ATOM     52  N   UNL A   1      39.328  32.208  33.710  1.00  0.00    -0.248 NA
ATOM     53  C   UNL A   1      37.560  33.727  33.554  1.00  0.00     0.031 C 
ATOM     54  C   UNL A   1      41.923  31.760  37.283  1.00  0.00     0.029 A 
ATOM     55  C   UNL A   1      41.076  31.895  36.196  1.00  0.00     0.049 A 
ATOM     56  H   UNL A   1      41.018  30.777  34.407  1.00  0.00     0.167 HD
ATOM     57  C   UNL A   1      39.249  32.942  34.888  1.00  0.00     0.074 A 
ATOM     58  C   UNL A   1      38.167  33.889  34.721  1.00  0.00     0.031 C 
ATOM     59  C   UNL A   1      40.000  32.837  36.012  1.00  0.00     0.037 A 
BRANCH  46  60
ATOM     60  C   UNL A   1      44.137  28.270  35.899  1.00  0.00     0.058 A 
ATOM     61  C   UNL A   1      45.501  28.583  35.804  1.00  0.00     0.135 A 
ATOM     62  C   UNL A   1      43.752  27.281  36.820  1.00  0.00     0.135 A 
ATOM     63  F   UNL A   1      45.925  29.508  34.927  1.00  0.00    -0.206 F 
ATOM     64  C   UNL A   1      46.448  27.949  36.602  1.00  0.00     0.059 A 
ATOM     65  C   UNL A   1      44.679  26.652  37.645  1.00  0.00     0.059 A 
ATOM     66  F   UNL A   1      42.460  26.939  36.943  1.00  0.00    -0.206 F 
ATOM     67  C   UNL A   1      46.025  26.993  37.528  1.00  0.00     0.060 A 
BRANCH  67  68
ATOM     68  S   UNL A   1      47.259  26.230  38.601  1.00  0.00     0.124 S 
ATOM     69  O   UNL A   1      48.236  27.308  38.737  1.00  0.00    -0.237 OA
ATOM     70  O   UNL A   1      46.483  25.926  39.800  1.00  0.00    -0.237 OA
ATOM     71  O   UNL A   1      47.708  25.071  37.837  1.00  0.00    -0.744 OA
ENDBRANCH  67  68
ENDBRANCH  46  60
BRANCH  47  72
ATOM     72  C   UNL A   1      36.838  32.868  30.846  1.00  0.00     0.058 A 
ATOM     73  C   UNL A   1      37.012  33.956  29.977  1.00  0.00     0.135 A 
ATOM     74  C   UNL A   1      35.526  32.416  31.067  1.00  0.00     0.135 A 
ATOM     75  F   UNL A   1      38.244  34.430  29.735  1.00  0.00    -0.206 F 
ATOM     76  C   UNL A   1      35.929  34.598  29.383  1.00  0.00     0.059 A 
ATOM     77  C   UNL A   1      34.430  33.020  30.460  1.00  0.00     0.059 A 
ATOM     78  F   UNL A   1      35.302  31.369  31.875  1.00  0.00    -0.206 F 
ATOM     79  C   UNL A   1      34.640  34.124  29.635  1.00  0.00     0.060 A 
BRANCH  79  80
ATOM     80  S   UNL A   1      33.240  34.961  28.860  1.00  0.00     0.124 S 
ATOM     81  O   UNL A   1      32.358  35.173  30.002  1.00  0.00    -0.237 OA
ATOM     82  O   UNL A   1      33.868  36.157  28.307  1.00  0.00    -0.237 OA
ATOM     83  O   UNL A   1      32.775  33.992  27.873  1.00  0.00    -0.744 OA
ENDBRANCH  79  80
ENDBRANCH  47  72
BRANCH  59  84
ATOM     84  C   UNL A   1      39.694  33.775  37.146  1.00  0.00     0.058 A 
ATOM     85  C   UNL A   1      38.869  33.390  38.215  1.00  0.00     0.135 A 
ATOM     86  C   UNL A   1      40.287  35.047  37.201  1.00  0.00     0.135 A 
ATOM     87  F   UNL A   1      38.269  32.190  38.207  1.00  0.00    -0.206 F 
ATOM     88  C   UNL A   1      38.633  34.238  39.291  1.00  0.00     0.059 A 
ATOM     89  C   UNL A   1      40.090  35.899  38.283  1.00  0.00     0.059 A 
ATOM     90  F   UNL A   1      41.092  35.462  36.208  1.00  0.00    -0.206 F 
ATOM     91  C   UNL A   1      39.255  35.488  39.320  1.00  0.00     0.060 A 
BRANCH  91  92
ATOM     92  S   UNL A   1      38.982  36.554  40.752  1.00  0.00     0.124 S 
ATOM     93  O   UNL A   1      37.983  35.796  41.498  1.00  0.00    -0.237 OA
ATOM     94  O   UNL A   1      40.311  36.615  41.351  1.00  0.00    -0.237 OA
ATOM     95  O   UNL A   1      38.508  37.802  40.161  1.00  0.00    -0.744 OA
ENDBRANCH  91  92
ENDBRANCH  59  84
ENDBRANCH  33  34
ENDBRANCH  25  28
ENDBRANCH  23  24
ENDBRANCH  22  23
ENDBRANCH   1  22
TORSDOF 17
ENDMDL
