MODEL 1
REMARK VINA RESULT:     -12.8      0.000      0.000
REMARK SMILES NC(=O)c1ccc(NC(=O)Cc2ccccc2C(=O)NCCCCNC(=O)c2ccc(-c3c4nc(c(-c5c(F)cc(S(=O)(=O)[O-])cc5F)c5ccc([nH]5)c(-c5c(F)cc(S(=O)(=O)[O-])cc5F)c5nc(c(-c6c(F)cc(S(=O)(=O)[O-])cc6F)c6ccc3[nH]6)C=C5)C=C4)cc2)cc1
REMARK SMILES IDX 22 1 21 2 20 3 18 4 19 5 17 7 12 8 13 9 14 10 16 11 15 12
REMARK SMILES IDX 11 13 9 14 8 15 10 17 7 18 4 19 5 20 95 21 6 22 94 23 2 24
REMARK SMILES IDX 1 25 3 28 23 29 24 30 25 31 26 32 27 34 28 35 29 36 93 37
REMARK SMILES IDX 30 38 92 39 31 40 32 41 33 42 86 43 34 44 91 45 85 46 87 47
REMARK SMILES IDX 35 48 90 49 84 50 83 51 36 53 70 54 49 55 69 56 50 57 53 58
REMARK SMILES IDX 68 59 88 60 51 61 52 62 67 64 89 65 54 66 37 67 38 68 47 69
REMARK SMILES IDX 39 70 40 71 46 72 48 73 41 74 42 75 43 76 44 77 45 78 71 79
REMARK SMILES IDX 72 80 81 81 73 82 74 83 80 84 82 85 75 86 76 87 77 88 78 89
REMARK SMILES IDX 79 90 55 91 56 92 65 93 57 94 58 95 64 96 66 97 59 98 60 99
REMARK SMILES IDX 61 100 62 101 63 102
REMARK H PARENT 20 6 8 16 1 26 1 27 25 33 87 52 53 63
REMARK Flexibility Score: inf
ROOT
ATOM      1  C   UNL A   1      36.767  23.428  24.761  1.00  0.00     0.023 C 
ENDROOT
BRANCH   1   2
ATOM      2  C   UNL A   1      36.328  22.200  23.947  1.00  0.00     0.116 C 
BRANCH   2   3
ATOM      3  N   UNL A   1      34.896  21.994  24.074  1.00  0.00    -0.352 N 
ATOM      4  C   UNL A   1      33.747  22.716  23.888  1.00  0.00     0.251 C 
ATOM      5  O   UNL A   1      32.706  22.092  24.132  1.00  0.00    -0.269 OA
ATOM      6  H   UNL A   1      34.694  21.081  24.381  1.00  0.00     0.163 HD
BRANCH   4   7
ATOM      7  C   UNL A   1      33.591  24.109  23.338  1.00  0.00     0.043 A 
ATOM      8  C   UNL A   1      33.616  25.356  23.995  1.00  0.00    -0.026 A 
ATOM      9  C   UNL A   1      33.379  26.539  23.247  1.00  0.00     0.005 A 
ATOM     10  C   UNL A   1      33.026  26.507  21.904  1.00  0.00     0.000 A 
ATOM     11  C   UNL A   1      33.220  24.114  21.968  1.00  0.00     0.014 A 
ATOM     12  C   UNL A   1      32.924  25.287  21.266  1.00  0.00     0.001 A 
BRANCH   8  13
ATOM     13  C   UNL A   1      33.747  25.564  25.476  1.00  0.00     0.136 C 
BRANCH  13  14
ATOM     14  C   UNL A   1      32.499  25.212  26.257  1.00  0.00     0.228 C 
ATOM     15  N   UNL A   1      31.399  26.003  26.346  1.00  0.00    -0.326 N 
ATOM     16  H   UNL A   1      30.863  25.874  27.162  1.00  0.00     0.169 HD
ATOM     17  O   UNL A   1      32.391  24.123  26.832  1.00  0.00    -0.274 OA
BRANCH  15  18
ATOM     18  C   UNL A   1      30.905  26.971  25.468  1.00  0.00     0.041 A 
ATOM     19  C   UNL A   1      30.127  28.590  23.347  1.00  0.00     0.039 A 
ATOM     20  C   UNL A   1      30.930  29.114  24.359  1.00  0.00     0.016 A 
ATOM     21  C   UNL A   1      29.632  27.289  23.429  1.00  0.00     0.016 A 
ATOM     22  C   UNL A   1      31.286  28.310  25.440  1.00  0.00     0.027 A 
ATOM     23  C   UNL A   1      30.015  26.487  24.500  1.00  0.00     0.027 A 
BRANCH  19  24
ATOM     24  C   UNL A   1      29.822  29.428  22.181  1.00  0.00     0.248 C 
ATOM     25  N   UNL A   1      30.901  29.993  21.573  1.00  0.00    -0.366 N 
ATOM     26  H   UNL A   1      30.776  30.569  20.784  1.00  0.00     0.159 HD
ATOM     27  H   UNL A   1      31.806  29.827  21.923  1.00  0.00     0.159 HD
ATOM     28  O   UNL A   1      28.676  29.570  21.776  1.00  0.00    -0.270 OA
ENDBRANCH  19  24
ENDBRANCH  15  18
ENDBRANCH  13  14
ENDBRANCH   8  13
ENDBRANCH   4   7
ENDBRANCH   2   3
ENDBRANCH   1   2
BRANCH   1  29
ATOM     29  C   UNL A   1      37.664  23.174  25.957  1.00  0.00     0.023 C 
BRANCH  29  30
ATOM     30  C   UNL A   1      38.709  24.244  26.180  1.00  0.00     0.116 C 
BRANCH  30  31
ATOM     31  N   UNL A   1      40.042  23.729  26.487  1.00  0.00    -0.352 N 
ATOM     32  C   UNL A   1      40.997  24.300  27.302  1.00  0.00     0.251 C 
ATOM     33  H   UNL A   1      40.287  22.875  26.061  1.00  0.00     0.163 HD
ATOM     34  O   UNL A   1      42.103  23.791  27.439  1.00  0.00    -0.269 OA
BRANCH  32  35
ATOM     35  C   UNL A   1      40.663  25.585  27.951  1.00  0.00     0.039 A 
ATOM     36  C   UNL A   1      39.473  25.686  28.672  1.00  0.00     0.014 A 
ATOM     37  C   UNL A   1      41.628  26.592  28.014  1.00  0.00     0.014 A 
ATOM     38  C   UNL A   1      39.303  26.751  29.557  1.00  0.00     0.010 A 
ATOM     39  C   UNL A   1      41.504  27.584  28.977  1.00  0.00     0.010 A 
ATOM     40  C   UNL A   1      40.349  27.667  29.769  1.00  0.00    -0.014 A 
BRANCH  40  41
ATOM     41  C   UNL A   1      40.271  28.703  30.831  1.00  0.00     0.031 A 
ATOM     42  C   UNL A   1      41.142  28.586  32.052  1.00  0.00     0.074 A 
ATOM     43  C   UNL A   1      39.357  29.692  30.742  1.00  0.00     0.049 A 
ATOM     44  N   UNL A   1      41.160  29.329  33.126  1.00  0.00    -0.248 NA
ATOM     45  C   UNL A   1      42.090  27.459  32.086  1.00  0.00     0.031 C 
ATOM     46  C   UNL A   1      38.399  29.869  29.647  1.00  0.00     0.029 A 
ATOM     47  N   UNL A   1      39.074  30.731  31.593  1.00  0.00    -0.354 N 
ATOM     48  C   UNL A   1      42.099  28.748  33.970  1.00  0.00     0.074 A 
ATOM     49  C   UNL A   1      42.583  27.556  33.310  1.00  0.00     0.031 C 
ATOM     50  C   UNL A   1      37.660  30.968  29.877  1.00  0.00     0.029 A 
ATOM     51  C   UNL A   1      38.063  31.553  31.151  1.00  0.00     0.049 A 
ATOM     52  H   UNL A   1      39.551  30.876  32.443  1.00  0.00     0.167 HD
ATOM     53  C   UNL A   1      42.545  29.186  35.171  1.00  0.00     0.037 A 
ATOM     54  C   UNL A   1      37.520  32.652  31.711  1.00  0.00     0.037 A 
ATOM     55  C   UNL A   1      42.095  30.397  35.800  1.00  0.00     0.049 A 
ATOM     56  C   UNL A   1      38.051  33.136  33.033  1.00  0.00     0.074 A 
ATOM     57  C   UNL A   1      42.543  30.973  36.975  1.00  0.00     0.029 A 
ATOM     58  N   UNL A   1      41.095  31.221  35.305  1.00  0.00    -0.354 N 
ATOM     59  N   UNL A   1      38.998  32.617  33.779  1.00  0.00    -0.248 NA
ATOM     60  C   UNL A   1      37.446  34.353  33.589  1.00  0.00     0.031 C 
ATOM     61  C   UNL A   1      41.788  32.128  37.209  1.00  0.00     0.029 A 
ATOM     62  C   UNL A   1      40.898  32.292  36.159  1.00  0.00     0.049 A 
ATOM     63  H   UNL A   1      40.599  31.066  34.468  1.00  0.00     0.167 HD
ATOM     64  C   UNL A   1      39.112  33.453  34.884  1.00  0.00     0.074 A 
ATOM     65  C   UNL A   1      38.151  34.521  34.701  1.00  0.00     0.031 C 
ATOM     66  C   UNL A   1      39.935  33.345  35.956  1.00  0.00     0.037 A 
BRANCH  53  67
ATOM     67  C   UNL A   1      43.588  28.356  35.865  1.00  0.00     0.058 A 
ATOM     68  C   UNL A   1      43.234  27.319  36.745  1.00  0.00     0.135 A 
ATOM     69  C   UNL A   1      44.954  28.586  35.639  1.00  0.00     0.135 A 
ATOM     70  F   UNL A   1      41.943  27.070  37.012  1.00  0.00    -0.206 F 
ATOM     71  C   UNL A   1      44.199  26.563  37.403  1.00  0.00     0.059 A 
ATOM     72  C   UNL A   1      45.936  27.823  36.265  1.00  0.00     0.059 A 
ATOM     73  F   UNL A   1      45.346  29.566  34.810  1.00  0.00    -0.206 F 
ATOM     74  C   UNL A   1      45.548  26.824  37.157  1.00  0.00     0.060 A 
BRANCH  74  75
ATOM     75  S   UNL A   1      46.786  25.833  38.017  1.00  0.00     0.124 S 
ATOM     76  O   UNL A   1      46.999  26.622  39.228  1.00  0.00    -0.237 OA
ATOM     77  O   UNL A   1      46.094  24.561  38.204  1.00  0.00    -0.237 OA
ATOM     78  O   UNL A   1      47.907  25.803  37.082  1.00  0.00    -0.744 OA
ENDBRANCH  74  75
ENDBRANCH  53  67
BRANCH  54  79
ATOM     79  C   UNL A   1      36.433  33.389  31.011  1.00  0.00     0.058 A 
ATOM     80  C   UNL A   1      35.125  33.388  31.516  1.00  0.00     0.135 A 
ATOM     81  C   UNL A   1      36.679  34.113  29.834  1.00  0.00     0.135 A 
ATOM     82  F   UNL A   1      34.838  32.704  32.634  1.00  0.00    -0.206 F 
ATOM     83  C   UNL A   1      34.094  34.069  30.875  1.00  0.00     0.059 A 
ATOM     84  C   UNL A   1      35.670  34.821  29.187  1.00  0.00     0.059 A 
ATOM     85  F   UNL A   1      37.916  34.158  29.318  1.00  0.00    -0.206 F 
ATOM     86  C   UNL A   1      34.378  34.784  29.710  1.00  0.00     0.060 A 
BRANCH  86  87
ATOM     87  S   UNL A   1      33.043  35.708  28.915  1.00  0.00     0.124 S 
ATOM     88  O   UNL A   1      32.454  34.689  28.053  1.00  0.00    -0.237 OA
ATOM     89  O   UNL A   1      32.235  36.125  30.056  1.00  0.00    -0.237 OA
ATOM     90  O   UNL A   1      33.747  36.787  28.229  1.00  0.00    -0.744 OA
ENDBRANCH  86  87
ENDBRANCH  54  79
BRANCH  66  91
ATOM     91  C   UNL A   1      39.844  34.415  37.005  1.00  0.00     0.058 A 
ATOM     92  C   UNL A   1      40.595  35.598  36.914  1.00  0.00     0.135 A 
ATOM     93  C   UNL A   1      38.955  34.282  38.084  1.00  0.00     0.135 A 
ATOM     94  F   UNL A   1      41.464  35.770  35.904  1.00  0.00    -0.206 F 
ATOM     95  C   UNL A   1      40.480  36.604  37.865  1.00  0.00     0.059 A 
ATOM     96  C   UNL A   1      38.807  35.287  39.034  1.00  0.00     0.059 A 
ATOM     97  F   UNL A   1      38.207  33.175  38.211  1.00  0.00    -0.206 F 
ATOM     98  C   UNL A   1      39.582  36.441  38.922  1.00  0.00     0.060 A 
BRANCH  98  99
ATOM     99  S   UNL A   1      39.415  37.771  40.131  1.00  0.00     0.124 S 
ATOM    100  O   UNL A   1      39.222  37.021  41.367  1.00  0.00    -0.237 OA
ATOM    101  O   UNL A   1      40.690  38.470  40.006  1.00  0.00    -0.237 OA
ATOM    102  O   UNL A   1      38.251  38.515  39.658  1.00  0.00    -0.744 OA
ENDBRANCH  98  99
ENDBRANCH  66  91
ENDBRANCH  40  41
ENDBRANCH  32  35
ENDBRANCH  30  31
ENDBRANCH  29  30
ENDBRANCH   1  29
TORSDOF 18
ENDMDL
MODEL 2
REMARK VINA RESULT:     -12.7      2.637      4.418
REMARK SMILES NC(=O)c1ccc(NC(=O)Cc2ccccc2C(=O)NCCCCNC(=O)c2ccc(-c3c4nc(c(-c5c(F)cc(S(=O)(=O)[O-])cc5F)c5ccc([nH]5)c(-c5c(F)cc(S(=O)(=O)[O-])cc5F)c5nc(c(-c6c(F)cc(S(=O)(=O)[O-])cc6F)c6ccc3[nH]6)C=C5)C=C4)cc2)cc1
REMARK SMILES IDX 22 1 21 2 20 3 18 4 19 5 17 7 12 8 13 9 14 10 16 11 15 12
REMARK SMILES IDX 11 13 9 14 8 15 10 17 7 18 4 19 5 20 95 21 6 22 94 23 2 24
REMARK SMILES IDX 1 25 3 28 23 29 24 30 25 31 26 32 27 34 28 35 29 36 93 37
REMARK SMILES IDX 30 38 92 39 31 40 32 41 33 42 86 43 34 44 91 45 85 46 87 47
REMARK SMILES IDX 35 48 90 49 84 50 83 51 36 53 70 54 49 55 69 56 50 57 53 58
REMARK SMILES IDX 68 59 88 60 51 61 52 62 67 64 89 65 54 66 37 67 38 68 47 69
REMARK SMILES IDX 39 70 40 71 46 72 48 73 41 74 42 75 43 76 44 77 45 78 71 79
REMARK SMILES IDX 72 80 81 81 73 82 74 83 80 84 82 85 75 86 76 87 77 88 78 89
REMARK SMILES IDX 79 90 55 91 56 92 65 93 57 94 58 95 64 96 66 97 59 98 60 99
REMARK SMILES IDX 61 100 62 101 63 102
REMARK H PARENT 20 6 8 16 1 26 1 27 25 33 87 52 53 63
REMARK Flexibility Score: inf
ROOT
ATOM      1  C   UNL A   1      39.364  21.899  26.085  1.00  0.00     0.023 C 
ENDROOT
BRANCH   1   2
ATOM      2  C   UNL A   1      37.903  22.286  25.804  1.00  0.00     0.116 C 
BRANCH   2   3
ATOM      3  N   UNL A   1      37.148  21.125  25.365  1.00  0.00    -0.352 N 
ATOM      4  C   UNL A   1      35.846  20.704  25.360  1.00  0.00     0.251 C 
ATOM      5  O   UNL A   1      35.671  19.587  24.853  1.00  0.00    -0.269 OA
ATOM      6  H   UNL A   1      37.740  20.451  24.958  1.00  0.00     0.163 HD
BRANCH   4   7
ATOM      7  C   UNL A   1      34.614  21.455  25.791  1.00  0.00     0.043 A 
ATOM      8  C   UNL A   1      33.600  22.059  25.019  1.00  0.00    -0.026 A 
ATOM      9  C   UNL A   1      32.561  22.771  25.675  1.00  0.00     0.005 A 
ATOM     10  C   UNL A   1      32.559  22.979  27.049  1.00  0.00     0.000 A 
ATOM     11  C   UNL A   1      34.583  21.695  27.189  1.00  0.00     0.014 A 
ATOM     12  C   UNL A   1      33.588  22.457  27.808  1.00  0.00     0.001 A 
BRANCH   8  13
ATOM     13  C   UNL A   1      33.568  22.139  23.521  1.00  0.00     0.136 C 
BRANCH  13  14
ATOM     14  C   UNL A   1      32.296  21.596  22.906  1.00  0.00     0.228 C 
ATOM     15  N   UNL A   1      32.017  20.276  22.755  1.00  0.00    -0.326 N 
ATOM     16  H   UNL A   1      31.401  20.066  22.016  1.00  0.00     0.169 HD
ATOM     17  O   UNL A   1      31.388  22.353  22.544  1.00  0.00    -0.274 OA
BRANCH  15  18
ATOM     18  C   UNL A   1      32.462  19.167  23.478  1.00  0.00     0.041 A 
ATOM     19  C   UNL A   1      33.037  16.686  24.592  1.00  0.00     0.039 A 
ATOM     20  C   UNL A   1      32.515  17.700  25.394  1.00  0.00     0.016 A 
ATOM     21  C   UNL A   1      33.361  16.926  23.257  1.00  0.00     0.016 A 
ATOM     22  C   UNL A   1      32.263  18.954  24.840  1.00  0.00     0.027 A 
ATOM     23  C   UNL A   1      33.082  18.174  22.709  1.00  0.00     0.027 A 
BRANCH  19  24
ATOM     24  C   UNL A   1      33.228  15.351  25.174  1.00  0.00     0.248 C 
ATOM     25  N   UNL A   1      32.085  14.715  25.552  1.00  0.00    -0.366 N 
ATOM     26  H   UNL A   1      32.132  13.816  25.952  1.00  0.00     0.159 HD
ATOM     27  H   UNL A   1      31.213  15.153  25.428  1.00  0.00     0.159 HD
ATOM     28  O   UNL A   1      34.338  14.848  25.272  1.00  0.00    -0.270 OA
ENDBRANCH  19  24
ENDBRANCH  15  18
ENDBRANCH  13  14
ENDBRANCH   8  13
ENDBRANCH   4   7
ENDBRANCH   2   3
ENDBRANCH   1   2
BRANCH   1  29
ATOM     29  C   UNL A   1      40.042  22.585  27.255  1.00  0.00     0.023 C 
BRANCH  29  30
ATOM     30  C   UNL A   1      41.418  23.128  26.936  1.00  0.00     0.116 C 
BRANCH  30  31
ATOM     31  N   UNL A   1      41.441  24.108  25.853  1.00  0.00    -0.352 N 
ATOM     32  C   UNL A   1      41.522  25.481  25.962  1.00  0.00     0.251 C 
ATOM     33  H   UNL A   1      41.393  23.747  24.938  1.00  0.00     0.163 HD
ATOM     34  O   UNL A   1      41.482  26.201  24.972  1.00  0.00    -0.269 OA
BRANCH  32  35
ATOM     35  C   UNL A   1      41.590  26.056  27.322  1.00  0.00     0.039 A 
ATOM     36  C   UNL A   1      42.633  26.928  27.633  1.00  0.00     0.014 A 
ATOM     37  C   UNL A   1      40.510  25.891  28.191  1.00  0.00     0.014 A 
ATOM     38  C   UNL A   1      42.531  27.732  28.769  1.00  0.00     0.010 A 
ATOM     39  C   UNL A   1      40.360  26.770  29.254  1.00  0.00     0.010 A 
ATOM     40  C   UNL A   1      41.361  27.709  29.547  1.00  0.00    -0.014 A 
BRANCH  40  41
ATOM     41  C   UNL A   1      41.144  28.676  30.655  1.00  0.00     0.031 A 
ATOM     42  C   UNL A   1      41.985  28.586  31.898  1.00  0.00     0.074 A 
ATOM     43  C   UNL A   1      40.135  29.569  30.581  1.00  0.00     0.049 A 
ATOM     44  N   UNL A   1      41.893  29.270  33.008  1.00  0.00    -0.248 NA
ATOM     45  C   UNL A   1      43.043  27.561  31.912  1.00  0.00     0.031 C 
ATOM     46  C   UNL A   1      39.197  29.704  29.463  1.00  0.00     0.029 A 
ATOM     47  N   UNL A   1      39.720  30.529  31.471  1.00  0.00    -0.354 N 
ATOM     48  C   UNL A   1      42.862  28.745  33.855  1.00  0.00     0.074 A 
ATOM     49  C   UNL A   1      43.486  27.644  33.156  1.00  0.00     0.031 C 
ATOM     50  C   UNL A   1      38.342  30.708  29.720  1.00  0.00     0.029 A 
ATOM     51  C   UNL A   1      38.643  31.264  31.034  1.00  0.00     0.049 A 
ATOM     52  H   UNL A   1      40.154  30.677  32.343  1.00  0.00     0.167 HD
ATOM     53  C   UNL A   1      43.223  29.163  35.090  1.00  0.00     0.037 A 
ATOM     54  C   UNL A   1      37.973  32.272  31.626  1.00  0.00     0.037 A 
ATOM     55  C   UNL A   1      42.631  30.288  35.762  1.00  0.00     0.049 A 
ATOM     56  C   UNL A   1      38.410  32.738  32.988  1.00  0.00     0.074 A 
ATOM     57  C   UNL A   1      42.981  30.845  36.978  1.00  0.00     0.029 A 
ATOM     58  N   UNL A   1      41.566  31.030  35.271  1.00  0.00    -0.354 N 
ATOM     59  N   UNL A   1      39.383  32.281  33.742  1.00  0.00    -0.248 NA
ATOM     60  C   UNL A   1      37.665  33.857  33.581  1.00  0.00     0.031 C 
ATOM     61  C   UNL A   1      42.103  31.903  37.240  1.00  0.00     0.029 A 
ATOM     62  C   UNL A   1      41.233  32.029  36.169  1.00  0.00     0.049 A 
ATOM     63  H   UNL A   1      41.115  30.868  34.411  1.00  0.00     0.167 HD
ATOM     64  C   UNL A   1      39.376  33.066  34.889  1.00  0.00     0.074 A 
ATOM     65  C   UNL A   1      38.315  34.038  34.724  1.00  0.00     0.031 C 
ATOM     66  C   UNL A   1      40.173  32.988  35.983  1.00  0.00     0.037 A 
BRANCH  53  67
ATOM     67  C   UNL A   1      44.325  28.409  35.780  1.00  0.00     0.058 A 
ATOM     68  C   UNL A   1      44.052  27.323  36.629  1.00  0.00     0.135 A 
ATOM     69  C   UNL A   1      45.669  28.764  35.582  1.00  0.00     0.135 A 
ATOM     70  F   UNL A   1      42.783  26.955  36.869  1.00  0.00    -0.206 F 
ATOM     71  C   UNL A   1      45.069  26.637  37.283  1.00  0.00     0.059 A 
ATOM     72  C   UNL A   1      46.705  28.073  36.204  1.00  0.00     0.059 A 
ATOM     73  F   UNL A   1      45.985  29.796  34.785  1.00  0.00    -0.206 F 
ATOM     74  C   UNL A   1      46.394  27.021  37.065  1.00  0.00     0.060 A 
BRANCH  74  75
ATOM     75  S   UNL A   1      47.702  26.119  37.920  1.00  0.00     0.124 S 
ATOM     76  O   UNL A   1      48.726  26.042  36.882  1.00  0.00    -0.237 OA
ATOM     77  O   UNL A   1      48.005  26.998  39.044  1.00  0.00    -0.237 OA
ATOM     78  O   UNL A   1      47.068  24.852  38.270  1.00  0.00    -0.744 OA
ENDBRANCH  74  75
ENDBRANCH  53  67
BRANCH  54  79
ATOM     79  C   UNL A   1      36.836  32.929  30.925  1.00  0.00     0.058 A 
ATOM     80  C   UNL A   1      35.510  32.621  31.262  1.00  0.00     0.135 A 
ATOM     81  C   UNL A   1      37.051  33.880  29.915  1.00  0.00     0.135 A 
ATOM     82  F   UNL A   1      35.254  31.712  32.214  1.00  0.00    -0.206 F 
ATOM     83  C   UNL A   1      34.434  33.222  30.615  1.00  0.00     0.059 A 
ATOM     84  C   UNL A   1      35.991  34.513  29.270  1.00  0.00     0.059 A 
ATOM     85  F   UNL A   1      38.300  34.221  29.566  1.00  0.00    -0.206 F 
ATOM     86  C   UNL A   1      34.685  34.169  29.621  1.00  0.00     0.060 A 
BRANCH  86  87
ATOM     87  S   UNL A   1      33.282  34.983  28.826  1.00  0.00     0.124 S 
ATOM     88  O   UNL A   1      33.928  36.120  28.181  1.00  0.00    -0.237 OA
ATOM     89  O   UNL A   1      32.787  33.939  27.933  1.00  0.00    -0.237 OA
ATOM     90  O   UNL A   1      32.404  35.305  29.947  1.00  0.00    -0.744 OA
ENDBRANCH  86  87
ENDBRANCH  54  79
BRANCH  66  91
ATOM     91  C   UNL A   1      39.939  33.987  37.079  1.00  0.00     0.058 A 
ATOM     92  C   UNL A   1      40.594  35.229  37.090  1.00  0.00     0.135 A 
ATOM     93  C   UNL A   1      39.010  33.723  38.098  1.00  0.00     0.135 A 
ATOM     94  F   UNL A   1      41.496  35.525  36.141  1.00  0.00    -0.206 F 
ATOM     95  C   UNL A   1      40.347  36.169  38.084  1.00  0.00     0.059 A 
ATOM     96  C   UNL A   1      38.730  34.659  39.088  1.00  0.00     0.059 A 
ATOM     97  F   UNL A   1      38.350  32.555  38.126  1.00  0.00    -0.206 F 
ATOM     98  C   UNL A   1      39.412  35.875  39.079  1.00  0.00     0.060 A 
BRANCH  98  99
ATOM     99  S   UNL A   1      39.073  37.119  40.343  1.00  0.00     0.124 S 
ATOM    100  O   UNL A   1      40.415  37.416  40.829  1.00  0.00    -0.237 OA
ATOM    101  O   UNL A   1      38.428  38.179  39.575  1.00  0.00    -0.237 OA
ATOM    102  O   UNL A   1      38.203  36.418  41.283  1.00  0.00    -0.744 OA
ENDBRANCH  98  99
ENDBRANCH  66  91
ENDBRANCH  40  41
ENDBRANCH  32  35
ENDBRANCH  30  31
ENDBRANCH  29  30
ENDBRANCH   1  29
TORSDOF 18
ENDMDL
MODEL 3
REMARK VINA RESULT:     -12.6      2.664      3.303
REMARK SMILES NC(=O)c1ccc(NC(=O)Cc2ccccc2C(=O)NCCCCNC(=O)c2ccc(-c3c4nc(c(-c5c(F)cc(S(=O)(=O)[O-])cc5F)c5ccc([nH]5)c(-c5c(F)cc(S(=O)(=O)[O-])cc5F)c5nc(c(-c6c(F)cc(S(=O)(=O)[O-])cc6F)c6ccc3[nH]6)C=C5)C=C4)cc2)cc1
REMARK SMILES IDX 22 1 21 2 20 3 18 4 19 5 17 7 12 8 13 9 14 10 16 11 15 12
REMARK SMILES IDX 11 13 9 14 8 15 10 17 7 18 4 19 5 20 95 21 6 22 94 23 2 24
REMARK SMILES IDX 1 25 3 28 23 29 24 30 25 31 26 32 27 34 28 35 29 36 93 37
REMARK SMILES IDX 30 38 92 39 31 40 32 41 33 42 86 43 34 44 91 45 85 46 87 47
REMARK SMILES IDX 35 48 90 49 84 50 83 51 36 53 70 54 49 55 69 56 50 57 53 58
REMARK SMILES IDX 68 59 88 60 51 61 52 62 67 64 89 65 54 66 37 67 38 68 47 69
REMARK SMILES IDX 39 70 40 71 46 72 48 73 41 74 42 75 43 76 44 77 45 78 71 79
REMARK SMILES IDX 72 80 81 81 73 82 74 83 80 84 82 85 75 86 76 87 77 88 78 89
REMARK SMILES IDX 79 90 55 91 56 92 65 93 57 94 58 95 64 96 66 97 59 98 60 99
REMARK SMILES IDX 61 100 62 101 63 102
REMARK H PARENT 20 6 8 16 1 26 1 27 25 33 87 52 53 63
REMARK Flexibility Score: inf
ROOT
ATOM      1  C   UNL A   1      35.932  22.107  23.844  1.00  0.00     0.023 C 
ENDROOT
BRANCH   1   2
ATOM      2  C   UNL A   1      34.777  21.642  24.745  1.00  0.00     0.116 C 
BRANCH   2   3
ATOM      3  N   UNL A   1      33.507  21.793  24.057  1.00  0.00    -0.352 N 
ATOM      4  C   UNL A   1      32.774  22.800  23.490  1.00  0.00     0.251 C 
ATOM      5  O   UNL A   1      31.699  22.435  22.995  1.00  0.00    -0.269 OA
ATOM      6  H   UNL A   1      33.042  20.928  23.976  1.00  0.00     0.163 HD
BRANCH   4   7
ATOM      7  C   UNL A   1      33.149  24.247  23.306  1.00  0.00     0.043 A 
ATOM      8  C   UNL A   1      33.591  25.199  24.247  1.00  0.00    -0.026 A 
ATOM      9  C   UNL A   1      33.825  26.534  23.824  1.00  0.00     0.005 A 
ATOM     10  C   UNL A   1      33.540  26.963  22.534  1.00  0.00     0.000 A 
ATOM     11  C   UNL A   1      32.862  24.722  22.000  1.00  0.00     0.014 A 
ATOM     12  C   UNL A   1      33.035  26.057  21.622  1.00  0.00     0.001 A 
BRANCH   8  13
ATOM     13  C   UNL A   1      33.726  24.975  25.724  1.00  0.00     0.136 C 
BRANCH  13  14
ATOM     14  C   UNL A   1      32.434  24.577  26.405  1.00  0.00     0.228 C 
ATOM     15  N   UNL A   1      31.367  25.400  26.570  1.00  0.00    -0.326 N 
ATOM     16  H   UNL A   1      30.794  25.182  27.341  1.00  0.00     0.169 HD
ATOM     17  O   UNL A   1      32.256  23.424  26.812  1.00  0.00    -0.274 OA
BRANCH  15  18
ATOM     18  C   UNL A   1      30.951  26.507  25.826  1.00  0.00     0.041 A 
ATOM     19  C   UNL A   1      30.320  28.444  23.935  1.00  0.00     0.039 A 
ATOM     20  C   UNL A   1      31.127  28.775  25.022  1.00  0.00     0.016 A 
ATOM     21  C   UNL A   1      29.749  27.176  23.830  1.00  0.00     0.016 A 
ATOM     22  C   UNL A   1      31.410  27.811  25.988  1.00  0.00     0.027 A 
ATOM     23  C   UNL A   1      30.059  26.214  24.786  1.00  0.00     0.027 A 
BRANCH  19  24
ATOM     24  C   UNL A   1      30.092  29.450  22.890  1.00  0.00     0.248 C 
ATOM     25  N   UNL A   1      29.520  30.610  23.316  1.00  0.00    -0.366 N 
ATOM     26  H   UNL A   1      29.336  31.332  22.672  1.00  0.00     0.159 HD
ATOM     27  H   UNL A   1      29.290  30.726  24.266  1.00  0.00     0.159 HD
ATOM     28  O   UNL A   1      30.430  29.257  21.731  1.00  0.00    -0.270 OA
ENDBRANCH  19  24
ENDBRANCH  15  18
ENDBRANCH  13  14
ENDBRANCH   8  13
ENDBRANCH   4   7
ENDBRANCH   2   3
ENDBRANCH   1   2
BRANCH   1  29
ATOM     29  C   UNL A   1      36.683  23.351  24.277  1.00  0.00     0.023 C 
BRANCH  29  30
ATOM     30  C   UNL A   1      37.265  23.264  25.671  1.00  0.00     0.116 C 
BRANCH  30  31
ATOM     31  N   UNL A   1      38.577  22.624  25.736  1.00  0.00    -0.352 N 
ATOM     32  C   UNL A   1      39.734  23.134  26.288  1.00  0.00     0.251 C 
ATOM     33  H   UNL A   1      38.643  21.725  25.339  1.00  0.00     0.163 HD
ATOM     34  O   UNL A   1      40.790  22.515  26.235  1.00  0.00    -0.269 OA
BRANCH  32  35
ATOM     35  C   UNL A   1      39.670  24.483  26.888  1.00  0.00     0.039 A 
ATOM     36  C   UNL A   1      39.092  24.633  28.149  1.00  0.00     0.014 A 
ATOM     37  C   UNL A   1      40.369  25.532  26.290  1.00  0.00     0.014 A 
ATOM     38  C   UNL A   1      39.323  25.807  28.866  1.00  0.00     0.010 A 
ATOM     39  C   UNL A   1      40.690  26.649  27.050  1.00  0.00     0.010 A 
ATOM     40  C   UNL A   1      40.183  26.793  28.350  1.00  0.00    -0.014 A 
BRANCH  40  41
ATOM     41  C   UNL A   1      40.592  27.969  29.160  1.00  0.00     0.031 A 
ATOM     42  C   UNL A   1      41.919  27.963  29.868  1.00  0.00     0.074 A 
ATOM     43  C   UNL A   1      39.735  28.997  29.335  1.00  0.00     0.049 A 
ATOM     44  N   UNL A   1      42.418  28.844  30.693  1.00  0.00    -0.248 NA
ATOM     45  C   UNL A   1      42.781  26.788  29.653  1.00  0.00     0.031 C 
ATOM     46  C   UNL A   1      38.386  29.088  28.767  1.00  0.00     0.029 A 
ATOM     47  N   UNL A   1      39.865  30.162  30.050  1.00  0.00    -0.354 N 
ATOM     48  C   UNL A   1      43.636  28.322  31.110  1.00  0.00     0.074 A 
ATOM     49  C   UNL A   1      43.771  27.019  30.499  1.00  0.00     0.031 C 
ATOM     50  C   UNL A   1      37.830  30.256  29.128  1.00  0.00     0.029 A 
ATOM     51  C   UNL A   1      38.763  30.983  29.982  1.00  0.00     0.049 A 
ATOM     52  H   UNL A   1      40.674  30.390  30.565  1.00  0.00     0.167 HD
ATOM     53  C   UNL A   1      44.575  28.890  31.903  1.00  0.00     0.037 A 
ATOM     54  C   UNL A   1      38.530  32.185  30.545  1.00  0.00     0.037 A 
ATOM     55  C   UNL A   1      44.456  30.206  32.470  1.00  0.00     0.049 A 
ATOM     56  C   UNL A   1      39.599  32.809  31.401  1.00  0.00     0.074 A 
ATOM     57  C   UNL A   1      45.384  30.907  33.218  1.00  0.00     0.029 A 
ATOM     58  N   UNL A   1      43.340  31.021  32.350  1.00  0.00    -0.354 N 
ATOM     59  N   UNL A   1      40.781  32.334  31.719  1.00  0.00    -0.248 NA
ATOM     60  C   UNL A   1      39.309  34.131  31.971  1.00  0.00     0.031 C 
ATOM     61  C   UNL A   1      44.815  32.132  33.580  1.00  0.00     0.029 A 
ATOM     62  C   UNL A   1      43.548  32.211  33.025  1.00  0.00     0.049 A 
ATOM     63  H   UNL A   1      42.521  30.786  31.856  1.00  0.00     0.167 HD
ATOM     64  C   UNL A   1      41.380  33.306  32.513  1.00  0.00     0.074 A 
ATOM     65  C   UNL A   1      40.438  34.402  32.612  1.00  0.00     0.031 C 
ATOM     66  C   UNL A   1      42.597  33.290  33.109  1.00  0.00     0.037 A 
BRANCH  53  67
ATOM     67  C   UNL A   1      45.818  28.094  32.181  1.00  0.00     0.058 A 
ATOM     68  C   UNL A   1      45.905  27.230  33.286  1.00  0.00     0.135 A 
ATOM     69  C   UNL A   1      46.930  28.181  31.329  1.00  0.00     0.135 A 
ATOM     70  F   UNL A   1      44.879  27.125  34.145  1.00  0.00    -0.206 F 
ATOM     71  C   UNL A   1      47.063  26.508  33.555  1.00  0.00     0.059 A 
ATOM     72  C   UNL A   1      48.089  27.444  31.563  1.00  0.00     0.059 A 
ATOM     73  F   UNL A   1      46.901  28.993  30.261  1.00  0.00    -0.206 F 
ATOM     74  C   UNL A   1      48.150  26.623  32.688  1.00  0.00     0.060 A 
BRANCH  74  75
ATOM     75  S   UNL A   1      49.643  25.677  33.051  1.00  0.00     0.124 S 
ATOM     76  O   UNL A   1      49.232  24.930  34.236  1.00  0.00    -0.237 OA
ATOM     77  O   UNL A   1      49.818  24.889  31.835  1.00  0.00    -0.237 OA
ATOM     78  O   UNL A   1      50.652  26.708  33.277  1.00  0.00    -0.744 OA
ENDBRANCH  74  75
ENDBRANCH  53  67
BRANCH  54  79
ATOM     79  C   UNL A   1      37.244  32.891  30.297  1.00  0.00     0.058 A 
ATOM     80  C   UNL A   1      36.175  32.775  31.198  1.00  0.00     0.135 A 
ATOM     81  C   UNL A   1      37.061  33.701  29.165  1.00  0.00     0.135 A 
ATOM     82  F   UNL A   1      36.300  32.006  32.289  1.00  0.00    -0.206 F 
ATOM     83  C   UNL A   1      34.964  33.425  30.981  1.00  0.00     0.059 A 
ATOM     84  C   UNL A   1      35.866  34.380  28.938  1.00  0.00     0.059 A 
ATOM     85  F   UNL A   1      38.057  33.857  28.281  1.00  0.00    -0.206 F 
ATOM     86  C   UNL A   1      34.820  34.228  29.848  1.00  0.00     0.060 A 
BRANCH  86  87
ATOM     87  S   UNL A   1      33.262  35.110  29.604  1.00  0.00     0.124 S 
ATOM     88  O   UNL A   1      32.632  34.311  28.560  1.00  0.00    -0.237 OA
ATOM     89  O   UNL A   1      32.652  35.028  30.928  1.00  0.00    -0.237 OA
ATOM     90  O   UNL A   1      33.694  36.446  29.205  1.00  0.00    -0.744 OA
ENDBRANCH  86  87
ENDBRANCH  54  79
BRANCH  66  91
ATOM     91  C   UNL A   1      42.988  34.500  33.909  1.00  0.00     0.058 A 
ATOM     92  C   UNL A   1      42.732  34.581  35.287  1.00  0.00     0.135 A 
ATOM     93  C   UNL A   1      43.675  35.563  33.303  1.00  0.00     0.135 A 
ATOM     94  F   UNL A   1      42.072  33.592  35.911  1.00  0.00    -0.206 F 
ATOM     95  C   UNL A   1      43.129  35.684  36.034  1.00  0.00     0.059 A 
ATOM     96  C   UNL A   1      44.102  36.665  34.036  1.00  0.00     0.059 A 
ATOM     97  F   UNL A   1      43.952  35.529  31.991  1.00  0.00    -0.206 F 
ATOM     98  C   UNL A   1      43.815  36.721  35.400  1.00  0.00     0.060 A 
BRANCH  98  99
ATOM     99  S   UNL A   1      44.358  38.132  36.387  1.00  0.00     0.124 S 
ATOM    100  O   UNL A   1      43.464  38.047  37.536  1.00  0.00    -0.237 OA
ATOM    101  O   UNL A   1      45.758  37.810  36.649  1.00  0.00    -0.237 OA
ATOM    102  O   UNL A   1      44.139  39.271  35.501  1.00  0.00    -0.744 OA
ENDBRANCH  98  99
ENDBRANCH  66  91
ENDBRANCH  40  41
ENDBRANCH  32  35
ENDBRANCH  30  31
ENDBRANCH  29  30
ENDBRANCH   1  29
TORSDOF 18
ENDMDL
