MODEL 1
REMARK VINA RESULT:     -12.0      0.000      0.000
REMARK SMILES COCCN1C(=O)C[C@H](C(=O)NCCCCNC(=O)c2ccc(-c3c4nc(c(-c5c(F)cc(S(=O)(=O)[O-])cc5F)c5ccc([nH]5)c(-c5c(F)cc(S(=O)(=O)[O-])cc5F)c5nc(c(-c6c(F)cc(S(=O)(=O)[O-])cc6F)c6ccc3[nH]6)C=C5)C=C4)cc2)[C@@H]1c1ccccc1N1CCOCC1
REMARK SMILES IDX 14 1 13 2 12 3 10 4 11 5 9 7 5 8 6 9 86 10 7 11 8 12 4 13
REMARK SMILES IDX 3 14 2 15 1 16 87 17 88 18 92 19 89 20 91 21 90 22 93 23
REMARK SMILES IDX 94 24 98 25 95 26 97 27 96 28 15 29 16 30 17 31 18 32 19 34
REMARK SMILES IDX 20 35 21 36 85 37 22 38 84 39 23 40 24 41 25 42 78 43 26 44
REMARK SMILES IDX 83 45 77 46 79 47 27 48 82 49 76 50 75 51 28 53 62 54 41 55
REMARK SMILES IDX 61 56 42 57 45 58 60 59 80 60 43 61 44 62 59 64 81 65 46 66
REMARK SMILES IDX 29 67 30 68 39 69 31 70 32 71 38 72 40 73 33 74 34 75 35 76
REMARK SMILES IDX 36 77 37 78 63 79 64 80 73 81 65 82 66 83 72 84 74 85 67 86
REMARK SMILES IDX 68 87 69 88 70 89 71 90 47 91 48 92 57 93 49 94 50 95 56 96
REMARK SMILES IDX 58 97 51 98 52 99 53 100 54 101 55 102
REMARK H PARENT 12 6 17 33 79 52 45 63
REMARK Flexibility Score: inf
ROOT
ATOM      1  C   UNL A   1      34.373  30.536  27.798  1.00  0.00     0.023 C 
ENDROOT
BRANCH   1   2
ATOM      2  C   UNL A   1      33.067  30.551  27.021  1.00  0.00     0.116 C 
BRANCH   2   3
ATOM      3  N   UNL A   1      32.212  29.442  27.378  1.00  0.00    -0.356 N 
ATOM      4  C   UNL A   1      32.146  28.189  26.867  1.00  0.00     0.226 C 
ATOM      5  O   UNL A   1      31.277  27.441  27.331  1.00  0.00    -0.275 OA
ATOM      6  H   UNL A   1      31.578  29.626  28.108  1.00  0.00     0.163 HD
BRANCH   4   7
ATOM      7  C   UNL A   1      32.957  27.718  25.683  1.00  0.00     0.115 C 
ATOM      8  N   UNL A   1      33.162  26.536  23.660  1.00  0.00    -0.332 N 
ATOM      9  C   UNL A   1      33.816  25.778  24.624  1.00  0.00     0.224 C 
ATOM     10  C   UNL A   1      32.426  27.679  24.236  1.00  0.00     0.130 C 
ATOM     11  O   UNL A   1      34.512  24.792  24.415  1.00  0.00    -0.275 OA
ATOM     12  C   UNL A   1      33.583  26.361  25.977  1.00  0.00     0.116 C 
BRANCH   8  13
ATOM     13  C   UNL A   1      33.538  26.315  22.257  1.00  0.00     0.148 C 
BRANCH  13  14
ATOM     14  C   UNL A   1      32.531  25.797  21.226  1.00  0.00     0.181 C 
BRANCH  14  15
ATOM     15  O   UNL A   1      33.135  25.472  19.971  1.00  0.00    -0.383 OA
ATOM     16  C   UNL A   1      32.207  25.402  18.905  1.00  0.00     0.194 C 
ENDBRANCH  14  15
ENDBRANCH  13  14
ENDBRANCH   8  13
BRANCH  10  17
ATOM     17  C   UNL A   1      30.925  27.693  23.953  1.00  0.00    -0.001 A 
ATOM     18  C   UNL A   1      30.318  28.870  23.445  1.00  0.00     0.008 A 
ATOM     19  C   UNL A   1      30.100  26.552  24.177  1.00  0.00     0.042 A 
ATOM     20  C   UNL A   1      28.947  28.950  23.203  1.00  0.00     0.001 A 
ATOM     21  C   UNL A   1      28.714  26.673  23.933  1.00  0.00     0.026 A 
ATOM     22  C   UNL A   1      28.143  27.853  23.456  1.00  0.00     0.002 A 
BRANCH  19  23
ATOM     23  N   UNL A   1      30.633  25.319  24.548  1.00  0.00    -0.367 N 
ATOM     24  C   UNL A   1      30.372  24.813  25.904  1.00  0.00     0.145 C 
ATOM     25  C   UNL A   1      30.647  24.212  23.554  1.00  0.00     0.145 C 
ATOM     26  C   UNL A   1      31.452  23.778  26.248  1.00  0.00     0.181 C 
ATOM     27  C   UNL A   1      31.615  23.095  23.994  1.00  0.00     0.181 C 
ATOM     28  O   UNL A   1      31.379  22.662  25.346  1.00  0.00    -0.378 OA
ENDBRANCH  19  23
ENDBRANCH  10  17
ENDBRANCH   4   7
ENDBRANCH   2   3
ENDBRANCH   1   2
BRANCH   1  29
ATOM     29  C   UNL A   1      35.085  31.890  27.803  1.00  0.00     0.023 C 
BRANCH  29  30
ATOM     30  C   UNL A   1      36.028  32.116  28.984  1.00  0.00     0.116 C 
BRANCH  30  31
ATOM     31  N   UNL A   1      35.803  31.173  30.072  1.00  0.00    -0.352 N 
ATOM     32  C   UNL A   1      36.616  30.158  30.517  1.00  0.00     0.251 C 
ATOM     33  H   UNL A   1      34.951  31.277  30.553  1.00  0.00     0.163 HD
ATOM     34  O   UNL A   1      36.198  29.329  31.317  1.00  0.00    -0.269 OA
BRANCH  32  35
ATOM     35  C   UNL A   1      37.997  30.081  30.005  1.00  0.00     0.039 A 
ATOM     36  C   UNL A   1      39.066  30.131  30.901  1.00  0.00     0.014 A 
ATOM     37  C   UNL A   1      38.221  29.897  28.638  1.00  0.00     0.014 A 
ATOM     38  C   UNL A   1      40.362  29.917  30.430  1.00  0.00     0.010 A 
ATOM     39  C   UNL A   1      39.501  29.600  28.187  1.00  0.00     0.010 A 
ATOM     40  C   UNL A   1      40.585  29.605  29.078  1.00  0.00    -0.014 A 
BRANCH  40  41
ATOM     41  C   UNL A   1      41.941  29.268  28.575  1.00  0.00     0.031 A 
ATOM     42  C   UNL A   1      42.259  27.857  28.158  1.00  0.00     0.074 A 
ATOM     43  C   UNL A   1      42.903  30.211  28.562  1.00  0.00     0.049 A 
ATOM     44  N   UNL A   1      43.400  27.349  27.768  1.00  0.00    -0.248 NA
ATOM     45  C   UNL A   1      41.157  26.883  28.214  1.00  0.00     0.031 C 
ATOM     46  C   UNL A   1      42.730  31.603  28.988  1.00  0.00     0.029 A 
ATOM     47  N   UNL A   1      44.222  30.144  28.186  1.00  0.00    -0.354 N 
ATOM     48  C   UNL A   1      43.155  26.000  27.542  1.00  0.00     0.074 A 
ATOM     49  C   UNL A   1      41.775  25.755  27.898  1.00  0.00     0.031 C 
ATOM     50  C   UNL A   1      43.889  32.262  28.823  1.00  0.00     0.029 A 
ATOM     51  C   UNL A   1      44.899  31.333  28.325  1.00  0.00     0.049 A 
ATOM     52  H   UNL A   1      44.643  29.321  27.850  1.00  0.00     0.167 HD
ATOM     53  C   UNL A   1      43.997  25.058  27.055  1.00  0.00     0.037 A 
ATOM     54  C   UNL A   1      46.190  31.640  28.087  1.00  0.00     0.037 A 
ATOM     55  C   UNL A   1      45.365  25.314  26.686  1.00  0.00     0.049 A 
ATOM     56  C   UNL A   1      47.112  30.569  27.567  1.00  0.00     0.074 A 
ATOM     57  C   UNL A   1      46.285  24.438  26.136  1.00  0.00     0.029 A 
ATOM     58  N   UNL A   1      46.011  26.533  26.832  1.00  0.00    -0.354 N 
ATOM     59  N   UNL A   1      46.847  29.312  27.298  1.00  0.00    -0.248 NA
ATOM     60  C   UNL A   1      48.505  30.957  27.314  1.00  0.00     0.031 C 
ATOM     61  C   UNL A   1      47.501  25.114  25.998  1.00  0.00     0.029 A 
ATOM     62  C   UNL A   1      47.325  26.426  26.407  1.00  0.00     0.049 A 
ATOM     63  H   UNL A   1      45.597  27.353  27.185  1.00  0.00     0.167 HD
ATOM     64  C   UNL A   1      48.033  28.769  26.818  1.00  0.00     0.074 A 
ATOM     65  C   UNL A   1      49.012  29.835  26.821  1.00  0.00     0.031 C 
ATOM     66  C   UNL A   1      48.287  27.501  26.407  1.00  0.00     0.037 A 
BRANCH  53  67
ATOM     67  C   UNL A   1      43.460  23.662  26.888  1.00  0.00     0.058 A 
ATOM     68  C   UNL A   1      43.340  22.783  27.977  1.00  0.00     0.135 A 
ATOM     69  C   UNL A   1      43.026  23.207  25.633  1.00  0.00     0.135 A 
ATOM     70  F   UNL A   1      43.754  23.158  29.198  1.00  0.00    -0.206 F 
ATOM     71  C   UNL A   1      42.839  21.494  27.823  1.00  0.00     0.059 A 
ATOM     72  C   UNL A   1      42.492  21.933  25.460  1.00  0.00     0.059 A 
ATOM     73  F   UNL A   1      43.118  24.003  24.556  1.00  0.00    -0.206 F 
ATOM     74  C   UNL A   1      42.416  21.080  26.559  1.00  0.00     0.060 A 
BRANCH  74  75
ATOM     75  S   UNL A   1      41.763  19.406  26.378  1.00  0.00     0.124 S 
ATOM     76  O   UNL A   1      40.333  19.666  26.240  1.00  0.00    -0.237 OA
ATOM     77  O   UNL A   1      42.440  18.936  25.174  1.00  0.00    -0.237 OA
ATOM     78  O   UNL A   1      42.163  18.749  27.617  1.00  0.00    -0.744 OA
ENDBRANCH  74  75
ENDBRANCH  53  67
BRANCH  54  79
ATOM     79  C   UNL A   1      46.681  33.025  28.318  1.00  0.00     0.058 A 
ATOM     80  C   UNL A   1      46.613  33.993  27.305  1.00  0.00     0.135 A 
ATOM     81  C   UNL A   1      47.222  33.412  29.555  1.00  0.00     0.135 A 
ATOM     82  F   UNL A   1      46.112  33.671  26.103  1.00  0.00    -0.206 F 
ATOM     83  C   UNL A   1      47.077  35.290  27.502  1.00  0.00     0.059 A 
ATOM     84  C   UNL A   1      47.666  34.711  29.784  1.00  0.00     0.059 A 
ATOM     85  F   UNL A   1      47.295  32.529  30.563  1.00  0.00    -0.206 F 
ATOM     86  C   UNL A   1      47.600  35.640  28.748  1.00  0.00     0.060 A 
BRANCH  86  87
ATOM     87  S   UNL A   1      48.156  37.338  29.006  1.00  0.00     0.124 S 
ATOM     88  O   UNL A   1      48.339  37.370  30.453  1.00  0.00    -0.237 OA
ATOM     89  O   UNL A   1      49.375  37.384  28.206  1.00  0.00    -0.237 OA
ATOM     90  O   UNL A   1      47.047  38.136  28.492  1.00  0.00    -0.744 OA
ENDBRANCH  86  87
ENDBRANCH  54  79
BRANCH  66  91
ATOM     91  C   UNL A   1      49.668  27.199  25.895  1.00  0.00     0.058 A 
ATOM     92  C   UNL A   1      50.684  26.724  26.738  1.00  0.00     0.135 A 
ATOM     93  C   UNL A   1      49.960  27.330  24.527  1.00  0.00     0.135 A 
ATOM     94  F   UNL A   1      50.461  26.588  28.055  1.00  0.00    -0.206 F 
ATOM     95  C   UNL A   1      51.947  26.407  26.247  1.00  0.00     0.059 A 
ATOM     96  C   UNL A   1      51.206  26.989  24.009  1.00  0.00     0.059 A 
ATOM     97  F   UNL A   1      49.022  27.771  23.673  1.00  0.00    -0.206 F 
ATOM     98  C   UNL A   1      52.196  26.539  24.880  1.00  0.00     0.060 A 
BRANCH  98  99
ATOM     99  S   UNL A   1      53.825  26.081  24.251  1.00  0.00     0.124 S 
ATOM    100  O   UNL A   1      54.025  24.777  24.874  1.00  0.00    -0.237 OA
ATOM    101  O   UNL A   1      53.608  26.066  22.807  1.00  0.00    -0.237 OA
ATOM    102  O   UNL A   1      54.692  27.149  24.737  1.00  0.00    -0.744 OA
ENDBRANCH  98  99
ENDBRANCH  66  91
ENDBRANCH  40  41
ENDBRANCH  32  35
ENDBRANCH  30  31
ENDBRANCH  29  30
ENDBRANCH   1  29
TORSDOF 19
ENDMDL
MODEL 2
REMARK VINA RESULT:     -11.9      6.556     11.887
REMARK SMILES COCCN1C(=O)C[C@H](C(=O)NCCCCNC(=O)c2ccc(-c3c4nc(c(-c5c(F)cc(S(=O)(=O)[O-])cc5F)c5ccc([nH]5)c(-c5c(F)cc(S(=O)(=O)[O-])cc5F)c5nc(c(-c6c(F)cc(S(=O)(=O)[O-])cc6F)c6ccc3[nH]6)C=C5)C=C4)cc2)[C@@H]1c1ccccc1N1CCOCC1
REMARK SMILES IDX 14 1 13 2 12 3 10 4 11 5 9 7 5 8 6 9 86 10 7 11 8 12 4 13
REMARK SMILES IDX 3 14 2 15 1 16 87 17 88 18 92 19 89 20 91 21 90 22 93 23
REMARK SMILES IDX 94 24 98 25 95 26 97 27 96 28 15 29 16 30 17 31 18 32 19 34
REMARK SMILES IDX 20 35 21 36 85 37 22 38 84 39 23 40 24 41 25 42 78 43 26 44
REMARK SMILES IDX 83 45 77 46 79 47 27 48 82 49 76 50 75 51 28 53 62 54 41 55
REMARK SMILES IDX 61 56 42 57 45 58 60 59 80 60 43 61 44 62 59 64 81 65 46 66
REMARK SMILES IDX 29 67 30 68 39 69 31 70 32 71 38 72 40 73 33 74 34 75 35 76
REMARK SMILES IDX 36 77 37 78 63 79 64 80 73 81 65 82 66 83 72 84 74 85 67 86
REMARK SMILES IDX 68 87 69 88 70 89 71 90 47 91 48 92 57 93 49 94 50 95 56 96
REMARK SMILES IDX 58 97 51 98 52 99 53 100 54 101 55 102
REMARK H PARENT 12 6 17 33 79 52 45 63
REMARK Flexibility Score: inf
ROOT
ATOM      1  C   UNL A   1      38.800  22.643  26.187  1.00  0.00     0.023 C 
ENDROOT
BRANCH   1   2
ATOM      2  C   UNL A   1      37.942  21.576  25.527  1.00  0.00     0.116 C 
BRANCH   2   3
ATOM      3  N   UNL A   1      37.392  22.026  24.269  1.00  0.00    -0.356 N 
ATOM      4  C   UNL A   1      36.306  22.796  24.014  1.00  0.00     0.226 C 
ATOM      5  O   UNL A   1      36.027  22.993  22.826  1.00  0.00    -0.275 OA
ATOM      6  H   UNL A   1      37.884  21.727  23.471  1.00  0.00     0.163 HD
BRANCH   4   7
ATOM      7  C   UNL A   1      35.353  23.286  25.079  1.00  0.00     0.115 C 
ATOM      8  N   UNL A   1      33.175  23.662  25.885  1.00  0.00    -0.332 N 
ATOM      9  C   UNL A   1      33.680  24.907  25.526  1.00  0.00     0.224 C 
ATOM     10  C   UNL A   1      34.059  22.550  25.481  1.00  0.00     0.130 C 
ATOM     11  O   UNL A   1      33.158  25.990  25.758  1.00  0.00    -0.275 OA
ATOM     12  C   UNL A   1      34.991  24.745  24.833  1.00  0.00     0.116 C 
BRANCH   8  13
ATOM     13  C   UNL A   1      32.071  23.636  26.853  1.00  0.00     0.148 C 
BRANCH  13  14
ATOM     14  C   UNL A   1      30.741  22.944  26.537  1.00  0.00     0.181 C 
BRANCH  14  15
ATOM     15  O   UNL A   1      29.716  23.245  27.489  1.00  0.00    -0.383 OA
ATOM     16  C   UNL A   1      28.677  22.286  27.514  1.00  0.00     0.194 C 
ENDBRANCH  14  15
ENDBRANCH  13  14
ENDBRANCH   8  13
BRANCH  10  17
ATOM     17  C   UNL A   1      33.421  21.522  24.549  1.00  0.00    -0.001 A 
ATOM     18  C   UNL A   1      33.544  20.139  24.841  1.00  0.00     0.008 A 
ATOM     19  C   UNL A   1      32.693  21.902  23.384  1.00  0.00     0.042 A 
ATOM     20  C   UNL A   1      33.014  19.156  24.006  1.00  0.00     0.001 A 
ATOM     21  C   UNL A   1      32.180  20.880  22.554  1.00  0.00     0.026 A 
ATOM     22  C   UNL A   1      32.339  19.528  22.856  1.00  0.00     0.002 A 
BRANCH  19  23
ATOM     23  N   UNL A   1      32.411  23.236  23.094  1.00  0.00    -0.367 N 
ATOM     24  C   UNL A   1      33.075  23.867  21.943  1.00  0.00     0.145 C 
ATOM     25  C   UNL A   1      31.015  23.727  23.245  1.00  0.00     0.145 C 
ATOM     26  C   UNL A   1      33.045  25.388  22.144  1.00  0.00     0.181 C 
ATOM     27  C   UNL A   1      30.979  25.268  23.279  1.00  0.00     0.181 C 
ATOM     28  O   UNL A   1      31.689  25.861  22.176  1.00  0.00    -0.378 OA
ENDBRANCH  19  23
ENDBRANCH  10  17
ENDBRANCH   4   7
ENDBRANCH   2   3
ENDBRANCH   1   2
BRANCH   1  29
ATOM     29  C   UNL A   1      40.053  22.077  26.857  1.00  0.00     0.023 C 
BRANCH  29  30
ATOM     30  C   UNL A   1      41.113  23.115  27.219  1.00  0.00     0.116 C 
BRANCH  30  31
ATOM     31  N   UNL A   1      41.374  24.054  26.135  1.00  0.00    -0.352 N 
ATOM     32  C   UNL A   1      41.370  25.428  26.163  1.00  0.00     0.251 C 
ATOM     33  H   UNL A   1      41.579  23.648  25.262  1.00  0.00     0.163 HD
ATOM     34  O   UNL A   1      41.417  26.074  25.121  1.00  0.00    -0.269 OA
BRANCH  32  35
ATOM     35  C   UNL A   1      41.298  26.110  27.469  1.00  0.00     0.039 A 
ATOM     36  C   UNL A   1      42.423  26.771  27.962  1.00  0.00     0.014 A 
ATOM     37  C   UNL A   1      40.089  26.139  28.170  1.00  0.00     0.014 A 
ATOM     38  C   UNL A   1      42.312  27.532  29.127  1.00  0.00     0.010 A 
ATOM     39  C   UNL A   1      39.961  26.964  29.280  1.00  0.00     0.010 A 
ATOM     40  C   UNL A   1      41.070  27.671  29.770  1.00  0.00    -0.014 A 
BRANCH  40  41
ATOM     41  C   UNL A   1      40.904  28.560  30.948  1.00  0.00     0.031 A 
ATOM     42  C   UNL A   1      39.850  29.635  30.936  1.00  0.00     0.074 A 
ATOM     43  C   UNL A   1      41.746  28.448  31.994  1.00  0.00     0.049 A 
ATOM     44  N   UNL A   1      39.602  30.557  31.831  1.00  0.00    -0.248 NA
ATOM     45  C   UNL A   1      38.980  29.699  29.751  1.00  0.00     0.031 C 
ATOM     46  C   UNL A   1      42.838  27.477  32.102  1.00  0.00     0.029 A 
ATOM     47  N   UNL A   1      41.824  29.161  33.165  1.00  0.00    -0.354 N 
ATOM     48  C   UNL A   1      38.557  31.313  31.314  1.00  0.00     0.074 A 
ATOM     49  C   UNL A   1      38.260  30.783  30.001  1.00  0.00     0.031 C 
ATOM     50  C   UNL A   1      43.457  27.638  33.283  1.00  0.00     0.029 A 
ATOM     51  C   UNL A   1      42.838  28.751  33.997  1.00  0.00     0.049 A 
ATOM     52  H   UNL A   1      41.210  29.898  33.387  1.00  0.00     0.167 HD
ATOM     53  C   UNL A   1      37.888  32.338  31.892  1.00  0.00     0.037 A 
ATOM     54  C   UNL A   1      43.233  29.222  35.197  1.00  0.00     0.037 A 
ATOM     55  C   UNL A   1      38.178  32.848  33.207  1.00  0.00     0.049 A 
ATOM     56  C   UNL A   1      42.486  30.377  35.810  1.00  0.00     0.074 A 
ATOM     57  C   UNL A   1      37.524  33.850  33.903  1.00  0.00     0.029 A 
ATOM     58  N   UNL A   1      39.206  32.400  34.023  1.00  0.00    -0.354 N 
ATOM     59  N   UNL A   1      41.459  31.041  35.334  1.00  0.00    -0.248 NA
ATOM     60  C   UNL A   1      42.949  30.846  37.122  1.00  0.00     0.031 C 
ATOM     61  C   UNL A   1      38.190  34.043  35.117  1.00  0.00     0.029 A 
ATOM     62  C   UNL A   1      39.222  33.122  35.204  1.00  0.00     0.049 A 
ATOM     63  H   UNL A   1      39.832  31.675  33.796  1.00  0.00     0.167 HD
ATOM     64  C   UNL A   1      41.135  31.985  36.302  1.00  0.00     0.074 A 
ATOM     65  C   UNL A   1      42.067  31.799  37.395  1.00  0.00     0.031 C 
ATOM     66  C   UNL A   1      40.152  32.919  36.288  1.00  0.00     0.037 A 
BRANCH  53  67
ATOM     67  C   UNL A   1      36.771  32.973  31.108  1.00  0.00     0.058 A 
ATOM     68  C   UNL A   1      35.423  32.752  31.433  1.00  0.00     0.135 A 
ATOM     69  C   UNL A   1      37.051  33.842  30.041  1.00  0.00     0.135 A 
ATOM     70  F   UNL A   1      35.096  31.918  32.433  1.00  0.00    -0.206 F 
ATOM     71  C   UNL A   1      34.392  33.344  30.710  1.00  0.00     0.059 A 
ATOM     72  C   UNL A   1      36.037  34.470  29.324  1.00  0.00     0.059 A 
ATOM     73  F   UNL A   1      38.321  34.089  29.685  1.00  0.00    -0.206 F 
ATOM     74  C   UNL A   1      34.711  34.203  29.657  1.00  0.00     0.060 A 
BRANCH  74  75
ATOM     75  S   UNL A   1      33.360  34.967  28.734  1.00  0.00     0.124 S 
ATOM     76  O   UNL A   1      34.018  36.148  28.181  1.00  0.00    -0.237 OA
ATOM     77  O   UNL A   1      33.014  33.927  27.771  1.00  0.00    -0.237 OA
ATOM     78  O   UNL A   1      32.355  35.231  29.757  1.00  0.00    -0.744 OA
ENDBRANCH  74  75
ENDBRANCH  53  67
BRANCH  54  79
ATOM     79  C   UNL A   1      44.376  28.589  35.907  1.00  0.00     0.058 A 
ATOM     80  C   UNL A   1      45.693  29.018  35.681  1.00  0.00     0.135 A 
ATOM     81  C   UNL A   1      44.178  27.551  36.832  1.00  0.00     0.135 A 
ATOM     82  F   UNL A   1      45.935  30.002  34.802  1.00  0.00    -0.206 F 
ATOM     83  C   UNL A   1      46.773  28.430  36.330  1.00  0.00     0.059 A 
ATOM     84  C   UNL A   1      45.241  26.967  37.515  1.00  0.00     0.059 A 
ATOM     85  F   UNL A   1      42.938  27.114  37.098  1.00  0.00    -0.206 F 
ATOM     86  C   UNL A   1      46.536  27.406  37.249  1.00  0.00     0.060 A 
BRANCH  86  87
ATOM     87  S   UNL A   1      47.944  26.683  38.120  1.00  0.00     0.124 S 
ATOM     88  O   UNL A   1      49.030  27.562  37.703  1.00  0.00    -0.237 OA
ATOM     89  O   UNL A   1      47.529  26.796  39.515  1.00  0.00    -0.237 OA
ATOM     90  O   UNL A   1      47.997  25.321  37.598  1.00  0.00    -0.744 OA
ENDBRANCH  86  87
ENDBRANCH  54  79
BRANCH  66  91
ATOM     91  C   UNL A   1      40.007  33.794  37.503  1.00  0.00     0.058 A 
ATOM     92  C   UNL A   1      40.711  35.001  37.635  1.00  0.00     0.135 A 
ATOM     93  C   UNL A   1      39.103  33.449  38.521  1.00  0.00     0.135 A 
ATOM     94  F   UNL A   1      41.593  35.375  36.695  1.00  0.00    -0.206 F 
ATOM     95  C   UNL A   1      40.539  35.825  38.743  1.00  0.00     0.059 A 
ATOM     96  C   UNL A   1      38.891  34.272  39.622  1.00  0.00     0.059 A 
ATOM     97  F   UNL A   1      38.396  32.310  38.441  1.00  0.00    -0.206 F 
ATOM     98  C   UNL A   1      39.623  35.454  39.729  1.00  0.00     0.060 A 
BRANCH  98  99
ATOM     99  S   UNL A   1      39.377  36.555  41.138  1.00  0.00     0.124 S 
ATOM    100  O   UNL A   1      38.457  35.777  41.962  1.00  0.00    -0.237 OA
ATOM    101  O   UNL A   1      40.731  36.697  41.663  1.00  0.00    -0.237 OA
ATOM    102  O   UNL A   1      38.814  37.760  40.536  1.00  0.00    -0.744 OA
ENDBRANCH  98  99
ENDBRANCH  66  91
ENDBRANCH  40  41
ENDBRANCH  32  35
ENDBRANCH  30  31
ENDBRANCH  29  30
ENDBRANCH   1  29
TORSDOF 19
ENDMDL
MODEL 3
REMARK VINA RESULT:     -11.9      6.426     11.495
REMARK SMILES COCCN1C(=O)C[C@H](C(=O)NCCCCNC(=O)c2ccc(-c3c4nc(c(-c5c(F)cc(S(=O)(=O)[O-])cc5F)c5ccc([nH]5)c(-c5c(F)cc(S(=O)(=O)[O-])cc5F)c5nc(c(-c6c(F)cc(S(=O)(=O)[O-])cc6F)c6ccc3[nH]6)C=C5)C=C4)cc2)[C@@H]1c1ccccc1N1CCOCC1
REMARK SMILES IDX 14 1 13 2 12 3 10 4 11 5 9 7 5 8 6 9 86 10 7 11 8 12 4 13
REMARK SMILES IDX 3 14 2 15 1 16 87 17 88 18 92 19 89 20 91 21 90 22 93 23
REMARK SMILES IDX 94 24 98 25 95 26 97 27 96 28 15 29 16 30 17 31 18 32 19 34
REMARK SMILES IDX 20 35 21 36 85 37 22 38 84 39 23 40 24 41 25 42 78 43 26 44
REMARK SMILES IDX 83 45 77 46 79 47 27 48 82 49 76 50 75 51 28 53 62 54 41 55
REMARK SMILES IDX 61 56 42 57 45 58 60 59 80 60 43 61 44 62 59 64 81 65 46 66
REMARK SMILES IDX 29 67 30 68 39 69 31 70 32 71 38 72 40 73 33 74 34 75 35 76
REMARK SMILES IDX 36 77 37 78 63 79 64 80 73 81 65 82 66 83 72 84 74 85 67 86
REMARK SMILES IDX 68 87 69 88 70 89 71 90 47 91 48 92 57 93 49 94 50 95 56 96
REMARK SMILES IDX 58 97 51 98 52 99 53 100 54 101 55 102
REMARK H PARENT 12 6 17 33 79 52 45 63
REMARK Flexibility Score: inf
ROOT
ATOM      1  C   UNL A   1      38.767  22.618  26.145  1.00  0.00     0.023 C 
ENDROOT
BRANCH   1   2
ATOM      2  C   UNL A   1      37.846  21.596  25.500  1.00  0.00     0.116 C 
BRANCH   2   3
ATOM      3  N   UNL A   1      37.303  22.072  24.248  1.00  0.00    -0.356 N 
ATOM      4  C   UNL A   1      36.228  22.859  24.004  1.00  0.00     0.226 C 
ATOM      5  O   UNL A   1      35.952  23.077  22.818  1.00  0.00    -0.275 OA
ATOM      6  H   UNL A   1      37.791  21.777  23.446  1.00  0.00     0.163 HD
BRANCH   4   7
ATOM      7  C   UNL A   1      35.282  23.348  25.075  1.00  0.00     0.115 C 
ATOM      8  N   UNL A   1      33.109  23.754  25.882  1.00  0.00    -0.332 N 
ATOM      9  C   UNL A   1      33.641  24.995  25.549  1.00  0.00     0.224 C 
ATOM     10  C   UNL A   1      33.970  22.631  25.458  1.00  0.00     0.130 C 
ATOM     11  O   UNL A   1      33.142  26.084  25.802  1.00  0.00    -0.275 OA
ATOM     12  C   UNL A   1      34.952  24.819  24.858  1.00  0.00     0.116 C 
BRANCH   8  13
ATOM     13  C   UNL A   1      32.000  23.731  26.844  1.00  0.00     0.148 C 
BRANCH  13  14
ATOM     14  C   UNL A   1      30.644  24.366  26.524  1.00  0.00     0.181 C 
BRANCH  14  15
ATOM     15  O   UNL A   1      29.586  23.866  27.348  1.00  0.00    -0.383 OA
ATOM     16  C   UNL A   1      29.398  22.469  27.230  1.00  0.00     0.194 C 
ENDBRANCH  14  15
ENDBRANCH  13  14
ENDBRANCH   8  13
BRANCH  10  17
ATOM     17  C   UNL A   1      33.315  21.637  24.502  1.00  0.00    -0.001 A 
ATOM     18  C   UNL A   1      33.381  20.248  24.783  1.00  0.00     0.008 A 
ATOM     19  C   UNL A   1      32.625  22.054  23.327  1.00  0.00     0.042 A 
ATOM     20  C   UNL A   1      32.832  19.293  23.928  1.00  0.00     0.001 A 
ATOM     21  C   UNL A   1      32.092  21.060  22.477  1.00  0.00     0.026 A 
ATOM     22  C   UNL A   1      32.195  19.700  22.768  1.00  0.00     0.002 A 
BRANCH  19  23
ATOM     23  N   UNL A   1      32.399  23.401  23.044  1.00  0.00    -0.367 N 
ATOM     24  C   UNL A   1      33.131  24.024  21.931  1.00  0.00     0.145 C 
ATOM     25  C   UNL A   1      31.014  23.935  23.145  1.00  0.00     0.145 C 
ATOM     26  C   UNL A   1      33.141  25.542  22.152  1.00  0.00     0.181 C 
ATOM     27  C   UNL A   1      31.026  25.476  23.198  1.00  0.00     0.181 C 
ATOM     28  O   UNL A   1      31.801  26.059  22.135  1.00  0.00    -0.378 OA
ENDBRANCH  19  23
ENDBRANCH  10  17
ENDBRANCH   4   7
ENDBRANCH   2   3
ENDBRANCH   1   2
BRANCH   1  29
ATOM     29  C   UNL A   1      39.925  21.982  26.916  1.00  0.00     0.023 C 
BRANCH  29  30
ATOM     30  C   UNL A   1      41.074  22.932  27.249  1.00  0.00     0.116 C 
BRANCH  30  31
ATOM     31  N   UNL A   1      41.461  23.764  26.117  1.00  0.00    -0.352 N 
ATOM     32  C   UNL A   1      41.575  25.133  26.050  1.00  0.00     0.251 C 
ATOM     33  H   UNL A   1      41.669  23.280  25.286  1.00  0.00     0.163 HD
ATOM     34  O   UNL A   1      41.723  25.694  24.970  1.00  0.00    -0.269 OA
BRANCH  32  35
ATOM     35  C   UNL A   1      41.504  25.911  27.300  1.00  0.00     0.039 A 
ATOM     36  C   UNL A   1      42.603  26.674  27.698  1.00  0.00     0.014 A 
ATOM     37  C   UNL A   1      40.319  25.927  28.042  1.00  0.00     0.014 A 
ATOM     38  C   UNL A   1      42.484  27.518  28.803  1.00  0.00     0.010 A 
ATOM     39  C   UNL A   1      40.178  26.830  29.088  1.00  0.00     0.010 A 
ATOM     40  C   UNL A   1      41.258  27.637  29.479  1.00  0.00    -0.014 A 
BRANCH  40  41
ATOM     41  C   UNL A   1      41.077  28.606  30.590  1.00  0.00     0.031 A 
ATOM     42  C   UNL A   1      41.930  28.502  31.825  1.00  0.00     0.074 A 
ATOM     43  C   UNL A   1      40.099  29.530  30.517  1.00  0.00     0.049 A 
ATOM     44  N   UNL A   1      41.872  29.201  32.929  1.00  0.00    -0.248 NA
ATOM     45  C   UNL A   1      42.966  27.457  31.830  1.00  0.00     0.031 C 
ATOM     46  C   UNL A   1      39.175  29.699  29.392  1.00  0.00     0.029 A 
ATOM     47  N   UNL A   1      39.710  30.498  31.410  1.00  0.00    -0.354 N 
ATOM     48  C   UNL A   1      42.854  28.676  33.761  1.00  0.00     0.074 A 
ATOM     49  C   UNL A   1      43.450  27.560  33.060  1.00  0.00     0.031 C 
ATOM     50  C   UNL A   1      38.348  30.725  29.652  1.00  0.00     0.029 A 
ATOM     51  C   UNL A   1      38.649  31.257  30.977  1.00  0.00     0.049 A 
ATOM     52  H   UNL A   1      40.150  30.635  32.279  1.00  0.00     0.167 HD
ATOM     53  C   UNL A   1      43.241  29.102  34.986  1.00  0.00     0.037 A 
ATOM     54  C   UNL A   1      37.986  32.264  31.582  1.00  0.00     0.037 A 
ATOM     55  C   UNL A   1      42.655  30.225  35.670  1.00  0.00     0.049 A 
ATOM     56  C   UNL A   1      38.423  32.706  32.954  1.00  0.00     0.074 A 
ATOM     57  C   UNL A   1      43.011  30.768  36.892  1.00  0.00     0.029 A 
ATOM     58  N   UNL A   1      41.589  30.975  35.195  1.00  0.00    -0.354 N 
ATOM     59  N   UNL A   1      39.395  32.238  33.700  1.00  0.00    -0.248 NA
ATOM     60  C   UNL A   1      37.675  33.812  33.564  1.00  0.00     0.031 C 
ATOM     61  C   UNL A   1      42.127  31.813  37.179  1.00  0.00     0.029 A 
ATOM     62  C   UNL A   1      41.257  31.959  36.110  1.00  0.00     0.049 A 
ATOM     63  H   UNL A   1      41.135  30.829  34.333  1.00  0.00     0.167 HD
ATOM     64  C   UNL A   1      39.394  33.013  34.854  1.00  0.00     0.074 A 
ATOM     65  C   UNL A   1      38.333  33.987  34.702  1.00  0.00     0.031 C 
ATOM     66  C   UNL A   1      40.202  32.928  35.941  1.00  0.00     0.037 A 
BRANCH  53  67
ATOM     67  C   UNL A   1      44.357  28.354  35.665  1.00  0.00     0.058 A 
ATOM     68  C   UNL A   1      45.703  28.709  35.477  1.00  0.00     0.135 A 
ATOM     69  C   UNL A   1      44.078  27.293  36.541  1.00  0.00     0.135 A 
ATOM     70  F   UNL A   1      46.030  29.705  34.638  1.00  0.00    -0.206 F 
ATOM     71  C   UNL A   1      46.734  28.020  36.109  1.00  0.00     0.059 A 
ATOM     72  C   UNL A   1      45.091  26.610  37.208  1.00  0.00     0.059 A 
ATOM     73  F   UNL A   1      42.810  26.910  36.757  1.00  0.00    -0.206 F 
ATOM     74  C   UNL A   1      46.416  26.971  36.974  1.00  0.00     0.060 A 
BRANCH  74  75
ATOM     75  S   UNL A   1      47.765  26.092  37.789  1.00  0.00     0.124 S 
ATOM     76  O   UNL A   1      48.927  26.837  37.311  1.00  0.00    -0.237 OA
ATOM     77  O   UNL A   1      47.441  26.264  39.201  1.00  0.00    -0.237 OA
ATOM     78  O   UNL A   1      47.641  24.731  37.281  1.00  0.00    -0.744 OA
ENDBRANCH  74  75
ENDBRANCH  53  67
BRANCH  54  79
ATOM     79  C   UNL A   1      36.856  32.936  30.887  1.00  0.00     0.058 A 
ATOM     80  C   UNL A   1      37.090  33.895  29.890  1.00  0.00     0.135 A 
ATOM     81  C   UNL A   1      35.521  32.629  31.196  1.00  0.00     0.135 A 
ATOM     82  F   UNL A   1      38.347  34.229  29.563  1.00  0.00    -0.206 F 
ATOM     83  C   UNL A   1      36.043  34.539  29.237  1.00  0.00     0.059 A 
ATOM     84  C   UNL A   1      34.458  33.239  30.537  1.00  0.00     0.059 A 
ATOM     85  F   UNL A   1      35.242  31.706  32.130  1.00  0.00    -0.206 F 
ATOM     86  C   UNL A   1      34.730  34.201  29.567  1.00  0.00     0.060 A 
BRANCH  86  87
ATOM     87  S   UNL A   1      33.380  35.010  28.679  1.00  0.00     0.124 S 
ATOM     88  O   UNL A   1      34.101  36.007  27.895  1.00  0.00    -0.237 OA
ATOM     89  O   UNL A   1      32.802  33.901  27.927  1.00  0.00    -0.237 OA
ATOM     90  O   UNL A   1      32.541  35.535  29.752  1.00  0.00    -0.744 OA
ENDBRANCH  86  87
ENDBRANCH  54  79
BRANCH  66  91
ATOM     91  C   UNL A   1      39.996  33.933  37.041  1.00  0.00     0.058 A 
ATOM     92  C   UNL A   1      40.631  35.185  37.029  1.00  0.00     0.135 A 
ATOM     93  C   UNL A   1      39.102  33.662  38.090  1.00  0.00     0.135 A 
ATOM     94  F   UNL A   1      41.500  35.492  36.054  1.00  0.00    -0.206 F 
ATOM     95  C   UNL A   1      40.402  36.125  38.029  1.00  0.00     0.059 A 
ATOM     96  C   UNL A   1      38.834  34.599  39.083  1.00  0.00     0.059 A 
ATOM     97  F   UNL A   1      38.461  32.484  38.145  1.00  0.00    -0.206 F 
ATOM     98  C   UNL A   1      39.498  35.824  39.050  1.00  0.00     0.060 A 
BRANCH  98  99
ATOM     99  S   UNL A   1      39.177  37.071  40.315  1.00  0.00     0.124 S 
ATOM    100  O   UNL A   1      40.528  37.393  40.760  1.00  0.00    -0.237 OA
ATOM    101  O   UNL A   1      38.493  38.115  39.557  1.00  0.00    -0.237 OA
ATOM    102  O   UNL A   1      38.347  36.365  41.287  1.00  0.00    -0.744 OA
ENDBRANCH  98  99
ENDBRANCH  66  91
ENDBRANCH  40  41
ENDBRANCH  32  35
ENDBRANCH  30  31
ENDBRANCH  29  30
ENDBRANCH   1  29
TORSDOF 19
ENDMDL
