MODEL 1
REMARK VINA RESULT:     -12.7      0.000      0.000
REMARK SMILES O=C(NCCCCNC(=O)c1ccccc1O[C@H]1CCOC2(CCSCC2)C1)c1ccc(-c2c3nc(c(-c4c(F)cc(S(=O)(=O)[O-])cc4F)c4ccc([nH]4)c(-c4c(F)cc(S(=O)(=O)[O-])cc4F)c4nc(c(-c5c(F)cc(S(=O)(=O)[O-])cc5F)c5ccc2[nH]5)C=C4)C=C3)cc1
REMARK SMILES IDX 5 1 4 2 3 3 1 4 2 5 29 7 30 8 94 9 31 10 93 11 32 12 33 13
REMARK SMILES IDX 34 14 87 15 35 16 92 17 86 18 88 19 36 20 91 21 85 22 84 23
REMARK SMILES IDX 37 25 71 26 50 27 70 28 51 29 54 30 69 31 89 32 52 33 53 34
REMARK SMILES IDX 68 36 90 37 55 38 38 39 39 40 48 41 40 42 41 43 47 44 49 45
REMARK SMILES IDX 42 46 43 47 44 48 45 49 46 50 72 51 73 52 82 53 74 54 75 55
REMARK SMILES IDX 81 56 83 57 76 58 77 59 78 60 79 61 80 62 56 63 57 64 66 65
REMARK SMILES IDX 58 66 59 67 65 68 67 69 60 70 61 71 62 72 63 73 64 74 6 75
REMARK SMILES IDX 7 76 8 77 9 78 10 80 11 81 12 82 16 83 13 84 15 85 14 86
REMARK SMILES IDX 17 87 18 88 19 89 28 90 20 91 22 92 21 93 23 94 27 95 24 96
REMARK SMILES IDX 26 97 25 98
REMARK H PARENT 3 6 88 24 54 35 8 79
REMARK Flexibility Score: inf
ROOT
ATOM      1  C   UNL A   1      33.723  29.188  27.294  1.00  0.00     0.023 C 
ENDROOT
BRANCH   1   2
ATOM      2  C   UNL A   1      35.106  29.745  27.620  1.00  0.00     0.116 C 
BRANCH   2   3
ATOM      3  N   UNL A   1      35.186  30.331  28.951  1.00  0.00    -0.352 N 
ATOM      4  O   UNL A   1      36.058  30.780  30.979  1.00  0.00    -0.269 OA
ATOM      5  C   UNL A   1      36.239  30.368  29.836  1.00  0.00     0.251 C 
ATOM      6  H   UNL A   1      34.361  30.766  29.265  1.00  0.00     0.163 HD
BRANCH   5   7
ATOM      7  C   UNL A   1      37.577  29.890  29.425  1.00  0.00     0.039 A 
ATOM      8  C   UNL A   1      38.490  29.420  30.371  1.00  0.00     0.014 A 
ATOM      9  C   UNL A   1      37.923  29.905  28.070  1.00  0.00     0.014 A 
ATOM     10  C   UNL A   1      39.796  29.129  29.988  1.00  0.00     0.010 A 
ATOM     11  C   UNL A   1      39.211  29.526  27.675  1.00  0.00     0.010 A 
ATOM     12  C   UNL A   1      40.172  29.174  28.636  1.00  0.00    -0.014 A 
BRANCH  12  13
ATOM     13  C   UNL A   1      41.562  28.811  28.253  1.00  0.00     0.031 A 
ATOM     14  C   UNL A   1      42.672  29.825  28.292  1.00  0.00     0.074 A 
ATOM     15  C   UNL A   1      41.826  27.537  27.900  1.00  0.00     0.049 A 
ATOM     16  N   UNL A   1      43.944  29.665  28.024  1.00  0.00    -0.248 NA
ATOM     17  C   UNL A   1      42.311  31.199  28.676  1.00  0.00     0.031 C 
ATOM     18  C   UNL A   1      40.830  26.466  27.814  1.00  0.00     0.029 A 
ATOM     19  N   UNL A   1      43.006  26.922  27.571  1.00  0.00    -0.354 N 
ATOM     20  C   UNL A   1      44.532  30.915  28.184  1.00  0.00     0.074 A 
ATOM     21  C   UNL A   1      43.471  31.830  28.550  1.00  0.00     0.031 C 
ATOM     22  C   UNL A   1      41.447  25.316  27.507  1.00  0.00     0.029 A 
ATOM     23  C   UNL A   1      42.870  25.577  27.317  1.00  0.00     0.049 A 
ATOM     24  H   UNL A   1      43.866  27.396  27.521  1.00  0.00     0.167 HD
ATOM     25  C   UNL A   1      45.834  31.265  28.046  1.00  0.00     0.037 A 
ATOM     26  C   UNL A   1      43.784  24.655  26.960  1.00  0.00     0.037 A 
ATOM     27  C   UNL A   1      46.888  30.345  27.697  1.00  0.00     0.049 A 
ATOM     28  C   UNL A   1      45.217  25.069  26.801  1.00  0.00     0.074 A 
ATOM     29  C   UNL A   1      48.244  30.595  27.570  1.00  0.00     0.029 A 
ATOM     30  N   UNL A   1      46.705  28.999  27.414  1.00  0.00    -0.354 N 
ATOM     31  N   UNL A   1      45.756  26.250  26.983  1.00  0.00    -0.248 NA
ATOM     32  C   UNL A   1      46.164  24.028  26.382  1.00  0.00     0.031 C 
ATOM     33  C   UNL A   1      48.874  29.409  27.172  1.00  0.00     0.029 A 
ATOM     34  C   UNL A   1      47.918  28.410  27.092  1.00  0.00     0.049 A 
ATOM     35  H   UNL A   1      45.839  28.529  27.440  1.00  0.00     0.167 HD
ATOM     36  C   UNL A   1      47.111  26.093  26.713  1.00  0.00     0.074 A 
ATOM     37  C   UNL A   1      47.308  24.698  26.370  1.00  0.00     0.031 C 
ATOM     38  C   UNL A   1      48.099  27.021  26.746  1.00  0.00     0.037 A 
BRANCH  25  39
ATOM     39  C   UNL A   1      46.190  32.713  28.249  1.00  0.00     0.058 A 
ATOM     40  C   UNL A   1      46.140  33.644  27.199  1.00  0.00     0.135 A 
ATOM     41  C   UNL A   1      46.570  33.180  29.519  1.00  0.00     0.135 A 
ATOM     42  F   UNL A   1      45.795  33.251  25.963  1.00  0.00    -0.206 F 
ATOM     43  C   UNL A   1      46.491  34.978  27.391  1.00  0.00     0.059 A 
ATOM     44  C   UNL A   1      46.903  34.514  29.739  1.00  0.00     0.059 A 
ATOM     45  F   UNL A   1      46.629  32.336  30.560  1.00  0.00    -0.206 F 
ATOM     46  C   UNL A   1      46.880  35.401  28.663  1.00  0.00     0.060 A 
BRANCH  46  47
ATOM     47  S   UNL A   1      47.361  37.126  28.893  1.00  0.00     0.124 S 
ATOM     48  O   UNL A   1      46.122  37.820  28.555  1.00  0.00    -0.237 OA
ATOM     49  O   UNL A   1      47.742  37.162  30.302  1.00  0.00    -0.237 OA
ATOM     50  O   UNL A   1      48.458  37.302  27.947  1.00  0.00    -0.744 OA
ENDBRANCH  46  47
ENDBRANCH  25  39
BRANCH  26  51
ATOM     51  C   UNL A   1      43.354  23.250  26.745  1.00  0.00     0.058 A 
ATOM     52  C   UNL A   1      43.313  22.699  25.456  1.00  0.00     0.135 A 
ATOM     53  C   UNL A   1      43.038  22.415  27.827  1.00  0.00     0.135 A 
ATOM     54  F   UNL A   1      43.603  23.461  24.390  1.00  0.00    -0.206 F 
ATOM     55  C   UNL A   1      42.977  21.366  25.246  1.00  0.00     0.059 A 
ATOM     56  C   UNL A   1      42.723  21.073  27.645  1.00  0.00     0.059 A 
ATOM     57  F   UNL A   1      43.080  22.893  29.080  1.00  0.00    -0.206 F 
ATOM     58  C   UNL A   1      42.691  20.558  26.350  1.00  0.00     0.060 A 
BRANCH  58  59
ATOM     59  S   UNL A   1      42.340  18.809  26.075  1.00  0.00     0.124 S 
ATOM     60  O   UNL A   1      43.279  18.485  25.009  1.00  0.00    -0.237 OA
ATOM     61  O   UNL A   1      42.630  18.227  27.382  1.00  0.00    -0.237 OA
ATOM     62  O   UNL A   1      40.928  18.807  25.698  1.00  0.00    -0.744 OA
ENDBRANCH  58  59
ENDBRANCH  26  51
BRANCH  38  63
ATOM     63  C   UNL A   1      49.488  26.552  26.417  1.00  0.00     0.058 A 
ATOM     64  C   UNL A   1      50.283  25.893  27.366  1.00  0.00     0.135 A 
ATOM     65  C   UNL A   1      50.015  26.735  25.128  1.00  0.00     0.135 A 
ATOM     66  F   UNL A   1      49.829  25.702  28.614  1.00  0.00    -0.206 F 
ATOM     67  C   UNL A   1      51.565  25.450  27.056  1.00  0.00     0.059 A 
ATOM     68  C   UNL A   1      51.285  26.280  24.790  1.00  0.00     0.059 A 
ATOM     69  F   UNL A   1      49.290  27.353  24.183  1.00  0.00    -0.206 F 
ATOM     70  C   UNL A   1      52.058  25.649  25.764  1.00  0.00     0.060 A 
BRANCH  70  71
ATOM     71  S   UNL A   1      53.713  25.048  25.364  1.00  0.00     0.124 S 
ATOM     72  O   UNL A   1      54.501  25.608  26.457  1.00  0.00    -0.237 OA
ATOM     73  O   UNL A   1      53.535  23.599  25.388  1.00  0.00    -0.237 OA
ATOM     74  O   UNL A   1      53.971  25.619  24.046  1.00  0.00    -0.744 OA
ENDBRANCH  70  71
ENDBRANCH  38  63
ENDBRANCH  12  13
ENDBRANCH   5   7
ENDBRANCH   2   3
ENDBRANCH   1   2
BRANCH   1  75
ATOM     75  C   UNL A   1      32.614  30.226  27.119  1.00  0.00     0.023 C 
BRANCH  75  76
ATOM     76  C   UNL A   1      31.822  30.124  25.821  1.00  0.00     0.116 C 
BRANCH  76  77
ATOM     77  N   UNL A   1      32.627  29.742  24.679  1.00  0.00    -0.352 N 
ATOM     78  C   UNL A   1      32.308  28.874  23.663  1.00  0.00     0.255 C 
ATOM     79  H   UNL A   1      33.517  30.158  24.624  1.00  0.00     0.163 HD
ATOM     80  O   UNL A   1      33.121  28.650  22.769  1.00  0.00    -0.269 OA
BRANCH  78  81
ATOM     81  C   UNL A   1      31.022  28.140  23.664  1.00  0.00     0.081 A 
ATOM     82  C   UNL A   1      29.915  28.826  23.144  1.00  0.00     0.018 A 
ATOM     83  C   UNL A   1      30.878  26.854  24.213  1.00  0.00     0.132 A 
ATOM     84  C   UNL A   1      28.663  28.220  23.136  1.00  0.00     0.001 A 
ATOM     85  C   UNL A   1      29.608  26.271  24.228  1.00  0.00     0.047 A 
ATOM     86  C   UNL A   1      28.512  26.945  23.676  1.00  0.00     0.004 A 
BRANCH  83  87
ATOM     87  O   UNL A   1      32.007  26.275  24.707  1.00  0.00    -0.489 OA
BRANCH  87  88
ATOM     88  C   UNL A   1      32.478  25.000  24.265  1.00  0.00     0.178 C 
ATOM     89  C   UNL A   1      32.590  24.899  22.743  1.00  0.00     0.074 C 
ATOM     90  C   UNL A   1      33.891  24.879  24.850  1.00  0.00     0.080 C 
ATOM     91  C   UNL A   1      33.284  23.602  22.367  1.00  0.00     0.165 C 
ATOM     92  C   UNL A   1      34.651  23.627  24.376  1.00  0.00     0.073 C 
ATOM     93  O   UNL A   1      34.581  23.522  22.944  1.00  0.00    -0.375 OA
ATOM     94  C   UNL A   1      34.092  22.364  25.063  1.00  0.00     0.046 C 
ATOM     95  C   UNL A   1      36.148  23.822  24.719  1.00  0.00     0.046 C 
ATOM     96  C   UNL A   1      34.823  21.080  24.691  1.00  0.00     0.072 C 
ATOM     97  C   UNL A   1      37.039  22.647  24.329  1.00  0.00     0.072 C 
ATOM     98  S   UNL A   1      36.558  21.132  25.200  1.00  0.00    -0.162 SA
ENDBRANCH  87  88
ENDBRANCH  83  87
ENDBRANCH  78  81
ENDBRANCH  76  77
ENDBRANCH  75  76
ENDBRANCH   1  75
TORSDOF 16
ENDMDL
MODEL 2
REMARK VINA RESULT:     -12.7      6.745     12.161
REMARK SMILES O=C(NCCCCNC(=O)c1ccccc1O[C@H]1CCOC2(CCSCC2)C1)c1ccc(-c2c3nc(c(-c4c(F)cc(S(=O)(=O)[O-])cc4F)c4ccc([nH]4)c(-c4c(F)cc(S(=O)(=O)[O-])cc4F)c4nc(c(-c5c(F)cc(S(=O)(=O)[O-])cc5F)c5ccc2[nH]5)C=C4)C=C3)cc1
REMARK SMILES IDX 5 1 4 2 3 3 1 4 2 5 29 7 30 8 94 9 31 10 93 11 32 12 33 13
REMARK SMILES IDX 34 14 87 15 35 16 92 17 86 18 88 19 36 20 91 21 85 22 84 23
REMARK SMILES IDX 37 25 71 26 50 27 70 28 51 29 54 30 69 31 89 32 52 33 53 34
REMARK SMILES IDX 68 36 90 37 55 38 38 39 39 40 48 41 40 42 41 43 47 44 49 45
REMARK SMILES IDX 42 46 43 47 44 48 45 49 46 50 72 51 73 52 82 53 74 54 75 55
REMARK SMILES IDX 81 56 83 57 76 58 77 59 78 60 79 61 80 62 56 63 57 64 66 65
REMARK SMILES IDX 58 66 59 67 65 68 67 69 60 70 61 71 62 72 63 73 64 74 6 75
REMARK SMILES IDX 7 76 8 77 9 78 10 80 11 81 12 82 16 83 13 84 15 85 14 86
REMARK SMILES IDX 17 87 18 88 19 89 28 90 20 91 22 92 21 93 23 94 27 95 24 96
REMARK SMILES IDX 26 97 25 98
REMARK H PARENT 3 6 88 24 54 35 8 79
REMARK Flexibility Score: inf
ROOT
ATOM      1  C   UNL A   1      38.866  22.238  26.351  1.00  0.00     0.023 C 
ENDROOT
BRANCH   1   2
ATOM      2  C   UNL A   1      39.700  23.353  26.978  1.00  0.00     0.116 C 
BRANCH   2   3
ATOM      3  N   UNL A   1      40.597  23.997  26.029  1.00  0.00    -0.352 N 
ATOM      4  O   UNL A   1      41.807  25.658  25.105  1.00  0.00    -0.269 OA
ATOM      5  C   UNL A   1      41.201  25.232  26.085  1.00  0.00     0.251 C 
ATOM      6  H   UNL A   1      40.804  23.468  25.224  1.00  0.00     0.163 HD
BRANCH   5   7
ATOM      7  C   UNL A   1      41.099  26.058  27.308  1.00  0.00     0.039 A 
ATOM      8  C   UNL A   1      40.088  25.831  28.243  1.00  0.00     0.014 A 
ATOM      9  C   UNL A   1      42.035  27.074  27.528  1.00  0.00     0.014 A 
ATOM     10  C   UNL A   1      39.910  26.717  29.300  1.00  0.00     0.010 A 
ATOM     11  C   UNL A   1      41.907  27.911  28.642  1.00  0.00     0.010 A 
ATOM     12  C   UNL A   1      40.819  27.766  29.515  1.00  0.00    -0.014 A 
BRANCH  12  13
ATOM     13  C   UNL A   1      40.629  28.668  30.682  1.00  0.00     0.031 A 
ATOM     14  C   UNL A   1      41.523  28.580  31.889  1.00  0.00     0.074 A 
ATOM     15  C   UNL A   1      39.658  29.601  30.631  1.00  0.00     0.049 A 
ATOM     16  N   UNL A   1      41.516  29.312  32.974  1.00  0.00    -0.248 NA
ATOM     17  C   UNL A   1      42.555  27.531  31.883  1.00  0.00     0.031 C 
ATOM     18  C   UNL A   1      38.721  29.777  29.518  1.00  0.00     0.029 A 
ATOM     19  N   UNL A   1      39.310  30.586  31.517  1.00  0.00    -0.354 N 
ATOM     20  C   UNL A   1      42.522  28.804  33.789  1.00  0.00     0.074 A 
ATOM     21  C   UNL A   1      43.105  27.684  33.080  1.00  0.00     0.031 C 
ATOM     22  C   UNL A   1      37.940  30.839  29.765  1.00  0.00     0.029 A 
ATOM     23  C   UNL A   1      38.280  31.383  31.076  1.00  0.00     0.049 A 
ATOM     24  H   UNL A   1      39.755  30.712  32.386  1.00  0.00     0.167 HD
ATOM     25  C   UNL A   1      42.926  29.236  35.008  1.00  0.00     0.037 A 
ATOM     26  C   UNL A   1      37.666  32.429  31.661  1.00  0.00     0.037 A 
ATOM     27  C   UNL A   1      42.352  30.362  35.701  1.00  0.00     0.049 A 
ATOM     28  C   UNL A   1      38.123  32.880  33.016  1.00  0.00     0.074 A 
ATOM     29  C   UNL A   1      42.719  30.902  36.923  1.00  0.00     0.029 A 
ATOM     30  N   UNL A   1      41.288  31.122  35.235  1.00  0.00    -0.354 N 
ATOM     31  N   UNL A   1      39.094  32.403  33.757  1.00  0.00    -0.248 NA
ATOM     32  C   UNL A   1      37.398  34.007  33.618  1.00  0.00     0.031 C 
ATOM     33  C   UNL A   1      41.850  31.961  37.214  1.00  0.00     0.029 A 
ATOM     34  C   UNL A   1      40.970  32.110  36.154  1.00  0.00     0.049 A 
ATOM     35  H   UNL A   1      40.826  30.981  34.376  1.00  0.00     0.167 HD
ATOM     36  C   UNL A   1      39.106  33.179  34.911  1.00  0.00     0.074 A 
ATOM     37  C   UNL A   1      38.055  34.166  34.760  1.00  0.00     0.031 C 
ATOM     38  C   UNL A   1      39.915  33.081  35.994  1.00  0.00     0.037 A 
BRANCH  25  39
ATOM     39  C   UNL A   1      44.031  28.470  35.686  1.00  0.00     0.058 A 
ATOM     40  C   UNL A   1      45.385  28.763  35.458  1.00  0.00     0.135 A 
ATOM     41  C   UNL A   1      43.729  27.436  36.589  1.00  0.00     0.135 A 
ATOM     42  F   UNL A   1      45.731  29.733  34.597  1.00  0.00    -0.206 F 
ATOM     43  C   UNL A   1      46.401  28.036  36.072  1.00  0.00     0.059 A 
ATOM     44  C   UNL A   1      44.729  26.711  37.232  1.00  0.00     0.059 A 
ATOM     45  F   UNL A   1      42.452  27.116  36.848  1.00  0.00    -0.206 F 
ATOM     46  C   UNL A   1      46.063  27.005  36.951  1.00  0.00     0.060 A 
BRANCH  46  47
ATOM     47  S   UNL A   1      47.389  26.050  37.718  1.00  0.00     0.124 S 
ATOM     48  O   UNL A   1      47.608  26.797  38.953  1.00  0.00    -0.237 OA
ATOM     49  O   UNL A   1      46.778  24.733  37.876  1.00  0.00    -0.237 OA
ATOM     50  O   UNL A   1      48.469  26.121  36.741  1.00  0.00    -0.744 OA
ENDBRANCH  46  47
ENDBRANCH  25  39
BRANCH  26  51
ATOM     51  C   UNL A   1      36.561  33.117  30.946  1.00  0.00     0.058 A 
ATOM     52  C   UNL A   1      35.234  32.992  31.381  1.00  0.00     0.135 A 
ATOM     53  C   UNL A   1      36.818  33.961  29.855  1.00  0.00     0.135 A 
ATOM     54  F   UNL A   1      34.940  32.192  32.418  1.00  0.00    -0.206 F 
ATOM     55  C   UNL A   1      34.199  33.684  30.763  1.00  0.00     0.059 A 
ATOM     56  C   UNL A   1      35.803  34.682  29.236  1.00  0.00     0.059 A 
ATOM     57  F   UNL A   1      38.075  34.125  29.414  1.00  0.00    -0.206 F 
ATOM     58  C   UNL A   1      34.495  34.533  29.694  1.00  0.00     0.060 A 
BRANCH  58  59
ATOM     59  S   UNL A   1      33.158  35.492  28.952  1.00  0.00     0.124 S 
ATOM     60  O   UNL A   1      32.508  34.490  28.116  1.00  0.00    -0.237 OA
ATOM     61  O   UNL A   1      32.407  35.933  30.123  1.00  0.00    -0.237 OA
ATOM     62  O   UNL A   1      33.864  36.552  28.236  1.00  0.00    -0.744 OA
ENDBRANCH  58  59
ENDBRANCH  26  51
BRANCH  38  63
ATOM     63  C   UNL A   1      39.704  34.080  37.097  1.00  0.00     0.058 A 
ATOM     64  C   UNL A   1      38.976  33.755  38.252  1.00  0.00     0.135 A 
ATOM     65  C   UNL A   1      40.265  35.364  37.011  1.00  0.00     0.135 A 
ATOM     66  F   UNL A   1      38.411  32.544  38.377  1.00  0.00    -0.206 F 
ATOM     67  C   UNL A   1      38.791  34.679  39.275  1.00  0.00     0.059 A 
ATOM     68  C   UNL A   1      40.112  36.295  38.033  1.00  0.00     0.059 A 
ATOM     69  F   UNL A   1      40.976  35.720  35.931  1.00  0.00    -0.206 F 
ATOM     70  C   UNL A   1      39.362  35.947  39.157  1.00  0.00     0.060 A 
BRANCH  70  71
ATOM     71  S   UNL A   1      39.139  37.129  40.503  1.00  0.00     0.124 S 
ATOM     72  O   UNL A   1      38.544  36.288  41.536  1.00  0.00    -0.237 OA
ATOM     73  O   UNL A   1      40.505  37.577  40.759  1.00  0.00    -0.237 OA
ATOM     74  O   UNL A   1      38.254  38.136  39.926  1.00  0.00    -0.744 OA
ENDBRANCH  70  71
ENDBRANCH  38  63
ENDBRANCH  12  13
ENDBRANCH   5   7
ENDBRANCH   2   3
ENDBRANCH   1   2
BRANCH   1  75
ATOM     75  C   UNL A   1      37.691  22.695  25.485  1.00  0.00     0.023 C 
BRANCH  75  76
ATOM     76  C   UNL A   1      36.531  21.712  25.387  1.00  0.00     0.116 C 
BRANCH  76  77
ATOM     77  N   UNL A   1      35.656  21.730  26.543  1.00  0.00    -0.352 N 
ATOM     78  C   UNL A   1      34.300  21.514  26.589  1.00  0.00     0.255 C 
ATOM     79  H   UNL A   1      36.090  21.922  27.405  1.00  0.00     0.163 HD
ATOM     80  O   UNL A   1      33.704  21.581  27.662  1.00  0.00    -0.269 OA
BRANCH  78  81
ATOM     81  C   UNL A   1      33.525  21.275  25.351  1.00  0.00     0.081 A 
ATOM     82  C   UNL A   1      33.249  19.935  25.039  1.00  0.00     0.018 A 
ATOM     83  C   UNL A   1      33.135  22.309  24.481  1.00  0.00     0.132 A 
ATOM     84  C   UNL A   1      32.552  19.621  23.878  1.00  0.00     0.001 A 
ATOM     85  C   UNL A   1      32.465  21.976  23.302  1.00  0.00     0.047 A 
ATOM     86  C   UNL A   1      32.161  20.640  23.012  1.00  0.00     0.004 A 
BRANCH  83  87
ATOM     87  O   UNL A   1      33.461  23.575  24.862  1.00  0.00    -0.489 OA
BRANCH  87  88
ATOM     88  C   UNL A   1      32.504  24.635  24.917  1.00  0.00     0.178 C 
ATOM     89  C   UNL A   1      31.273  24.287  25.756  1.00  0.00     0.074 C 
ATOM     90  C   UNL A   1      33.236  25.790  25.612  1.00  0.00     0.080 C 
ATOM     91  C   UNL A   1      30.409  25.522  25.934  1.00  0.00     0.165 C 
ATOM     92  C   UNL A   1      32.336  27.003  25.909  1.00  0.00     0.073 C 
ATOM     93  O   UNL A   1      31.131  26.573  26.564  1.00  0.00    -0.375 OA
ATOM     94  C   UNL A   1      32.028  27.777  24.611  1.00  0.00     0.046 C 
ATOM     95  C   UNL A   1      33.076  27.907  26.924  1.00  0.00     0.046 C 
ATOM     96  C   UNL A   1      31.183  29.027  24.819  1.00  0.00     0.072 C 
ATOM     97  C   UNL A   1      32.318  29.173  27.306  1.00  0.00     0.072 C 
ATOM     98  S   UNL A   1      32.031  30.236  25.865  1.00  0.00    -0.162 SA
ENDBRANCH  87  88
ENDBRANCH  83  87
ENDBRANCH  78  81
ENDBRANCH  76  77
ENDBRANCH  75  76
ENDBRANCH   1  75
TORSDOF 16
ENDMDL
MODEL 3
REMARK VINA RESULT:     -12.5      6.826     11.688
REMARK SMILES O=C(NCCCCNC(=O)c1ccccc1O[C@H]1CCOC2(CCSCC2)C1)c1ccc(-c2c3nc(c(-c4c(F)cc(S(=O)(=O)[O-])cc4F)c4ccc([nH]4)c(-c4c(F)cc(S(=O)(=O)[O-])cc4F)c4nc(c(-c5c(F)cc(S(=O)(=O)[O-])cc5F)c5ccc2[nH]5)C=C4)C=C3)cc1
REMARK SMILES IDX 5 1 4 2 3 3 1 4 2 5 29 7 30 8 94 9 31 10 93 11 32 12 33 13
REMARK SMILES IDX 34 14 87 15 35 16 92 17 86 18 88 19 36 20 91 21 85 22 84 23
REMARK SMILES IDX 37 25 71 26 50 27 70 28 51 29 54 30 69 31 89 32 52 33 53 34
REMARK SMILES IDX 68 36 90 37 55 38 38 39 39 40 48 41 40 42 41 43 47 44 49 45
REMARK SMILES IDX 42 46 43 47 44 48 45 49 46 50 72 51 73 52 82 53 74 54 75 55
REMARK SMILES IDX 81 56 83 57 76 58 77 59 78 60 79 61 80 62 56 63 57 64 66 65
REMARK SMILES IDX 58 66 59 67 65 68 67 69 60 70 61 71 62 72 63 73 64 74 6 75
REMARK SMILES IDX 7 76 8 77 9 78 10 80 11 81 12 82 16 83 13 84 15 85 14 86
REMARK SMILES IDX 17 87 18 88 19 89 28 90 20 91 22 92 21 93 23 94 27 95 24 96
REMARK SMILES IDX 26 97 25 98
REMARK H PARENT 3 6 88 24 54 35 8 79
REMARK Flexibility Score: inf
ROOT
ATOM      1  C   UNL A   1      37.317  23.570  25.532  1.00  0.00     0.023 C 
ENDROOT
BRANCH   1   2
ATOM      2  C   UNL A   1      38.260  24.229  26.534  1.00  0.00     0.116 C 
BRANCH   2   3
ATOM      3  N   UNL A   1      39.659  24.153  26.136  1.00  0.00    -0.352 N 
ATOM      4  O   UNL A   1      41.806  24.807  25.938  1.00  0.00    -0.269 OA
ATOM      5  C   UNL A   1      40.725  24.941  26.506  1.00  0.00     0.251 C 
ATOM      6  H   UNL A   1      39.875  23.427  25.508  1.00  0.00     0.163 HD
BRANCH   5   7
ATOM      7  C   UNL A   1      40.566  25.964  27.562  1.00  0.00     0.039 A 
ATOM      8  C   UNL A   1      41.354  27.117  27.565  1.00  0.00     0.014 A 
ATOM      9  C   UNL A   1      39.609  25.772  28.563  1.00  0.00     0.014 A 
ATOM     10  C   UNL A   1      41.306  27.986  28.650  1.00  0.00     0.010 A 
ATOM     11  C   UNL A   1      39.499  26.695  29.610  1.00  0.00     0.010 A 
ATOM     12  C   UNL A   1      40.376  27.788  29.685  1.00  0.00    -0.014 A 
BRANCH  12  13
ATOM     13  C   UNL A   1      40.316  28.761  30.807  1.00  0.00     0.031 A 
ATOM     14  C   UNL A   1      39.303  29.874  30.822  1.00  0.00     0.074 A 
ATOM     15  C   UNL A   1      41.167  28.613  31.842  1.00  0.00     0.049 A 
ATOM     16  N   UNL A   1      39.093  30.785  31.738  1.00  0.00    -0.248 NA
ATOM     17  C   UNL A   1      38.413  29.984  29.655  1.00  0.00     0.031 C 
ATOM     18  C   UNL A   1      42.200  27.579  31.937  1.00  0.00     0.029 A 
ATOM     19  N   UNL A   1      41.285  29.310  33.016  1.00  0.00    -0.354 N 
ATOM     20  C   UNL A   1      38.066  31.588  31.255  1.00  0.00     0.074 A 
ATOM     21  C   UNL A   1      37.711  31.070  29.950  1.00  0.00     0.031 C 
ATOM     22  C   UNL A   1      42.812  27.677  33.126  1.00  0.00     0.029 A 
ATOM     23  C   UNL A   1      42.257  28.814  33.853  1.00  0.00     0.049 A 
ATOM     24  H   UNL A   1      40.729  30.091  33.238  1.00  0.00     0.167 HD
ATOM     25  C   UNL A   1      37.471  32.653  31.847  1.00  0.00     0.037 A 
ATOM     26  C   UNL A   1      42.666  29.230  35.066  1.00  0.00     0.037 A 
ATOM     27  C   UNL A   1      37.818  33.153  33.153  1.00  0.00     0.049 A 
ATOM     28  C   UNL A   1      42.000  30.418  35.695  1.00  0.00     0.074 A 
ATOM     29  C   UNL A   1      37.248  34.202  33.855  1.00  0.00     0.029 A 
ATOM     30  N   UNL A   1      38.831  32.644  33.954  1.00  0.00    -0.354 N 
ATOM     31  N   UNL A   1      41.014  31.147  35.233  1.00  0.00    -0.248 NA
ATOM     32  C   UNL A   1      42.507  30.844  37.006  1.00  0.00     0.031 C 
ATOM     33  C   UNL A   1      37.941  34.352  35.062  1.00  0.00     0.029 A 
ATOM     34  C   UNL A   1      38.917  33.370  35.132  1.00  0.00     0.049 A 
ATOM     35  H   UNL A   1      39.405  31.878  33.721  1.00  0.00     0.167 HD
ATOM     36  C   UNL A   1      40.771  32.114  36.202  1.00  0.00     0.074 A 
ATOM     37  C   UNL A   1      41.706  31.864  37.282  1.00  0.00     0.031 C 
ATOM     38  C   UNL A   1      39.858  33.115  36.196  1.00  0.00     0.037 A 
BRANCH  25  39
ATOM     39  C   UNL A   1      36.395  33.366  31.073  1.00  0.00     0.058 A 
ATOM     40  C   UNL A   1      36.693  34.194  29.978  1.00  0.00     0.135 A 
ATOM     41  C   UNL A   1      35.043  33.204  31.421  1.00  0.00     0.135 A 
ATOM     42  F   UNL A   1      37.967  34.393  29.609  1.00  0.00    -0.206 F 
ATOM     43  C   UNL A   1      35.693  34.866  29.281  1.00  0.00     0.059 A 
ATOM     44  C   UNL A   1      34.025  33.849  30.723  1.00  0.00     0.059 A 
ATOM     45  F   UNL A   1      34.701  32.420  32.455  1.00  0.00    -0.206 F 
ATOM     46  C   UNL A   1      34.362  34.694  29.667  1.00  0.00     0.060 A 
BRANCH  46  47
ATOM     47  S   UNL A   1      33.077  35.595  28.774  1.00  0.00     0.124 S 
ATOM     48  O   UNL A   1      32.290  36.144  29.874  1.00  0.00    -0.237 OA
ATOM     49  O   UNL A   1      33.849  36.565  28.003  1.00  0.00    -0.237 OA
ATOM     50  O   UNL A   1      32.418  34.558  27.987  1.00  0.00    -0.744 OA
ENDBRANCH  46  47
ENDBRANCH  25  39
BRANCH  26  51
ATOM     51  C   UNL A   1      43.757  28.496  35.757  1.00  0.00     0.058 A 
ATOM     52  C   UNL A   1      43.471  27.439  36.633  1.00  0.00     0.135 A 
ATOM     53  C   UNL A   1      45.104  28.795  35.505  1.00  0.00     0.135 A 
ATOM     54  F   UNL A   1      42.197  27.120  36.907  1.00  0.00    -0.206 F 
ATOM     55  C   UNL A   1      44.484  26.700  37.234  1.00  0.00     0.059 A 
ATOM     56  C   UNL A   1      46.135  28.056  36.075  1.00  0.00     0.059 A 
ATOM     57  F   UNL A   1      45.426  29.787  34.661  1.00  0.00    -0.206 F 
ATOM     58  C   UNL A   1      45.814  27.012  36.942  1.00  0.00     0.060 A 
BRANCH  58  59
ATOM     59  S   UNL A   1      47.121  25.994  37.660  1.00  0.00     0.124 S 
ATOM     60  O   UNL A   1      46.348  25.013  38.413  1.00  0.00    -0.237 OA
ATOM     61  O   UNL A   1      47.808  25.492  36.474  1.00  0.00    -0.237 OA
ATOM     62  O   UNL A   1      47.886  26.947  38.460  1.00  0.00    -0.744 OA
ENDBRANCH  58  59
ENDBRANCH  26  51
BRANCH  38  63
ATOM     63  C   UNL A   1      39.815  34.008  37.404  1.00  0.00     0.058 A 
ATOM     64  C   UNL A   1      40.560  35.195  37.466  1.00  0.00     0.135 A 
ATOM     65  C   UNL A   1      38.992  33.689  38.496  1.00  0.00     0.135 A 
ATOM     66  F   UNL A   1      41.368  35.540  36.452  1.00  0.00    -0.206 F 
ATOM     67  C   UNL A   1      40.510  36.025  38.581  1.00  0.00     0.059 A 
ATOM     68  C   UNL A   1      38.910  34.516  39.611  1.00  0.00     0.059 A 
ATOM     69  F   UNL A   1      38.254  32.568  38.482  1.00  0.00    -0.206 F 
ATOM     70  C   UNL A   1      39.682  35.677  39.650  1.00  0.00     0.060 A 
BRANCH  70  71
ATOM     71  S   UNL A   1      39.604  36.774  41.081  1.00  0.00     0.124 S 
ATOM     72  O   UNL A   1      38.764  36.006  41.995  1.00  0.00    -0.237 OA
ATOM     73  O   UNL A   1      41.007  36.897  41.461  1.00  0.00    -0.237 OA
ATOM     74  O   UNL A   1      38.998  37.989  40.543  1.00  0.00    -0.744 OA
ENDBRANCH  70  71
ENDBRANCH  38  63
ENDBRANCH  12  13
ENDBRANCH   5   7
ENDBRANCH   2   3
ENDBRANCH   1   2
BRANCH   1  75
ATOM     75  C   UNL A   1      37.668  22.136  25.133  1.00  0.00     0.023 C 
BRANCH  75  76
ATOM     76  C   UNL A   1      36.571  21.105  25.366  1.00  0.00     0.116 C 
BRANCH  76  77
ATOM     77  N   UNL A   1      35.689  21.435  26.467  1.00  0.00    -0.352 N 
ATOM     78  C   UNL A   1      34.315  21.454  26.484  1.00  0.00     0.255 C 
ATOM     79  H   UNL A   1      36.131  21.678  27.313  1.00  0.00     0.163 HD
ATOM     80  O   UNL A   1      33.718  21.774  27.508  1.00  0.00    -0.269 OA
BRANCH  78  81
ATOM     81  C   UNL A   1      33.536  21.166  25.258  1.00  0.00     0.081 A 
ATOM     82  C   UNL A   1      33.235  19.818  25.015  1.00  0.00     0.018 A 
ATOM     83  C   UNL A   1      33.166  22.162  24.337  1.00  0.00     0.132 A 
ATOM     84  C   UNL A   1      32.532  19.458  23.871  1.00  0.00     0.001 A 
ATOM     85  C   UNL A   1      32.489  21.782  23.175  1.00  0.00     0.047 A 
ATOM     86  C   UNL A   1      32.160  20.439  22.954  1.00  0.00     0.004 A 
BRANCH  83  87
ATOM     87  O   UNL A   1      33.515  23.440  24.653  1.00  0.00    -0.489 OA
BRANCH  87  88
ATOM     88  C   UNL A   1      32.557  24.491  24.789  1.00  0.00     0.178 C 
ATOM     89  C   UNL A   1      31.394  24.125  25.713  1.00  0.00     0.074 C 
ATOM     90  C   UNL A   1      33.330  25.645  25.441  1.00  0.00     0.080 C 
ATOM     91  C   UNL A   1      30.536  25.351  25.967  1.00  0.00     0.165 C 
ATOM     92  C   UNL A   1      32.445  26.847  25.817  1.00  0.00     0.073 C 
ATOM     93  O   UNL A   1      31.295  26.401  26.554  1.00  0.00    -0.375 OA
ATOM     94  C   UNL A   1      32.037  27.632  24.553  1.00  0.00     0.046 C 
ATOM     95  C   UNL A   1      33.251  27.747  26.785  1.00  0.00     0.046 C 
ATOM     96  C   UNL A   1      31.200  28.873  24.836  1.00  0.00     0.072 C 
ATOM     97  C   UNL A   1      32.514  29.003  27.235  1.00  0.00     0.072 C 
ATOM     98  S   UNL A   1      32.114  30.078  25.831  1.00  0.00    -0.162 SA
ENDBRANCH  87  88
ENDBRANCH  83  87
ENDBRANCH  78  81
ENDBRANCH  76  77
ENDBRANCH  75  76
ENDBRANCH   1  75
TORSDOF 16
ENDMDL
