MODEL 1
REMARK VINA RESULT:     -12.0      0.000      0.000
REMARK SMILES C[C@@H]1CN(C(=O)NC[C@@H]2CCC[C@@H]2C(=O)NCCCCNC(=O)c2ccc(-c3c4nc(c(-c5c(F)cc(S(=O)(=O)[O-])cc5F)c5ccc([nH]5)c(-c5c(F)cc(S(=O)(=O)[O-])cc5F)c5nc(c(-c6c(F)cc(S(=O)(=O)[O-])cc6F)c6ccc3[nH]6)C=C5)C=C4)cc2)C[C@@H]1C
REMARK SMILES IDX 18 1 17 2 16 3 14 4 15 5 13 7 9 8 10 9 11 10 12 11 8 12 7 13
REMARK SMILES IDX 5 14 6 15 4 17 1 18 2 19 3 20 91 21 90 22 92 23 19 24 20 25
REMARK SMILES IDX 21 26 22 27 23 29 24 30 25 31 89 32 26 33 88 34 27 35 28 36
REMARK SMILES IDX 29 37 82 38 30 39 87 40 81 41 83 42 31 43 86 44 80 45 79 46
REMARK SMILES IDX 32 48 66 49 45 50 65 51 46 52 49 53 64 54 84 55 47 56 48 57
REMARK SMILES IDX 63 59 85 60 50 61 33 62 34 63 43 64 35 65 36 66 42 67 44 68
REMARK SMILES IDX 37 69 38 70 39 71 40 72 41 73 67 74 68 75 77 76 69 77 70 78
REMARK SMILES IDX 76 79 78 80 71 81 72 82 73 83 74 84 75 85 51 86 52 87 61 88
REMARK SMILES IDX 53 89 54 90 60 91 62 92 55 93 56 94 57 95 58 96 59 97
REMARK H PARENT 16 6 7 16 21 28 83 47 49 58
REMARK Flexibility Score: inf
ROOT
ATOM      1  C   UNL A   1      32.792  30.138  26.830  1.00  0.00     0.023 C 
ENDROOT
BRANCH   1   2
ATOM      2  C   UNL A   1      31.788  29.414  25.929  1.00  0.00     0.116 C 
BRANCH   2   3
ATOM      3  N   UNL A   1      32.223  29.498  24.559  1.00  0.00    -0.356 N 
ATOM      4  C   UNL A   1      32.287  28.574  23.574  1.00  0.00     0.223 C 
ATOM      5  O   UNL A   1      32.856  28.960  22.547  1.00  0.00    -0.275 OA
ATOM      6  H   UNL A   1      32.531  30.393  24.289  1.00  0.00     0.163 HD
BRANCH   4   7
ATOM      7  C   UNL A   1      31.616  27.181  23.654  1.00  0.00     0.083 C 
ATOM      8  C   UNL A   1      32.231  26.006  24.447  1.00  0.00     0.021 C 
ATOM      9  C   UNL A   1      33.555  25.768  23.724  1.00  0.00     0.006 C 
ATOM     10  C   UNL A   1      33.199  25.969  22.247  1.00  0.00     0.001 C 
ATOM     11  C   UNL A   1      31.771  26.548  22.241  1.00  0.00     0.014 C 
BRANCH   8  12
ATOM     12  C   UNL A   1      32.338  25.965  25.963  1.00  0.00     0.122 C 
BRANCH  12  13
ATOM     13  N   UNL A   1      31.393  25.042  26.563  1.00  0.00    -0.338 N 
ATOM     14  C   UNL A   1      31.363  23.697  26.681  1.00  0.00     0.317 C 
ATOM     15  O   UNL A   1      30.529  23.236  27.464  1.00  0.00    -0.249 OA
ATOM     16  H   UNL A   1      30.613  25.486  26.968  1.00  0.00     0.165 HD
BRANCH  14  17
ATOM     17  N   UNL A   1      32.206  22.895  25.979  1.00  0.00    -0.324 N 
ATOM     18  C   UNL A   1      35.373  21.251  24.982  1.00  0.00     0.010 C 
ATOM     19  C   UNL A   1      34.104  22.074  24.824  1.00  0.00     0.010 C 
ATOM     20  C   UNL A   1      33.633  22.687  26.143  1.00  0.00     0.125 C 
ATOM     21  C   UNL A   1      32.866  21.326  24.305  1.00  0.00     0.010 C 
ATOM     22  C   UNL A   1      31.726  22.239  24.767  1.00  0.00     0.125 C 
ATOM     23  C   UNL A   1      32.697  19.908  24.843  1.00  0.00     0.010 C 
ENDBRANCH  14  17
ENDBRANCH  12  13
ENDBRANCH   8  12
ENDBRANCH   4   7
ENDBRANCH   2   3
ENDBRANCH   1   2
BRANCH   1  24
ATOM     24  C   UNL A   1      33.859  29.236  27.446  1.00  0.00     0.023 C 
BRANCH  24  25
ATOM     25  C   UNL A   1      35.184  29.936  27.696  1.00  0.00     0.116 C 
BRANCH  25  26
ATOM     26  N   UNL A   1      35.244  30.618  28.990  1.00  0.00    -0.352 N 
ATOM     27  C   UNL A   1      36.281  30.616  29.889  1.00  0.00     0.251 C 
ATOM     28  H   UNL A   1      34.448  31.139  29.245  1.00  0.00     0.163 HD
ATOM     29  O   UNL A   1      36.178  31.140  30.984  1.00  0.00    -0.269 OA
BRANCH  27  30
ATOM     30  C   UNL A   1      37.518  29.907  29.505  1.00  0.00     0.039 A 
ATOM     31  C   UNL A   1      37.937  29.945  28.174  1.00  0.00     0.014 A 
ATOM     32  C   UNL A   1      38.317  29.331  30.497  1.00  0.00     0.014 A 
ATOM     33  C   UNL A   1      39.211  29.479  27.849  1.00  0.00     0.010 A 
ATOM     34  C   UNL A   1      39.609  28.941  30.183  1.00  0.00     0.010 A 
ATOM     35  C   UNL A   1      40.072  29.023  28.860  1.00  0.00    -0.014 A 
BRANCH  35  36
ATOM     36  C   UNL A   1      41.473  28.630  28.577  1.00  0.00     0.031 A 
ATOM     37  C   UNL A   1      42.541  29.685  28.545  1.00  0.00     0.074 A 
ATOM     38  C   UNL A   1      41.756  27.357  28.237  1.00  0.00     0.049 A 
ATOM     39  N   UNL A   1      43.779  29.596  28.140  1.00  0.00    -0.248 NA
ATOM     40  C   UNL A   1      42.147  31.034  28.988  1.00  0.00     0.031 C 
ATOM     41  C   UNL A   1      40.791  26.256  28.180  1.00  0.00     0.029 A 
ATOM     42  N   UNL A   1      42.938  26.779  27.849  1.00  0.00    -0.354 N 
ATOM     43  C   UNL A   1      44.300  30.879  28.240  1.00  0.00     0.074 A 
ATOM     44  C   UNL A   1      43.234  31.736  28.709  1.00  0.00     0.031 C 
ATOM     45  C   UNL A   1      41.423  25.134  27.796  1.00  0.00     0.029 A 
ATOM     46  C   UNL A   1      42.826  25.444  27.541  1.00  0.00     0.049 A 
ATOM     47  H   UNL A   1      43.787  27.274  27.795  1.00  0.00     0.167 HD
ATOM     48  C   UNL A   1      45.561  31.301  27.979  1.00  0.00     0.037 A 
ATOM     49  C   UNL A   1      43.750  24.571  27.092  1.00  0.00     0.037 A 
ATOM     50  C   UNL A   1      46.626  30.430  27.564  1.00  0.00     0.049 A 
ATOM     51  C   UNL A   1      45.158  25.050  26.867  1.00  0.00     0.074 A 
ATOM     52  C   UNL A   1      47.952  30.745  27.326  1.00  0.00     0.029 A 
ATOM     53  N   UNL A   1      46.490  29.068  27.340  1.00  0.00    -0.354 N 
ATOM     54  N   UNL A   1      45.645  26.262  26.999  1.00  0.00    -0.248 NA
ATOM     55  C   UNL A   1      46.143  24.048  26.438  1.00  0.00     0.031 C 
ATOM     56  C   UNL A   1      48.616  29.573  26.944  1.00  0.00     0.029 A 
ATOM     57  C   UNL A   1      47.709  28.525  26.973  1.00  0.00     0.049 A 
ATOM     58  H   UNL A   1      45.650  28.562  27.430  1.00  0.00     0.167 HD
ATOM     59  C   UNL A   1      46.998  26.162  26.699  1.00  0.00     0.074 A 
ATOM     60  C   UNL A   1      47.253  24.771  26.380  1.00  0.00     0.031 C 
ATOM     61  C   UNL A   1      47.943  27.133  26.689  1.00  0.00     0.037 A 
BRANCH  48  62
ATOM     62  C   UNL A   1      45.845  32.765  28.146  1.00  0.00     0.058 A 
ATOM     63  C   UNL A   1      46.285  33.292  29.371  1.00  0.00     0.135 A 
ATOM     64  C   UNL A   1      45.681  33.652  27.071  1.00  0.00     0.135 A 
ATOM     65  F   UNL A   1      46.439  32.489  30.436  1.00  0.00    -0.206 F 
ATOM     66  C   UNL A   1      46.516  34.653  29.535  1.00  0.00     0.059 A 
ATOM     67  C   UNL A   1      45.932  35.015  27.205  1.00  0.00     0.059 A 
ATOM     68  F   UNL A   1      45.260  33.200  25.879  1.00  0.00    -0.206 F 
ATOM     69  C   UNL A   1      46.331  35.508  28.447  1.00  0.00     0.060 A 
BRANCH  69  70
ATOM     70  S   UNL A   1      46.626  37.274  28.674  1.00  0.00     0.124 S 
ATOM     71  O   UNL A   1      45.292  37.746  29.033  1.00  0.00    -0.237 OA
ATOM     72  O   UNL A   1      47.614  37.295  29.747  1.00  0.00    -0.237 OA
ATOM     73  O   UNL A   1      47.115  37.706  27.368  1.00  0.00    -0.744 OA
ENDBRANCH  69  70
ENDBRANCH  48  62
BRANCH  49  74
ATOM     74  C   UNL A   1      43.380  23.152  26.860  1.00  0.00     0.058 A 
ATOM     75  C   UNL A   1      43.323  22.631  25.559  1.00  0.00     0.135 A 
ATOM     76  C   UNL A   1      43.098  22.284  27.926  1.00  0.00     0.135 A 
ATOM     77  F   UNL A   1      43.582  23.423  24.508  1.00  0.00    -0.206 F 
ATOM     78  C   UNL A   1      42.985  21.303  25.319  1.00  0.00     0.059 A 
ATOM     79  C   UNL A   1      42.776  20.946  27.712  1.00  0.00     0.059 A 
ATOM     80  F   UNL A   1      43.158  22.730  29.189  1.00  0.00    -0.206 F 
ATOM     81  C   UNL A   1      42.713  20.468  26.404  1.00  0.00     0.060 A 
BRANCH  81  82
ATOM     82  S   UNL A   1      42.327  18.731  26.087  1.00  0.00     0.124 S 
ATOM     83  O   UNL A   1      43.279  18.409  25.031  1.00  0.00    -0.237 OA
ATOM     84  O   UNL A   1      42.580  18.115  27.385  1.00  0.00    -0.237 OA
ATOM     85  O   UNL A   1      40.924  18.772  25.684  1.00  0.00    -0.744 OA
ENDBRANCH  81  82
ENDBRANCH  49  74
BRANCH  61  86
ATOM     86  C   UNL A   1      49.352  26.723  26.374  1.00  0.00     0.058 A 
ATOM     87  C   UNL A   1      50.171  26.114  27.333  1.00  0.00     0.135 A 
ATOM     88  C   UNL A   1      49.853  26.871  25.071  1.00  0.00     0.135 A 
ATOM     89  F   UNL A   1      49.737  25.956  28.593  1.00  0.00    -0.206 F 
ATOM     90  C   UNL A   1      51.450  25.670  27.013  1.00  0.00     0.059 A 
ATOM     91  C   UNL A   1      51.122  26.418  24.725  1.00  0.00     0.059 A 
ATOM     92  F   UNL A   1      49.101  27.442  24.117  1.00  0.00    -0.206 F 
ATOM     93  C   UNL A   1      51.915  25.822  25.705  1.00  0.00     0.060 A 
BRANCH  93  94
ATOM     94  S   UNL A   1      53.552  25.188  25.283  1.00  0.00     0.124 S 
ATOM     95  O   UNL A   1      53.694  25.640  23.902  1.00  0.00    -0.237 OA
ATOM     96  O   UNL A   1      54.409  25.856  26.258  1.00  0.00    -0.237 OA
ATOM     97  O   UNL A   1      53.414  23.746  25.463  1.00  0.00    -0.744 OA
ENDBRANCH  93  94
ENDBRANCH  61  86
ENDBRANCH  35  36
ENDBRANCH  27  30
ENDBRANCH  25  26
ENDBRANCH  24  25
ENDBRANCH   1  24
TORSDOF 17
ENDMDL
MODEL 2
REMARK VINA RESULT:     -12.0      4.266      7.323
REMARK SMILES C[C@@H]1CN(C(=O)NC[C@@H]2CCC[C@@H]2C(=O)NCCCCNC(=O)c2ccc(-c3c4nc(c(-c5c(F)cc(S(=O)(=O)[O-])cc5F)c5ccc([nH]5)c(-c5c(F)cc(S(=O)(=O)[O-])cc5F)c5nc(c(-c6c(F)cc(S(=O)(=O)[O-])cc6F)c6ccc3[nH]6)C=C5)C=C4)cc2)C[C@@H]1C
REMARK SMILES IDX 18 1 17 2 16 3 14 4 15 5 13 7 9 8 10 9 11 10 12 11 8 12 7 13
REMARK SMILES IDX 5 14 6 15 4 17 1 18 2 19 3 20 91 21 90 22 92 23 19 24 20 25
REMARK SMILES IDX 21 26 22 27 23 29 24 30 25 31 89 32 26 33 88 34 27 35 28 36
REMARK SMILES IDX 29 37 82 38 30 39 87 40 81 41 83 42 31 43 86 44 80 45 79 46
REMARK SMILES IDX 32 48 66 49 45 50 65 51 46 52 49 53 64 54 84 55 47 56 48 57
REMARK SMILES IDX 63 59 85 60 50 61 33 62 34 63 43 64 35 65 36 66 42 67 44 68
REMARK SMILES IDX 37 69 38 70 39 71 40 72 41 73 67 74 68 75 77 76 69 77 70 78
REMARK SMILES IDX 76 79 78 80 71 81 72 82 73 83 74 84 75 85 51 86 52 87 61 88
REMARK SMILES IDX 53 89 54 90 60 91 62 92 55 93 56 94 57 95 58 96 59 97
REMARK H PARENT 16 6 7 16 21 28 83 47 49 58
REMARK Flexibility Score: inf
ROOT
ATOM      1  C   UNL A   1      35.598  31.763  32.259  1.00  0.00     0.023 C 
ENDROOT
BRANCH   1   2
ATOM      2  C   UNL A   1      37.047  32.045  32.665  1.00  0.00     0.116 C 
BRANCH   2   3
ATOM      3  N   UNL A   1      37.343  31.361  33.897  1.00  0.00    -0.356 N 
ATOM      4  C   UNL A   1      38.453  30.724  34.332  1.00  0.00     0.223 C 
ATOM      5  O   UNL A   1      38.310  30.115  35.398  1.00  0.00    -0.275 OA
ATOM      6  H   UNL A   1      36.600  31.356  34.543  1.00  0.00     0.163 HD
BRANCH   4   7
ATOM      7  C   UNL A   1      39.833  30.824  33.635  1.00  0.00     0.083 C 
ATOM      8  C   UNL A   1      41.086  30.092  34.167  1.00  0.00     0.021 C 
ATOM      9  C   UNL A   1      41.288  30.726  35.542  1.00  0.00     0.006 C 
ATOM     10  C   UNL A   1      40.951  32.203  35.310  1.00  0.00     0.001 C 
ATOM     11  C   UNL A   1      40.343  32.270  33.895  1.00  0.00     0.014 C 
BRANCH   8  12
ATOM     12  C   UNL A   1      41.263  28.582  34.149  1.00  0.00     0.122 C 
BRANCH  12  13
ATOM     13  N   UNL A   1      41.182  27.996  35.474  1.00  0.00    -0.338 N 
ATOM     14  C   UNL A   1      41.846  26.989  36.081  1.00  0.00     0.317 C 
ATOM     15  O   UNL A   1      41.700  26.897  37.301  1.00  0.00    -0.249 OA
ATOM     16  H   UNL A   1      40.502  28.418  36.048  1.00  0.00     0.165 HD
BRANCH  14  17
ATOM     17  N   UNL A   1      42.634  26.127  35.387  1.00  0.00    -0.324 N 
ATOM     18  C   UNL A   1      43.724  22.960  33.803  1.00  0.00     0.010 C 
ATOM     19  C   UNL A   1      43.801  24.180  34.706  1.00  0.00     0.010 C 
ATOM     20  C   UNL A   1      42.421  24.726  35.076  1.00  0.00     0.125 C 
ATOM     21  C   UNL A   1      44.537  25.405  34.140  1.00  0.00     0.010 C 
ATOM     22  C   UNL A   1      43.981  26.539  35.005  1.00  0.00     0.125 C 
ATOM     23  C   UNL A   1      44.302  25.668  32.655  1.00  0.00     0.010 C 
ENDBRANCH  14  17
ENDBRANCH  12  13
ENDBRANCH   8  12
ENDBRANCH   4   7
ENDBRANCH   2   3
ENDBRANCH   1   2
BRANCH   1  24
ATOM     24  C   UNL A   1      34.988  32.800  31.319  1.00  0.00     0.023 C 
BRANCH  24  25
ATOM     25  C   UNL A   1      35.417  32.642  29.869  1.00  0.00     0.116 C 
BRANCH  25  26
ATOM     26  N   UNL A   1      34.433  31.938  29.047  1.00  0.00    -0.352 N 
ATOM     27  C   UNL A   1      34.613  30.776  28.338  1.00  0.00     0.251 C 
ATOM     28  H   UNL A   1      33.538  32.344  28.995  1.00  0.00     0.163 HD
ATOM     29  O   UNL A   1      33.746  30.335  27.604  1.00  0.00    -0.269 OA
BRANCH  27  30
ATOM     30  C   UNL A   1      35.921  30.100  28.453  1.00  0.00     0.039 A 
ATOM     31  C   UNL A   1      36.841  30.220  27.409  1.00  0.00     0.014 A 
ATOM     32  C   UNL A   1      36.267  29.470  29.651  1.00  0.00     0.014 A 
ATOM     33  C   UNL A   1      38.150  29.782  27.605  1.00  0.00     0.010 A 
ATOM     34  C   UNL A   1      37.587  29.108  29.868  1.00  0.00     0.010 A 
ATOM     35  C   UNL A   1      38.543  29.272  28.853  1.00  0.00    -0.014 A 
BRANCH  35  36
ATOM     36  C   UNL A   1      39.950  28.905  29.142  1.00  0.00     0.031 A 
ATOM     37  C   UNL A   1      40.879  29.942  29.704  1.00  0.00     0.074 A 
ATOM     38  C   UNL A   1      40.411  27.689  28.791  1.00  0.00     0.049 A 
ATOM     39  N   UNL A   1      42.175  29.895  29.855  1.00  0.00    -0.248 NA
ATOM     40  C   UNL A   1      40.271  31.221  30.110  1.00  0.00     0.031 C 
ATOM     41  C   UNL A   1      39.613  26.618  28.187  1.00  0.00     0.029 A 
ATOM     42  N   UNL A   1      41.672  27.156  28.869  1.00  0.00    -0.354 N 
ATOM     43  C   UNL A   1      42.543  31.145  30.333  1.00  0.00     0.074 A 
ATOM     44  C   UNL A   1      41.339  31.942  30.413  1.00  0.00     0.031 C 
ATOM     45  C   UNL A   1      40.402  25.552  27.965  1.00  0.00     0.029 A 
ATOM     46  C   UNL A   1      41.765  25.878  28.371  1.00  0.00     0.049 A 
ATOM     47  H   UNL A   1      42.440  27.644  29.246  1.00  0.00     0.167 HD
ATOM     48  C   UNL A   1      43.774  31.584  30.689  1.00  0.00     0.037 A 
ATOM     49  C   UNL A   1      42.833  25.065  28.246  1.00  0.00     0.037 A 
ATOM     50  C   UNL A   1      44.956  30.767  30.655  1.00  0.00     0.049 A 
ATOM     51  C   UNL A   1      44.179  25.554  28.705  1.00  0.00     0.074 A 
ATOM     52  C   UNL A   1      46.242  31.096  31.045  1.00  0.00     0.029 A 
ATOM     53  N   UNL A   1      44.993  29.451  30.219  1.00  0.00    -0.354 N 
ATOM     54  N   UNL A   1      44.506  26.729  29.188  1.00  0.00    -0.248 NA
ATOM     55  C   UNL A   1      45.301  24.609  28.608  1.00  0.00     0.031 C 
ATOM     56  C   UNL A   1      47.060  29.981  30.831  1.00  0.00     0.029 A 
ATOM     57  C   UNL A   1      46.278  28.950  30.336  1.00  0.00     0.049 A 
ATOM     58  H   UNL A   1      44.219  28.948  29.877  1.00  0.00     0.167 HD
ATOM     59  C   UNL A   1      45.863  26.656  29.480  1.00  0.00     0.074 A 
ATOM     60  C   UNL A   1      46.296  25.320  29.121  1.00  0.00     0.031 C 
ATOM     61  C   UNL A   1      46.676  27.608  29.998  1.00  0.00     0.037 A 
BRANCH  48  62
ATOM     62  C   UNL A   1      43.891  33.008  31.150  1.00  0.00     0.058 A 
ATOM     63  C   UNL A   1      43.804  33.348  32.510  1.00  0.00     0.135 A 
ATOM     64  C   UNL A   1      44.095  34.045  30.226  1.00  0.00     0.135 A 
ATOM     65  F   UNL A   1      43.589  32.396  33.433  1.00  0.00    -0.206 F 
ATOM     66  C   UNL A   1      43.879  34.670  32.934  1.00  0.00     0.059 A 
ATOM     67  C   UNL A   1      44.199  35.372  30.631  1.00  0.00     0.059 A 
ATOM     68  F   UNL A   1      44.183  33.773  28.914  1.00  0.00    -0.206 F 
ATOM     69  C   UNL A   1      44.071  35.676  31.986  1.00  0.00     0.060 A 
BRANCH  69  70
ATOM     70  S   UNL A   1      44.157  37.389  32.547  1.00  0.00     0.124 S 
ATOM     71  O   UNL A   1      45.517  37.453  33.072  1.00  0.00    -0.237 OA
ATOM     72  O   UNL A   1      43.918  38.137  31.318  1.00  0.00    -0.237 OA
ATOM     73  O   UNL A   1      43.094  37.472  33.544  1.00  0.00    -0.744 OA
ENDBRANCH  69  70
ENDBRANCH  48  62
BRANCH  49  74
ATOM     74  C   UNL A   1      42.664  23.696  27.696  1.00  0.00     0.058 A 
ATOM     75  C   UNL A   1      42.554  22.590  28.552  1.00  0.00     0.135 A 
ATOM     76  C   UNL A   1      42.589  23.465  26.314  1.00  0.00     0.135 A 
ATOM     77  F   UNL A   1      42.624  22.762  29.881  1.00  0.00    -0.206 F 
ATOM     78  C   UNL A   1      42.390  21.300  28.059  1.00  0.00     0.059 A 
ATOM     79  C   UNL A   1      42.406  22.185  25.798  1.00  0.00     0.059 A 
ATOM     80  F   UNL A   1      42.669  24.492  25.456  1.00  0.00    -0.206 F 
ATOM     81  C   UNL A   1      42.317  21.107  26.678  1.00  0.00     0.060 A 
BRANCH  81  82
ATOM     82  S   UNL A   1      42.050  19.435  26.048  1.00  0.00     0.124 S 
ATOM     83  O   UNL A   1      42.533  18.624  27.159  1.00  0.00    -0.237 OA
ATOM     84  O   UNL A   1      40.608  19.416  25.822  1.00  0.00    -0.237 OA
ATOM     85  O   UNL A   1      42.867  19.403  24.838  1.00  0.00    -0.744 OA
ENDBRANCH  81  82
ENDBRANCH  49  74
BRANCH  61  86
ATOM     86  C   UNL A   1      48.104  27.229  30.260  1.00  0.00     0.058 A 
ATOM     87  C   UNL A   1      49.088  27.342  29.268  1.00  0.00     0.135 A 
ATOM     88  C   UNL A   1      48.502  26.825  31.544  1.00  0.00     0.135 A 
ATOM     89  F   UNL A   1      48.754  27.718  28.023  1.00  0.00    -0.206 F 
ATOM     90  C   UNL A   1      50.423  27.060  29.538  1.00  0.00     0.059 A 
ATOM     91  C   UNL A   1      49.834  26.556  31.841  1.00  0.00     0.059 A 
ATOM     92  F   UNL A   1      47.596  26.710  32.528  1.00  0.00    -0.206 F 
ATOM     93  C   UNL A   1      50.787  26.671  30.829  1.00  0.00     0.060 A 
BRANCH  93  94
ATOM     94  S   UNL A   1      52.530  26.365  31.188  1.00  0.00     0.124 S 
ATOM     95  O   UNL A   1      52.822  27.428  32.145  1.00  0.00    -0.237 OA
ATOM     96  O   UNL A   1      52.506  25.011  31.733  1.00  0.00    -0.237 OA
ATOM     97  O   UNL A   1      53.172  26.498  29.884  1.00  0.00    -0.744 OA
ENDBRANCH  93  94
ENDBRANCH  61  86
ENDBRANCH  35  36
ENDBRANCH  27  30
ENDBRANCH  25  26
ENDBRANCH  24  25
ENDBRANCH   1  24
TORSDOF 17
ENDMDL
MODEL 3
REMARK VINA RESULT:     -12.0      2.170      3.000
REMARK SMILES C[C@@H]1CN(C(=O)NC[C@@H]2CCC[C@@H]2C(=O)NCCCCNC(=O)c2ccc(-c3c4nc(c(-c5c(F)cc(S(=O)(=O)[O-])cc5F)c5ccc([nH]5)c(-c5c(F)cc(S(=O)(=O)[O-])cc5F)c5nc(c(-c6c(F)cc(S(=O)(=O)[O-])cc6F)c6ccc3[nH]6)C=C5)C=C4)cc2)C[C@@H]1C
REMARK SMILES IDX 18 1 17 2 16 3 14 4 15 5 13 7 9 8 10 9 11 10 12 11 8 12 7 13
REMARK SMILES IDX 5 14 6 15 4 17 1 18 2 19 3 20 91 21 90 22 92 23 19 24 20 25
REMARK SMILES IDX 21 26 22 27 23 29 24 30 25 31 89 32 26 33 88 34 27 35 28 36
REMARK SMILES IDX 29 37 82 38 30 39 87 40 81 41 83 42 31 43 86 44 80 45 79 46
REMARK SMILES IDX 32 48 66 49 45 50 65 51 46 52 49 53 64 54 84 55 47 56 48 57
REMARK SMILES IDX 63 59 85 60 50 61 33 62 34 63 43 64 35 65 36 66 42 67 44 68
REMARK SMILES IDX 37 69 38 70 39 71 40 72 41 73 67 74 68 75 77 76 69 77 70 78
REMARK SMILES IDX 76 79 78 80 71 81 72 82 73 83 74 84 75 85 51 86 52 87 61 88
REMARK SMILES IDX 53 89 54 90 60 91 62 92 55 93 56 94 57 95 58 96 59 97
REMARK H PARENT 16 6 7 16 21 28 83 47 49 58
REMARK Flexibility Score: inf
ROOT
ATOM      1  C   UNL A   1      31.753  29.796  25.790  1.00  0.00     0.023 C 
ENDROOT
BRANCH   1   2
ATOM      2  C   UNL A   1      31.113  29.146  24.561  1.00  0.00     0.116 C 
BRANCH   2   3
ATOM      3  N   UNL A   1      32.137  28.811  23.605  1.00  0.00    -0.356 N 
ATOM      4  C   UNL A   1      32.550  27.626  23.103  1.00  0.00     0.223 C 
ATOM      5  O   UNL A   1      33.565  27.694  22.401  1.00  0.00    -0.275 OA
ATOM      6  H   UNL A   1      32.626  29.589  23.252  1.00  0.00     0.163 HD
BRANCH   4   7
ATOM      7  C   UNL A   1      31.776  26.297  23.280  1.00  0.00     0.083 C 
ATOM      8  C   UNL A   1      32.049  25.326  24.451  1.00  0.00     0.021 C 
ATOM      9  C   UNL A   1      33.500  24.912  24.213  1.00  0.00     0.006 C 
ATOM     10  C   UNL A   1      33.589  24.775  22.689  1.00  0.00     0.001 C 
ATOM     11  C   UNL A   1      32.271  25.356  22.144  1.00  0.00     0.014 C 
BRANCH   8  12
ATOM     12  C   UNL A   1      31.722  25.630  25.904  1.00  0.00     0.122 C 
BRANCH  12  13
ATOM     13  N   UNL A   1      30.753  24.705  26.463  1.00  0.00    -0.338 N 
ATOM     14  C   UNL A   1      30.838  23.430  26.899  1.00  0.00     0.317 C 
ATOM     15  O   UNL A   1      29.874  23.008  27.541  1.00  0.00    -0.249 OA
ATOM     16  H   UNL A   1      29.848  25.085  26.540  1.00  0.00     0.165 HD
BRANCH  14  17
ATOM     17  N   UNL A   1      31.926  22.655  26.647  1.00  0.00    -0.324 N 
ATOM     18  C   UNL A   1      34.118  20.259  24.864  1.00  0.00     0.010 C 
ATOM     19  C   UNL A   1      33.308  20.839  26.013  1.00  0.00     0.010 C 
ATOM     20  C   UNL A   1      32.186  21.761  25.535  1.00  0.00     0.125 C 
ATOM     21  C   UNL A   1      34.079  21.699  27.027  1.00  0.00     0.010 C 
ATOM     22  C   UNL A   1      32.956  22.516  27.672  1.00  0.00     0.125 C 
ATOM     23  C   UNL A   1      35.151  22.602  26.423  1.00  0.00     0.010 C 
ENDBRANCH  14  17
ENDBRANCH  12  13
ENDBRANCH   8  12
ENDBRANCH   4   7
ENDBRANCH   2   3
ENDBRANCH   1   2
BRANCH   1  24
ATOM     24  C   UNL A   1      32.485  28.826  26.715  1.00  0.00     0.023 C 
BRANCH  24  25
ATOM     25  C   UNL A   1      33.844  29.326  27.177  1.00  0.00     0.116 C 
BRANCH  25  26
ATOM     26  N   UNL A   1      33.769  30.537  27.995  1.00  0.00    -0.352 N 
ATOM     27  C   UNL A   1      34.739  31.051  28.819  1.00  0.00     0.251 C 
ATOM     28  H   UNL A   1      32.925  31.042  27.948  1.00  0.00     0.163 HD
ATOM     29  O   UNL A   1      34.526  32.016  29.532  1.00  0.00    -0.269 OA
BRANCH  27  30
ATOM     30  C   UNL A   1      36.043  30.360  28.854  1.00  0.00     0.039 A 
ATOM     31  C   UNL A   1      36.851  30.375  27.715  1.00  0.00     0.014 A 
ATOM     32  C   UNL A   1      36.506  29.824  30.059  1.00  0.00     0.014 A 
ATOM     33  C   UNL A   1      38.168  29.930  27.811  1.00  0.00     0.010 A 
ATOM     34  C   UNL A   1      37.837  29.455  30.168  1.00  0.00     0.010 A 
ATOM     35  C   UNL A   1      38.684  29.517  29.050  1.00  0.00    -0.014 A 
BRANCH  35  36
ATOM     36  C   UNL A   1      40.109  29.147  29.222  1.00  0.00     0.031 A 
ATOM     37  C   UNL A   1      41.090  30.191  29.672  1.00  0.00     0.074 A 
ATOM     38  C   UNL A   1      40.531  27.919  28.863  1.00  0.00     0.049 A 
ATOM     39  N   UNL A   1      42.394  30.138  29.708  1.00  0.00    -0.248 NA
ATOM     40  C   UNL A   1      40.526  31.484  30.097  1.00  0.00     0.031 C 
ATOM     41  C   UNL A   1      39.678  26.839  28.360  1.00  0.00     0.029 A 
ATOM     42  N   UNL A   1      41.791  27.379  28.842  1.00  0.00    -0.354 N 
ATOM     43  C   UNL A   1      42.809  31.398  30.119  1.00  0.00     0.074 A 
ATOM     44  C   UNL A   1      41.621  32.205  30.285  1.00  0.00     0.031 C 
ATOM     45  C   UNL A   1      40.438  25.762  28.096  1.00  0.00     0.029 A 
ATOM     46  C   UNL A   1      41.834  26.088  28.371  1.00  0.00     0.049 A 
ATOM     47  H   UNL A   1      42.592  27.871  29.137  1.00  0.00     0.167 HD
ATOM     48  C   UNL A   1      44.069  31.837  30.352  1.00  0.00     0.037 A 
ATOM     49  C   UNL A   1      42.882  25.265  28.173  1.00  0.00     0.037 A 
ATOM     50  C   UNL A   1      45.239  31.011  30.234  1.00  0.00     0.049 A 
ATOM     51  C   UNL A   1      44.266  25.756  28.497  1.00  0.00     0.074 A 
ATOM     52  C   UNL A   1      46.556  31.341  30.500  1.00  0.00     0.029 A 
ATOM     53  N   UNL A   1      45.230  29.684  29.831  1.00  0.00    -0.354 N 
ATOM     54  N   UNL A   1      44.641  26.941  28.918  1.00  0.00    -0.248 NA
ATOM     55  C   UNL A   1      45.370  24.801  28.325  1.00  0.00     0.031 C 
ATOM     56  C   UNL A   1      47.347  30.214  30.243  1.00  0.00     0.029 A 
ATOM     57  C   UNL A   1      46.518  29.177  29.846  1.00  0.00     0.049 A 
ATOM     58  H   UNL A   1      44.427  29.178  29.573  1.00  0.00     0.167 HD
ATOM     59  C   UNL A   1      46.017  26.865  29.090  1.00  0.00     0.074 A 
ATOM     60  C   UNL A   1      46.410  25.518  28.728  1.00  0.00     0.031 C 
ATOM     61  C   UNL A   1      46.879  27.824  29.509  1.00  0.00     0.037 A 
BRANCH  48  62
ATOM     62  C   UNL A   1      44.233  33.271  30.765  1.00  0.00     0.058 A 
ATOM     63  C   UNL A   1      44.291  33.644  32.118  1.00  0.00     0.135 A 
ATOM     64  C   UNL A   1      44.338  34.285  29.800  1.00  0.00     0.135 A 
ATOM     65  F   UNL A   1      44.175  32.715  33.080  1.00  0.00    -0.206 F 
ATOM     66  C   UNL A   1      44.410  34.975  32.500  1.00  0.00     0.059 A 
ATOM     67  C   UNL A   1      44.483  35.622  30.159  1.00  0.00     0.059 A 
ATOM     68  F   UNL A   1      44.286  33.982  28.493  1.00  0.00    -0.206 F 
ATOM     69  C   UNL A   1      44.499  35.958  31.513  1.00  0.00     0.060 A 
BRANCH  69  70
ATOM     70  S   UNL A   1      44.644  37.684  32.020  1.00  0.00     0.124 S 
ATOM     71  O   UNL A   1      45.909  37.667  32.746  1.00  0.00    -0.237 OA
ATOM     72  O   UNL A   1      44.657  38.389  30.743  1.00  0.00    -0.237 OA
ATOM     73  O   UNL A   1      43.453  37.897  32.837  1.00  0.00    -0.744 OA
ENDBRANCH  69  70
ENDBRANCH  48  62
BRANCH  49  74
ATOM     74  C   UNL A   1      42.658  23.884  27.676  1.00  0.00     0.058 A 
ATOM     75  C   UNL A   1      42.539  22.811  28.572  1.00  0.00     0.135 A 
ATOM     76  C   UNL A   1      42.538  23.608  26.305  1.00  0.00     0.135 A 
ATOM     77  F   UNL A   1      42.651  23.026  29.891  1.00  0.00    -0.206 F 
ATOM     78  C   UNL A   1      42.324  21.511  28.129  1.00  0.00     0.059 A 
ATOM     79  C   UNL A   1      42.304  22.317  25.838  1.00  0.00     0.059 A 
ATOM     80  F   UNL A   1      42.625  24.603  25.409  1.00  0.00    -0.206 F 
ATOM     81  C   UNL A   1      42.207  21.274  26.758  1.00  0.00     0.060 A 
BRANCH  81  82
ATOM     82  S   UNL A   1      41.875  19.590  26.194  1.00  0.00     0.124 S 
ATOM     83  O   UNL A   1      42.343  18.804  27.328  1.00  0.00    -0.237 OA
ATOM     84  O   UNL A   1      40.430  19.613  25.986  1.00  0.00    -0.237 OA
ATOM     85  O   UNL A   1      42.674  19.484  24.976  1.00  0.00    -0.744 OA
ENDBRANCH  81  82
ENDBRANCH  49  74
BRANCH  61  86
ATOM     86  C   UNL A   1      48.322  27.441  29.652  1.00  0.00     0.058 A 
ATOM     87  C   UNL A   1      49.245  27.657  28.620  1.00  0.00     0.135 A 
ATOM     88  C   UNL A   1      48.798  26.928  30.869  1.00  0.00     0.135 A 
ATOM     89  F   UNL A   1      48.836  28.140  27.436  1.00  0.00    -0.206 F 
ATOM     90  C   UNL A   1      50.595  27.368  28.786  1.00  0.00     0.059 A 
ATOM     91  C   UNL A   1      50.146  26.650  31.063  1.00  0.00     0.059 A 
ATOM     92  F   UNL A   1      47.952  26.713  31.890  1.00  0.00    -0.206 F 
ATOM     93  C   UNL A   1      51.038  26.869  30.013  1.00  0.00     0.060 A 
BRANCH  93  94
ATOM     94  S   UNL A   1      52.801  26.555  30.241  1.00  0.00     0.124 S 
ATOM     95  O   UNL A   1      52.782  25.498  31.247  1.00  0.00    -0.237 OA
ATOM     96  O   UNL A   1      53.224  26.149  28.905  1.00  0.00    -0.237 OA
ATOM     97  O   UNL A   1      53.319  27.844  30.691  1.00  0.00    -0.744 OA
ENDBRANCH  93  94
ENDBRANCH  61  86
ENDBRANCH  35  36
ENDBRANCH  27  30
ENDBRANCH  25  26
ENDBRANCH  24  25
ENDBRANCH   1  24
TORSDOF 17
ENDMDL
