MODEL 1
REMARK VINA RESULT:     -14.5      0.000      0.000
REMARK SMILES Cc1ccc([C@H](C)NC(=O)[C@H]2[C@@H]3CC[C@@H](C3)[C@@H]2C(=O)NCCCCNC(=O)c2ccc(-c3c4nc(c(-c5c(F)cc(S(=O)(=O)[O-])cc5F)c5ccc([nH]5)c(-c5c(F)cc(S(=O)(=O)[O-])cc5F)c5nc(c(-c6c(F)cc(S(=O)(=O)[O-])cc6F)c6ccc3[nH]6)C=C5)C=C4)cc2)cc1
REMARK SMILES IDX 22 1 21 2 20 3 18 4 19 5 17 7 11 8 12 9 13 10 16 11 15 12
REMARK SMILES IDX 14 13 9 14 8 15 10 17 6 18 7 19 5 20 1 21 2 22 3 23 95 24
REMARK SMILES IDX 4 25 94 26 23 27 24 28 25 29 26 30 27 32 28 33 29 34 93 35
REMARK SMILES IDX 30 36 92 37 31 38 32 39 33 40 86 41 34 42 91 43 85 44 87 45
REMARK SMILES IDX 35 46 90 47 84 48 83 49 36 51 70 52 49 53 69 54 50 55 53 56
REMARK SMILES IDX 68 57 88 58 51 59 52 60 67 62 89 63 54 64 37 65 38 66 47 67
REMARK SMILES IDX 39 68 40 69 46 70 48 71 41 72 42 73 43 74 44 75 45 76 71 77
REMARK SMILES IDX 72 78 81 79 73 80 74 81 80 82 82 83 75 84 76 85 77 86 78 87
REMARK SMILES IDX 79 88 55 89 56 90 65 91 57 92 58 93 64 94 66 95 59 96 60 97
REMARK SMILES IDX 61 98 62 99 63 100
REMARK H PARENT 20 6 8 16 25 31 87 50 53 61
REMARK Flexibility Score: inf
ROOT
ATOM      1  C   UNL A   1      33.213  29.163  27.250  1.00  0.00     0.023 C 
ENDROOT
BRANCH   1   2
ATOM      2  C   UNL A   1      34.049  28.269  26.322  1.00  0.00     0.116 C 
BRANCH   2   3
ATOM      3  N   UNL A   1      34.138  28.806  24.972  1.00  0.00    -0.356 N 
ATOM      4  C   UNL A   1      33.718  28.356  23.765  1.00  0.00     0.224 C 
ATOM      5  O   UNL A   1      33.985  29.075  22.794  1.00  0.00    -0.275 OA
ATOM      6  H   UNL A   1      34.597  29.674  24.927  1.00  0.00     0.163 HD
BRANCH   4   7
ATOM      7  C   UNL A   1      32.824  27.128  23.581  1.00  0.00     0.094 C 
ATOM      8  C   UNL A   1      32.256  26.780  22.204  1.00  0.00     0.094 C 
ATOM      9  C   UNL A   1      30.726  26.693  22.428  1.00  0.00     0.002 C 
ATOM     10  C   UNL A   1      30.188  28.127  22.609  1.00  0.00     0.005 C 
ATOM     11  C   UNL A   1      30.614  26.162  23.850  1.00  0.00     0.009 C 
ATOM     12  C   UNL A   1      31.514  27.256  24.427  1.00  0.00     0.002 C 
ATOM     13  C   UNL A   1      30.711  28.509  24.004  1.00  0.00     0.005 C 
BRANCH   8  14
ATOM     14  C   UNL A   1      32.801  25.575  21.438  1.00  0.00     0.224 C 
ATOM     15  N   UNL A   1      33.107  24.358  21.936  1.00  0.00    -0.349 N 
ATOM     16  H   UNL A   1      33.572  23.795  21.275  1.00  0.00     0.164 HD
ATOM     17  O   UNL A   1      32.958  25.692  20.215  1.00  0.00    -0.275 OA
BRANCH  15  18
ATOM     18  C   UNL A   1      32.924  23.671  23.208  1.00  0.00     0.109 C 
ATOM     19  C   UNL A   1      32.240  22.322  22.963  1.00  0.00     0.036 C 
BRANCH  18  20
ATOM     20  C   UNL A   1      34.228  23.489  23.962  1.00  0.00    -0.026 A 
ATOM     21  C   UNL A   1      38.046  23.205  25.986  1.00  0.00     0.044 C 
ATOM     22  C   UNL A   1      36.716  23.289  25.296  1.00  0.00    -0.051 A 
ATOM     23  C   UNL A   1      36.632  23.076  23.918  1.00  0.00     0.004 A 
ATOM     24  C   UNL A   1      35.547  23.576  26.007  1.00  0.00     0.004 A 
ATOM     25  C   UNL A   1      35.406  23.182  23.258  1.00  0.00     0.006 A 
ATOM     26  C   UNL A   1      34.316  23.671  25.350  1.00  0.00     0.006 A 
ENDBRANCH  18  20
ENDBRANCH  15  18
ENDBRANCH   8  14
ENDBRANCH   4   7
ENDBRANCH   2   3
ENDBRANCH   1   2
BRANCH   1  27
ATOM     27  C   UNL A   1      33.698  30.613  27.354  1.00  0.00     0.023 C 
BRANCH  27  28
ATOM     28  C   UNL A   1      35.196  30.722  27.603  1.00  0.00     0.116 C 
BRANCH  28  29
ATOM     29  N   UNL A   1      35.545  31.235  28.922  1.00  0.00    -0.352 N 
ATOM     30  C   UNL A   1      36.378  30.647  29.864  1.00  0.00     0.251 C 
ATOM     31  H   UNL A   1      35.143  32.099  29.174  1.00  0.00     0.163 HD
ATOM     32  O   UNL A   1      36.528  31.071  30.990  1.00  0.00    -0.269 OA
BRANCH  30  33
ATOM     33  C   UNL A   1      37.205  29.521  29.378  1.00  0.00     0.039 A 
ATOM     34  C   UNL A   1      37.517  28.527  30.312  1.00  0.00     0.014 A 
ATOM     35  C   UNL A   1      37.926  29.661  28.195  1.00  0.00     0.014 A 
ATOM     36  C   UNL A   1      38.693  27.803  30.155  1.00  0.00     0.010 A 
ATOM     37  C   UNL A   1      39.142  29.012  28.092  1.00  0.00     0.010 A 
ATOM     38  C   UNL A   1      39.552  28.130  29.100  1.00  0.00    -0.014 A 
BRANCH  38  39
ATOM     39  C   UNL A   1      40.935  27.666  29.063  1.00  0.00     0.031 A 
ATOM     40  C   UNL A   1      41.241  26.308  28.569  1.00  0.00     0.074 A 
ATOM     41  C   UNL A   1      41.933  28.448  29.533  1.00  0.00     0.049 A 
ATOM     42  N   UNL A   1      42.197  25.572  29.030  1.00  0.00    -0.248 NA
ATOM     43  C   UNL A   1      40.444  25.649  27.537  1.00  0.00     0.031 C 
ATOM     44  C   UNL A   1      43.367  28.185  29.457  1.00  0.00     0.029 A 
ATOM     45  N   UNL A   1      41.824  29.546  30.393  1.00  0.00    -0.354 N 
ATOM     46  C   UNL A   1      42.294  24.472  28.213  1.00  0.00     0.074 A 
ATOM     47  C   UNL A   1      41.148  24.533  27.335  1.00  0.00     0.031 C 
ATOM     48  C   UNL A   1      43.985  28.888  30.417  1.00  0.00     0.029 A 
ATOM     49  C   UNL A   1      42.966  29.549  31.214  1.00  0.00     0.049 A 
ATOM     50  H   UNL A   1      41.085  30.196  30.418  1.00  0.00     0.167 HD
ATOM     51  C   UNL A   1      43.395  23.674  28.248  1.00  0.00     0.037 A 
ATOM     52  C   UNL A   1      42.854  29.458  32.570  1.00  0.00     0.037 A 
ATOM     53  C   UNL A   1      44.359  24.106  29.247  1.00  0.00     0.049 A 
ATOM     54  C   UNL A   1      43.448  28.193  33.149  1.00  0.00     0.074 A 
ATOM     55  C   UNL A   1      45.477  24.922  29.175  1.00  0.00     0.029 A 
ATOM     56  N   UNL A   1      44.040  24.002  30.600  1.00  0.00    -0.354 N 
ATOM     57  N   UNL A   1      43.826  27.166  32.434  1.00  0.00    -0.248 NA
ATOM     58  C   UNL A   1      43.654  27.975  34.580  1.00  0.00     0.031 C 
ATOM     59  C   UNL A   1      45.758  25.401  30.478  1.00  0.00     0.029 A 
ATOM     60  C   UNL A   1      44.846  24.838  31.352  1.00  0.00     0.049 A 
ATOM     61  H   UNL A   1      43.340  23.416  30.967  1.00  0.00     0.167 HD
ATOM     62  C   UNL A   1      44.268  26.166  33.262  1.00  0.00     0.074 A 
ATOM     63  C   UNL A   1      44.169  26.732  34.594  1.00  0.00     0.031 C 
ATOM     64  C   UNL A   1      44.676  24.948  32.794  1.00  0.00     0.037 A 
BRANCH  51  65
ATOM     65  C   UNL A   1      43.647  22.745  27.094  1.00  0.00     0.058 A 
ATOM     66  C   UNL A   1      42.929  21.544  26.951  1.00  0.00     0.135 A 
ATOM     67  C   UNL A   1      44.706  22.941  26.185  1.00  0.00     0.135 A 
ATOM     68  F   UNL A   1      41.885  21.259  27.741  1.00  0.00    -0.206 F 
ATOM     69  C   UNL A   1      43.297  20.559  26.036  1.00  0.00     0.059 A 
ATOM     70  C   UNL A   1      45.119  21.952  25.288  1.00  0.00     0.059 A 
ATOM     71  F   UNL A   1      45.408  24.087  26.201  1.00  0.00    -0.206 F 
ATOM     72  C   UNL A   1      44.414  20.754  25.232  1.00  0.00     0.060 A 
BRANCH  72  73
ATOM     73  S   UNL A   1      44.986  19.392  24.192  1.00  0.00     0.124 S 
ATOM     74  O   UNL A   1      44.450  19.750  22.881  1.00  0.00    -0.237 OA
ATOM     75  O   UNL A   1      46.433  19.494  24.334  1.00  0.00    -0.237 OA
ATOM     76  O   UNL A   1      44.371  18.220  24.808  1.00  0.00    -0.744 OA
ENDBRANCH  72  73
ENDBRANCH  51  65
BRANCH  52  77
ATOM     77  C   UNL A   1      41.718  30.243  33.127  1.00  0.00     0.058 A 
ATOM     78  C   UNL A   1      40.517  29.553  33.391  1.00  0.00     0.135 A 
ATOM     79  C   UNL A   1      41.890  31.490  33.739  1.00  0.00     0.135 A 
ATOM     80  F   UNL A   1      40.290  28.362  32.811  1.00  0.00    -0.206 F 
ATOM     81  C   UNL A   1      39.592  30.010  34.325  1.00  0.00     0.059 A 
ATOM     82  C   UNL A   1      40.973  31.970  34.680  1.00  0.00     0.059 A 
ATOM     83  F   UNL A   1      43.004  32.203  33.516  1.00  0.00    -0.206 F 
ATOM     84  C   UNL A   1      39.861  31.192  35.011  1.00  0.00     0.060 A 
BRANCH  84  85
ATOM     85  S   UNL A   1      38.777  31.660  36.384  1.00  0.00     0.124 S 
ATOM     86  O   UNL A   1      38.137  30.393  36.723  1.00  0.00    -0.237 OA
ATOM     87  O   UNL A   1      39.737  32.163  37.365  1.00  0.00    -0.237 OA
ATOM     88  O   UNL A   1      37.901  32.660  35.787  1.00  0.00    -0.744 OA
ENDBRANCH  84  85
ENDBRANCH  52  77
BRANCH  64  89
ATOM     89  C   UNL A   1      45.055  23.773  33.658  1.00  0.00     0.058 A 
ATOM     90  C   UNL A   1      44.145  22.798  34.094  1.00  0.00     0.135 A 
ATOM     91  C   UNL A   1      46.415  23.533  33.967  1.00  0.00     0.135 A 
ATOM     92  F   UNL A   1      42.843  22.875  33.778  1.00  0.00    -0.206 F 
ATOM     93  C   UNL A   1      44.545  21.686  34.839  1.00  0.00     0.059 A 
ATOM     94  C   UNL A   1      46.841  22.407  34.665  1.00  0.00     0.059 A 
ATOM     95  F   UNL A   1      47.377  24.390  33.591  1.00  0.00    -0.206 F 
ATOM     96  C   UNL A   1      45.895  21.498  35.120  1.00  0.00     0.060 A 
BRANCH  96  97
ATOM     97  S   UNL A   1      46.441  20.042  36.032  1.00  0.00     0.124 S 
ATOM     98  O   UNL A   1      46.070  18.969  35.115  1.00  0.00    -0.237 OA
ATOM     99  O   UNL A   1      47.874  20.270  36.188  1.00  0.00    -0.237 OA
ATOM    100  O   UNL A   1      45.663  20.118  37.265  1.00  0.00    -0.744 OA
ENDBRANCH  96  97
ENDBRANCH  64  89
ENDBRANCH  38  39
ENDBRANCH  30  33
ENDBRANCH  28  29
ENDBRANCH  27  28
ENDBRANCH   1  27
TORSDOF 17
ENDMDL
MODEL 2
REMARK VINA RESULT:     -14.2      1.094      3.032
REMARK SMILES Cc1ccc([C@H](C)NC(=O)[C@H]2[C@@H]3CC[C@@H](C3)[C@@H]2C(=O)NCCCCNC(=O)c2ccc(-c3c4nc(c(-c5c(F)cc(S(=O)(=O)[O-])cc5F)c5ccc([nH]5)c(-c5c(F)cc(S(=O)(=O)[O-])cc5F)c5nc(c(-c6c(F)cc(S(=O)(=O)[O-])cc6F)c6ccc3[nH]6)C=C5)C=C4)cc2)cc1
REMARK SMILES IDX 22 1 21 2 20 3 18 4 19 5 17 7 11 8 12 9 13 10 16 11 15 12
REMARK SMILES IDX 14 13 9 14 8 15 10 17 6 18 7 19 5 20 1 21 2 22 3 23 95 24
REMARK SMILES IDX 4 25 94 26 23 27 24 28 25 29 26 30 27 32 28 33 29 34 93 35
REMARK SMILES IDX 30 36 92 37 31 38 32 39 33 40 86 41 34 42 91 43 85 44 87 45
REMARK SMILES IDX 35 46 90 47 84 48 83 49 36 51 70 52 49 53 69 54 50 55 53 56
REMARK SMILES IDX 68 57 88 58 51 59 52 60 67 62 89 63 54 64 37 65 38 66 47 67
REMARK SMILES IDX 39 68 40 69 46 70 48 71 41 72 42 73 43 74 44 75 45 76 71 77
REMARK SMILES IDX 72 78 81 79 73 80 74 81 80 82 82 83 75 84 76 85 77 86 78 87
REMARK SMILES IDX 79 88 55 89 56 90 65 91 57 92 58 93 64 94 66 95 59 96 60 97
REMARK SMILES IDX 61 98 62 99 63 100
REMARK H PARENT 20 6 8 16 25 31 87 50 53 61
REMARK Flexibility Score: inf
ROOT
ATOM      1  C   UNL A   1      32.443  29.092  26.582  1.00  0.00     0.023 C 
ENDROOT
BRANCH   1   2
ATOM      2  C   UNL A   1      33.325  27.855  26.356  1.00  0.00     0.116 C 
BRANCH   2   3
ATOM      3  N   UNL A   1      32.611  26.614  26.617  1.00  0.00    -0.356 N 
ATOM      4  C   UNL A   1      32.666  25.378  26.064  1.00  0.00     0.224 C 
ATOM      5  O   UNL A   1      31.882  24.540  26.527  1.00  0.00    -0.275 OA
ATOM      6  H   UNL A   1      31.953  26.688  27.345  1.00  0.00     0.163 HD
BRANCH   4   7
ATOM      7  C   UNL A   1      33.723  24.950  25.044  1.00  0.00     0.094 C 
ATOM      8  C   UNL A   1      33.346  24.058  23.861  1.00  0.00     0.094 C 
ATOM      9  C   UNL A   1      34.312  22.851  23.964  1.00  0.00     0.002 C 
ATOM     10  C   UNL A   1      33.854  21.973  25.147  1.00  0.00     0.005 C 
ATOM     11  C   UNL A   1      35.578  23.469  24.537  1.00  0.00     0.009 C 
ATOM     12  C   UNL A   1      34.844  24.096  25.725  1.00  0.00     0.002 C 
ATOM     13  C   UNL A   1      34.246  22.822  26.367  1.00  0.00     0.005 C 
BRANCH   8  14
ATOM     14  C   UNL A   1      33.295  24.644  22.451  1.00  0.00     0.224 C 
ATOM     15  N   UNL A   1      33.064  25.928  22.106  1.00  0.00    -0.349 N 
ATOM     16  H   UNL A   1      32.942  26.033  21.134  1.00  0.00     0.164 HD
ATOM     17  O   UNL A   1      33.520  23.881  21.501  1.00  0.00    -0.275 OA
BRANCH  15  18
ATOM     18  C   UNL A   1      32.947  27.197  22.811  1.00  0.00     0.109 C 
ATOM     19  C   UNL A   1      33.800  28.255  22.102  1.00  0.00     0.036 C 
BRANCH  18  20
ATOM     20  C   UNL A   1      31.507  27.659  22.940  1.00  0.00    -0.026 A 
ATOM     21  C   UNL A   1      27.382  28.973  23.026  1.00  0.00     0.044 C 
ATOM     22  C   UNL A   1      28.811  28.514  23.016  1.00  0.00    -0.051 A 
ATOM     23  C   UNL A   1      29.810  29.362  22.531  1.00  0.00     0.004 A 
ATOM     24  C   UNL A   1      29.170  27.249  23.488  1.00  0.00     0.004 A 
ATOM     25  C   UNL A   1      31.139  28.937  22.486  1.00  0.00     0.006 A 
ATOM     26  C   UNL A   1      30.503  26.826  23.455  1.00  0.00     0.006 A 
ENDBRANCH  18  20
ENDBRANCH  15  18
ENDBRANCH   8  14
ENDBRANCH   4   7
ENDBRANCH   2   3
ENDBRANCH   1   2
BRANCH   1  27
ATOM     27  C   UNL A   1      33.136  30.253  27.302  1.00  0.00     0.023 C 
BRANCH  27  28
ATOM     28  C   UNL A   1      34.609  29.984  27.581  1.00  0.00     0.116 C 
BRANCH  28  29
ATOM     29  N   UNL A   1      35.219  30.920  28.517  1.00  0.00    -0.352 N 
ATOM     30  C   UNL A   1      36.383  30.742  29.252  1.00  0.00     0.251 C 
ATOM     31  H   UNL A   1      34.750  31.777  28.643  1.00  0.00     0.163 HD
ATOM     32  O   UNL A   1      36.768  31.513  30.104  1.00  0.00    -0.269 OA
BRANCH  30  33
ATOM     33  C   UNL A   1      37.234  29.602  28.844  1.00  0.00     0.039 A 
ATOM     34  C   UNL A   1      37.517  28.651  29.830  1.00  0.00     0.014 A 
ATOM     35  C   UNL A   1      37.996  29.697  27.683  1.00  0.00     0.014 A 
ATOM     36  C   UNL A   1      38.701  27.929  29.745  1.00  0.00     0.010 A 
ATOM     37  C   UNL A   1      39.218  29.052  27.650  1.00  0.00     0.010 A 
ATOM     38  C   UNL A   1      39.595  28.216  28.709  1.00  0.00    -0.014 A 
BRANCH  38  39
ATOM     39  C   UNL A   1      40.982  27.761  28.741  1.00  0.00     0.031 A 
ATOM     40  C   UNL A   1      41.316  26.395  28.288  1.00  0.00     0.074 A 
ATOM     41  C   UNL A   1      41.954  28.557  29.239  1.00  0.00     0.049 A 
ATOM     42  N   UNL A   1      42.255  25.674  28.804  1.00  0.00    -0.248 NA
ATOM     43  C   UNL A   1      40.568  25.711  27.236  1.00  0.00     0.031 C 
ATOM     44  C   UNL A   1      43.392  28.302  29.229  1.00  0.00     0.029 A 
ATOM     45  N   UNL A   1      41.802  29.671  30.071  1.00  0.00    -0.354 N 
ATOM     46  C   UNL A   1      42.394  24.559  28.014  1.00  0.00     0.074 A 
ATOM     47  C   UNL A   1      41.286  24.595  27.086  1.00  0.00     0.031 C 
ATOM     48  C   UNL A   1      43.964  29.027  30.201  1.00  0.00     0.029 A 
ATOM     49  C   UNL A   1      42.907  29.697  30.940  1.00  0.00     0.049 A 
ATOM     50  H   UNL A   1      41.059  30.317  30.051  1.00  0.00     0.167 HD
ATOM     51  C   UNL A   1      43.496  23.768  28.113  1.00  0.00     0.037 A 
ATOM     52  C   UNL A   1      42.737  29.633  32.292  1.00  0.00     0.037 A 
ATOM     53  C   UNL A   1      44.414  24.226  29.144  1.00  0.00     0.049 A 
ATOM     54  C   UNL A   1      43.312  28.382  32.920  1.00  0.00     0.074 A 
ATOM     55  C   UNL A   1      45.529  25.047  29.103  1.00  0.00     0.029 A 
ATOM     56  N   UNL A   1      44.037  24.147  30.483  1.00  0.00    -0.354 N 
ATOM     57  N   UNL A   1      43.726  27.344  32.244  1.00  0.00    -0.248 NA
ATOM     58  C   UNL A   1      43.456  28.193  34.364  1.00  0.00     0.031 C 
ATOM     59  C   UNL A   1      45.751  25.553  30.408  1.00  0.00     0.029 A 
ATOM     60  C   UNL A   1      44.804  25.002  31.253  1.00  0.00     0.049 A 
ATOM     61  H   UNL A   1      43.324  23.563  30.831  1.00  0.00     0.167 HD
ATOM     62  C   UNL A   1      44.137  26.363  33.109  1.00  0.00     0.074 A 
ATOM     63  C   UNL A   1      43.978  26.955  34.424  1.00  0.00     0.031 C 
ATOM     64  C   UNL A   1      44.572  25.139  32.683  1.00  0.00     0.037 A 
BRANCH  51  65
ATOM     65  C   UNL A   1      43.803  22.818  26.989  1.00  0.00     0.058 A 
ATOM     66  C   UNL A   1      43.076  21.627  26.820  1.00  0.00     0.135 A 
ATOM     67  C   UNL A   1      44.918  22.986  26.144  1.00  0.00     0.135 A 
ATOM     68  F   UNL A   1      41.982  21.368  27.548  1.00  0.00    -0.206 F 
ATOM     69  C   UNL A   1      43.484  20.622  25.942  1.00  0.00     0.059 A 
ATOM     70  C   UNL A   1      45.369  21.977  25.288  1.00  0.00     0.059 A 
ATOM     71  F   UNL A   1      45.636  24.121  26.186  1.00  0.00    -0.206 F 
ATOM     72  C   UNL A   1      44.650  20.789  25.205  1.00  0.00     0.060 A 
BRANCH  72  73
ATOM     73  S   UNL A   1      45.262  19.404  24.221  1.00  0.00     0.124 S 
ATOM     74  O   UNL A   1      44.591  19.605  22.940  1.00  0.00    -0.237 OA
ATOM     75  O   UNL A   1      46.701  19.644  24.227  1.00  0.00    -0.237 OA
ATOM     76  O   UNL A   1      44.814  18.235  24.973  1.00  0.00    -0.744 OA
ENDBRANCH  72  73
ENDBRANCH  51  65
BRANCH  52  77
ATOM     77  C   UNL A   1      41.573  30.421  32.783  1.00  0.00     0.058 A 
ATOM     78  C   UNL A   1      40.371  29.725  33.027  1.00  0.00     0.135 A 
ATOM     79  C   UNL A   1      41.711  31.688  33.361  1.00  0.00     0.135 A 
ATOM     80  F   UNL A   1      40.177  28.515  32.476  1.00  0.00    -0.206 F 
ATOM     81  C   UNL A   1      39.408  30.201  33.913  1.00  0.00     0.059 A 
ATOM     82  C   UNL A   1      40.756  32.187  34.253  1.00  0.00     0.059 A 
ATOM     83  F   UNL A   1      42.824  32.407  33.156  1.00  0.00    -0.206 F 
ATOM     84  C   UNL A   1      39.641  31.406  34.569  1.00  0.00     0.060 A 
BRANCH  84  85
ATOM     85  S   UNL A   1      38.504  31.904  35.888  1.00  0.00     0.124 S 
ATOM     86  O   UNL A   1      38.572  30.770  36.805  1.00  0.00    -0.237 OA
ATOM     87  O   UNL A   1      39.123  33.139  36.367  1.00  0.00    -0.237 OA
ATOM     88  O   UNL A   1      37.236  32.064  35.188  1.00  0.00    -0.744 OA
ENDBRANCH  84  85
ENDBRANCH  52  77
BRANCH  64  89
ATOM     89  C   UNL A   1      44.919  23.984  33.586  1.00  0.00     0.058 A 
ATOM     90  C   UNL A   1      44.007  22.986  33.965  1.00  0.00     0.135 A 
ATOM     91  C   UNL A   1      46.259  23.785  33.996  1.00  0.00     0.135 A 
ATOM     92  F   UNL A   1      42.731  23.023  33.554  1.00  0.00    -0.206 F 
ATOM     93  C   UNL A   1      44.382  21.893  34.751  1.00  0.00     0.059 A 
ATOM     94  C   UNL A   1      46.664  22.679  34.736  1.00  0.00     0.059 A 
ATOM     95  F   UNL A   1      47.221  24.667  33.682  1.00  0.00    -0.206 F 
ATOM     96  C   UNL A   1      45.713  21.748  35.132  1.00  0.00     0.060 A 
BRANCH  96  97
ATOM     97  S   UNL A   1      46.231  20.316  36.098  1.00  0.00     0.124 S 
ATOM     98  O   UNL A   1      47.680  20.359  35.927  1.00  0.00    -0.237 OA
ATOM     99  O   UNL A   1      45.745  20.631  37.437  1.00  0.00    -0.237 OA
ATOM    100  O   UNL A   1      45.548  19.210  35.434  1.00  0.00    -0.744 OA
ENDBRANCH  96  97
ENDBRANCH  64  89
ENDBRANCH  38  39
ENDBRANCH  30  33
ENDBRANCH  28  29
ENDBRANCH  27  28
ENDBRANCH   1  27
TORSDOF 17
ENDMDL
MODEL 3
REMARK VINA RESULT:     -14.2      1.496      2.170
REMARK SMILES Cc1ccc([C@H](C)NC(=O)[C@H]2[C@@H]3CC[C@@H](C3)[C@@H]2C(=O)NCCCCNC(=O)c2ccc(-c3c4nc(c(-c5c(F)cc(S(=O)(=O)[O-])cc5F)c5ccc([nH]5)c(-c5c(F)cc(S(=O)(=O)[O-])cc5F)c5nc(c(-c6c(F)cc(S(=O)(=O)[O-])cc6F)c6ccc3[nH]6)C=C5)C=C4)cc2)cc1
REMARK SMILES IDX 22 1 21 2 20 3 18 4 19 5 17 7 11 8 12 9 13 10 16 11 15 12
REMARK SMILES IDX 14 13 9 14 8 15 10 17 6 18 7 19 5 20 1 21 2 22 3 23 95 24
REMARK SMILES IDX 4 25 94 26 23 27 24 28 25 29 26 30 27 32 28 33 29 34 93 35
REMARK SMILES IDX 30 36 92 37 31 38 32 39 33 40 86 41 34 42 91 43 85 44 87 45
REMARK SMILES IDX 35 46 90 47 84 48 83 49 36 51 70 52 49 53 69 54 50 55 53 56
REMARK SMILES IDX 68 57 88 58 51 59 52 60 67 62 89 63 54 64 37 65 38 66 47 67
REMARK SMILES IDX 39 68 40 69 46 70 48 71 41 72 42 73 43 74 44 75 45 76 71 77
REMARK SMILES IDX 72 78 81 79 73 80 74 81 80 82 82 83 75 84 76 85 77 86 78 87
REMARK SMILES IDX 79 88 55 89 56 90 65 91 57 92 58 93 64 94 66 95 59 96 60 97
REMARK SMILES IDX 61 98 62 99 63 100
REMARK H PARENT 20 6 8 16 25 31 87 50 53 61
REMARK Flexibility Score: inf
ROOT
ATOM      1  C   UNL A   1      32.353  30.538  26.931  1.00  0.00     0.023 C 
ENDROOT
BRANCH   1   2
ATOM      2  C   UNL A   1      31.867  29.620  25.799  1.00  0.00     0.116 C 
BRANCH   2   3
ATOM      3  N   UNL A   1      32.860  28.619  25.436  1.00  0.00    -0.356 N 
ATOM      4  C   UNL A   1      32.807  27.276  25.277  1.00  0.00     0.224 C 
ATOM      5  O   UNL A   1      33.872  26.721  24.977  1.00  0.00    -0.275 OA
ATOM      6  H   UNL A   1      33.754  28.998  25.274  1.00  0.00     0.163 HD
BRANCH   4   7
ATOM      7  C   UNL A   1      31.507  26.469  25.293  1.00  0.00     0.094 C 
ATOM      8  C   UNL A   1      31.532  24.950  25.123  1.00  0.00     0.094 C 
ATOM      9  C   UNL A   1      30.584  24.678  23.929  1.00  0.00     0.002 C 
ATOM     10  C   UNL A   1      31.301  25.126  22.639  1.00  0.00     0.005 C 
ATOM     11  C   UNL A   1      29.532  25.769  24.068  1.00  0.00     0.009 C 
ATOM     12  C   UNL A   1      30.571  26.892  24.112  1.00  0.00     0.002 C 
ATOM     13  C   UNL A   1      31.269  26.659  22.752  1.00  0.00     0.005 C 
BRANCH   8  14
ATOM     14  C   UNL A   1      31.236  24.044  26.318  1.00  0.00     0.224 C 
ATOM     15  N   UNL A   1      31.928  22.954  26.710  1.00  0.00    -0.349 N 
ATOM     16  H   UNL A   1      31.463  22.458  27.422  1.00  0.00     0.164 HD
ATOM     17  O   UNL A   1      30.277  24.342  27.044  1.00  0.00    -0.275 OA
BRANCH  15  18
ATOM     18  C   UNL A   1      33.189  22.325  26.341  1.00  0.00     0.109 C 
ATOM     19  C   UNL A   1      33.871  21.775  27.598  1.00  0.00     0.036 C 
BRANCH  18  20
ATOM     20  C   UNL A   1      33.012  21.236  25.299  1.00  0.00    -0.026 A 
ATOM     21  C   UNL A   1      32.293  18.026  22.482  1.00  0.00     0.044 C 
ATOM     22  C   UNL A   1      32.555  19.148  23.445  1.00  0.00    -0.051 A 
ATOM     23  C   UNL A   1      33.071  18.869  24.713  1.00  0.00     0.004 A 
ATOM     24  C   UNL A   1      32.294  20.476  23.099  1.00  0.00     0.004 A 
ATOM     25  C   UNL A   1      33.289  19.899  25.630  1.00  0.00     0.006 A 
ATOM     26  C   UNL A   1      32.524  21.511  24.013  1.00  0.00     0.006 A 
ENDBRANCH  18  20
ENDBRANCH  15  18
ENDBRANCH   8  14
ENDBRANCH   4   7
ENDBRANCH   2   3
ENDBRANCH   1   2
BRANCH   1  27
ATOM     27  C   UNL A   1      33.858  30.825  26.926  1.00  0.00     0.023 C 
BRANCH  27  28
ATOM     28  C   UNL A   1      34.610  30.070  28.014  1.00  0.00     0.116 C 
BRANCH  28  29
ATOM     29  N   UNL A   1      35.225  30.929  29.018  1.00  0.00    -0.352 N 
ATOM     30  C   UNL A   1      36.390  30.690  29.735  1.00  0.00     0.251 C 
ATOM     31  H   UNL A   1      34.761  31.776  29.211  1.00  0.00     0.163 HD
ATOM     32  O   UNL A   1      36.780  31.393  30.642  1.00  0.00    -0.269 OA
BRANCH  30  33
ATOM     33  C   UNL A   1      37.235  29.581  29.239  1.00  0.00     0.039 A 
ATOM     34  C   UNL A   1      37.511  28.554  30.147  1.00  0.00     0.014 A 
ATOM     35  C   UNL A   1      38.000  29.763  28.090  1.00  0.00     0.014 A 
ATOM     36  C   UNL A   1      38.691  27.833  30.007  1.00  0.00     0.010 A 
ATOM     37  C   UNL A   1      39.219  29.116  28.008  1.00  0.00     0.010 A 
ATOM     38  C   UNL A   1      39.589  28.196  28.998  1.00  0.00    -0.014 A 
BRANCH  38  39
ATOM     39  C   UNL A   1      40.973  27.732  28.996  1.00  0.00     0.031 A 
ATOM     40  C   UNL A   1      41.291  26.376  28.504  1.00  0.00     0.074 A 
ATOM     41  C   UNL A   1      41.958  28.510  29.497  1.00  0.00     0.049 A 
ATOM     42  N   UNL A   1      42.233  25.637  28.986  1.00  0.00    -0.248 NA
ATOM     43  C   UNL A   1      40.521  25.723  27.448  1.00  0.00     0.031 C 
ATOM     44  C   UNL A   1      43.394  28.246  29.458  1.00  0.00     0.029 A 
ATOM     45  N   UNL A   1      41.827  29.604  30.359  1.00  0.00    -0.354 N 
ATOM     46  C   UNL A   1      42.352  24.541  28.167  1.00  0.00     0.074 A 
ATOM     47  C   UNL A   1      41.229  24.607  27.258  1.00  0.00     0.031 C 
ATOM     48  C   UNL A   1      43.986  28.944  30.438  1.00  0.00     0.029 A 
ATOM     49  C   UNL A   1      42.946  29.602  31.211  1.00  0.00     0.049 A 
ATOM     50  H   UNL A   1      41.088  30.255  30.368  1.00  0.00     0.167 HD
ATOM     51  C   UNL A   1      43.450  23.741  28.228  1.00  0.00     0.037 A 
ATOM     52  C   UNL A   1      42.798  29.505  32.563  1.00  0.00     0.037 A 
ATOM     53  C   UNL A   1      44.388  24.168  29.255  1.00  0.00     0.049 A 
ATOM     54  C   UNL A   1      43.375  28.235  33.151  1.00  0.00     0.074 A 
ATOM     55  C   UNL A   1      45.508  24.983  29.216  1.00  0.00     0.029 A 
ATOM     56  N   UNL A   1      44.032  24.057  30.597  1.00  0.00    -0.354 N 
ATOM     57  N   UNL A   1      43.771  27.211  32.442  1.00  0.00    -0.248 NA
ATOM     58  C   UNL A   1      43.542  28.010  34.586  1.00  0.00     0.031 C 
ATOM     59  C   UNL A   1      45.754  25.455  30.529  1.00  0.00     0.029 A 
ATOM     60  C   UNL A   1      44.818  24.889  31.376  1.00  0.00     0.049 A 
ATOM     61  H   UNL A   1      43.322  23.470  30.943  1.00  0.00     0.167 HD
ATOM     62  C   UNL A   1      44.190  26.207  33.275  1.00  0.00     0.074 A 
ATOM     63  C   UNL A   1      44.056  26.767  34.607  1.00  0.00     0.031 C 
ATOM     64  C   UNL A   1      44.609  24.991  32.813  1.00  0.00     0.037 A 
BRANCH  51  65
ATOM     65  C   UNL A   1      43.733  22.817  27.077  1.00  0.00     0.058 A 
ATOM     66  C   UNL A   1      42.980  21.647  26.876  1.00  0.00     0.135 A 
ATOM     67  C   UNL A   1      44.847  22.986  26.231  1.00  0.00     0.135 A 
ATOM     68  F   UNL A   1      41.883  21.391  27.602  1.00  0.00    -0.206 F 
ATOM     69  C   UNL A   1      43.362  20.659  25.969  1.00  0.00     0.059 A 
ATOM     70  C   UNL A   1      45.274  21.993  25.344  1.00  0.00     0.059 A 
ATOM     71  F   UNL A   1      45.589  24.104  26.302  1.00  0.00    -0.206 F 
ATOM     72  C   UNL A   1      44.529  20.823  25.231  1.00  0.00     0.060 A 
BRANCH  72  73
ATOM     73  S   UNL A   1      45.108  19.454  24.205  1.00  0.00     0.124 S 
ATOM     74  O   UNL A   1      44.454  19.718  22.927  1.00  0.00    -0.237 OA
ATOM     75  O   UNL A   1      46.553  19.650  24.230  1.00  0.00    -0.237 OA
ATOM     76  O   UNL A   1      44.618  18.274  24.913  1.00  0.00    -0.744 OA
ENDBRANCH  72  73
ENDBRANCH  51  65
BRANCH  52  77
ATOM     77  C   UNL A   1      41.648  30.287  33.093  1.00  0.00     0.058 A 
ATOM     78  C   UNL A   1      40.420  29.613  33.254  1.00  0.00     0.135 A 
ATOM     79  C   UNL A   1      41.810  31.499  33.775  1.00  0.00     0.135 A 
ATOM     80  F   UNL A   1      40.202  28.458  32.603  1.00  0.00    -0.206 F 
ATOM     81  C   UNL A   1      39.452  30.046  34.156  1.00  0.00     0.059 A 
ATOM     82  C   UNL A   1      40.850  31.954  34.685  1.00  0.00     0.059 A 
ATOM     83  F   UNL A   1      42.949  32.196  33.651  1.00  0.00    -0.206 F 
ATOM     84  C   UNL A   1      39.706  31.187  34.913  1.00  0.00     0.060 A 
BRANCH  84  85
ATOM     85  S   UNL A   1      38.554  31.613  36.244  1.00  0.00     0.124 S 
ATOM     86  O   UNL A   1      38.273  30.312  36.843  1.00  0.00    -0.237 OA
ATOM     87  O   UNL A   1      39.361  32.520  37.059  1.00  0.00    -0.237 OA
ATOM     88  O   UNL A   1      37.439  32.225  35.533  1.00  0.00    -0.744 OA
ENDBRANCH  84  85
ENDBRANCH  52  77
BRANCH  64  89
ATOM     89  C   UNL A   1      44.964  23.812  33.681  1.00  0.00     0.058 A 
ATOM     90  C   UNL A   1      44.040  22.839  34.093  1.00  0.00     0.135 A 
ATOM     91  C   UNL A   1      46.315  23.564  34.019  1.00  0.00     0.135 A 
ATOM     92  F   UNL A   1      42.746  22.923  33.749  1.00  0.00    -0.206 F 
ATOM     93  C   UNL A   1      44.419  21.723  34.843  1.00  0.00     0.059 A 
ATOM     94  C   UNL A   1      46.722  22.434  34.722  1.00  0.00     0.059 A 
ATOM     95  F   UNL A   1      47.289  24.419  33.667  1.00  0.00    -0.206 F 
ATOM     96  C   UNL A   1      45.762  21.528  35.153  1.00  0.00     0.060 A 
BRANCH  96  97
ATOM     97  S   UNL A   1      46.281  20.066  36.072  1.00  0.00     0.124 S 
ATOM     98  O   UNL A   1      45.749  20.354  37.400  1.00  0.00    -0.237 OA
ATOM     99  O   UNL A   1      45.626  18.978  35.353  1.00  0.00    -0.237 OA
ATOM    100  O   UNL A   1      47.735  20.103  35.951  1.00  0.00    -0.744 OA
ENDBRANCH  96  97
ENDBRANCH  64  89
ENDBRANCH  38  39
ENDBRANCH  30  33
ENDBRANCH  28  29
ENDBRANCH  27  28
ENDBRANCH   1  27
TORSDOF 17
ENDMDL
