MODEL 1
REMARK VINA RESULT:     -12.0      0.000      0.000
REMARK SMILES CC1(C)O[C@](C)([C@H](O)C2CCCCC2)CC[C@H]1C(=O)NCCCCNC(=O)c1ccc(-c2c3nc(c(-c4c(F)cc(S(=O)(=O)[O-])cc4F)c4ccc([nH]4)c(-c4c(F)cc(S(=O)(=O)[O-])cc4F)c4nc(c(-c5c(F)cc(S(=O)(=O)[O-])cc5F)c5ccc2[nH]5)C=C4)C=C3)cc1
REMARK SMILES IDX 23 1 22 2 21 3 20 4 18 5 19 6 17 8 1 9 2 10 3 11 4 12 5 13
REMARK SMILES IDX 16 14 6 15 15 16 7 17 9 18 10 19 14 20 11 21 13 22 12 23
REMARK SMILES IDX 8 24 24 26 25 27 26 28 27 30 28 31 29 32 93 33 30 34 92 35
REMARK SMILES IDX 31 36 32 37 33 38 86 39 34 40 91 41 85 42 87 43 35 44 90 45
REMARK SMILES IDX 84 46 83 47 36 49 70 50 49 51 69 52 50 53 53 54 68 55 88 56
REMARK SMILES IDX 51 57 52 58 67 60 89 61 54 62 37 63 38 64 47 65 39 66 40 67
REMARK SMILES IDX 46 68 48 69 41 70 42 71 43 72 44 73 45 74 71 75 72 76 81 77
REMARK SMILES IDX 73 78 74 79 80 80 82 81 75 82 76 83 77 84 78 85 79 86 55 87
REMARK SMILES IDX 56 88 65 89 57 90 58 91 64 92 66 93 59 94 60 95 61 96 62 97
REMARK SMILES IDX 63 98
REMARK H PARENT 20 7 8 25 25 29 87 48 53 59
REMARK Flexibility Score: inf
ROOT
ATOM      1  C   UNL A   1      36.105  23.400  24.038  1.00  0.00     0.023 C 
ENDROOT
BRANCH   1   2
ATOM      2  C   UNL A   1      34.635  23.035  24.136  1.00  0.00     0.023 C 
BRANCH   2   3
ATOM      3  C   UNL A   1      33.685  24.191  24.459  1.00  0.00     0.116 C 
BRANCH   3   4
ATOM      4  N   UNL A   1      32.866  23.898  25.616  1.00  0.00    -0.356 N 
ATOM      5  C   UNL A   1      31.840  24.566  26.204  1.00  0.00     0.226 C 
ATOM      6  O   UNL A   1      31.410  24.082  27.258  1.00  0.00    -0.275 OA
ATOM      7  H   UNL A   1      33.097  23.051  26.062  1.00  0.00     0.163 HD
BRANCH   5   8
ATOM      8  C   UNL A   1      31.181  25.830  25.636  1.00  0.00     0.110 C 
ATOM      9  C   UNL A   1      33.434  27.247  25.768  1.00  0.00     0.043 C 
ATOM     10  C   UNL A   1      31.916  27.181  25.879  1.00  0.00     0.075 C 
ATOM     11  C   UNL A   1      31.616  27.616  27.336  1.00  0.00     0.043 C 
ATOM     12  O   UNL A   1      31.434  28.258  25.064  1.00  0.00    -0.366 OA
ATOM     13  C   UNL A   1      31.061  28.035  23.701  1.00  0.00     0.092 C 
ATOM     14  C   UNL A   1      30.531  25.614  24.264  1.00  0.00     0.019 C 
ATOM     15  C   UNL A   1      32.206  27.604  22.761  1.00  0.00     0.045 C 
ATOM     16  C   UNL A   1      29.989  26.925  23.687  1.00  0.00     0.039 C 
BRANCH  13  17
ATOM     17  C   UNL A   1      30.443  29.409  23.240  1.00  0.00     0.149 C 
BRANCH  17  18
ATOM     18  C   UNL A   1      29.020  29.368  22.563  1.00  0.00     0.021 C 
ATOM     19  C   UNL A   1      27.775  29.724  23.392  1.00  0.00     0.006 C 
ATOM     20  C   UNL A   1      28.957  30.210  21.270  1.00  0.00     0.006 C 
ATOM     21  C   UNL A   1      27.685  31.201  23.748  1.00  0.00     0.000 C 
ATOM     22  C   UNL A   1      28.779  31.713  21.504  1.00  0.00     0.000 C 
ATOM     23  C   UNL A   1      27.659  32.054  22.485  1.00  0.00     0.000 C 
ENDBRANCH  17  18
BRANCH  17  24
ATOM     24  O   UNL A   1      30.562  30.405  24.252  1.00  0.00    -0.390 OA
ATOM     25  H   UNL A   1      30.937  30.008  25.054  1.00  0.00     0.211 HD
ENDBRANCH  17  24
ENDBRANCH  13  17
ENDBRANCH   5   8
ENDBRANCH   3   4
ENDBRANCH   2   3
ENDBRANCH   1   2
BRANCH   1  26
ATOM     26  C   UNL A   1      36.818  23.501  25.372  1.00  0.00     0.116 C 
BRANCH  26  27
ATOM     27  N   UNL A   1      38.007  22.662  25.470  1.00  0.00    -0.352 N 
ATOM     28  C   UNL A   1      39.206  22.964  26.077  1.00  0.00     0.251 C 
ATOM     29  H   UNL A   1      37.946  21.773  25.053  1.00  0.00     0.163 HD
ATOM     30  O   UNL A   1      40.155  22.194  26.018  1.00  0.00    -0.269 OA
BRANCH  28  31
ATOM     31  C   UNL A   1      39.323  24.269  26.759  1.00  0.00     0.039 A 
ATOM     32  C   UNL A   1      38.829  24.401  28.056  1.00  0.00     0.014 A 
ATOM     33  C   UNL A   1      40.055  25.296  26.159  1.00  0.00     0.014 A 
ATOM     34  C   UNL A   1      39.153  25.542  28.792  1.00  0.00     0.010 A 
ATOM     35  C   UNL A   1      40.462  26.375  26.927  1.00  0.00     0.010 A 
ATOM     36  C   UNL A   1      40.014  26.512  28.250  1.00  0.00    -0.014 A 
BRANCH  36  37
ATOM     37  C   UNL A   1      40.450  27.693  29.034  1.00  0.00     0.031 A 
ATOM     38  C   UNL A   1      41.793  27.673  29.710  1.00  0.00     0.074 A 
ATOM     39  C   UNL A   1      39.612  28.733  29.212  1.00  0.00     0.049 A 
ATOM     40  N   UNL A   1      42.317  28.542  30.534  1.00  0.00    -0.248 NA
ATOM     41  C   UNL A   1      42.643  26.495  29.463  1.00  0.00     0.031 C 
ATOM     42  C   UNL A   1      38.255  28.837  28.666  1.00  0.00     0.029 A 
ATOM     43  N   UNL A   1      39.773  29.901  29.914  1.00  0.00    -0.354 N 
ATOM     44  C   UNL A   1      43.535  28.000  30.927  1.00  0.00     0.074 A 
ATOM     45  C   UNL A   1      43.646  26.703  30.301  1.00  0.00     0.031 C 
ATOM     46  C   UNL A   1      37.723  30.017  29.029  1.00  0.00     0.029 A 
ATOM     47  C   UNL A   1      38.683  30.737  29.858  1.00  0.00     0.049 A 
ATOM     48  H   UNL A   1      40.594  30.119  30.413  1.00  0.00     0.167 HD
ATOM     49  C   UNL A   1      44.490  28.547  31.715  1.00  0.00     0.037 A 
ATOM     50  C   UNL A   1      38.485  31.949  30.414  1.00  0.00     0.037 A 
ATOM     51  C   UNL A   1      44.400  29.864  32.283  1.00  0.00     0.049 A 
ATOM     52  C   UNL A   1      39.584  32.562  31.238  1.00  0.00     0.074 A 
ATOM     53  C   UNL A   1      45.344  30.546  33.029  1.00  0.00     0.029 A 
ATOM     54  N   UNL A   1      43.304  30.705  32.154  1.00  0.00    -0.354 N 
ATOM     55  N   UNL A   1      40.755  32.062  31.550  1.00  0.00    -0.248 NA
ATOM     56  C   UNL A   1      39.338  33.906  31.779  1.00  0.00     0.031 C 
ATOM     57  C   UNL A   1      44.808  31.793  33.370  1.00  0.00     0.029 A 
ATOM     58  C   UNL A   1      43.545  31.899  32.810  1.00  0.00     0.049 A 
ATOM     59  H   UNL A   1      42.477  30.485  31.667  1.00  0.00     0.167 HD
ATOM     60  C   UNL A   1      41.397  33.038  32.302  1.00  0.00     0.074 A 
ATOM     61  C   UNL A   1      40.487  34.162  32.390  1.00  0.00     0.031 C 
ATOM     62  C   UNL A   1      42.628  33.008  32.870  1.00  0.00     0.037 A 
BRANCH  49  63
ATOM     63  C   UNL A   1      45.717  27.725  31.983  1.00  0.00     0.058 A 
ATOM     64  C   UNL A   1      45.806  26.882  33.103  1.00  0.00     0.135 A 
ATOM     65  C   UNL A   1      46.817  27.776  31.112  1.00  0.00     0.135 A 
ATOM     66  F   UNL A   1      44.791  26.813  33.979  1.00  0.00    -0.206 F 
ATOM     67  C   UNL A   1      46.955  26.145  33.368  1.00  0.00     0.059 A 
ATOM     68  C   UNL A   1      47.967  27.026  31.344  1.00  0.00     0.059 A 
ATOM     69  F   UNL A   1      46.786  28.569  30.030  1.00  0.00    -0.206 F 
ATOM     70  C   UNL A   1      48.031  26.227  32.486  1.00  0.00     0.060 A 
BRANCH  70  71
ATOM     71  S   UNL A   1      49.519  25.270  32.846  1.00  0.00     0.124 S 
ATOM     72  O   UNL A   1      48.971  24.170  33.634  1.00  0.00    -0.237 OA
ATOM     73  O   UNL A   1      49.996  24.916  31.513  1.00  0.00    -0.237 OA
ATOM     74  O   UNL A   1      50.359  26.212  33.579  1.00  0.00    -0.744 OA
ENDBRANCH  70  71
ENDBRANCH  49  63
BRANCH  50  75
ATOM     75  C   UNL A   1      37.213  32.680  30.173  1.00  0.00     0.058 A 
ATOM     76  C   UNL A   1      37.114  33.624  29.140  1.00  0.00     0.135 A 
ATOM     77  C   UNL A   1      36.072  32.444  30.955  1.00  0.00     0.135 A 
ATOM     78  F   UNL A   1      38.179  33.886  28.369  1.00  0.00    -0.206 F 
ATOM     79  C   UNL A   1      35.935  34.321  28.900  1.00  0.00     0.059 A 
ATOM     80  C   UNL A   1      34.875  33.115  30.722  1.00  0.00     0.059 A 
ATOM     81  F   UNL A   1      36.110  31.536  31.943  1.00  0.00    -0.206 F 
ATOM     82  C   UNL A   1      34.819  34.059  29.697  1.00  0.00     0.060 A 
BRANCH  82  83
ATOM     83  S   UNL A   1      33.278  34.934  29.346  1.00  0.00     0.124 S 
ATOM     84  O   UNL A   1      32.649  34.958  30.660  1.00  0.00    -0.237 OA
ATOM     85  O   UNL A   1      33.760  36.218  28.844  1.00  0.00    -0.237 OA
ATOM     86  O   UNL A   1      32.633  34.084  28.349  1.00  0.00    -0.744 OA
ENDBRANCH  82  83
ENDBRANCH  50  75
BRANCH  62  87
ATOM     87  C   UNL A   1      43.077  34.237  33.606  1.00  0.00     0.058 A 
ATOM     88  C   UNL A   1      43.647  35.328  32.933  1.00  0.00     0.135 A 
ATOM     89  C   UNL A   1      42.877  34.346  34.991  1.00  0.00     0.135 A 
ATOM     90  F   UNL A   1      43.863  35.268  31.610  1.00  0.00    -0.206 F 
ATOM     91  C   UNL A   1      44.019  36.483  33.613  1.00  0.00     0.059 A 
ATOM     92  C   UNL A   1      43.221  35.499  35.687  1.00  0.00     0.059 A 
ATOM     93  F   UNL A   1      42.326  33.332  35.676  1.00  0.00    -0.206 F 
ATOM     94  C   UNL A   1      43.801  36.560  34.990  1.00  0.00     0.060 A 
BRANCH  94  95
ATOM     95  S   UNL A   1      44.248  38.078  35.856  1.00  0.00     0.124 S 
ATOM     96  O   UNL A   1      43.503  37.935  37.102  1.00  0.00    -0.237 OA
ATOM     97  O   UNL A   1      45.699  37.961  35.968  1.00  0.00    -0.237 OA
ATOM     98  O   UNL A   1      43.779  39.130  34.959  1.00  0.00    -0.744 OA
ENDBRANCH  94  95
ENDBRANCH  62  87
ENDBRANCH  36  37
ENDBRANCH  28  31
ENDBRANCH  26  27
ENDBRANCH   1  26
TORSDOF 17
ENDMDL
MODEL 2
REMARK VINA RESULT:     -12.0      3.117      9.619
REMARK SMILES CC1(C)O[C@](C)([C@H](O)C2CCCCC2)CC[C@H]1C(=O)NCCCCNC(=O)c1ccc(-c2c3nc(c(-c4c(F)cc(S(=O)(=O)[O-])cc4F)c4ccc([nH]4)c(-c4c(F)cc(S(=O)(=O)[O-])cc4F)c4nc(c(-c5c(F)cc(S(=O)(=O)[O-])cc5F)c5ccc2[nH]5)C=C4)C=C3)cc1
REMARK SMILES IDX 23 1 22 2 21 3 20 4 18 5 19 6 17 8 1 9 2 10 3 11 4 12 5 13
REMARK SMILES IDX 16 14 6 15 15 16 7 17 9 18 10 19 14 20 11 21 13 22 12 23
REMARK SMILES IDX 8 24 24 26 25 27 26 28 27 30 28 31 29 32 93 33 30 34 92 35
REMARK SMILES IDX 31 36 32 37 33 38 86 39 34 40 91 41 85 42 87 43 35 44 90 45
REMARK SMILES IDX 84 46 83 47 36 49 70 50 49 51 69 52 50 53 53 54 68 55 88 56
REMARK SMILES IDX 51 57 52 58 67 60 89 61 54 62 37 63 38 64 47 65 39 66 40 67
REMARK SMILES IDX 46 68 48 69 41 70 42 71 43 72 44 73 45 74 71 75 72 76 81 77
REMARK SMILES IDX 73 78 74 79 80 80 82 81 75 82 76 83 77 84 78 85 79 86 55 87
REMARK SMILES IDX 56 88 65 89 57 90 58 91 64 92 66 93 59 94 60 95 61 96 62 97
REMARK SMILES IDX 63 98
REMARK H PARENT 20 7 8 25 25 29 87 48 53 59
REMARK Flexibility Score: inf
ROOT
ATOM      1  C   UNL A   1      32.403  28.284  27.048  1.00  0.00     0.023 C 
ENDROOT
BRANCH   1   2
ATOM      2  C   UNL A   1      31.548  29.040  26.047  1.00  0.00     0.023 C 
BRANCH   2   3
ATOM      3  C   UNL A   1      32.138  29.173  24.641  1.00  0.00     0.116 C 
BRANCH   3   4
ATOM      4  N   UNL A   1      31.133  28.962  23.620  1.00  0.00    -0.356 N 
ATOM      5  C   UNL A   1      30.794  27.875  22.881  1.00  0.00     0.226 C 
ATOM      6  O   UNL A   1      29.937  28.058  22.008  1.00  0.00    -0.275 OA
ATOM      7  H   UNL A   1      30.592  29.761  23.424  1.00  0.00     0.163 HD
BRANCH   5   8
ATOM      8  C   UNL A   1      31.370  26.467  23.082  1.00  0.00     0.110 C 
ATOM      9  C   UNL A   1      33.819  27.197  22.329  1.00  0.00     0.043 C 
ATOM     10  C   UNL A   1      32.718  26.146  22.372  1.00  0.00     0.075 C 
ATOM     11  C   UNL A   1      32.400  25.859  20.883  1.00  0.00     0.043 C 
ATOM     12  O   UNL A   1      33.356  24.954  22.850  1.00  0.00    -0.366 OA
ATOM     13  C   UNL A   1      33.337  24.621  24.242  1.00  0.00     0.092 C 
ATOM     14  C   UNL A   1      31.171  25.925  24.503  1.00  0.00     0.019 C 
ATOM     15  C   UNL A   1      34.083  25.603  25.169  1.00  0.00     0.045 C 
ATOM     16  C   UNL A   1      31.861  24.569  24.688  1.00  0.00     0.039 C 
BRANCH  13  17
ATOM     17  C   UNL A   1      33.985  23.186  24.304  1.00  0.00     0.149 C 
BRANCH  17  18
ATOM     18  C   UNL A   1      35.004  22.906  25.474  1.00  0.00     0.021 C 
ATOM     19  C   UNL A   1      35.114  21.489  26.062  1.00  0.00     0.006 C 
ATOM     20  C   UNL A   1      36.438  23.365  25.130  1.00  0.00     0.006 C 
ATOM     21  C   UNL A   1      35.756  20.487  25.113  1.00  0.00     0.000 C 
ATOM     22  C   UNL A   1      37.218  22.387  24.246  1.00  0.00     0.000 C 
ATOM     23  C   UNL A   1      37.161  20.939  24.730  1.00  0.00     0.000 C 
ENDBRANCH  17  18
BRANCH  17  24
ATOM     24  O   UNL A   1      33.009  22.160  24.143  1.00  0.00    -0.390 OA
ATOM     25  H   UNL A   1      33.454  21.308  24.015  1.00  0.00     0.211 HD
ENDBRANCH  17  24
ENDBRANCH  13  17
ENDBRANCH   5   8
ENDBRANCH   3   4
ENDBRANCH   2   3
ENDBRANCH   1   2
BRANCH   1  26
ATOM     26  C   UNL A   1      33.782  28.873  27.269  1.00  0.00     0.116 C 
BRANCH  26  27
ATOM     27  N   UNL A   1      33.766  30.201  27.872  1.00  0.00    -0.352 N 
ATOM     28  C   UNL A   1      34.792  30.843  28.530  1.00  0.00     0.251 C 
ATOM     29  H   UNL A   1      32.921  30.700  27.799  1.00  0.00     0.163 HD
ATOM     30  O   UNL A   1      34.619  31.932  29.059  1.00  0.00    -0.269 OA
BRANCH  28  31
ATOM     31  C   UNL A   1      36.093  30.150  28.616  1.00  0.00     0.039 A 
ATOM     32  C   UNL A   1      36.951  30.178  27.517  1.00  0.00     0.014 A 
ATOM     33  C   UNL A   1      36.507  29.613  29.837  1.00  0.00     0.014 A 
ATOM     34  C   UNL A   1      38.268  29.745  27.672  1.00  0.00     0.010 A 
ATOM     35  C   UNL A   1      37.842  29.285  30.015  1.00  0.00     0.010 A 
ATOM     36  C   UNL A   1      38.736  29.345  28.935  1.00  0.00    -0.014 A 
BRANCH  36  37
ATOM     37  C   UNL A   1      40.151  28.962  29.158  1.00  0.00     0.031 A 
ATOM     38  C   UNL A   1      41.109  29.977  29.718  1.00  0.00     0.074 A 
ATOM     39  C   UNL A   1      40.591  27.747  28.774  1.00  0.00     0.049 A 
ATOM     40  N   UNL A   1      42.404  29.891  29.879  1.00  0.00    -0.248 NA
ATOM     41  C   UNL A   1      40.543  31.280  30.107  1.00  0.00     0.031 C 
ATOM     42  C   UNL A   1      39.773  26.702  28.152  1.00  0.00     0.029 A 
ATOM     43  N   UNL A   1      41.842  27.187  28.842  1.00  0.00    -0.354 N 
ATOM     44  C   UNL A   1      42.806  31.134  30.352  1.00  0.00     0.074 A 
ATOM     45  C   UNL A   1      41.631  31.975  30.396  1.00  0.00     0.031 C 
ATOM     46  C   UNL A   1      40.537  25.620  27.925  1.00  0.00     0.029 A 
ATOM     47  C   UNL A   1      41.903  25.904  28.352  1.00  0.00     0.049 A 
ATOM     48  H   UNL A   1      42.624  27.662  29.206  1.00  0.00     0.167 HD
ATOM     49  C   UNL A   1      44.039  31.532  30.746  1.00  0.00     0.037 A 
ATOM     50  C   UNL A   1      42.945  25.054  28.261  1.00  0.00     0.037 A 
ATOM     51  C   UNL A   1      45.189  30.671  30.759  1.00  0.00     0.049 A 
ATOM     52  C   UNL A   1      44.294  25.498  28.758  1.00  0.00     0.074 A 
ATOM     53  C   UNL A   1      46.466  30.948  31.213  1.00  0.00     0.029 A 
ATOM     54  N   UNL A   1      45.197  29.358  30.311  1.00  0.00    -0.354 N 
ATOM     55  N   UNL A   1      44.645  26.658  29.260  1.00  0.00    -0.248 NA
ATOM     56  C   UNL A   1      45.386  24.518  28.683  1.00  0.00     0.031 C 
ATOM     57  C   UNL A   1      47.253  29.807  31.018  1.00  0.00     0.029 A 
ATOM     58  C   UNL A   1      46.458  28.812  30.473  1.00  0.00     0.049 A 
ATOM     59  H   UNL A   1      44.421  28.885  29.934  1.00  0.00     0.167 HD
ATOM     60  C   UNL A   1      45.991  26.539  29.584  1.00  0.00     0.074 A 
ATOM     61  C   UNL A   1      46.388  25.192  29.231  1.00  0.00     0.031 C 
ATOM     62  C   UNL A   1      46.824  27.462  30.127  1.00  0.00     0.037 A 
BRANCH  49  63
ATOM     63  C   UNL A   1      44.190  32.951  31.211  1.00  0.00     0.058 A 
ATOM     64  C   UNL A   1      44.459  33.995  30.311  1.00  0.00     0.135 A 
ATOM     65  C   UNL A   1      44.063  33.275  32.572  1.00  0.00     0.135 A 
ATOM     66  F   UNL A   1      44.611  33.735  29.002  1.00  0.00    -0.206 F 
ATOM     67  C   UNL A   1      44.630  35.304  30.746  1.00  0.00     0.059 A 
ATOM     68  C   UNL A   1      44.204  34.584  33.026  1.00  0.00     0.059 A 
ATOM     69  F   UNL A   1      43.811  32.315  33.475  1.00  0.00    -0.206 F 
ATOM     70  C   UNL A   1      44.506  35.588  32.106  1.00  0.00     0.060 A 
BRANCH  70  71
ATOM     71  S   UNL A   1      44.738  37.291  32.658  1.00  0.00     0.124 S 
ATOM     72  O   UNL A   1      43.889  38.017  31.718  1.00  0.00    -0.237 OA
ATOM     73  O   UNL A   1      44.258  37.243  34.036  1.00  0.00    -0.237 OA
ATOM     74  O   UNL A   1      46.173  37.504  32.505  1.00  0.00    -0.744 OA
ENDBRANCH  70  71
ENDBRANCH  49  63
BRANCH  50  75
ATOM     75  C   UNL A   1      42.745  23.685  27.716  1.00  0.00     0.058 A 
ATOM     76  C   UNL A   1      42.842  23.443  26.337  1.00  0.00     0.135 A 
ATOM     77  C   UNL A   1      42.469  22.595  28.555  1.00  0.00     0.135 A 
ATOM     78  F   UNL A   1      43.100  24.455  25.496  1.00  0.00    -0.206 F 
ATOM     79  C   UNL A   1      42.656  22.171  25.806  1.00  0.00     0.059 A 
ATOM     80  C   UNL A   1      42.298  21.310  28.049  1.00  0.00     0.059 A 
ATOM     81  F   UNL A   1      42.386  22.773  29.883  1.00  0.00    -0.206 F 
ATOM     82  C   UNL A   1      42.384  21.110  26.671  1.00  0.00     0.060 A 
BRANCH  82  83
ATOM     83  S   UNL A   1      42.192  19.452  25.977  1.00  0.00     0.124 S 
ATOM     84  O   UNL A   1      40.758  19.408  25.717  1.00  0.00    -0.237 OA
ATOM     85  O   UNL A   1      43.053  19.510  24.799  1.00  0.00    -0.237 OA
ATOM     86  O   UNL A   1      42.670  18.585  27.050  1.00  0.00    -0.744 OA
ENDBRANCH  82  83
ENDBRANCH  50  75
BRANCH  62  87
ATOM     87  C   UNL A   1      48.236  27.037  30.402  1.00  0.00     0.058 A 
ATOM     88  C   UNL A   1      49.264  27.259  29.473  1.00  0.00     0.135 A 
ATOM     89  C   UNL A   1      48.574  26.456  31.634  1.00  0.00     0.135 A 
ATOM     90  F   UNL A   1      48.988  27.807  28.279  1.00  0.00    -0.206 F 
ATOM     91  C   UNL A   1      50.580  26.905  29.751  1.00  0.00     0.059 A 
ATOM     92  C   UNL A   1      49.887  26.114  31.942  1.00  0.00     0.059 A 
ATOM     93  F   UNL A   1      47.627  26.233  32.559  1.00  0.00    -0.206 F 
ATOM     94  C   UNL A   1      50.882  26.334  30.989  1.00  0.00     0.060 A 
BRANCH  94  95
ATOM     95  S   UNL A   1      52.598  25.917  31.357  1.00  0.00     0.124 S 
ATOM     96  O   UNL A   1      53.194  25.929  30.025  1.00  0.00    -0.237 OA
ATOM     97  O   UNL A   1      53.004  27.004  32.243  1.00  0.00    -0.237 OA
ATOM     98  O   UNL A   1      52.499  24.605  31.990  1.00  0.00    -0.744 OA
ENDBRANCH  94  95
ENDBRANCH  62  87
ENDBRANCH  36  37
ENDBRANCH  28  31
ENDBRANCH  26  27
ENDBRANCH   1  26
TORSDOF 17
ENDMDL
MODEL 3
REMARK VINA RESULT:     -11.8      2.540      3.287
REMARK SMILES CC1(C)O[C@](C)([C@H](O)C2CCCCC2)CC[C@H]1C(=O)NCCCCNC(=O)c1ccc(-c2c3nc(c(-c4c(F)cc(S(=O)(=O)[O-])cc4F)c4ccc([nH]4)c(-c4c(F)cc(S(=O)(=O)[O-])cc4F)c4nc(c(-c5c(F)cc(S(=O)(=O)[O-])cc5F)c5ccc2[nH]5)C=C4)C=C3)cc1
REMARK SMILES IDX 23 1 22 2 21 3 20 4 18 5 19 6 17 8 1 9 2 10 3 11 4 12 5 13
REMARK SMILES IDX 16 14 6 15 15 16 7 17 9 18 10 19 14 20 11 21 13 22 12 23
REMARK SMILES IDX 8 24 24 26 25 27 26 28 27 30 28 31 29 32 93 33 30 34 92 35
REMARK SMILES IDX 31 36 32 37 33 38 86 39 34 40 91 41 85 42 87 43 35 44 90 45
REMARK SMILES IDX 84 46 83 47 36 49 70 50 49 51 69 52 50 53 53 54 68 55 88 56
REMARK SMILES IDX 51 57 52 58 67 60 89 61 54 62 37 63 38 64 47 65 39 66 40 67
REMARK SMILES IDX 46 68 48 69 41 70 42 71 43 72 44 73 45 74 71 75 72 76 81 77
REMARK SMILES IDX 73 78 74 79 80 80 82 81 75 82 76 83 77 84 78 85 79 86 55 87
REMARK SMILES IDX 56 88 65 89 57 90 58 91 64 92 66 93 59 94 60 95 61 96 62 97
REMARK SMILES IDX 63 98
REMARK H PARENT 20 7 8 25 25 29 87 48 53 59
REMARK Flexibility Score: inf
ROOT
ATOM      1  C   UNL A   1      36.180  23.386  24.335  1.00  0.00     0.023 C 
ENDROOT
BRANCH   1   2
ATOM      2  C   UNL A   1      34.680  23.407  24.103  1.00  0.00     0.023 C 
BRANCH   2   3
ATOM      3  C   UNL A   1      33.936  24.612  24.683  1.00  0.00     0.116 C 
BRANCH   3   4
ATOM      4  N   UNL A   1      33.040  24.221  25.751  1.00  0.00    -0.356 N 
ATOM      5  C   UNL A   1      31.928  24.801  26.271  1.00  0.00     0.226 C 
ATOM      6  O   UNL A   1      31.440  24.247  27.263  1.00  0.00    -0.275 OA
ATOM      7  H   UNL A   1      33.285  23.371  26.184  1.00  0.00     0.163 HD
BRANCH   5   8
ATOM      8  C   UNL A   1      31.242  26.047  25.695  1.00  0.00     0.110 C 
ATOM      9  C   UNL A   1      33.376  27.592  26.092  1.00  0.00     0.043 C 
ATOM     10  C   UNL A   1      31.862  27.429  26.059  1.00  0.00     0.075 C 
ATOM     11  C   UNL A   1      31.404  27.777  27.498  1.00  0.00     0.043 C 
ATOM     12  O   UNL A   1      31.386  28.510  25.246  1.00  0.00    -0.366 OA
ATOM     13  C   UNL A   1      31.152  28.326  23.846  1.00  0.00     0.092 C 
ATOM     14  C   UNL A   1      30.733  25.854  24.262  1.00  0.00     0.019 C 
ATOM     15  C   UNL A   1      32.404  28.010  23.001  1.00  0.00     0.045 C 
ATOM     16  C   UNL A   1      30.160  27.155  23.689  1.00  0.00     0.039 C 
BRANCH  13  17
ATOM     17  C   UNL A   1      30.490  29.680  23.385  1.00  0.00     0.149 C 
BRANCH  17  18
ATOM     18  C   UNL A   1      29.109  29.586  22.631  1.00  0.00     0.021 C 
ATOM     19  C   UNL A   1      27.807  29.880  23.393  1.00  0.00     0.006 C 
ATOM     20  C   UNL A   1      29.082  30.438  21.343  1.00  0.00     0.006 C 
ATOM     21  C   UNL A   1      27.634  31.348  23.756  1.00  0.00     0.000 C 
ATOM     22  C   UNL A   1      28.826  31.930  21.579  1.00  0.00     0.000 C 
ATOM     23  C   UNL A   1      27.641  32.213  22.501  1.00  0.00     0.000 C 
ENDBRANCH  17  18
BRANCH  17  24
ATOM     24  O   UNL A   1      30.504  30.653  24.426  1.00  0.00    -0.390 OA
ATOM     25  H   UNL A   1      31.333  31.154  24.389  1.00  0.00     0.211 HD
ENDBRANCH  17  24
ENDBRANCH  13  17
ENDBRANCH   5   8
ENDBRANCH   3   4
ENDBRANCH   2   3
ENDBRANCH   1   2
BRANCH   1  26
ATOM     26  C   UNL A   1      36.590  23.256  25.788  1.00  0.00     0.116 C 
BRANCH  26  27
ATOM     27  N   UNL A   1      37.686  22.319  26.009  1.00  0.00    -0.352 N 
ATOM     28  C   UNL A   1      38.952  22.594  26.477  1.00  0.00     0.251 C 
ATOM     29  H   UNL A   1      37.498  21.376  25.800  1.00  0.00     0.163 HD
ATOM     30  O   UNL A   1      39.805  21.720  26.541  1.00  0.00    -0.269 OA
BRANCH  28  31
ATOM     31  C   UNL A   1      39.259  23.990  26.850  1.00  0.00     0.039 A 
ATOM     32  C   UNL A   1      39.125  24.379  28.183  1.00  0.00     0.014 A 
ATOM     33  C   UNL A   1      39.820  24.848  25.902  1.00  0.00     0.014 A 
ATOM     34  C   UNL A   1      39.644  25.611  28.585  1.00  0.00     0.010 A 
ATOM     35  C   UNL A   1      40.427  26.020  26.326  1.00  0.00     0.010 A 
ATOM     36  C   UNL A   1      40.344  26.415  27.669  1.00  0.00    -0.014 A 
BRANCH  36  37
ATOM     37  C   UNL A   1      40.984  27.688  28.081  1.00  0.00     0.031 A 
ATOM     38  C   UNL A   1      42.478  27.828  27.979  1.00  0.00     0.074 A 
ATOM     39  C   UNL A   1      40.243  28.673  28.626  1.00  0.00     0.049 A 
ATOM     40  N   UNL A   1      43.248  28.800  28.390  1.00  0.00    -0.248 NA
ATOM     41  C   UNL A   1      43.209  26.701  27.373  1.00  0.00     0.031 C 
ATOM     42  C   UNL A   1      38.794  28.627  28.844  1.00  0.00     0.029 A 
ATOM     43  N   UNL A   1      40.608  29.905  29.108  1.00  0.00    -0.354 N 
ATOM     44  C   UNL A   1      44.548  28.388  28.126  1.00  0.00     0.074 A 
ATOM     45  C   UNL A   1      44.469  27.054  27.574  1.00  0.00     0.031 C 
ATOM     46  C   UNL A   1      38.393  29.789  29.387  1.00  0.00     0.029 A 
ATOM     47  C   UNL A   1      39.555  30.648  29.587  1.00  0.00     0.049 A 
ATOM     48  H   UNL A   1      41.539  30.226  29.111  1.00  0.00     0.167 HD
ATOM     49  C   UNL A   1      45.704  29.071  28.298  1.00  0.00     0.037 A 
ATOM     50  C   UNL A   1      39.534  31.883  30.124  1.00  0.00     0.037 A 
ATOM     51  C   UNL A   1      45.770  30.419  28.787  1.00  0.00     0.049 A 
ATOM     52  C   UNL A   1      40.824  32.646  30.252  1.00  0.00     0.074 A 
ATOM     53  C   UNL A   1      46.881  31.233  28.924  1.00  0.00     0.029 A 
ATOM     54  N   UNL A   1      44.675  31.161  29.206  1.00  0.00    -0.354 N 
ATOM     55  N   UNL A   1      42.040  32.264  29.940  1.00  0.00    -0.248 NA
ATOM     56  C   UNL A   1      40.741  34.008  30.797  1.00  0.00     0.031 C 
ATOM     57  C   UNL A   1      46.459  32.460  29.448  1.00  0.00     0.029 A 
ATOM     58  C   UNL A   1      45.083  32.421  29.607  1.00  0.00     0.049 A 
ATOM     59  H   UNL A   1      43.745  30.838  29.217  1.00  0.00     0.167 HD
ATOM     60  C   UNL A   1      42.863  33.347  30.227  1.00  0.00     0.074 A 
ATOM     61  C   UNL A   1      42.006  34.401  30.728  1.00  0.00     0.031 C 
ATOM     62  C   UNL A   1      44.207  33.459  30.088  1.00  0.00     0.037 A 
BRANCH  49  63
ATOM     63  C   UNL A   1      46.981  28.370  27.931  1.00  0.00     0.058 A 
ATOM     64  C   UNL A   1      47.535  28.479  26.645  1.00  0.00     0.135 A 
ATOM     65  C   UNL A   1      47.661  27.583  28.874  1.00  0.00     0.135 A 
ATOM     66  F   UNL A   1      46.913  29.202  25.700  1.00  0.00    -0.206 F 
ATOM     67  C   UNL A   1      48.700  27.805  26.296  1.00  0.00     0.059 A 
ATOM     68  C   UNL A   1      48.844  26.921  28.554  1.00  0.00     0.059 A 
ATOM     69  F   UNL A   1      47.172  27.441  30.116  1.00  0.00    -0.206 F 
ATOM     70  C   UNL A   1      49.344  27.024  27.256  1.00  0.00     0.060 A 
BRANCH  70  71
ATOM     71  S   UNL A   1      50.852  26.149  26.788  1.00  0.00     0.124 S 
ATOM     72  O   UNL A   1      50.604  24.825  27.351  1.00  0.00    -0.237 OA
ATOM     73  O   UNL A   1      50.824  26.231  25.331  1.00  0.00    -0.237 OA
ATOM     74  O   UNL A   1      51.907  26.921  27.436  1.00  0.00    -0.744 OA
ENDBRANCH  70  71
ENDBRANCH  49  63
BRANCH  50  75
ATOM     75  C   UNL A   1      38.243  32.492  30.541  1.00  0.00     0.058 A 
ATOM     76  C   UNL A   1      37.747  32.299  31.840  1.00  0.00     0.135 A 
ATOM     77  C   UNL A   1      37.489  33.286  29.664  1.00  0.00     0.135 A 
ATOM     78  F   UNL A   1      38.430  31.543  32.712  1.00  0.00    -0.206 F 
ATOM     79  C   UNL A   1      36.541  32.856  32.249  1.00  0.00     0.059 A 
ATOM     80  C   UNL A   1      36.289  33.872  30.058  1.00  0.00     0.059 A 
ATOM     81  F   UNL A   1      37.931  33.518  28.418  1.00  0.00    -0.206 F 
ATOM     82  C   UNL A   1      35.818  33.642  31.350  1.00  0.00     0.060 A 
BRANCH  82  83
ATOM     83  S   UNL A   1      34.277  34.403  31.908  1.00  0.00     0.124 S 
ATOM     84  O   UNL A   1      34.759  35.648  32.492  1.00  0.00    -0.237 OA
ATOM     85  O   UNL A   1      33.527  34.529  30.661  1.00  0.00    -0.237 OA
ATOM     86  O   UNL A   1      33.745  33.423  32.851  1.00  0.00    -0.744 OA
ENDBRANCH  82  83
ENDBRANCH  50  75
BRANCH  62  87
ATOM     87  C   UNL A   1      44.829  34.775  30.450  1.00  0.00     0.058 A 
ATOM     88  C   UNL A   1      45.332  35.020  31.737  1.00  0.00     0.135 A 
ATOM     89  C   UNL A   1      44.978  35.779  29.481  1.00  0.00     0.135 A 
ATOM     90  F   UNL A   1      45.208  34.091  32.699  1.00  0.00    -0.206 F 
ATOM     91  C   UNL A   1      45.949  36.224  32.056  1.00  0.00     0.059 A 
ATOM     92  C   UNL A   1      45.611  36.983  29.772  1.00  0.00     0.059 A 
ATOM     93  F   UNL A   1      44.522  35.588  28.234  1.00  0.00    -0.206 F 
ATOM     94  C   UNL A   1      46.085  37.200  31.066  1.00  0.00     0.060 A 
BRANCH  94  95
ATOM     95  S   UNL A   1      46.925  38.743  31.478  1.00  0.00     0.124 S 
ATOM     96  O   UNL A   1      45.902  39.433  32.257  1.00  0.00    -0.237 OA
ATOM     97  O   UNL A   1      48.088  38.279  32.228  1.00  0.00    -0.237 OA
ATOM     98  O   UNL A   1      47.221  39.326  30.172  1.00  0.00    -0.744 OA
ENDBRANCH  94  95
ENDBRANCH  62  87
ENDBRANCH  36  37
ENDBRANCH  28  31
ENDBRANCH  26  27
ENDBRANCH   1  26
TORSDOF 17
ENDMDL
