MODEL 1
REMARK VINA RESULT:     -12.3      0.000      0.000
REMARK SMILES Cc1cc(C)cc(N(C)S(=O)(=O)c2ccc(F)c(C(=O)NCCCCNC(=O)c3ccc(-c4c5nc(c(-c6c(F)cc(S(=O)(=O)[O-])cc6F)c6ccc([nH]6)c(-c6c(F)cc(S(=O)(=O)[O-])cc6F)c6nc(c(-c7c(F)cc(S(=O)(=O)[O-])cc7F)c7ccc4[nH]7)C=C6)C=C5)cc3)c2)c1
REMARK SMILES IDX 23 1 22 2 21 3 19 4 20 5 18 7 13 8 14 9 95 10 15 11 16 12
REMARK SMILES IDX 17 13 10 14 11 15 12 16 8 17 9 18 7 19 1 20 2 21 3 22 96 23
REMARK SMILES IDX 4 24 5 25 6 26 24 27 25 28 26 29 27 30 28 32 29 33 30 34
REMARK SMILES IDX 94 35 31 36 93 37 32 38 33 39 34 40 87 41 35 42 92 43 86 44
REMARK SMILES IDX 88 45 36 46 91 47 85 48 84 49 37 51 71 52 50 53 70 54 51 55
REMARK SMILES IDX 54 56 69 57 89 58 52 59 53 60 68 62 90 63 55 64 38 65 39 66
REMARK SMILES IDX 48 67 40 68 41 69 47 70 49 71 42 72 43 73 44 74 45 75 46 76
REMARK SMILES IDX 72 77 73 78 82 79 74 80 75 81 81 82 83 83 76 84 77 85 78 86
REMARK SMILES IDX 79 87 80 88 56 89 57 90 66 91 58 92 59 93 65 94 67 95 60 96
REMARK SMILES IDX 61 97 62 98 63 99 64 100
REMARK H PARENT 21 6 26 31 88 50 54 61
REMARK Flexibility Score: inf
ROOT
ATOM      1  C   UNL A   1      31.352  29.147  26.207  1.00  0.00     0.023 C 
ENDROOT
BRANCH   1   2
ATOM      2  C   UNL A   1      31.568  30.056  25.002  1.00  0.00     0.116 C 
BRANCH   2   3
ATOM      3  N   UNL A   1      30.615  29.836  23.931  1.00  0.00    -0.352 N 
ATOM      4  C   UNL A   1      30.588  28.921  22.914  1.00  0.00     0.254 C 
ATOM      5  O   UNL A   1      29.651  28.966  22.113  1.00  0.00    -0.269 OA
ATOM      6  H   UNL A   1      29.850  30.458  23.937  1.00  0.00     0.163 HD
BRANCH   4   7
ATOM      7  C   UNL A   1      31.639  27.899  22.682  1.00  0.00     0.076 A 
ATOM      8  C   UNL A   1      32.160  25.521  22.710  1.00  0.00     0.089 A 
ATOM      9  C   UNL A   1      33.512  25.835  22.482  1.00  0.00     0.025 A 
ATOM     10  C   UNL A   1      31.221  26.549  22.727  1.00  0.00     0.039 A 
ATOM     11  C   UNL A   1      33.929  27.163  22.412  1.00  0.00     0.041 A 
ATOM     12  C   UNL A   1      33.000  28.184  22.587  1.00  0.00     0.136 A 
ATOM     13  F   UNL A   1      33.476  29.429  22.725  1.00  0.00    -0.206 F 
BRANCH   8  14
ATOM     14  S   UNL A   1      31.870  23.823  23.199  1.00  0.00     0.264 S 
ATOM     15  O   UNL A   1      32.641  23.049  22.242  1.00  0.00    -0.201 OA
ATOM     16  O   UNL A   1      30.423  23.706  23.234  1.00  0.00    -0.201 OA
BRANCH  14  17
ATOM     17  N   UNL A   1      32.469  23.413  24.773  1.00  0.00    -0.269 N 
ATOM     18  C   UNL A   1      33.163  24.517  25.495  1.00  0.00     0.164 C 
BRANCH  17  19
ATOM     19  C   UNL A   1      33.199  22.109  24.835  1.00  0.00     0.052 A 
ATOM     20  C   UNL A   1      32.562  18.326  24.833  1.00  0.00     0.044 C 
ATOM     21  C   UNL A   1      33.280  19.646  24.840  1.00  0.00    -0.049 A 
ATOM     22  C   UNL A   1      34.673  19.679  24.862  1.00  0.00     0.007 A 
ATOM     23  C   UNL A   1      32.561  20.856  24.834  1.00  0.00     0.030 A 
ATOM     24  C   UNL A   1      35.343  20.901  24.925  1.00  0.00    -0.049 A 
ATOM     25  C   UNL A   1      36.845  20.920  24.938  1.00  0.00     0.044 C 
ATOM     26  C   UNL A   1      34.600  22.095  24.972  1.00  0.00     0.030 A 
ENDBRANCH  17  19
ENDBRANCH  14  17
ENDBRANCH   8  14
ENDBRANCH   4   7
ENDBRANCH   2   3
ENDBRANCH   1   2
BRANCH   1  27
ATOM     27  C   UNL A   1      32.398  28.062  26.444  1.00  0.00     0.023 C 
BRANCH  27  28
ATOM     28  C   UNL A   1      33.634  28.467  27.239  1.00  0.00     0.116 C 
BRANCH  28  29
ATOM     29  N   UNL A   1      33.610  29.841  27.717  1.00  0.00    -0.352 N 
ATOM     30  C   UNL A   1      34.623  30.599  28.263  1.00  0.00     0.251 C 
ATOM     31  H   UNL A   1      32.740  30.296  27.638  1.00  0.00     0.163 HD
ATOM     32  O   UNL A   1      34.396  31.731  28.657  1.00  0.00    -0.269 OA
BRANCH  30  33
ATOM     33  C   UNL A   1      35.972  30.010  28.413  1.00  0.00     0.039 A 
ATOM     34  C   UNL A   1      36.867  30.111  27.345  1.00  0.00     0.014 A 
ATOM     35  C   UNL A   1      36.368  29.407  29.609  1.00  0.00     0.014 A 
ATOM     36  C   UNL A   1      38.188  29.691  27.509  1.00  0.00     0.010 A 
ATOM     37  C   UNL A   1      37.702  29.057  29.796  1.00  0.00     0.010 A 
ATOM     38  C   UNL A   1      38.629  29.207  28.753  1.00  0.00    -0.014 A 
BRANCH  38  39
ATOM     39  C   UNL A   1      40.056  28.871  28.988  1.00  0.00     0.031 A 
ATOM     40  C   UNL A   1      40.988  29.902  29.561  1.00  0.00     0.074 A 
ATOM     41  C   UNL A   1      40.525  27.660  28.625  1.00  0.00     0.049 A 
ATOM     42  N   UNL A   1      42.280  29.829  29.754  1.00  0.00    -0.248 NA
ATOM     43  C   UNL A   1      40.398  31.195  29.944  1.00  0.00     0.031 C 
ATOM     44  C   UNL A   1      39.727  26.590  28.019  1.00  0.00     0.029 A 
ATOM     45  N   UNL A   1      41.786  27.124  28.706  1.00  0.00    -0.354 N 
ATOM     46  C   UNL A   1      42.657  31.064  30.266  1.00  0.00     0.074 A 
ATOM     47  C   UNL A   1      41.468  31.886  30.309  1.00  0.00     0.031 C 
ATOM     48  C   UNL A   1      40.510  25.519  27.812  1.00  0.00     0.029 A 
ATOM     49  C   UNL A   1      41.873  25.834  28.232  1.00  0.00     0.049 A 
ATOM     50  H   UNL A   1      42.557  27.616  29.070  1.00  0.00     0.167 HD
ATOM     51  C   UNL A   1      43.878  31.465  30.690  1.00  0.00     0.037 A 
ATOM     52  C   UNL A   1      42.929  25.002  28.142  1.00  0.00     0.037 A 
ATOM     53  C   UNL A   1      45.050  30.629  30.683  1.00  0.00     0.049 A 
ATOM     54  C   UNL A   1      44.276  25.474  28.620  1.00  0.00     0.074 A 
ATOM     55  C   UNL A   1      46.322  30.931  31.137  1.00  0.00     0.029 A 
ATOM     56  N   UNL A   1      45.091  29.326  30.208  1.00  0.00    -0.354 N 
ATOM     57  N   UNL A   1      44.604  26.633  29.137  1.00  0.00    -0.248 NA
ATOM     58  C   UNL A   1      45.394  24.527  28.504  1.00  0.00     0.031 C 
ATOM     59  C   UNL A   1      47.141  29.821  30.908  1.00  0.00     0.029 A 
ATOM     60  C   UNL A   1      46.371  28.815  30.348  1.00  0.00     0.049 A 
ATOM     61  H   UNL A   1      44.326  28.839  29.826  1.00  0.00     0.167 HD
ATOM     62  C   UNL A   1      45.961  26.548  29.429  1.00  0.00     0.074 A 
ATOM     63  C   UNL A   1      46.390  25.220  29.041  1.00  0.00     0.031 C 
ATOM     64  C   UNL A   1      46.777  27.486  29.968  1.00  0.00     0.037 A 
BRANCH  51  65
ATOM     65  C   UNL A   1      44.012  32.861  31.227  1.00  0.00     0.058 A 
ATOM     66  C   UNL A   1      43.745  33.139  32.577  1.00  0.00     0.135 A 
ATOM     67  C   UNL A   1      44.335  33.939  30.387  1.00  0.00     0.135 A 
ATOM     68  F   UNL A   1      43.440  32.145  33.426  1.00  0.00    -0.206 F 
ATOM     69  C   UNL A   1      43.774  34.439  33.071  1.00  0.00     0.059 A 
ATOM     70  C   UNL A   1      44.394  35.244  30.864  1.00  0.00     0.059 A 
ATOM     71  F   UNL A   1      44.623  33.723  29.094  1.00  0.00    -0.206 F 
ATOM     72  C   UNL A   1      44.095  35.486  32.205  1.00  0.00     0.060 A 
BRANCH  72  73
ATOM     73  S   UNL A   1      44.144  37.167  32.862  1.00  0.00     0.124 S 
ATOM     74  O   UNL A   1      43.928  37.965  31.661  1.00  0.00    -0.237 OA
ATOM     75  O   UNL A   1      43.044  37.152  33.823  1.00  0.00    -0.237 OA
ATOM     76  O   UNL A   1      45.476  37.261  33.450  1.00  0.00    -0.744 OA
ENDBRANCH  72  73
ENDBRANCH  51  65
BRANCH  52  77
ATOM     77  C   UNL A   1      42.749  23.628  27.604  1.00  0.00     0.058 A 
ATOM     78  C   UNL A   1      42.470  22.542  28.448  1.00  0.00     0.135 A 
ATOM     79  C   UNL A   1      42.872  23.374  26.230  1.00  0.00     0.135 A 
ATOM     80  F   UNL A   1      42.353  22.730  29.772  1.00  0.00    -0.206 F 
ATOM     81  C   UNL A   1      42.338  21.250  27.951  1.00  0.00     0.059 A 
ATOM     82  C   UNL A   1      42.721  22.092  25.706  1.00  0.00     0.059 A 
ATOM     83  F   UNL A   1      43.126  24.382  25.382  1.00  0.00    -0.206 F 
ATOM     84  C   UNL A   1      42.469  21.035  26.578  1.00  0.00     0.060 A 
BRANCH  84  85
ATOM     85  S   UNL A   1      42.293  19.349  25.951  1.00  0.00     0.124 S 
ATOM     86  O   UNL A   1      42.793  18.568  27.078  1.00  0.00    -0.237 OA
ATOM     87  O   UNL A   1      40.857  19.262  25.705  1.00  0.00    -0.237 OA
ATOM     88  O   UNL A   1      43.134  19.344  24.759  1.00  0.00    -0.744 OA
ENDBRANCH  84  85
ENDBRANCH  52  77
BRANCH  64  89
ATOM     89  C   UNL A   1      48.214  27.114  30.197  1.00  0.00     0.058 A 
ATOM     90  C   UNL A   1      48.617  26.558  31.422  1.00  0.00     0.135 A 
ATOM     91  C   UNL A   1      49.204  27.389  29.241  1.00  0.00     0.135 A 
ATOM     92  F   UNL A   1      47.710  26.280  32.370  1.00  0.00    -0.206 F 
ATOM     93  C   UNL A   1      49.956  26.310  31.700  1.00  0.00     0.059 A 
ATOM     94  C   UNL A   1      50.548  27.128  29.490  1.00  0.00     0.059 A 
ATOM     95  F   UNL A   1      48.866  27.910  28.051  1.00  0.00    -0.206 F 
ATOM     96  C   UNL A   1      50.916  26.606  30.730  1.00  0.00     0.060 A 
BRANCH  96  97
ATOM     97  S   UNL A   1      52.651  26.281  31.108  1.00  0.00     0.124 S 
ATOM     98  O   UNL A   1      53.240  26.220  29.775  1.00  0.00    -0.237 OA
ATOM     99  O   UNL A   1      53.015  27.446  31.911  1.00  0.00    -0.237 OA
ATOM    100  O   UNL A   1      52.608  25.016  31.836  1.00  0.00    -0.744 OA
ENDBRANCH  96  97
ENDBRANCH  64  89
ENDBRANCH  38  39
ENDBRANCH  30  33
ENDBRANCH  28  29
ENDBRANCH  27  28
ENDBRANCH   1  27
TORSDOF 17
ENDMDL
MODEL 2
REMARK VINA RESULT:     -12.0      2.925      3.781
REMARK SMILES Cc1cc(C)cc(N(C)S(=O)(=O)c2ccc(F)c(C(=O)NCCCCNC(=O)c3ccc(-c4c5nc(c(-c6c(F)cc(S(=O)(=O)[O-])cc6F)c6ccc([nH]6)c(-c6c(F)cc(S(=O)(=O)[O-])cc6F)c6nc(c(-c7c(F)cc(S(=O)(=O)[O-])cc7F)c7ccc4[nH]7)C=C6)C=C5)cc3)c2)c1
REMARK SMILES IDX 23 1 22 2 21 3 19 4 20 5 18 7 13 8 14 9 95 10 15 11 16 12
REMARK SMILES IDX 17 13 10 14 11 15 12 16 8 17 9 18 7 19 1 20 2 21 3 22 96 23
REMARK SMILES IDX 4 24 5 25 6 26 24 27 25 28 26 29 27 30 28 32 29 33 30 34
REMARK SMILES IDX 94 35 31 36 93 37 32 38 33 39 34 40 87 41 35 42 92 43 86 44
REMARK SMILES IDX 88 45 36 46 91 47 85 48 84 49 37 51 71 52 50 53 70 54 51 55
REMARK SMILES IDX 54 56 69 57 89 58 52 59 53 60 68 62 90 63 55 64 38 65 39 66
REMARK SMILES IDX 48 67 40 68 41 69 47 70 49 71 42 72 43 73 44 74 45 75 46 76
REMARK SMILES IDX 72 77 73 78 82 79 74 80 75 81 81 82 83 83 76 84 77 85 78 86
REMARK SMILES IDX 79 87 80 88 56 89 57 90 66 91 58 92 59 93 65 94 67 95 60 96
REMARK SMILES IDX 61 97 62 98 63 99 64 100
REMARK H PARENT 21 6 26 31 88 50 54 61
REMARK Flexibility Score: inf
ROOT
ATOM      1  C   UNL A   1      34.343  31.212  27.897  1.00  0.00     0.023 C 
ENDROOT
BRANCH   1   2
ATOM      2  C   UNL A   1      34.616  29.756  27.539  1.00  0.00     0.116 C 
BRANCH   2   3
ATOM      3  N   UNL A   1      34.673  29.510  26.111  1.00  0.00    -0.352 N 
ATOM      4  C   UNL A   1      34.026  28.598  25.320  1.00  0.00     0.254 C 
ATOM      5  O   UNL A   1      34.276  28.592  24.113  1.00  0.00    -0.269 OA
ATOM      6  H   UNL A   1      35.288  30.104  25.622  1.00  0.00     0.163 HD
BRANCH   4   7
ATOM      7  C   UNL A   1      33.071  27.582  25.828  1.00  0.00     0.076 A 
ATOM      8  C   UNL A   1      32.623  25.202  26.077  1.00  0.00     0.089 A 
ATOM      9  C   UNL A   1      31.334  25.514  26.543  1.00  0.00     0.025 A 
ATOM     10  C   UNL A   1      33.511  26.239  25.801  1.00  0.00     0.039 A 
ATOM     11  C   UNL A   1      30.900  26.836  26.597  1.00  0.00     0.041 A 
ATOM     12  C   UNL A   1      31.746  27.854  26.169  1.00  0.00     0.136 A 
ATOM     13  F   UNL A   1      31.216  29.078  26.036  1.00  0.00    -0.206 F 
BRANCH   8  14
ATOM     14  S   UNL A   1      32.863  23.476  25.666  1.00  0.00     0.264 S 
ATOM     15  O   UNL A   1      31.551  23.040  25.218  1.00  0.00    -0.201 OA
ATOM     16  O   UNL A   1      33.451  22.904  26.863  1.00  0.00    -0.201 OA
BRANCH  14  17
ATOM     17  N   UNL A   1      33.959  23.192  24.354  1.00  0.00    -0.269 N 
ATOM     18  C   UNL A   1      33.427  22.337  23.255  1.00  0.00     0.164 C 
BRANCH  17  19
ATOM     19  C   UNL A   1      35.346  22.824  24.777  1.00  0.00     0.052 A 
ATOM     20  C   UNL A   1      38.460  24.325  26.441  1.00  0.00     0.044 C 
ATOM     21  C   UNL A   1      37.527  23.333  25.807  1.00  0.00    -0.049 A 
ATOM     22  C   UNL A   1      37.931  22.010  25.635  1.00  0.00     0.007 A 
ATOM     23  C   UNL A   1      36.248  23.725  25.371  1.00  0.00     0.030 A 
ATOM     24  C   UNL A   1      37.091  21.099  24.995  1.00  0.00    -0.049 A 
ATOM     25  C   UNL A   1      37.537  19.675  24.827  1.00  0.00     0.044 C 
ATOM     26  C   UNL A   1      35.837  21.529  24.521  1.00  0.00     0.030 A 
ENDBRANCH  17  19
ENDBRANCH  14  17
ENDBRANCH   8  14
ENDBRANCH   4   7
ENDBRANCH   2   3
ENDBRANCH   1   2
BRANCH   1  27
ATOM     27  C   UNL A   1      35.499  32.192  27.716  1.00  0.00     0.023 C 
BRANCH  27  28
ATOM     28  C   UNL A   1      36.495  32.292  28.867  1.00  0.00     0.116 C 
BRANCH  28  29
ATOM     29  N   UNL A   1      36.040  31.674  30.102  1.00  0.00    -0.352 N 
ATOM     30  C   UNL A   1      36.597  30.643  30.827  1.00  0.00     0.251 C 
ATOM     31  H   UNL A   1      35.209  32.049  30.477  1.00  0.00     0.163 HD
ATOM     32  O   UNL A   1      36.036  30.222  31.825  1.00  0.00    -0.269 OA
BRANCH  30  33
ATOM     33  C   UNL A   1      37.854  30.018  30.354  1.00  0.00     0.039 A 
ATOM     34  C   UNL A   1      38.035  29.842  28.980  1.00  0.00     0.014 A 
ATOM     35  C   UNL A   1      38.860  29.654  31.250  1.00  0.00     0.014 A 
ATOM     36  C   UNL A   1      39.264  29.387  28.499  1.00  0.00     0.010 A 
ATOM     37  C   UNL A   1      40.108  29.272  30.766  1.00  0.00     0.010 A 
ATOM     38  C   UNL A   1      40.327  29.147  29.386  1.00  0.00    -0.014 A 
BRANCH  38  39
ATOM     39  C   UNL A   1      41.679  28.783  28.889  1.00  0.00     0.031 A 
ATOM     40  C   UNL A   1      42.750  29.832  28.781  1.00  0.00     0.074 A 
ATOM     41  C   UNL A   1      41.920  27.522  28.475  1.00  0.00     0.049 A 
ATOM     42  N   UNL A   1      43.957  29.730  28.289  1.00  0.00    -0.248 NA
ATOM     43  C   UNL A   1      42.413  31.180  29.266  1.00  0.00     0.031 C 
ATOM     44  C   UNL A   1      40.948  26.425  28.489  1.00  0.00     0.029 A 
ATOM     45  N   UNL A   1      43.054  26.949  27.954  1.00  0.00    -0.354 N 
ATOM     46  C   UNL A   1      44.517  30.997  28.393  1.00  0.00     0.074 A 
ATOM     47  C   UNL A   1      43.502  31.864  28.948  1.00  0.00     0.031 C 
ATOM     48  C   UNL A   1      41.535  25.308  28.030  1.00  0.00     0.029 A 
ATOM     49  C   UNL A   1      42.912  25.614  27.651  1.00  0.00     0.049 A 
ATOM     50  H   UNL A   1      43.891  27.447  27.812  1.00  0.00     0.167 HD
ATOM     51  C   UNL A   1      45.773  31.393  28.079  1.00  0.00     0.037 A 
ATOM     52  C   UNL A   1      43.789  24.737  27.123  1.00  0.00     0.037 A 
ATOM     53  C   UNL A   1      46.791  30.516  27.564  1.00  0.00     0.049 A 
ATOM     54  C   UNL A   1      45.178  25.204  26.785  1.00  0.00     0.074 A 
ATOM     55  C   UNL A   1      48.108  30.815  27.262  1.00  0.00     0.029 A 
ATOM     56  N   UNL A   1      46.611  29.170  27.284  1.00  0.00    -0.354 N 
ATOM     57  N   UNL A   1      45.700  26.398  26.926  1.00  0.00    -0.248 NA
ATOM     58  C   UNL A   1      46.097  24.207  26.216  1.00  0.00     0.031 C 
ATOM     59  C   UNL A   1      48.716  29.656  26.770  1.00  0.00     0.029 A 
ATOM     60  C   UNL A   1      47.790  28.626  26.803  1.00  0.00     0.049 A 
ATOM     61  H   UNL A   1      45.769  28.674  27.409  1.00  0.00     0.167 HD
ATOM     62  C   UNL A   1      47.016  26.292  26.485  1.00  0.00     0.074 A 
ATOM     63  C   UNL A   1      47.212  24.915  26.084  1.00  0.00     0.031 C 
ATOM     64  C   UNL A   1      47.972  27.250  26.419  1.00  0.00     0.037 A 
BRANCH  51  65
ATOM     65  C   UNL A   1      46.134  32.832  28.311  1.00  0.00     0.058 A 
ATOM     66  C   UNL A   1      46.558  33.271  29.576  1.00  0.00     0.135 A 
ATOM     67  C   UNL A   1      45.990  33.793  27.298  1.00  0.00     0.135 A 
ATOM     68  F   UNL A   1      46.721  32.393  30.577  1.00  0.00    -0.206 F 
ATOM     69  C   UNL A   1      46.808  34.615  29.833  1.00  0.00     0.059 A 
ATOM     70  C   UNL A   1      46.257  35.140  27.525  1.00  0.00     0.059 A 
ATOM     71  F   UNL A   1      45.611  33.422  26.065  1.00  0.00    -0.206 F 
ATOM     72  C   UNL A   1      46.649  35.543  28.801  1.00  0.00     0.060 A 
BRANCH  72  73
ATOM     73  S   UNL A   1      46.990  37.282  29.144  1.00  0.00     0.124 S 
ATOM     74  O   UNL A   1      47.358  37.781  27.825  1.00  0.00    -0.237 OA
ATOM     75  O   UNL A   1      45.709  37.749  29.668  1.00  0.00    -0.237 OA
ATOM     76  O   UNL A   1      48.073  37.228  30.122  1.00  0.00    -0.744 OA
ENDBRANCH  72  73
ENDBRANCH  51  65
BRANCH  52  77
ATOM     77  C   UNL A   1      43.388  23.321  26.913  1.00  0.00     0.058 A 
ATOM     78  C   UNL A   1      43.326  22.410  27.979  1.00  0.00     0.135 A 
ATOM     79  C   UNL A   1      43.076  22.847  25.630  1.00  0.00     0.135 A 
ATOM     80  F   UNL A   1      43.624  22.810  29.225  1.00  0.00    -0.206 F 
ATOM     81  C   UNL A   1      42.987  21.076  27.778  1.00  0.00     0.059 A 
ATOM     82  C   UNL A   1      42.711  21.522  25.407  1.00  0.00     0.059 A 
ATOM     83  F   UNL A   1      43.109  23.683  24.581  1.00  0.00    -0.206 F 
ATOM     84  C   UNL A   1      42.685  20.641  26.487  1.00  0.00     0.060 A 
BRANCH  84  85
ATOM     85  S   UNL A   1      42.245  18.905  26.245  1.00  0.00     0.124 S 
ATOM     86  O   UNL A   1      40.874  19.019  25.758  1.00  0.00    -0.237 OA
ATOM     87  O   UNL A   1      43.234  18.472  25.263  1.00  0.00    -0.237 OA
ATOM     88  O   UNL A   1      42.394  18.331  27.577  1.00  0.00    -0.744 OA
ENDBRANCH  84  85
ENDBRANCH  52  77
BRANCH  64  89
ATOM     89  C   UNL A   1      49.329  26.849  25.916  1.00  0.00     0.058 A 
ATOM     90  C   UNL A   1      50.302  26.366  26.806  1.00  0.00     0.135 A 
ATOM     91  C   UNL A   1      49.695  27.026  24.573  1.00  0.00     0.135 A 
ATOM     92  F   UNL A   1      50.003  26.182  28.101  1.00  0.00    -0.206 F 
ATOM     93  C   UNL A   1      51.598  26.095  26.385  1.00  0.00     0.059 A 
ATOM     94  C   UNL A   1      50.981  26.740  24.126  1.00  0.00     0.059 A 
ATOM     95  F   UNL A   1      48.796  27.475  23.683  1.00  0.00    -0.206 F 
ATOM     96  C   UNL A   1      51.931  26.293  25.044  1.00  0.00     0.060 A 
BRANCH  96  97
ATOM     97  S   UNL A   1      53.620  25.940  24.514  1.00  0.00     0.124 S 
ATOM     98  O   UNL A   1      53.768  24.541  24.900  1.00  0.00    -0.237 OA
ATOM     99  O   UNL A   1      53.554  26.199  23.078  1.00  0.00    -0.237 OA
ATOM    100  O   UNL A   1      54.421  26.892  25.279  1.00  0.00    -0.744 OA
ENDBRANCH  96  97
ENDBRANCH  64  89
ENDBRANCH  38  39
ENDBRANCH  30  33
ENDBRANCH  28  29
ENDBRANCH  27  28
ENDBRANCH   1  27
TORSDOF 17
ENDMDL
MODEL 3
REMARK VINA RESULT:     -11.9      2.421      3.131
REMARK SMILES Cc1cc(C)cc(N(C)S(=O)(=O)c2ccc(F)c(C(=O)NCCCCNC(=O)c3ccc(-c4c5nc(c(-c6c(F)cc(S(=O)(=O)[O-])cc6F)c6ccc([nH]6)c(-c6c(F)cc(S(=O)(=O)[O-])cc6F)c6nc(c(-c7c(F)cc(S(=O)(=O)[O-])cc7F)c7ccc4[nH]7)C=C6)C=C5)cc3)c2)c1
REMARK SMILES IDX 23 1 22 2 21 3 19 4 20 5 18 7 13 8 14 9 95 10 15 11 16 12
REMARK SMILES IDX 17 13 10 14 11 15 12 16 8 17 9 18 7 19 1 20 2 21 3 22 96 23
REMARK SMILES IDX 4 24 5 25 6 26 24 27 25 28 26 29 27 30 28 32 29 33 30 34
REMARK SMILES IDX 94 35 31 36 93 37 32 38 33 39 34 40 87 41 35 42 92 43 86 44
REMARK SMILES IDX 88 45 36 46 91 47 85 48 84 49 37 51 71 52 50 53 70 54 51 55
REMARK SMILES IDX 54 56 69 57 89 58 52 59 53 60 68 62 90 63 55 64 38 65 39 66
REMARK SMILES IDX 48 67 40 68 41 69 47 70 49 71 42 72 43 73 44 74 45 75 46 76
REMARK SMILES IDX 72 77 73 78 82 79 74 80 75 81 81 82 83 83 76 84 77 85 78 86
REMARK SMILES IDX 79 87 80 88 56 89 57 90 66 91 58 92 59 93 65 94 67 95 60 96
REMARK SMILES IDX 61 97 62 98 63 99 64 100
REMARK H PARENT 21 6 26 31 88 50 54 61
REMARK Flexibility Score: inf
ROOT
ATOM      1  C   UNL A   1      33.258  29.231  27.246  1.00  0.00     0.023 C 
ENDROOT
BRANCH   1   2
ATOM      2  C   UNL A   1      32.683  30.106  26.138  1.00  0.00     0.116 C 
BRANCH   2   3
ATOM      3  N   UNL A   1      33.277  29.862  24.838  1.00  0.00    -0.352 N 
ATOM      4  C   UNL A   1      32.955  28.977  23.845  1.00  0.00     0.254 C 
ATOM      5  O   UNL A   1      33.651  28.965  22.826  1.00  0.00    -0.269 OA
ATOM      6  H   UNL A   1      34.052  30.436  24.633  1.00  0.00     0.163 HD
BRANCH   4   7
ATOM      7  C   UNL A   1      31.847  27.994  23.930  1.00  0.00     0.076 A 
ATOM      8  C   UNL A   1      31.266  25.631  24.003  1.00  0.00     0.089 A 
ATOM      9  C   UNL A   1      29.908  25.982  23.897  1.00  0.00     0.025 A 
ATOM     10  C   UNL A   1      32.220  26.641  24.101  1.00  0.00     0.039 A 
ATOM     11  C   UNL A   1      29.530  27.315  23.753  1.00  0.00     0.041 A 
ATOM     12  C   UNL A   1      30.507  28.303  23.696  1.00  0.00     0.136 A 
ATOM     13  F   UNL A   1      30.114  29.535  23.344  1.00  0.00    -0.206 F 
BRANCH   8  14
ATOM     14  S   UNL A   1      31.601  23.891  23.746  1.00  0.00     0.264 S 
ATOM     15  O   UNL A   1      32.883  23.880  23.064  1.00  0.00    -0.201 OA
ATOM     16  O   UNL A   1      30.414  23.396  23.074  1.00  0.00    -0.201 OA
BRANCH  14  17
ATOM     17  N   UNL A   1      31.802  22.972  25.203  1.00  0.00    -0.269 N 
ATOM     18  C   UNL A   1      32.095  23.775  26.424  1.00  0.00     0.164 C 
BRANCH  17  19
ATOM     19  C   UNL A   1      32.677  21.768  25.057  1.00  0.00     0.052 A 
ATOM     20  C   UNL A   1      32.510  18.046  24.141  1.00  0.00     0.044 C 
ATOM     21  C   UNL A   1      33.058  19.392  24.523  1.00  0.00    -0.049 A 
ATOM     22  C   UNL A   1      34.429  19.556  24.712  1.00  0.00     0.007 A 
ATOM     23  C   UNL A   1      32.200  20.493  24.704  1.00  0.00     0.030 A 
ATOM     24  C   UNL A   1      34.936  20.789  25.122  1.00  0.00    -0.049 A 
ATOM     25  C   UNL A   1      36.417  20.952  25.311  1.00  0.00     0.044 C 
ATOM     26  C   UNL A   1      34.052  21.860  25.347  1.00  0.00     0.030 A 
ENDBRANCH  17  19
ENDBRANCH  14  17
ENDBRANCH   8  14
ENDBRANCH   4   7
ENDBRANCH   2   3
ENDBRANCH   1   2
BRANCH   1  27
ATOM     27  C   UNL A   1      34.749  28.919  27.171  1.00  0.00     0.023 C 
BRANCH  27  28
ATOM     28  C   UNL A   1      35.688  29.902  27.860  1.00  0.00     0.116 C 
BRANCH  28  29
ATOM     29  N   UNL A   1      35.425  30.081  29.279  1.00  0.00    -0.352 N 
ATOM     30  C   UNL A   1      36.303  30.087  30.342  1.00  0.00     0.251 C 
ATOM     31  H   UNL A   1      34.478  30.217  29.516  1.00  0.00     0.163 HD
ATOM     32  O   UNL A   1      35.883  30.202  31.482  1.00  0.00    -0.269 OA
BRANCH  30  33
ATOM     33  C   UNL A   1      37.750  29.901  30.091  1.00  0.00     0.039 A 
ATOM     34  C   UNL A   1      38.456  29.002  30.894  1.00  0.00     0.014 A 
ATOM     35  C   UNL A   1      38.393  30.570  29.048  1.00  0.00     0.014 A 
ATOM     36  C   UNL A   1      39.785  28.703  30.591  1.00  0.00     0.010 A 
ATOM     37  C   UNL A   1      39.694  30.217  28.701  1.00  0.00     0.010 A 
ATOM     38  C   UNL A   1      40.399  29.270  29.461  1.00  0.00    -0.014 A 
BRANCH  38  39
ATOM     39  C   UNL A   1      41.769  28.874  29.046  1.00  0.00     0.031 A 
ATOM     40  C   UNL A   1      42.880  29.887  29.049  1.00  0.00     0.074 A 
ATOM     41  C   UNL A   1      41.996  27.619  28.607  1.00  0.00     0.049 A 
ATOM     42  N   UNL A   1      44.114  29.757  28.637  1.00  0.00    -0.248 NA
ATOM     43  C   UNL A   1      42.555  31.230  29.555  1.00  0.00     0.031 C 
ATOM     44  C   UNL A   1      40.989  26.558  28.517  1.00  0.00     0.029 A 
ATOM     45  N   UNL A   1      43.144  27.023  28.146  1.00  0.00    -0.354 N 
ATOM     46  C   UNL A   1      44.708  30.999  28.822  1.00  0.00     0.074 A 
ATOM     47  C   UNL A   1      43.686  31.885  29.337  1.00  0.00     0.031 C 
ATOM     48  C   UNL A   1      41.570  25.436  28.061  1.00  0.00     0.029 A 
ATOM     49  C   UNL A   1      42.979  25.704  27.788  1.00  0.00     0.049 A 
ATOM     50  H   UNL A   1      44.005  27.494  28.079  1.00  0.00     0.167 HD
ATOM     51  C   UNL A   1      45.995  31.360  28.610  1.00  0.00     0.037 A 
ATOM     52  C   UNL A   1      43.860  24.813  27.293  1.00  0.00     0.037 A 
ATOM     53  C   UNL A   1      47.017  30.464  28.137  1.00  0.00     0.049 A 
ATOM     54  C   UNL A   1      45.285  25.241  27.067  1.00  0.00     0.074 A 
ATOM     55  C   UNL A   1      48.361  30.725  27.936  1.00  0.00     0.029 A 
ATOM     56  N   UNL A   1      46.811  29.135  27.799  1.00  0.00    -0.354 N 
ATOM     57  N   UNL A   1      45.836  26.410  27.284  1.00  0.00    -0.248 NA
ATOM     58  C   UNL A   1      46.208  24.231  26.529  1.00  0.00     0.031 C 
ATOM     59  C   UNL A   1      48.963  29.562  27.448  1.00  0.00     0.029 A 
ATOM     60  C   UNL A   1      48.003  28.565  27.382  1.00  0.00     0.049 A 
ATOM     61  H   UNL A   1      45.947  28.666  27.848  1.00  0.00     0.167 HD
ATOM     62  C   UNL A   1      47.175  26.271  26.932  1.00  0.00     0.074 A 
ATOM     63  C   UNL A   1      47.352  24.901  26.498  1.00  0.00     0.031 C 
ATOM     64  C   UNL A   1      48.165  27.196  26.964  1.00  0.00     0.037 A 
BRANCH  51  65
ATOM     65  C   UNL A   1      46.387  32.778  28.916  1.00  0.00     0.058 A 
ATOM     66  C   UNL A   1      46.730  33.162  30.222  1.00  0.00     0.135 A 
ATOM     67  C   UNL A   1      46.353  33.774  27.927  1.00  0.00     0.135 A 
ATOM     68  F   UNL A   1      46.786  32.248  31.203  1.00  0.00    -0.206 F 
ATOM     69  C   UNL A   1      47.005  34.487  30.540  1.00  0.00     0.059 A 
ATOM     70  C   UNL A   1      46.648  35.102  28.217  1.00  0.00     0.059 A 
ATOM     71  F   UNL A   1      46.055  33.454  26.657  1.00  0.00    -0.206 F 
ATOM     72  C   UNL A   1      46.957  35.451  29.532  1.00  0.00     0.060 A 
BRANCH  72  73
ATOM     73  S   UNL A   1      47.331  37.165  29.956  1.00  0.00     0.124 S 
ATOM     74  O   UNL A   1      45.998  37.730  30.128  1.00  0.00    -0.237 OA
ATOM     75  O   UNL A   1      48.121  37.014  31.175  1.00  0.00    -0.237 OA
ATOM     76  O   UNL A   1      48.074  37.647  28.795  1.00  0.00    -0.744 OA
ENDBRANCH  72  73
ENDBRANCH  51  65
BRANCH  52  77
ATOM     77  C   UNL A   1      43.428  23.420  27.007  1.00  0.00     0.058 A 
ATOM     78  C   UNL A   1      43.231  22.487  28.037  1.00  0.00     0.135 A 
ATOM     79  C   UNL A   1      43.222  22.989  25.687  1.00  0.00     0.135 A 
ATOM     80  F   UNL A   1      43.425  22.845  29.316  1.00  0.00    -0.206 F 
ATOM     81  C   UNL A   1      42.862  21.174  27.768  1.00  0.00     0.059 A 
ATOM     82  C   UNL A   1      42.830  21.686  25.395  1.00  0.00     0.059 A 
ATOM     83  F   UNL A   1      43.386  23.848  24.670  1.00  0.00    -0.206 F 
ATOM     84  C   UNL A   1      42.668  20.781  26.443  1.00  0.00     0.060 A 
BRANCH  84  85
ATOM     85  S   UNL A   1      42.188  19.071  26.114  1.00  0.00     0.124 S 
ATOM     86  O   UNL A   1      42.408  18.453  27.418  1.00  0.00    -0.237 OA
ATOM     87  O   UNL A   1      40.794  19.216  25.708  1.00  0.00    -0.237 OA
ATOM     88  O   UNL A   1      43.108  18.660  25.060  1.00  0.00    -0.744 OA
ENDBRANCH  84  85
ENDBRANCH  52  77
BRANCH  64  89
ATOM     89  C   UNL A   1      49.539  26.763  26.543  1.00  0.00     0.058 A 
ATOM     90  C   UNL A   1      49.964  26.938  25.216  1.00  0.00     0.135 A 
ATOM     91  C   UNL A   1      50.400  26.095  27.427  1.00  0.00     0.135 A 
ATOM     92  F   UNL A   1      49.175  27.566  24.330  1.00  0.00    -0.206 F 
ATOM     93  C   UNL A   1      51.185  26.444  24.774  1.00  0.00     0.059 A 
ATOM     94  C   UNL A   1      51.638  25.613  27.012  1.00  0.00     0.059 A 
ATOM     95  F   UNL A   1      50.044  25.914  28.708  1.00  0.00    -0.206 F 
ATOM     96  C   UNL A   1      52.014  25.777  25.678  1.00  0.00     0.060 A 
BRANCH  96  97
ATOM     97  S   UNL A   1      53.596  25.139  25.088  1.00  0.00     0.124 S 
ATOM     98  O   UNL A   1      53.428  23.702  25.277  1.00  0.00    -0.237 OA
ATOM     99  O   UNL A   1      53.617  25.599  23.702  1.00  0.00    -0.237 OA
ATOM    100  O   UNL A   1      54.569  25.781  25.968  1.00  0.00    -0.744 OA
ENDBRANCH  96  97
ENDBRANCH  64  89
ENDBRANCH  38  39
ENDBRANCH  30  33
ENDBRANCH  28  29
ENDBRANCH  27  28
ENDBRANCH   1  27
TORSDOF 17
ENDMDL
