MODEL 1
REMARK VINA RESULT:     -12.5      0.000      0.000
REMARK SMILES C[C@]12CCC(=O)N1[C@@H](C(=O)N1C[C@H](O)C[C@@H]1C(=O)NCCCCNC(=O)c1ccc(-c3c4nc(c(-c5c(F)cc(S(=O)(=O)[O-])cc5F)c5ccc([nH]5)c(-c5c(F)cc(S(=O)(=O)[O-])cc5F)c5nc(c(-c6c(F)cc(S(=O)(=O)[O-])cc6F)c6ccc3[nH]6)C=C5)C=C4)cc1)CS2
REMARK SMILES IDX 22 1 21 2 20 3 19 4 17 5 18 6 16 8 11 9 12 10 13 11 15 12
REMARK SMILES IDX 9 13 10 14 8 15 1 16 2 17 3 18 7 19 94 20 4 21 5 22 93 23
REMARK SMILES IDX 6 24 14 25 23 27 24 28 25 29 26 31 27 32 28 33 92 34 29 35
REMARK SMILES IDX 91 36 30 37 31 38 32 39 85 40 33 41 90 42 84 43 86 44 34 45
REMARK SMILES IDX 89 46 83 47 82 48 35 50 69 51 48 52 68 53 49 54 52 55 67 56
REMARK SMILES IDX 87 57 50 58 51 59 66 61 88 62 53 63 36 64 37 65 46 66 38 67
REMARK SMILES IDX 39 68 45 69 47 70 40 71 41 72 42 73 43 74 44 75 70 76 71 77
REMARK SMILES IDX 80 78 72 79 73 80 79 81 81 82 74 83 75 84 76 85 77 86 78 87
REMARK SMILES IDX 54 88 55 89 64 90 56 91 57 92 63 93 65 94 58 95 59 96 60 97
REMARK SMILES IDX 61 98 62 99
REMARK H PARENT 19 7 14 26 24 30 86 49 52 60
REMARK Flexibility Score: inf
ROOT
ATOM      1  C   UNL A   1      34.790  30.883  27.490  1.00  0.00     0.023 C 
ENDROOT
BRANCH   1   2
ATOM      2  C   UNL A   1      34.650  29.369  27.679  1.00  0.00     0.023 C 
BRANCH   2   3
ATOM      3  C   UNL A   1      33.780  28.645  26.653  1.00  0.00     0.116 C 
BRANCH   3   4
ATOM      4  N   UNL A   1      34.029  29.066  25.285  1.00  0.00    -0.354 N 
ATOM      5  C   UNL A   1      33.352  28.741  24.141  1.00  0.00     0.242 C 
ATOM      6  O   UNL A   1      33.669  29.297  23.088  1.00  0.00    -0.273 OA
ATOM      7  H   UNL A   1      34.796  29.671  25.163  1.00  0.00     0.163 HD
BRANCH   5   8
ATOM      8  C   UNL A   1      32.227  27.683  24.195  1.00  0.00     0.177 C 
ATOM      9  N   UNL A   1      32.263  26.779  23.029  1.00  0.00    -0.326 N 
ATOM     10  C   UNL A   1      31.155  27.064  22.125  1.00  0.00     0.152 C 
ATOM     11  C   UNL A   1      30.567  28.381  22.610  1.00  0.00     0.136 C 
ATOM     12  C   UNL A   1      30.859  28.368  24.105  1.00  0.00     0.069 C 
BRANCH   9  13
ATOM     13  C   UNL A   1      33.001  25.638  22.796  1.00  0.00     0.247 C 
ATOM     14  O   UNL A   1      33.952  25.673  22.000  1.00  0.00    -0.272 OA
BRANCH  13  15
ATOM     15  C   UNL A   1      32.590  24.262  23.366  1.00  0.00     0.186 C 
ATOM     16  C   UNL A   1      30.973  22.750  25.701  1.00  0.00     0.047 C 
ATOM     17  C   UNL A   1      32.437  22.735  25.257  1.00  0.00     0.087 C 
ATOM     18  C   UNL A   1      33.362  22.375  26.416  1.00  0.00     0.049 C 
ATOM     19  N   UNL A   1      32.888  24.019  24.783  1.00  0.00    -0.315 N 
ATOM     20  S   UNL A   1      32.612  21.630  23.804  1.00  0.00    -0.131 SA
ATOM     21  C   UNL A   1      34.527  23.344  26.328  1.00  0.00     0.103 C 
ATOM     22  C   UNL A   1      34.060  24.423  25.398  1.00  0.00     0.224 C 
ATOM     23  C   UNL A   1      32.938  22.988  22.613  1.00  0.00     0.107 C 
ATOM     24  O   UNL A   1      34.705  25.436  25.172  1.00  0.00    -0.275 OA
ENDBRANCH  13  15
ENDBRANCH   9  13
BRANCH  11  25
ATOM     25  O   UNL A   1      31.206  29.499  22.000  1.00  0.00    -0.391 OA
ATOM     26  H   UNL A   1      30.964  30.309  22.477  1.00  0.00     0.211 HD
ENDBRANCH  11  25
ENDBRANCH   5   8
ENDBRANCH   3   4
ENDBRANCH   2   3
ENDBRANCH   1   2
BRANCH   1  27
ATOM     27  C   UNL A   1      35.655  31.620  28.511  1.00  0.00     0.116 C 
BRANCH  27  28
ATOM     28  N   UNL A   1      35.524  31.110  29.866  1.00  0.00    -0.352 N 
ATOM     29  C   UNL A   1      36.448  30.459  30.651  1.00  0.00     0.251 C 
ATOM     30  H   UNL A   1      34.643  31.250  30.283  1.00  0.00     0.163 HD
ATOM     31  O   UNL A   1      36.104  30.029  31.750  1.00  0.00    -0.269 OA
BRANCH  29  32
ATOM     32  C   UNL A   1      37.833  30.234  30.171  1.00  0.00     0.039 A 
ATOM     33  C   UNL A   1      38.872  30.227  31.108  1.00  0.00     0.014 A 
ATOM     34  C   UNL A   1      38.117  30.036  28.817  1.00  0.00     0.014 A 
ATOM     35  C   UNL A   1      40.179  29.937  30.702  1.00  0.00     0.010 A 
ATOM     36  C   UNL A   1      39.411  29.693  28.420  1.00  0.00     0.010 A 
ATOM     37  C   UNL A   1      40.451  29.625  29.361  1.00  0.00    -0.014 A 
BRANCH  37  38
ATOM     38  C   UNL A   1      41.803  29.179  28.932  1.00  0.00     0.031 A 
ATOM     39  C   UNL A   1      42.937  30.159  28.825  1.00  0.00     0.074 A 
ATOM     40  C   UNL A   1      41.988  27.898  28.555  1.00  0.00     0.049 A 
ATOM     41  N   UNL A   1      44.153  29.969  28.381  1.00  0.00    -0.248 NA
ATOM     42  C   UNL A   1      42.659  31.539  29.251  1.00  0.00     0.031 C 
ATOM     43  C   UNL A   1      40.957  26.858  28.560  1.00  0.00     0.029 A 
ATOM     44  N   UNL A   1      43.104  27.258  28.076  1.00  0.00    -0.354 N 
ATOM     45  C   UNL A   1      44.782  31.205  28.456  1.00  0.00     0.074 A 
ATOM     46  C   UNL A   1      43.801  32.146  28.957  1.00  0.00     0.031 C 
ATOM     47  C   UNL A   1      41.489  25.711  28.109  1.00  0.00     0.029 A 
ATOM     48  C   UNL A   1      42.888  25.939  27.757  1.00  0.00     0.049 A 
ATOM     49  H   UNL A   1      43.976  27.702  27.969  1.00  0.00     0.167 HD
ATOM     50  C   UNL A   1      46.064  31.526  28.151  1.00  0.00     0.037 A 
ATOM     51  C   UNL A   1      43.715  25.016  27.229  1.00  0.00     0.037 A 
ATOM     52  C   UNL A   1      47.047  30.588  27.673  1.00  0.00     0.049 A 
ATOM     53  C   UNL A   1      45.137  25.386  26.920  1.00  0.00     0.074 A 
ATOM     54  C   UNL A   1      48.385  30.809  27.395  1.00  0.00     0.029 A 
ATOM     55  N   UNL A   1      46.799  29.251  27.400  1.00  0.00    -0.354 N 
ATOM     56  N   UNL A   1      45.731  26.548  27.051  1.00  0.00    -0.248 NA
ATOM     57  C   UNL A   1      46.003  24.320  26.397  1.00  0.00     0.031 C 
ATOM     58  C   UNL A   1      48.940  29.611  26.931  1.00  0.00     0.029 A 
ATOM     59  C   UNL A   1      47.954  28.638  26.944  1.00  0.00     0.049 A 
ATOM     60  H   UNL A   1      45.929  28.805  27.513  1.00  0.00     0.167 HD
ATOM     61  C   UNL A   1      47.041  26.352  26.634  1.00  0.00     0.074 A 
ATOM     62  C   UNL A   1      47.159  24.957  26.261  1.00  0.00     0.031 C 
ATOM     63  C   UNL A   1      48.056  27.250  26.568  1.00  0.00     0.037 A 
BRANCH  50  64
ATOM     64  C   UNL A   1      46.467  32.962  28.328  1.00  0.00     0.058 A 
ATOM     65  C   UNL A   1      46.358  33.887  27.277  1.00  0.00     0.135 A 
ATOM     66  C   UNL A   1      46.974  33.417  29.555  1.00  0.00     0.135 A 
ATOM     67  F   UNL A   1      45.891  33.499  26.080  1.00  0.00    -0.206 F 
ATOM     68  C   UNL A   1      46.779  35.204  27.423  1.00  0.00     0.059 A 
ATOM     69  C   UNL A   1      47.382  34.737  29.730  1.00  0.00     0.059 A 
ATOM     70  F   UNL A   1      47.095  32.573  30.591  1.00  0.00    -0.206 F 
ATOM     71  C   UNL A   1      47.303  35.616  28.650  1.00  0.00     0.060 A 
BRANCH  71  72
ATOM     72  S   UNL A   1      47.884  37.317  28.820  1.00  0.00     0.124 S 
ATOM     73  O   UNL A   1      48.053  37.704  27.423  1.00  0.00    -0.237 OA
ATOM     74  O   UNL A   1      46.782  37.962  29.527  1.00  0.00    -0.237 OA
ATOM     75  O   UNL A   1      49.118  37.176  29.588  1.00  0.00    -0.744 OA
ENDBRANCH  71  72
ENDBRANCH  50  64
BRANCH  51  76
ATOM     76  C   UNL A   1      43.208  23.643  26.982  1.00  0.00     0.058 A 
ATOM     77  C   UNL A   1      42.943  23.200  25.679  1.00  0.00     0.135 A 
ATOM     78  C   UNL A   1      43.037  22.733  28.036  1.00  0.00     0.135 A 
ATOM     79  F   UNL A   1      43.087  24.039  24.642  1.00  0.00    -0.206 F 
ATOM     80  C   UNL A   1      42.529  21.897  25.425  1.00  0.00     0.059 A 
ATOM     81  C   UNL A   1      42.640  21.420  27.806  1.00  0.00     0.059 A 
ATOM     82  F   UNL A   1      43.294  23.110  29.298  1.00  0.00    -0.206 F 
ATOM     83  C   UNL A   1      42.388  21.011  26.496  1.00  0.00     0.060 A 
BRANCH  83  84
ATOM     84  S   UNL A   1      41.945  19.295  26.152  1.00  0.00     0.124 S 
ATOM     85  O   UNL A   1      40.516  19.407  25.889  1.00  0.00    -0.237 OA
ATOM     86  O   UNL A   1      42.785  18.982  25.000  1.00  0.00    -0.237 OA
ATOM     87  O   UNL A   1      42.309  18.604  27.386  1.00  0.00    -0.744 OA
ENDBRANCH  83  84
ENDBRANCH  51  76
BRANCH  63  88
ATOM     88  C   UNL A   1      49.384  26.750  26.078  1.00  0.00     0.058 A 
ATOM     89  C   UNL A   1      49.811  26.984  24.761  1.00  0.00     0.135 A 
ATOM     90  C   UNL A   1      50.254  26.067  26.941  1.00  0.00     0.135 A 
ATOM     91  F   UNL A   1      49.010  27.624  23.895  1.00  0.00    -0.206 F 
ATOM     92  C   UNL A   1      51.053  26.543  24.312  1.00  0.00     0.059 A 
ATOM     93  C   UNL A   1      51.507  25.634  26.518  1.00  0.00     0.059 A 
ATOM     94  F   UNL A   1      49.894  25.824  28.211  1.00  0.00    -0.206 F 
ATOM     95  C   UNL A   1      51.893  25.867  25.198  1.00  0.00     0.060 A 
BRANCH  95  96
ATOM     96  S   UNL A   1      53.517  25.329  24.620  1.00  0.00     0.124 S 
ATOM     97  O   UNL A   1      54.403  26.196  25.388  1.00  0.00    -0.237 OA
ATOM     98  O   UNL A   1      53.534  23.917  24.991  1.00  0.00    -0.237 OA
ATOM     99  O   UNL A   1      53.467  25.591  23.184  1.00  0.00    -0.744 OA
ENDBRANCH  95  96
ENDBRANCH  63  88
ENDBRANCH  37  38
ENDBRANCH  29  32
ENDBRANCH  27  28
ENDBRANCH   1  27
TORSDOF 17
ENDMDL
MODEL 2
REMARK VINA RESULT:     -12.5      6.505     12.020
REMARK SMILES C[C@]12CCC(=O)N1[C@@H](C(=O)N1C[C@H](O)C[C@@H]1C(=O)NCCCCNC(=O)c1ccc(-c3c4nc(c(-c5c(F)cc(S(=O)(=O)[O-])cc5F)c5ccc([nH]5)c(-c5c(F)cc(S(=O)(=O)[O-])cc5F)c5nc(c(-c6c(F)cc(S(=O)(=O)[O-])cc6F)c6ccc3[nH]6)C=C5)C=C4)cc1)CS2
REMARK SMILES IDX 22 1 21 2 20 3 19 4 17 5 18 6 16 8 11 9 12 10 13 11 15 12
REMARK SMILES IDX 9 13 10 14 8 15 1 16 2 17 3 18 7 19 94 20 4 21 5 22 93 23
REMARK SMILES IDX 6 24 14 25 23 27 24 28 25 29 26 31 27 32 28 33 92 34 29 35
REMARK SMILES IDX 91 36 30 37 31 38 32 39 85 40 33 41 90 42 84 43 86 44 34 45
REMARK SMILES IDX 89 46 83 47 82 48 35 50 69 51 48 52 68 53 49 54 52 55 67 56
REMARK SMILES IDX 87 57 50 58 51 59 66 61 88 62 53 63 36 64 37 65 46 66 38 67
REMARK SMILES IDX 39 68 45 69 47 70 40 71 41 72 42 73 43 74 44 75 70 76 71 77
REMARK SMILES IDX 80 78 72 79 73 80 79 81 81 82 74 83 75 84 76 85 77 86 78 87
REMARK SMILES IDX 54 88 55 89 64 90 56 91 57 92 63 93 65 94 58 95 59 96 60 97
REMARK SMILES IDX 61 98 62 99
REMARK H PARENT 19 7 14 26 24 30 86 49 52 60
REMARK Flexibility Score: inf
ROOT
ATOM      1  C   UNL A   1      39.343  22.122  26.558  1.00  0.00     0.023 C 
ENDROOT
BRANCH   1   2
ATOM      2  C   UNL A   1      38.135  22.665  25.787  1.00  0.00     0.023 C 
BRANCH   2   3
ATOM      3  C   UNL A   1      37.088  21.633  25.372  1.00  0.00     0.116 C 
BRANCH   3   4
ATOM      4  N   UNL A   1      35.914  21.626  26.229  1.00  0.00    -0.354 N 
ATOM      5  C   UNL A   1      34.682  21.074  26.005  1.00  0.00     0.242 C 
ATOM      6  O   UNL A   1      33.852  21.092  26.917  1.00  0.00    -0.273 OA
ATOM      7  H   UNL A   1      36.021  22.084  27.094  1.00  0.00     0.163 HD
BRANCH   5   8
ATOM      8  C   UNL A   1      34.359  20.464  24.623  1.00  0.00     0.177 C 
ATOM      9  N   UNL A   1      32.959  20.709  24.225  1.00  0.00    -0.326 N 
ATOM     10  C   UNL A   1      32.181  19.477  24.303  1.00  0.00     0.152 C 
ATOM     11  C   UNL A   1      33.067  18.487  25.044  1.00  0.00     0.136 C 
ATOM     12  C   UNL A   1      34.477  18.936  24.685  1.00  0.00     0.069 C 
BRANCH   9  13
ATOM     13  C   UNL A   1      32.373  21.798  23.616  1.00  0.00     0.247 C 
ATOM     14  O   UNL A   1      32.584  22.015  22.412  1.00  0.00    -0.272 OA
BRANCH  13  15
ATOM     15  C   UNL A   1      31.589  22.863  24.413  1.00  0.00     0.186 C 
ATOM     16  C   UNL A   1      30.331  25.824  24.329  1.00  0.00     0.047 C 
ATOM     17  C   UNL A   1      31.384  25.154  25.215  1.00  0.00     0.087 C 
ATOM     18  C   UNL A   1      32.362  26.178  25.781  1.00  0.00     0.049 C 
ATOM     19  N   UNL A   1      32.190  24.200  24.496  1.00  0.00    -0.315 N 
ATOM     20  S   UNL A   1      30.538  24.153  26.499  1.00  0.00    -0.131 SA
ATOM     21  C   UNL A   1      33.739  25.558  25.630  1.00  0.00     0.103 C 
ATOM     22  C   UNL A   1      33.545  24.419  24.674  1.00  0.00     0.224 C 
ATOM     23  C   UNL A   1      31.039  22.535  25.791  1.00  0.00     0.107 C 
ATOM     24  O   UNL A   1      34.468  23.751  24.235  1.00  0.00    -0.275 OA
ENDBRANCH  13  15
ENDBRANCH   9  13
BRANCH  11  25
ATOM     25  O   UNL A   1      32.876  18.564  26.454  1.00  0.00    -0.391 OA
ATOM     26  H   UNL A   1      31.949  18.782  26.643  1.00  0.00     0.211 HD
ENDBRANCH  11  25
ENDBRANCH   5   8
ENDBRANCH   3   4
ENDBRANCH   2   3
ENDBRANCH   1   2
BRANCH   1  27
ATOM     27  C   UNL A   1      40.337  23.157  27.085  1.00  0.00     0.116 C 
BRANCH  27  28
ATOM     28  N   UNL A   1      40.991  23.925  26.038  1.00  0.00    -0.352 N 
ATOM     29  C   UNL A   1      41.451  25.222  26.059  1.00  0.00     0.251 C 
ATOM     30  H   UNL A   1      41.125  23.446  25.188  1.00  0.00     0.163 HD
ATOM     31  O   UNL A   1      41.901  25.715  25.028  1.00  0.00    -0.269 OA
BRANCH  29  32
ATOM     32  C   UNL A   1      41.368  26.040  27.293  1.00  0.00     0.039 A 
ATOM     33  C   UNL A   1      42.412  26.926  27.579  1.00  0.00     0.014 A 
ATOM     34  C   UNL A   1      40.283  25.941  28.168  1.00  0.00     0.014 A 
ATOM     35  C   UNL A   1      42.329  27.771  28.691  1.00  0.00     0.010 A 
ATOM     36  C   UNL A   1      40.174  26.822  29.246  1.00  0.00     0.010 A 
ATOM     37  C   UNL A   1      41.188  27.756  29.509  1.00  0.00    -0.014 A 
BRANCH  37  38
ATOM     38  C   UNL A   1      41.017  28.739  30.611  1.00  0.00     0.031 A 
ATOM     39  C   UNL A   1      41.841  28.639  31.864  1.00  0.00     0.074 A 
ATOM     40  C   UNL A   1      40.052  29.676  30.517  1.00  0.00     0.049 A 
ATOM     41  N   UNL A   1      41.762  29.347  32.961  1.00  0.00    -0.248 NA
ATOM     42  C   UNL A   1      42.871  27.590  31.894  1.00  0.00     0.031 C 
ATOM     43  C   UNL A   1      39.148  29.846  29.379  1.00  0.00     0.029 A 
ATOM     44  N   UNL A   1      39.660  30.648  31.403  1.00  0.00    -0.354 N 
ATOM     45  C   UNL A   1      42.719  28.822  33.821  1.00  0.00     0.074 A 
ATOM     46  C   UNL A   1      43.341  27.712  33.128  1.00  0.00     0.031 C 
ATOM     47  C   UNL A   1      38.309  30.863  29.633  1.00  0.00     0.029 A 
ATOM     48  C   UNL A   1      38.596  31.397  30.962  1.00  0.00     0.049 A 
ATOM     49  H   UNL A   1      40.097  30.793  32.273  1.00  0.00     0.167 HD
ATOM     50  C   UNL A   1      43.059  29.234  35.067  1.00  0.00     0.037 A 
ATOM     51  C   UNL A   1      37.916  32.395  31.560  1.00  0.00     0.037 A 
ATOM     52  C   UNL A   1      42.457  30.350  35.748  1.00  0.00     0.049 A 
ATOM     53  C   UNL A   1      38.324  32.852  32.930  1.00  0.00     0.074 A 
ATOM     54  C   UNL A   1      42.778  30.879  36.988  1.00  0.00     0.029 A 
ATOM     55  N   UNL A   1      41.407  31.109  35.252  1.00  0.00    -0.354 N 
ATOM     56  N   UNL A   1      39.269  32.379  33.707  1.00  0.00    -0.248 NA
ATOM     57  C   UNL A   1      37.578  33.980  33.505  1.00  0.00     0.031 C 
ATOM     58  C   UNL A   1      41.906  31.943  37.250  1.00  0.00     0.029 A 
ATOM     59  C   UNL A   1      41.059  32.093  36.163  1.00  0.00     0.049 A 
ATOM     60  H   UNL A   1      40.974  30.969  34.380  1.00  0.00     0.167 HD
ATOM     61  C   UNL A   1      39.237  33.156  34.858  1.00  0.00     0.074 A 
ATOM     62  C   UNL A   1      38.190  34.139  34.671  1.00  0.00     0.031 C 
ATOM     63  C   UNL A   1      40.009  33.061  35.969  1.00  0.00     0.037 A 
BRANCH  50  64
ATOM     64  C   UNL A   1      44.139  28.461  35.769  1.00  0.00     0.058 A 
ATOM     65  C   UNL A   1      45.497  28.775  35.590  1.00  0.00     0.135 A 
ATOM     66  C   UNL A   1      43.818  27.393  36.619  1.00  0.00     0.135 A 
ATOM     67  F   UNL A   1      45.856  29.779  34.777  1.00  0.00    -0.206 F 
ATOM     68  C   UNL A   1      46.499  28.027  36.197  1.00  0.00     0.059 A 
ATOM     69  C   UNL A   1      44.805  26.644  37.254  1.00  0.00     0.059 A 
ATOM     70  F   UNL A   1      42.535  27.054  36.825  1.00  0.00    -0.206 F 
ATOM     71  C   UNL A   1      46.144  26.955  37.017  1.00  0.00     0.060 A 
BRANCH  71  72
ATOM     72  S   UNL A   1      47.453  25.965  37.770  1.00  0.00     0.124 S 
ATOM     73  O   UNL A   1      46.985  25.871  39.149  1.00  0.00    -0.237 OA
ATOM     74  O   UNL A   1      47.402  24.727  36.998  1.00  0.00    -0.237 OA
ATOM     75  O   UNL A   1      48.649  26.777  37.565  1.00  0.00    -0.744 OA
ENDBRANCH  71  72
ENDBRANCH  50  64
BRANCH  51  76
ATOM     76  C   UNL A   1      36.787  33.038  30.841  1.00  0.00     0.058 A 
ATOM     77  C   UNL A   1      35.461  32.788  31.219  1.00  0.00     0.135 A 
ATOM     78  C   UNL A   1      37.017  33.955  29.805  1.00  0.00     0.135 A 
ATOM     79  F   UNL A   1      35.196  31.914  32.201  1.00  0.00    -0.206 F 
ATOM     80  C   UNL A   1      34.396  33.432  30.598  1.00  0.00     0.059 A 
ATOM     81  C   UNL A   1      35.969  34.623  29.179  1.00  0.00     0.059 A 
ATOM     82  F   UNL A   1      38.272  34.234  29.420  1.00  0.00    -0.206 F 
ATOM     83  C   UNL A   1      34.661  34.354  29.583  1.00  0.00     0.060 A 
BRANCH  83  84
ATOM     84  S   UNL A   1      33.282  35.258  28.847  1.00  0.00     0.124 S 
ATOM     85  O   UNL A   1      33.975  36.327  28.139  1.00  0.00    -0.237 OA
ATOM     86  O   UNL A   1      32.655  34.239  28.010  1.00  0.00    -0.237 OA
ATOM     87  O   UNL A   1      32.498  35.670  30.008  1.00  0.00    -0.744 OA
ENDBRANCH  83  84
ENDBRANCH  51  76
BRANCH  63  88
ATOM     88  C   UNL A   1      39.752  34.050  37.069  1.00  0.00     0.058 A 
ATOM     89  C   UNL A   1      38.963  33.716  38.182  1.00  0.00     0.135 A 
ATOM     90  C   UNL A   1      40.332  35.327  37.032  1.00  0.00     0.135 A 
ATOM     91  F   UNL A   1      38.380  32.509  38.258  1.00  0.00    -0.206 F 
ATOM     92  C   UNL A   1      38.745  34.622  39.214  1.00  0.00     0.059 A 
ATOM     93  C   UNL A   1      40.141  36.242  38.063  1.00  0.00     0.059 A 
ATOM     94  F   UNL A   1      41.099  35.691  35.993  1.00  0.00    -0.206 F 
ATOM     95  C   UNL A   1      39.337  35.884  39.145  1.00  0.00     0.060 A 
BRANCH  95  96
ATOM     96  S   UNL A   1      39.078  37.044  40.505  1.00  0.00     0.124 S 
ATOM     97  O   UNL A   1      38.154  38.000  39.903  1.00  0.00    -0.237 OA
ATOM     98  O   UNL A   1      38.517  36.191  41.547  1.00  0.00    -0.237 OA
ATOM     99  O   UNL A   1      40.421  37.551  40.776  1.00  0.00    -0.744 OA
ENDBRANCH  95  96
ENDBRANCH  63  88
ENDBRANCH  37  38
ENDBRANCH  29  32
ENDBRANCH  27  28
ENDBRANCH   1  27
TORSDOF 17
ENDMDL
MODEL 3
REMARK VINA RESULT:     -12.4      6.501     11.952
REMARK SMILES C[C@]12CCC(=O)N1[C@@H](C(=O)N1C[C@H](O)C[C@@H]1C(=O)NCCCCNC(=O)c1ccc(-c3c4nc(c(-c5c(F)cc(S(=O)(=O)[O-])cc5F)c5ccc([nH]5)c(-c5c(F)cc(S(=O)(=O)[O-])cc5F)c5nc(c(-c6c(F)cc(S(=O)(=O)[O-])cc6F)c6ccc3[nH]6)C=C5)C=C4)cc1)CS2
REMARK SMILES IDX 22 1 21 2 20 3 19 4 17 5 18 6 16 8 11 9 12 10 13 11 15 12
REMARK SMILES IDX 9 13 10 14 8 15 1 16 2 17 3 18 7 19 94 20 4 21 5 22 93 23
REMARK SMILES IDX 6 24 14 25 23 27 24 28 25 29 26 31 27 32 28 33 92 34 29 35
REMARK SMILES IDX 91 36 30 37 31 38 32 39 85 40 33 41 90 42 84 43 86 44 34 45
REMARK SMILES IDX 89 46 83 47 82 48 35 50 69 51 48 52 68 53 49 54 52 55 67 56
REMARK SMILES IDX 87 57 50 58 51 59 66 61 88 62 53 63 36 64 37 65 46 66 38 67
REMARK SMILES IDX 39 68 45 69 47 70 40 71 41 72 42 73 43 74 44 75 70 76 71 77
REMARK SMILES IDX 80 78 72 79 73 80 79 81 81 82 74 83 75 84 76 85 77 86 78 87
REMARK SMILES IDX 54 88 55 89 64 90 56 91 57 92 63 93 65 94 58 95 59 96 60 97
REMARK SMILES IDX 61 98 62 99
REMARK H PARENT 19 7 14 26 24 30 86 49 52 60
REMARK Flexibility Score: inf
ROOT
ATOM      1  C   UNL A   1      37.947  23.979  26.503  1.00  0.00     0.023 C 
ENDROOT
BRANCH   1   2
ATOM      2  C   UNL A   1      37.441  23.352  25.200  1.00  0.00     0.023 C 
BRANCH   2   3
ATOM      3  C   UNL A   1      36.809  21.968  25.325  1.00  0.00     0.116 C 
BRANCH   3   4
ATOM      4  N   UNL A   1      35.942  21.832  26.484  1.00  0.00    -0.354 N 
ATOM      5  C   UNL A   1      34.576  21.876  26.553  1.00  0.00     0.242 C 
ATOM      6  O   UNL A   1      34.031  21.631  27.631  1.00  0.00    -0.273 OA
ATOM      7  H   UNL A   1      36.403  21.687  27.341  1.00  0.00     0.163 HD
BRANCH   5   8
ATOM      8  C   UNL A   1      33.760  22.247  25.295  1.00  0.00     0.177 C 
ATOM      9  N   UNL A   1      32.384  22.663  25.631  1.00  0.00    -0.326 N 
ATOM     10  C   UNL A   1      31.427  21.635  25.238  1.00  0.00     0.152 C 
ATOM     11  C   UNL A   1      32.266  20.412  24.895  1.00  0.00     0.136 C 
ATOM     12  C   UNL A   1      33.578  21.011  24.406  1.00  0.00     0.069 C 
BRANCH   9  13
ATOM     13  C   UNL A   1      31.884  23.886  26.025  1.00  0.00     0.247 C 
ATOM     14  O   UNL A   1      31.677  24.105  27.228  1.00  0.00    -0.272 OA
BRANCH  13  15
ATOM     15  C   UNL A   1      31.412  24.947  25.008  1.00  0.00     0.186 C 
ATOM     16  C   UNL A   1      31.671  25.996  21.976  1.00  0.00     0.047 C 
ATOM     17  C   UNL A   1      31.948  26.637  23.337  1.00  0.00     0.087 C 
ATOM     18  C   UNL A   1      33.005  27.732  23.227  1.00  0.00     0.049 C 
ATOM     19  N   UNL A   1      32.459  25.697  24.302  1.00  0.00    -0.315 N 
ATOM     20  S   UNL A   1      30.364  27.212  24.063  1.00  0.00    -0.131 SA
ATOM     21  C   UNL A   1      33.936  27.524  24.408  1.00  0.00     0.103 C 
ATOM     22  C   UNL A   1      33.618  26.147  24.910  1.00  0.00     0.224 C 
ATOM     23  C   UNL A   1      30.331  25.945  25.390  1.00  0.00     0.107 C 
ATOM     24  O   UNL A   1      34.252  25.597  25.797  1.00  0.00    -0.275 OA
ENDBRANCH  13  15
ENDBRANCH   9  13
BRANCH  11  25
ATOM     25  O   UNL A   1      32.500  19.598  26.041  1.00  0.00    -0.391 OA
ATOM     26  H   UNL A   1      32.129  20.031  26.826  1.00  0.00     0.211 HD
ENDBRANCH  11  25
ENDBRANCH   5   8
ENDBRANCH   3   4
ENDBRANCH   2   3
ENDBRANCH   1   2
BRANCH   1  27
ATOM     27  C   UNL A   1      39.329  23.538  26.982  1.00  0.00     0.116 C 
BRANCH  27  28
ATOM     28  N   UNL A   1      40.414  23.982  26.123  1.00  0.00    -0.352 N 
ATOM     29  C   UNL A   1      41.280  25.040  26.279  1.00  0.00     0.251 C 
ATOM     30  H   UNL A   1      40.550  23.446  25.309  1.00  0.00     0.163 HD
ATOM     31  O   UNL A   1      42.081  25.297  25.383  1.00  0.00    -0.269 OA
BRANCH  29  32
ATOM     32  C   UNL A   1      41.228  25.895  27.490  1.00  0.00     0.039 A 
ATOM     33  C   UNL A   1      42.277  26.792  27.721  1.00  0.00     0.014 A 
ATOM     34  C   UNL A   1      40.167  25.820  28.396  1.00  0.00     0.014 A 
ATOM     35  C   UNL A   1      42.221  27.670  28.808  1.00  0.00     0.010 A 
ATOM     36  C   UNL A   1      40.085  26.733  29.450  1.00  0.00     0.010 A 
ATOM     37  C   UNL A   1      41.103  27.677  29.656  1.00  0.00    -0.014 A 
BRANCH  37  38
ATOM     38  C   UNL A   1      40.958  28.692  30.732  1.00  0.00     0.031 A 
ATOM     39  C   UNL A   1      41.808  28.626  31.970  1.00  0.00     0.074 A 
ATOM     40  C   UNL A   1      39.994  29.630  30.632  1.00  0.00     0.049 A 
ATOM     41  N   UNL A   1      41.755  29.367  33.047  1.00  0.00    -0.248 NA
ATOM     42  C   UNL A   1      42.836  27.575  32.010  1.00  0.00     0.031 C 
ATOM     43  C   UNL A   1      39.066  29.770  29.508  1.00  0.00     0.029 A 
ATOM     44  N   UNL A   1      39.623  30.629  31.497  1.00  0.00    -0.354 N 
ATOM     45  C   UNL A   1      42.728  28.864  33.902  1.00  0.00     0.074 A 
ATOM     46  C   UNL A   1      43.332  27.732  33.229  1.00  0.00     0.031 C 
ATOM     47  C   UNL A   1      38.235  30.797  29.750  1.00  0.00     0.029 A 
ATOM     48  C   UNL A   1      38.552  31.368  31.056  1.00  0.00     0.049 A 
ATOM     49  H   UNL A   1      40.080  30.798  32.352  1.00  0.00     0.167 HD
ATOM     50  C   UNL A   1      43.096  29.311  35.128  1.00  0.00     0.037 A 
ATOM     51  C   UNL A   1      37.888  32.386  31.639  1.00  0.00     0.037 A 
ATOM     52  C   UNL A   1      42.511  30.449  35.789  1.00  0.00     0.049 A 
ATOM     53  C   UNL A   1      38.327  32.882  32.986  1.00  0.00     0.074 A 
ATOM     54  C   UNL A   1      42.860  31.013  37.005  1.00  0.00     0.029 A 
ATOM     55  N   UNL A   1      41.454  31.197  35.292  1.00  0.00    -0.354 N 
ATOM     56  N   UNL A   1      39.287  32.428  33.756  1.00  0.00    -0.248 NA
ATOM     57  C   UNL A   1      37.597  34.028  33.543  1.00  0.00     0.031 C 
ATOM     58  C   UNL A   1      41.997  32.087  37.254  1.00  0.00     0.029 A 
ATOM     59  C   UNL A   1      41.128  32.208  36.181  1.00  0.00     0.049 A 
ATOM     60  H   UNL A   1      41.002  31.032  34.434  1.00  0.00     0.167 HD
ATOM     61  C   UNL A   1      39.282  33.239  34.884  1.00  0.00     0.074 A 
ATOM     62  C   UNL A   1      38.234  34.220  34.691  1.00  0.00     0.031 C 
ATOM     63  C   UNL A   1      40.077  33.174  35.981  1.00  0.00     0.037 A 
BRANCH  50  64
ATOM     64  C   UNL A   1      44.188  28.555  35.829  1.00  0.00     0.058 A 
ATOM     65  C   UNL A   1      45.542  28.872  35.628  1.00  0.00     0.135 A 
ATOM     66  C   UNL A   1      43.882  27.500  36.702  1.00  0.00     0.135 A 
ATOM     67  F   UNL A   1      45.886  29.865  34.794  1.00  0.00    -0.206 F 
ATOM     68  C   UNL A   1      46.556  28.140  36.235  1.00  0.00     0.059 A 
ATOM     69  C   UNL A   1      44.881  26.767  37.336  1.00  0.00     0.059 A 
ATOM     70  F   UNL A   1      42.604  27.159  36.929  1.00  0.00    -0.206 F 
ATOM     71  C   UNL A   1      46.216  27.080  37.077  1.00  0.00     0.060 A 
BRANCH  71  72
ATOM     72  S   UNL A   1      47.539  26.109  37.831  1.00  0.00     0.124 S 
ATOM     73  O   UNL A   1      47.172  24.757  37.421  1.00  0.00    -0.237 OA
ATOM     74  O   UNL A   1      48.736  26.658  37.202  1.00  0.00    -0.237 OA
ATOM     75  O   UNL A   1      47.396  26.395  39.255  1.00  0.00    -0.744 OA
ENDBRANCH  71  72
ENDBRANCH  50  64
BRANCH  51  76
ATOM     76  C   UNL A   1      36.747  33.011  30.925  1.00  0.00     0.058 A 
ATOM     77  C   UNL A   1      35.427  32.760  31.324  1.00  0.00     0.135 A 
ATOM     78  C   UNL A   1      36.957  33.915  29.873  1.00  0.00     0.135 A 
ATOM     79  F   UNL A   1      35.180  31.898  32.322  1.00  0.00    -0.206 F 
ATOM     80  C   UNL A   1      34.350  33.388  30.708  1.00  0.00     0.059 A 
ATOM     81  C   UNL A   1      35.897  34.567  29.251  1.00  0.00     0.059 A 
ATOM     82  F   UNL A   1      38.206  34.196  29.468  1.00  0.00    -0.206 F 
ATOM     83  C   UNL A   1      34.597  34.297  29.676  1.00  0.00     0.060 A 
BRANCH  83  84
ATOM     84  S   UNL A   1      33.202  35.181  28.945  1.00  0.00     0.124 S 
ATOM     85  O   UNL A   1      32.681  34.190  28.013  1.00  0.00    -0.237 OA
ATOM     86  O   UNL A   1      32.368  35.463  30.110  1.00  0.00    -0.237 OA
ATOM     87  O   UNL A   1      33.832  36.351  28.340  1.00  0.00    -0.744 OA
ENDBRANCH  83  84
ENDBRANCH  51  76
BRANCH  63  88
ATOM     88  C   UNL A   1      39.846  34.195  37.057  1.00  0.00     0.058 A 
ATOM     89  C   UNL A   1      39.008  33.927  38.151  1.00  0.00     0.135 A 
ATOM     90  C   UNL A   1      40.500  35.437  37.016  1.00  0.00     0.135 A 
ATOM     91  F   UNL A   1      38.354  32.758  38.230  1.00  0.00    -0.206 F 
ATOM     92  C   UNL A   1      38.814  34.863  39.162  1.00  0.00     0.059 A 
ATOM     93  C   UNL A   1      40.333  36.380  38.025  1.00  0.00     0.059 A 
ATOM     94  F   UNL A   1      41.316  35.738  35.994  1.00  0.00    -0.206 F 
ATOM     95  C   UNL A   1      39.479  36.088  39.089  1.00  0.00     0.060 A 
BRANCH  95  96
ATOM     96  S   UNL A   1      39.250  37.285  40.422  1.00  0.00     0.124 S 
ATOM     97  O   UNL A   1      40.569  37.905  40.488  1.00  0.00    -0.237 OA
ATOM     98  O   UNL A   1      38.177  38.131  39.907  1.00  0.00    -0.237 OA
ATOM     99  O   UNL A   1      38.886  36.452  41.564  1.00  0.00    -0.744 OA
ENDBRANCH  95  96
ENDBRANCH  63  88
ENDBRANCH  37  38
ENDBRANCH  29  32
ENDBRANCH  27  28
ENDBRANCH   1  27
TORSDOF 17
ENDMDL
