MODEL 1
REMARK VINA RESULT:      -9.8      0.000      0.000
REMARK SMILES CCOc1cccc(-c2ccc([C@@H](C)C(=O)NCCCCNC(=O)c3ccc(-c4c5nc(c(-c6c(F)cc(S(=O)(=O)[O-])cc6F)c6ccc([nH]6)c(-c6c(F)cc(S(=O)(=O)[O-])cc6F)c6nc(c(-c7c(F)cc(S(=O)(=O)[O-])cc7F)c7ccc4[nH]7)C=C6)C=C5)cc3)cc2F)c1
REMARK SMILES IDX 19 1 18 2 17 3 15 4 16 5 13 7 14 8 12 9 9 10 10 11 92 12
REMARK SMILES IDX 11 13 91 14 93 15 8 16 4 17 5 18 94 19 6 20 7 21 3 22 2 23
REMARK SMILES IDX 1 24 20 25 21 26 22 27 23 28 24 30 25 31 26 32 90 33 27 34
REMARK SMILES IDX 89 35 28 36 29 37 30 38 83 39 31 40 88 41 82 42 84 43 32 44
REMARK SMILES IDX 87 45 81 46 80 47 33 49 67 50 46 51 66 52 47 53 50 54 65 55
REMARK SMILES IDX 85 56 48 57 49 58 64 60 86 61 51 62 34 63 35 64 44 65 36 66
REMARK SMILES IDX 37 67 43 68 45 69 38 70 39 71 40 72 41 73 42 74 68 75 69 76
REMARK SMILES IDX 78 77 70 78 71 79 77 80 79 81 72 82 73 83 74 84 75 85 76 86
REMARK SMILES IDX 52 87 53 88 62 89 54 90 55 91 61 92 63 93 56 94 57 95 58 96
REMARK SMILES IDX 59 97 60 98
REMARK H PARENT 17 6 22 29 84 48 50 59
REMARK Flexibility Score: inf
ROOT
ATOM      1  C   UNL A   1      42.164  19.548  26.725  1.00  0.00     0.023 C 
ENDROOT
BRANCH   1   2
ATOM      2  C   UNL A   1      42.860  19.822  25.391  1.00  0.00     0.116 C 
BRANCH   2   3
ATOM      3  N   UNL A   1      44.302  19.765  25.508  1.00  0.00    -0.356 N 
ATOM      4  C   UNL A   1      45.252  20.739  25.433  1.00  0.00     0.227 C 
ATOM      5  O   UNL A   1      46.430  20.368  25.497  1.00  0.00    -0.274 OA
ATOM      6  H   UNL A   1      44.660  18.863  25.670  1.00  0.00     0.163 HD
BRANCH   4   7
ATOM      7  C   UNL A   1      44.933  22.236  25.288  1.00  0.00     0.105 C 
ATOM      8  C   UNL A   1      45.754  22.950  24.216  1.00  0.00     0.023 C 
BRANCH   7   9
ATOM      9  C   UNL A   1      44.794  22.958  26.619  1.00  0.00    -0.033 A 
ATOM     10  C   UNL A   1      44.479  24.083  29.244  1.00  0.00     0.018 A 
ATOM     11  C   UNL A   1      45.709  24.115  28.562  1.00  0.00     0.012 A 
ATOM     12  C   UNL A   1      43.400  23.532  28.531  1.00  0.00     0.131 A 
ATOM     13  C   UNL A   1      45.855  23.598  27.263  1.00  0.00     0.005 A 
ATOM     14  C   UNL A   1      43.554  22.958  27.265  1.00  0.00     0.044 A 
ATOM     15  F   UNL A   1      42.160  23.531  29.046  1.00  0.00    -0.206 F 
BRANCH  10  16
ATOM     16  C   UNL A   1      44.361  24.557  30.649  1.00  0.00    -0.012 A 
ATOM     17  C   UNL A   1      43.969  26.368  32.256  1.00  0.00     0.119 A 
ATOM     18  C   UNL A   1      44.057  25.482  33.321  1.00  0.00     0.046 A 
ATOM     19  C   UNL A   1      44.133  25.914  30.945  1.00  0.00     0.055 A 
ATOM     20  C   UNL A   1      44.282  24.132  33.066  1.00  0.00     0.004 A 
ATOM     21  C   UNL A   1      44.437  23.680  31.750  1.00  0.00     0.009 A 
BRANCH  17  22
ATOM     22  O   UNL A   1      43.837  27.702  32.525  1.00  0.00    -0.494 OA
BRANCH  22  23
ATOM     23  C   UNL A   1      42.837  28.341  31.720  1.00  0.00     0.226 C 
ATOM     24  C   UNL A   1      41.461  28.260  32.362  1.00  0.00     0.049 C 
ENDBRANCH  22  23
ENDBRANCH  17  22
ENDBRANCH  10  16
ENDBRANCH   7   9
ENDBRANCH   4   7
ENDBRANCH   2   3
ENDBRANCH   1   2
BRANCH   1  25
ATOM     25  C   UNL A   1      40.696  19.973  26.787  1.00  0.00     0.023 C 
BRANCH  25  26
ATOM     26  C   UNL A   1      40.455  21.478  26.828  1.00  0.00     0.116 C 
BRANCH  26  27
ATOM     27  N   UNL A   1      39.126  21.879  26.388  1.00  0.00    -0.352 N 
ATOM     28  C   UNL A   1      38.566  23.138  26.409  1.00  0.00     0.251 C 
ATOM     29  H   UNL A   1      38.556  21.161  26.032  1.00  0.00     0.163 HD
ATOM     30  O   UNL A   1      37.401  23.303  26.073  1.00  0.00    -0.269 OA
BRANCH  28  31
ATOM     31  C   UNL A   1      39.381  24.275  26.893  1.00  0.00     0.039 A 
ATOM     32  C   UNL A   1      40.166  24.980  25.978  1.00  0.00     0.014 A 
ATOM     33  C   UNL A   1      39.314  24.679  28.228  1.00  0.00     0.014 A 
ATOM     34  C   UNL A   1      40.820  26.144  26.386  1.00  0.00     0.010 A 
ATOM     35  C   UNL A   1      39.905  25.878  28.615  1.00  0.00     0.010 A 
ATOM     36  C   UNL A   1      40.659  26.625  27.697  1.00  0.00    -0.014 A 
BRANCH  36  37
ATOM     37  C   UNL A   1      41.260  27.912  28.127  1.00  0.00     0.031 A 
ATOM     38  C   UNL A   1      42.746  28.119  28.030  1.00  0.00     0.074 A 
ATOM     39  C   UNL A   1      40.478  28.861  28.682  1.00  0.00     0.049 A 
ATOM     40  N   UNL A   1      43.468  29.131  28.433  1.00  0.00    -0.248 NA
ATOM     41  C   UNL A   1      43.528  27.026  27.428  1.00  0.00     0.031 C 
ATOM     42  C   UNL A   1      39.032  28.753  28.891  1.00  0.00     0.029 A 
ATOM     43  N   UNL A   1      40.793  30.098  29.185  1.00  0.00    -0.354 N 
ATOM     44  C   UNL A   1      44.785  28.791  28.155  1.00  0.00     0.074 A 
ATOM     45  C   UNL A   1      44.769  27.457  27.596  1.00  0.00     0.031 C 
ATOM     46  C   UNL A   1      38.583  29.885  29.457  1.00  0.00     0.029 A 
ATOM     47  C   UNL A   1      39.710  30.785  29.681  1.00  0.00     0.049 A 
ATOM     48  H   UNL A   1      41.708  30.461  29.191  1.00  0.00     0.167 HD
ATOM     49  C   UNL A   1      45.906  29.533  28.328  1.00  0.00     0.037 A 
ATOM     50  C   UNL A   1      39.634  32.003  30.253  1.00  0.00     0.037 A 
ATOM     51  C   UNL A   1      45.913  30.874  28.848  1.00  0.00     0.049 A 
ATOM     52  C   UNL A   1      40.887  32.822  30.400  1.00  0.00     0.074 A 
ATOM     53  C   UNL A   1      46.985  31.735  28.998  1.00  0.00     0.029 A 
ATOM     54  N   UNL A   1      44.788  31.553  29.296  1.00  0.00    -0.354 N 
ATOM     55  N   UNL A   1      42.118  32.509  30.074  1.00  0.00    -0.248 NA
ATOM     56  C   UNL A   1      40.741  34.161  30.987  1.00  0.00     0.031 C 
ATOM     57  C   UNL A   1      46.515  32.924  29.564  1.00  0.00     0.029 A 
ATOM     58  C   UNL A   1      45.144  32.819  29.733  1.00  0.00     0.049 A 
ATOM     59  H   UNL A   1      43.874  31.189  29.303  1.00  0.00     0.167 HD
ATOM     60  C   UNL A   1      42.890  33.621  30.392  1.00  0.00     0.074 A 
ATOM     61  C   UNL A   1      41.985  34.618  30.928  1.00  0.00     0.031 C 
ATOM     62  C   UNL A   1      44.226  33.801  30.254  1.00  0.00     0.037 A 
BRANCH  49  63
ATOM     63  C   UNL A   1      47.216  28.908  27.937  1.00  0.00     0.058 A 
ATOM     64  C   UNL A   1      48.023  28.247  28.877  1.00  0.00     0.135 A 
ATOM     65  C   UNL A   1      47.664  28.954  26.607  1.00  0.00     0.135 A 
ATOM     66  F   UNL A   1      47.650  28.189  30.166  1.00  0.00    -0.206 F 
ATOM     67  C   UNL A   1      49.243  27.684  28.520  1.00  0.00     0.059 A 
ATOM     68  C   UNL A   1      48.869  28.374  26.222  1.00  0.00     0.059 A 
ATOM     69  F   UNL A   1      46.931  29.574  25.668  1.00  0.00    -0.206 F 
ATOM     70  C   UNL A   1      49.660  27.756  27.190  1.00  0.00     0.060 A 
BRANCH  70  71
ATOM     71  S   UNL A   1      51.249  27.027  26.743  1.00  0.00     0.124 S 
ATOM     72  O   UNL A   1      50.914  26.343  25.497  1.00  0.00    -0.237 OA
ATOM     73  O   UNL A   1      52.107  28.201  26.609  1.00  0.00    -0.237 OA
ATOM     74  O   UNL A   1      51.554  26.158  27.875  1.00  0.00    -0.744 OA
ENDBRANCH  70  71
ENDBRANCH  49  63
BRANCH  50  75
ATOM     75  C   UNL A   1      38.318  32.535  30.695  1.00  0.00     0.058 A 
ATOM     76  C   UNL A   1      37.870  32.341  32.009  1.00  0.00     0.135 A 
ATOM     77  C   UNL A   1      37.492  33.259  29.821  1.00  0.00     0.135 A 
ATOM     78  F   UNL A   1      38.623  31.650  32.879  1.00  0.00    -0.206 F 
ATOM     79  C   UNL A   1      36.642  32.831  32.442  1.00  0.00     0.059 A 
ATOM     80  C   UNL A   1      36.270  33.779  30.236  1.00  0.00     0.059 A 
ATOM     81  F   UNL A   1      37.885  33.487  28.559  1.00  0.00    -0.206 F 
ATOM     82  C   UNL A   1      35.849  33.552  31.546  1.00  0.00     0.060 A 
BRANCH  82  83
ATOM     83  S   UNL A   1      34.281  34.233  32.130  1.00  0.00     0.124 S 
ATOM     84  O   UNL A   1      34.729  35.399  32.881  1.00  0.00    -0.237 OA
ATOM     85  O   UNL A   1      33.580  34.509  30.879  1.00  0.00    -0.237 OA
ATOM     86  O   UNL A   1      33.720  33.145  32.925  1.00  0.00    -0.744 OA
ENDBRANCH  82  83
ENDBRANCH  50  75
BRANCH  62  87
ATOM     87  C   UNL A   1      44.788  35.134  30.657  1.00  0.00     0.058 A 
ATOM     88  C   UNL A   1      45.293  35.359  31.946  1.00  0.00     0.135 A 
ATOM     89  C   UNL A   1      44.871  36.180  29.724  1.00  0.00     0.135 A 
ATOM     90  F   UNL A   1      45.232  34.391  32.874  1.00  0.00    -0.206 F 
ATOM     91  C   UNL A   1      45.846  36.584  32.303  1.00  0.00     0.059 A 
ATOM     92  C   UNL A   1      45.439  37.406  30.054  1.00  0.00     0.059 A 
ATOM     93  F   UNL A   1      44.409  36.011  28.475  1.00  0.00    -0.206 F 
ATOM     94  C   UNL A   1      45.914  37.601  31.350  1.00  0.00     0.060 A 
BRANCH  94  95
ATOM     95  S   UNL A   1      46.668  39.176  31.814  1.00  0.00     0.124 S 
ATOM     96  O   UNL A   1      47.674  39.338  30.770  1.00  0.00    -0.237 OA
ATOM     97  O   UNL A   1      45.536  40.096  31.753  1.00  0.00    -0.237 OA
ATOM     98  O   UNL A   1      47.186  38.920  33.154  1.00  0.00    -0.744 OA
ENDBRANCH  94  95
ENDBRANCH  62  87
ENDBRANCH  36  37
ENDBRANCH  28  31
ENDBRANCH  26  27
ENDBRANCH  25  26
ENDBRANCH   1  25
TORSDOF 18
ENDMDL
MODEL 2
REMARK VINA RESULT:      -9.6      4.361     10.959
REMARK SMILES CCOc1cccc(-c2ccc([C@@H](C)C(=O)NCCCCNC(=O)c3ccc(-c4c5nc(c(-c6c(F)cc(S(=O)(=O)[O-])cc6F)c6ccc([nH]6)c(-c6c(F)cc(S(=O)(=O)[O-])cc6F)c6nc(c(-c7c(F)cc(S(=O)(=O)[O-])cc7F)c7ccc4[nH]7)C=C6)C=C5)cc3)cc2F)c1
REMARK SMILES IDX 19 1 18 2 17 3 15 4 16 5 13 7 14 8 12 9 9 10 10 11 92 12
REMARK SMILES IDX 11 13 91 14 93 15 8 16 4 17 5 18 94 19 6 20 7 21 3 22 2 23
REMARK SMILES IDX 1 24 20 25 21 26 22 27 23 28 24 30 25 31 26 32 90 33 27 34
REMARK SMILES IDX 89 35 28 36 29 37 30 38 83 39 31 40 88 41 82 42 84 43 32 44
REMARK SMILES IDX 87 45 81 46 80 47 33 49 67 50 46 51 66 52 47 53 50 54 65 55
REMARK SMILES IDX 85 56 48 57 49 58 64 60 86 61 51 62 34 63 35 64 44 65 36 66
REMARK SMILES IDX 37 67 43 68 45 69 38 70 39 71 40 72 41 73 42 74 68 75 69 76
REMARK SMILES IDX 78 77 70 78 71 79 77 80 79 81 72 82 73 83 74 84 75 85 76 86
REMARK SMILES IDX 52 87 53 88 62 89 54 90 55 91 61 92 63 93 56 94 57 95 58 96
REMARK SMILES IDX 59 97 60 98
REMARK H PARENT 17 6 22 29 84 48 50 59
REMARK Flexibility Score: inf
ROOT
ATOM      1  C   UNL A   1      31.518  29.221  26.253  1.00  0.00     0.023 C 
ENDROOT
BRANCH   1   2
ATOM      2  C   UNL A   1      31.183  29.186  24.761  1.00  0.00     0.116 C 
BRANCH   2   3
ATOM      3  N   UNL A   1      32.353  29.401  23.936  1.00  0.00    -0.356 N 
ATOM      4  C   UNL A   1      32.908  28.649  22.945  1.00  0.00     0.227 C 
ATOM      5  O   UNL A   1      33.971  29.062  22.466  1.00  0.00    -0.274 OA
ATOM      6  H   UNL A   1      32.834  30.239  24.124  1.00  0.00     0.163 HD
BRANCH   4   7
ATOM      7  C   UNL A   1      32.284  27.352  22.404  1.00  0.00     0.105 C 
ATOM      8  C   UNL A   1      30.769  27.266  22.581  1.00  0.00     0.023 C 
BRANCH   7   9
ATOM      9  C   UNL A   1      33.073  26.104  22.762  1.00  0.00    -0.033 A 
ATOM     10  C   UNL A   1      34.396  23.711  23.647  1.00  0.00     0.018 A 
ATOM     11  C   UNL A   1      33.738  23.783  22.406  1.00  0.00     0.012 A 
ATOM     12  C   UNL A   1      34.427  24.902  24.392  1.00  0.00     0.131 A 
ATOM     13  C   UNL A   1      33.123  24.964  21.956  1.00  0.00     0.005 A 
ATOM     14  C   UNL A   1      33.761  26.061  23.979  1.00  0.00     0.044 A 
ATOM     15  F   UNL A   1      35.103  24.977  25.549  1.00  0.00    -0.206 F 
BRANCH  10  16
ATOM     16  C   UNL A   1      34.968  22.431  24.145  1.00  0.00    -0.012 A 
ATOM     17  C   UNL A   1      34.695  20.066  24.730  1.00  0.00     0.119 A 
ATOM     18  C   UNL A   1      36.047  19.951  25.023  1.00  0.00     0.046 A 
ATOM     19  C   UNL A   1      34.165  21.288  24.312  1.00  0.00     0.055 A 
ATOM     20  C   UNL A   1      36.873  21.061  24.869  1.00  0.00     0.004 A 
ATOM     21  C   UNL A   1      36.338  22.283  24.441  1.00  0.00     0.009 A 
BRANCH  17  22
ATOM     22  O   UNL A   1      33.881  18.994  24.971  1.00  0.00    -0.494 OA
BRANCH  22  23
ATOM     23  C   UNL A   1      34.349  17.785  24.359  1.00  0.00     0.226 C 
ATOM     24  C   UNL A   1      33.385  16.630  24.582  1.00  0.00     0.049 C 
ENDBRANCH  22  23
ENDBRANCH  17  22
ENDBRANCH  10  16
ENDBRANCH   7   9
ENDBRANCH   4   7
ENDBRANCH   2   3
ENDBRANCH   1   2
BRANCH   1  25
ATOM     25  C   UNL A   1      32.498  28.146  26.720  1.00  0.00     0.023 C 
BRANCH  25  26
ATOM     26  C   UNL A   1      33.812  28.666  27.294  1.00  0.00     0.116 C 
BRANCH  26  27
ATOM     27  N   UNL A   1      33.745  30.036  27.783  1.00  0.00    -0.352 N 
ATOM     28  C   UNL A   1      34.741  30.774  28.386  1.00  0.00     0.251 C 
ATOM     29  H   UNL A   1      32.881  30.492  27.671  1.00  0.00     0.163 HD
ATOM     30  O   UNL A   1      34.508  31.895  28.815  1.00  0.00    -0.269 OA
BRANCH  28  31
ATOM     31  C   UNL A   1      36.081  30.167  28.551  1.00  0.00     0.039 A 
ATOM     32  C   UNL A   1      36.977  30.209  27.481  1.00  0.00     0.014 A 
ATOM     33  C   UNL A   1      36.468  29.621  29.778  1.00  0.00     0.014 A 
ATOM     34  C   UNL A   1      38.292  29.778  27.668  1.00  0.00     0.010 A 
ATOM     35  C   UNL A   1      37.796  29.262  29.983  1.00  0.00     0.010 A 
ATOM     36  C   UNL A   1      38.723  29.342  28.932  1.00  0.00    -0.014 A 
BRANCH  36  37
ATOM     37  C   UNL A   1      40.139  28.975  29.183  1.00  0.00     0.031 A 
ATOM     38  C   UNL A   1      41.088  29.989  29.759  1.00  0.00     0.074 A 
ATOM     39  C   UNL A   1      40.588  27.757  28.817  1.00  0.00     0.049 A 
ATOM     40  N   UNL A   1      42.375  29.890  29.969  1.00  0.00    -0.248 NA
ATOM     41  C   UNL A   1      40.520  31.299  30.116  1.00  0.00     0.031 C 
ATOM     42  C   UNL A   1      39.779  26.709  28.188  1.00  0.00     0.029 A 
ATOM     43  N   UNL A   1      41.838  27.200  28.906  1.00  0.00    -0.354 N 
ATOM     44  C   UNL A   1      42.774  31.127  30.460  1.00  0.00     0.074 A 
ATOM     45  C   UNL A   1      41.603  31.976  30.469  1.00  0.00     0.031 C 
ATOM     46  C   UNL A   1      40.548  25.630  27.970  1.00  0.00     0.029 A 
ATOM     47  C   UNL A   1      41.909  25.918  28.412  1.00  0.00     0.049 A 
ATOM     48  H   UNL A   1      42.613  27.673  29.287  1.00  0.00     0.167 HD
ATOM     49  C   UNL A   1      44.000  31.512  30.888  1.00  0.00     0.037 A 
ATOM     50  C   UNL A   1      42.954  25.072  28.323  1.00  0.00     0.037 A 
ATOM     51  C   UNL A   1      45.153  30.651  30.914  1.00  0.00     0.049 A 
ATOM     52  C   UNL A   1      44.297  25.511  28.838  1.00  0.00     0.074 A 
ATOM     53  C   UNL A   1      46.422  30.924  31.391  1.00  0.00     0.029 A 
ATOM     54  N   UNL A   1      45.173  29.344  30.448  1.00  0.00    -0.354 N 
ATOM     55  N   UNL A   1      44.643  26.664  29.358  1.00  0.00    -0.248 NA
ATOM     56  C   UNL A   1      45.391  24.533  28.761  1.00  0.00     0.031 C 
ATOM     57  C   UNL A   1      47.218  29.793  31.188  1.00  0.00     0.029 A 
ATOM     58  C   UNL A   1      46.435  28.802  30.617  1.00  0.00     0.049 A 
ATOM     59  H   UNL A   1      44.403  28.873  30.055  1.00  0.00     0.167 HD
ATOM     60  C   UNL A   1      45.987  26.542  29.694  1.00  0.00     0.074 A 
ATOM     61  C   UNL A   1      46.389  25.199  29.326  1.00  0.00     0.031 C 
ATOM     62  C   UNL A   1      46.813  27.459  30.255  1.00  0.00     0.037 A 
BRANCH  49  63
ATOM     63  C   UNL A   1      44.150  32.927  31.374  1.00  0.00     0.058 A 
ATOM     64  C   UNL A   1      43.902  33.272  32.713  1.00  0.00     0.135 A 
ATOM     65  C   UNL A   1      44.561  33.945  30.501  1.00  0.00     0.135 A 
ATOM     66  F   UNL A   1      43.490  32.340  33.586  1.00  0.00    -0.206 F 
ATOM     67  C   UNL A   1      44.024  34.583  33.160  1.00  0.00     0.059 A 
ATOM     68  C   UNL A   1      44.715  35.260  30.932  1.00  0.00     0.059 A 
ATOM     69  F   UNL A   1      44.811  33.670  29.210  1.00  0.00    -0.206 F 
ATOM     70  C   UNL A   1      44.427  35.572  32.261  1.00  0.00     0.060 A 
BRANCH  70  71
ATOM     71  S   UNL A   1      44.573  37.270  32.853  1.00  0.00     0.124 S 
ATOM     72  O   UNL A   1      46.001  37.517  32.677  1.00  0.00    -0.237 OA
ATOM     73  O   UNL A   1      43.688  37.996  31.946  1.00  0.00    -0.237 OA
ATOM     74  O   UNL A   1      44.115  37.187  34.236  1.00  0.00    -0.744 OA
ENDBRANCH  70  71
ENDBRANCH  49  63
BRANCH  50  75
ATOM     75  C   UNL A   1      42.761  23.711  27.757  1.00  0.00     0.058 A 
ATOM     76  C   UNL A   1      42.879  23.485  26.378  1.00  0.00     0.135 A 
ATOM     77  C   UNL A   1      42.472  22.612  28.579  1.00  0.00     0.135 A 
ATOM     78  F   UNL A   1      43.148  24.507  25.551  1.00  0.00    -0.206 F 
ATOM     79  C   UNL A   1      42.703  22.219  25.829  1.00  0.00     0.059 A 
ATOM     80  C   UNL A   1      42.313  21.332  28.057  1.00  0.00     0.059 A 
ATOM     81  F   UNL A   1      42.368  22.774  29.907  1.00  0.00    -0.206 F 
ATOM     82  C   UNL A   1      42.422  21.147  26.678  1.00  0.00     0.060 A 
BRANCH  82  83
ATOM     83  S   UNL A   1      42.248  19.497  25.964  1.00  0.00     0.124 S 
ATOM     84  O   UNL A   1      43.118  19.589  24.798  1.00  0.00    -0.237 OA
ATOM     85  O   UNL A   1      42.721  18.641  27.049  1.00  0.00    -0.237 OA
ATOM     86  O   UNL A   1      40.819  19.404  25.683  1.00  0.00    -0.744 OA
ENDBRANCH  82  83
ENDBRANCH  50  75
BRANCH  62  87
ATOM     87  C   UNL A   1      48.225  27.033  30.536  1.00  0.00     0.058 A 
ATOM     88  C   UNL A   1      49.253  27.232  29.602  1.00  0.00     0.135 A 
ATOM     89  C   UNL A   1      48.562  26.468  31.777  1.00  0.00     0.135 A 
ATOM     90  F   UNL A   1      48.980  27.763  28.400  1.00  0.00    -0.206 F 
ATOM     91  C   UNL A   1      50.566  26.869  29.882  1.00  0.00     0.059 A 
ATOM     92  C   UNL A   1      49.872  26.118  32.085  1.00  0.00     0.059 A 
ATOM     93  F   UNL A   1      47.616  26.265  32.707  1.00  0.00    -0.206 F 
ATOM     94  C   UNL A   1      50.866  26.313  31.127  1.00  0.00     0.060 A 
BRANCH  94  95
ATOM     95  S   UNL A   1      52.580  25.879  31.494  1.00  0.00     0.124 S 
ATOM     96  O   UNL A   1      52.930  26.885  32.490  1.00  0.00    -0.237 OA
ATOM     97  O   UNL A   1      52.460  24.511  31.989  1.00  0.00    -0.237 OA
ATOM     98  O   UNL A   1      53.246  26.013  30.202  1.00  0.00    -0.744 OA
ENDBRANCH  94  95
ENDBRANCH  62  87
ENDBRANCH  36  37
ENDBRANCH  28  31
ENDBRANCH  26  27
ENDBRANCH  25  26
ENDBRANCH   1  25
TORSDOF 18
ENDMDL
MODEL 3
REMARK VINA RESULT:      -9.6      4.994      7.716
REMARK SMILES CCOc1cccc(-c2ccc([C@@H](C)C(=O)NCCCCNC(=O)c3ccc(-c4c5nc(c(-c6c(F)cc(S(=O)(=O)[O-])cc6F)c6ccc([nH]6)c(-c6c(F)cc(S(=O)(=O)[O-])cc6F)c6nc(c(-c7c(F)cc(S(=O)(=O)[O-])cc7F)c7ccc4[nH]7)C=C6)C=C5)cc3)cc2F)c1
REMARK SMILES IDX 19 1 18 2 17 3 15 4 16 5 13 7 14 8 12 9 9 10 10 11 92 12
REMARK SMILES IDX 11 13 91 14 93 15 8 16 4 17 5 18 94 19 6 20 7 21 3 22 2 23
REMARK SMILES IDX 1 24 20 25 21 26 22 27 23 28 24 30 25 31 26 32 90 33 27 34
REMARK SMILES IDX 89 35 28 36 29 37 30 38 83 39 31 40 88 41 82 42 84 43 32 44
REMARK SMILES IDX 87 45 81 46 80 47 33 49 67 50 46 51 66 52 47 53 50 54 65 55
REMARK SMILES IDX 85 56 48 57 49 58 64 60 86 61 51 62 34 63 35 64 44 65 36 66
REMARK SMILES IDX 37 67 43 68 45 69 38 70 39 71 40 72 41 73 42 74 68 75 69 76
REMARK SMILES IDX 78 77 70 78 71 79 77 80 79 81 72 82 73 83 74 84 75 85 76 86
REMARK SMILES IDX 52 87 53 88 62 89 54 90 55 91 61 92 63 93 56 94 57 95 58 96
REMARK SMILES IDX 59 97 60 98
REMARK H PARENT 17 6 22 29 84 48 50 59
REMARK Flexibility Score: inf
ROOT
ATOM      1  C   UNL A   1      45.034  22.356  25.956  1.00  0.00     0.023 C 
ENDROOT
BRANCH   1   2
ATOM      2  C   UNL A   1      43.933  21.987  24.961  1.00  0.00     0.116 C 
BRANCH   2   3
ATOM      3  N   UNL A   1      43.158  20.847  25.405  1.00  0.00    -0.356 N 
ATOM      4  C   UNL A   1      42.036  20.764  26.174  1.00  0.00     0.227 C 
ATOM      5  O   UNL A   1      41.640  19.627  26.454  1.00  0.00    -0.274 OA
ATOM      6  H   UNL A   1      43.502  19.978  25.098  1.00  0.00     0.163 HD
BRANCH   4   7
ATOM      7  C   UNL A   1      41.258  21.988  26.685  1.00  0.00     0.105 C 
ATOM      8  C   UNL A   1      41.521  22.329  28.151  1.00  0.00     0.023 C 
BRANCH   7   9
ATOM      9  C   UNL A   1      39.804  22.011  26.241  1.00  0.00    -0.033 A 
ATOM     10  C   UNL A   1      37.128  22.239  25.219  1.00  0.00     0.018 A 
ATOM     11  C   UNL A   1      37.866  21.047  25.116  1.00  0.00     0.012 A 
ATOM     12  C   UNL A   1      37.755  23.286  25.917  1.00  0.00     0.131 A 
ATOM     13  C   UNL A   1      39.161  20.922  25.648  1.00  0.00     0.005 A 
ATOM     14  C   UNL A   1      39.067  23.190  26.391  1.00  0.00     0.044 A 
ATOM     15  F   UNL A   1      37.112  24.440  26.156  1.00  0.00    -0.206 F 
BRANCH  10  16
ATOM     16  C   UNL A   1      35.793  22.381  24.577  1.00  0.00    -0.012 A 
ATOM     17  C   UNL A   1      34.295  23.546  23.025  1.00  0.00     0.119 A 
ATOM     18  C   UNL A   1      33.277  22.635  23.276  1.00  0.00     0.046 A 
ATOM     19  C   UNL A   1      35.525  23.427  23.675  1.00  0.00     0.055 A 
ATOM     20  C   UNL A   1      33.508  21.586  24.162  1.00  0.00     0.004 A 
ATOM     21  C   UNL A   1      34.746  21.466  24.806  1.00  0.00     0.009 A 
BRANCH  17  22
ATOM     22  O   UNL A   1      34.026  24.620  22.223  1.00  0.00    -0.494 OA
BRANCH  22  23
ATOM     23  C   UNL A   1      33.111  25.550  22.816  1.00  0.00     0.226 C 
ATOM     24  C   UNL A   1      31.858  25.726  21.972  1.00  0.00     0.049 C 
ENDBRANCH  22  23
ENDBRANCH  17  22
ENDBRANCH  10  16
ENDBRANCH   7   9
ENDBRANCH   4   7
ENDBRANCH   2   3
ENDBRANCH   1   2
BRANCH   1  25
ATOM     25  C   UNL A   1      44.659  23.445  26.960  1.00  0.00     0.023 C 
BRANCH  25  26
ATOM     26  C   UNL A   1      44.490  24.843  26.374  1.00  0.00     0.116 C 
BRANCH  26  27
ATOM     27  N   UNL A   1      43.301  25.002  25.549  1.00  0.00    -0.352 N 
ATOM     28  C   UNL A   1      42.158  25.718  25.832  1.00  0.00     0.251 C 
ATOM     29  H   UNL A   1      43.314  24.540  24.680  1.00  0.00     0.163 HD
ATOM     30  O   UNL A   1      41.206  25.693  25.065  1.00  0.00    -0.269 OA
BRANCH  28  31
ATOM     31  C   UNL A   1      42.084  26.473  27.103  1.00  0.00     0.039 A 
ATOM     32  C   UNL A   1      42.759  27.691  27.205  1.00  0.00     0.014 A 
ATOM     33  C   UNL A   1      41.297  26.009  28.160  1.00  0.00     0.014 A 
ATOM     34  C   UNL A   1      42.576  28.486  28.338  1.00  0.00     0.010 A 
ATOM     35  C   UNL A   1      41.059  26.835  29.254  1.00  0.00     0.010 A 
ATOM     36  C   UNL A   1      41.691  28.084  29.352  1.00  0.00    -0.014 A 
BRANCH  36  37
ATOM     37  C   UNL A   1      41.402  28.956  30.517  1.00  0.00     0.031 A 
ATOM     38  C   UNL A   1      42.217  28.827  31.774  1.00  0.00     0.074 A 
ATOM     39  C   UNL A   1      40.354  29.804  30.473  1.00  0.00     0.049 A 
ATOM     40  N   UNL A   1      42.066  29.432  32.923  1.00  0.00    -0.248 NA
ATOM     41  C   UNL A   1      43.331  27.866  31.744  1.00  0.00     0.031 C 
ATOM     42  C   UNL A   1      39.447  29.973  29.334  1.00  0.00     0.029 A 
ATOM     43  N   UNL A   1      39.865  30.672  31.415  1.00  0.00    -0.354 N 
ATOM     44  C   UNL A   1      43.047  28.912  33.756  1.00  0.00     0.074 A 
ATOM     45  C   UNL A   1      43.756  27.905  32.998  1.00  0.00     0.031 C 
ATOM     46  C   UNL A   1      38.528  30.904  29.636  1.00  0.00     0.029 A 
ATOM     47  C   UNL A   1      38.758  31.375  30.999  1.00  0.00     0.049 A 
ATOM     48  H   UNL A   1      40.268  30.783  32.306  1.00  0.00     0.167 HD
ATOM     49  C   UNL A   1      43.346  29.259  35.032  1.00  0.00     0.037 A 
ATOM     50  C   UNL A   1      38.012  32.294  31.643  1.00  0.00     0.037 A 
ATOM     51  C   UNL A   1      42.663  30.288  35.768  1.00  0.00     0.049 A 
ATOM     52  C   UNL A   1      38.386  32.688  33.045  1.00  0.00     0.074 A 
ATOM     53  C   UNL A   1      42.933  30.762  37.040  1.00  0.00     0.029 A 
ATOM     54  N   UNL A   1      41.576  31.010  35.295  1.00  0.00    -0.354 N 
ATOM     55  N   UNL A   1      39.358  32.230  33.798  1.00  0.00    -0.248 NA
ATOM     56  C   UNL A   1      37.569  33.728  33.684  1.00  0.00     0.031 C 
ATOM     57  C   UNL A   1      41.992  31.750  37.347  1.00  0.00     0.029 A 
ATOM     58  C   UNL A   1      41.158  31.918  36.253  1.00  0.00     0.049 A 
ATOM     59  H   UNL A   1      41.164  30.893  34.409  1.00  0.00     0.167 HD
ATOM     60  C   UNL A   1      39.285  32.943  34.989  1.00  0.00     0.074 A 
ATOM     61  C   UNL A   1      38.179  33.870  34.853  1.00  0.00     0.031 C 
ATOM     62  C   UNL A   1      40.062  32.840  36.095  1.00  0.00     0.037 A 
BRANCH  49  63
ATOM     63  C   UNL A   1      44.472  28.522  35.703  1.00  0.00     0.058 A 
ATOM     64  C   UNL A   1      45.801  28.965  35.603  1.00  0.00     0.135 A 
ATOM     65  C   UNL A   1      44.221  27.373  36.468  1.00  0.00     0.135 A 
ATOM     66  F   UNL A   1      46.099  30.049  34.869  1.00  0.00    -0.206 F 
ATOM     67  C   UNL A   1      46.845  28.275  36.208  1.00  0.00     0.059 A 
ATOM     68  C   UNL A   1      45.247  26.681  37.106  1.00  0.00     0.059 A 
ATOM     69  F   UNL A   1      42.968  26.906  36.597  1.00  0.00    -0.206 F 
ATOM     70  C   UNL A   1      46.558  27.131  36.956  1.00  0.00     0.060 A 
BRANCH  70  71
ATOM     71  S   UNL A   1      47.924  26.241  37.730  1.00  0.00     0.124 S 
ATOM     72  O   UNL A   1      48.386  25.404  36.628  1.00  0.00    -0.237 OA
ATOM     73  O   UNL A   1      48.822  27.324  38.122  1.00  0.00    -0.237 OA
ATOM     74  O   UNL A   1      47.284  25.533  38.834  1.00  0.00    -0.744 OA
ENDBRANCH  70  71
ENDBRANCH  49  63
BRANCH  50  75
ATOM     75  C   UNL A   1      36.859  32.930  30.953  1.00  0.00     0.058 A 
ATOM     76  C   UNL A   1      35.542  32.584  31.290  1.00  0.00     0.135 A 
ATOM     77  C   UNL A   1      37.047  33.902  29.960  1.00  0.00     0.135 A 
ATOM     78  F   UNL A   1      35.312  31.655  32.230  1.00  0.00    -0.206 F 
ATOM     79  C   UNL A   1      34.450  33.169  30.657  1.00  0.00     0.059 A 
ATOM     80  C   UNL A   1      35.971  34.517  29.327  1.00  0.00     0.059 A 
ATOM     81  F   UNL A   1      38.288  34.279  29.615  1.00  0.00    -0.206 F 
ATOM     82  C   UNL A   1      34.676  34.137  29.676  1.00  0.00     0.060 A 
BRANCH  82  83
ATOM     83  S   UNL A   1      33.252  34.931  28.897  1.00  0.00     0.124 S 
ATOM     84  O   UNL A   1      32.381  35.160  30.043  1.00  0.00    -0.237 OA
ATOM     85  O   UNL A   1      33.852  36.122  28.302  1.00  0.00    -0.237 OA
ATOM     86  O   UNL A   1      32.793  33.928  27.942  1.00  0.00    -0.744 OA
ENDBRANCH  82  83
ENDBRANCH  50  75
BRANCH  62  87
ATOM     87  C   UNL A   1      39.766  33.772  37.234  1.00  0.00     0.058 A 
ATOM     88  C   UNL A   1      38.884  33.417  38.265  1.00  0.00     0.135 A 
ATOM     89  C   UNL A   1      40.416  35.014  37.322  1.00  0.00     0.135 A 
ATOM     90  F   UNL A   1      38.234  32.243  38.224  1.00  0.00    -0.206 F 
ATOM     91  C   UNL A   1      38.642  34.269  39.337  1.00  0.00     0.059 A 
ATOM     92  C   UNL A   1      40.205  35.872  38.396  1.00  0.00     0.059 A 
ATOM     93  F   UNL A   1      41.277  35.396  36.364  1.00  0.00    -0.206 F 
ATOM     94  C   UNL A   1      39.308  35.495  39.393  1.00  0.00     0.060 A 
BRANCH  94  95
ATOM     95  S   UNL A   1      39.014  36.578  40.808  1.00  0.00     0.124 S 
ATOM     96  O   UNL A   1      40.332  36.609  41.432  1.00  0.00    -0.237 OA
ATOM     97  O   UNL A   1      38.584  37.819  40.171  1.00  0.00    -0.237 OA
ATOM     98  O   UNL A   1      37.978  35.877  41.561  1.00  0.00    -0.744 OA
ENDBRANCH  94  95
ENDBRANCH  62  87
ENDBRANCH  36  37
ENDBRANCH  28  31
ENDBRANCH  26  27
ENDBRANCH  25  26
ENDBRANCH   1  25
TORSDOF 18
ENDMDL
