MODEL 1
REMARK VINA RESULT:     -11.3      0.000      0.000
REMARK SMILES CCc1ccc(N2C(=O)C[C@@H](SC[C@@H](NC(C)=O)C(=O)NCCCCNC(=O)c3ccc(-c4c5nc(c(-c6c(F)cc(S(=O)(=O)[O-])cc6F)c6ccc([nH]6)c(-c6c(F)cc(S(=O)(=O)[O-])cc6F)c6nc(c(-c7c(F)cc(S(=O)(=O)[O-])cc7F)c7ccc4[nH]7)C=C6)C=C5)cc3)C2=O)cc1
REMARK SMILES IDX 22 1 21 2 19 3 20 4 14 6 13 7 12 8 11 9 7 10 8 11 95 12 9 13
REMARK SMILES IDX 10 14 96 15 6 16 3 17 4 18 98 19 5 20 97 21 2 22 1 23 15 24
REMARK SMILES IDX 16 25 17 27 18 28 23 29 24 30 25 31 26 32 27 33 28 35 29 36
REMARK SMILES IDX 30 37 94 38 31 39 93 40 32 41 33 42 34 43 87 44 35 45 92 46
REMARK SMILES IDX 86 47 88 48 36 49 91 50 85 51 84 52 37 54 71 55 50 56 70 57
REMARK SMILES IDX 51 58 54 59 69 60 89 61 52 62 53 63 68 65 90 66 55 67 38 68
REMARK SMILES IDX 39 69 48 70 40 71 41 72 47 73 49 74 42 75 43 76 44 77 45 78
REMARK SMILES IDX 46 79 72 80 73 81 82 82 74 83 75 84 81 85 83 86 76 87 77 88
REMARK SMILES IDX 78 89 79 90 80 91 56 92 57 93 66 94 58 95 59 96 65 97 67 98
REMARK SMILES IDX 60 99 61 100 62 101 63 102 64 103
REMARK H PARENT 21 5 15 26 26 34 88 53 54 64
REMARK Flexibility Score: inf
ROOT
ATOM      1  C   UNL A   1      38.015  23.647  26.073  1.00  0.00     0.116 C 
ENDROOT
BRANCH   1   2
ATOM      2  N   UNL A   1      37.649  23.510  24.678  1.00  0.00    -0.354 N 
ATOM      3  C   UNL A   1      36.424  23.364  24.095  1.00  0.00     0.243 C 
ATOM      4  O   UNL A   1      36.393  23.119  22.885  1.00  0.00    -0.273 OA
ATOM      5  H   UNL A   1      38.407  23.525  24.048  1.00  0.00     0.163 HD
BRANCH   3   6
ATOM      6  C   UNL A   1      35.125  23.279  24.936  1.00  0.00     0.181 C 
BRANCH   6   7
ATOM      7  C   UNL A   1      34.430  24.655  24.714  1.00  0.00     0.105 C 
BRANCH   7   8
ATOM      8  S   UNL A   1      32.933  25.106  25.677  1.00  0.00    -0.145 SA
BRANCH   8   9
ATOM      9  C   UNL A   1      31.603  24.770  24.462  1.00  0.00     0.146 C 
ATOM     10  N   UNL A   1      30.583  26.650  23.508  1.00  0.00    -0.250 N 
ATOM     11  C   UNL A   1      31.289  26.075  22.483  1.00  0.00     0.235 C 
ATOM     12  C   UNL A   1      30.589  25.873  24.635  1.00  0.00     0.247 C 
ATOM     13  O   UNL A   1      31.362  26.432  21.315  1.00  0.00    -0.274 OA
ATOM     14  C   UNL A   1      32.015  24.869  23.007  1.00  0.00     0.125 C 
ATOM     15  O   UNL A   1      29.881  25.965  25.633  1.00  0.00    -0.273 OA
BRANCH  10  16
ATOM     16  C   UNL A   1      29.904  27.883  23.413  1.00  0.00     0.052 A 
ATOM     17  C   UNL A   1      28.469  30.313  23.344  1.00  0.00    -0.048 A 
ATOM     18  C   UNL A   1      27.835  29.103  23.038  1.00  0.00     0.006 A 
ATOM     19  C   UNL A   1      29.828  30.293  23.684  1.00  0.00     0.006 A 
ATOM     20  C   UNL A   1      28.552  27.903  23.045  1.00  0.00     0.027 A 
ATOM     21  C   UNL A   1      30.533  29.087  23.742  1.00  0.00     0.027 A 
BRANCH  17  22
ATOM     22  C   UNL A   1      27.690  31.606  23.343  1.00  0.00     0.032 C 
ATOM     23  C   UNL A   1      28.516  32.800  22.887  1.00  0.00     0.009 C 
ENDBRANCH  17  22
ENDBRANCH  10  16
ENDBRANCH   8   9
ENDBRANCH   7   8
ENDBRANCH   6   7
BRANCH   6  24
ATOM     24  N   UNL A   1      34.247  22.133  24.660  1.00  0.00    -0.344 N 
ATOM     25  C   UNL A   1      34.594  20.823  24.912  1.00  0.00     0.217 C 
ATOM     26  H   UNL A   1      33.360  22.311  24.271  1.00  0.00     0.164 HD
ATOM     27  C   UNL A   1      33.535  19.832  24.501  1.00  0.00     0.114 C 
ATOM     28  O   UNL A   1      35.686  20.460  25.326  1.00  0.00    -0.275 OA
ENDBRANCH   6  24
ENDBRANCH   3   6
ENDBRANCH   1   2
BRANCH   1  29
ATOM     29  C   UNL A   1      39.353  22.965  26.357  1.00  0.00     0.023 C 
BRANCH  29  30
ATOM     30  C   UNL A   1      39.408  21.490  25.959  1.00  0.00     0.023 C 
BRANCH  30  31
ATOM     31  C   UNL A   1      40.060  20.570  26.988  1.00  0.00     0.116 C 
BRANCH  31  32
ATOM     32  N   UNL A   1      40.940  19.580  26.380  1.00  0.00    -0.352 N 
ATOM     33  C   UNL A   1      42.211  19.751  25.887  1.00  0.00     0.251 C 
ATOM     34  H   UNL A   1      40.575  18.668  26.314  1.00  0.00     0.163 HD
ATOM     35  O   UNL A   1      42.768  18.839  25.283  1.00  0.00    -0.269 OA
BRANCH  33  36
ATOM     36  C   UNL A   1      42.881  21.054  26.066  1.00  0.00     0.039 A 
ATOM     37  C   UNL A   1      43.035  21.895  24.962  1.00  0.00     0.014 A 
ATOM     38  C   UNL A   1      43.300  21.463  27.336  1.00  0.00     0.014 A 
ATOM     39  C   UNL A   1      43.535  23.186  25.146  1.00  0.00     0.010 A 
ATOM     40  C   UNL A   1      43.738  22.768  27.526  1.00  0.00     0.010 A 
ATOM     41  C   UNL A   1      43.848  23.646  26.436  1.00  0.00    -0.014 A 
BRANCH  41  42
ATOM     42  C   UNL A   1      44.256  25.052  26.678  1.00  0.00     0.031 A 
ATOM     43  C   UNL A   1      45.692  25.462  26.505  1.00  0.00     0.074 A 
ATOM     44  C   UNL A   1      43.351  25.935  27.148  1.00  0.00     0.049 A 
ATOM     45  N   UNL A   1      46.262  26.607  26.775  1.00  0.00    -0.248 NA
ATOM     46  C   UNL A   1      46.613  24.439  25.985  1.00  0.00     0.031 C 
ATOM     47  C   UNL A   1      41.940  25.640  27.414  1.00  0.00     0.029 A 
ATOM     48  N   UNL A   1      43.486  27.251  27.510  1.00  0.00    -0.354 N 
ATOM     49  C   UNL A   1      47.609  26.438  26.483  1.00  0.00     0.074 A 
ATOM     50  C   UNL A   1      47.779  25.069  26.047  1.00  0.00     0.031 C 
ATOM     51  C   UNL A   1      41.342  26.744  27.891  1.00  0.00     0.029 A 
ATOM     52  C   UNL A   1      42.330  27.812  27.999  1.00  0.00     0.049 A 
ATOM     53  H   UNL A   1      44.333  27.748  27.427  1.00  0.00     0.167 HD
ATOM     54  C   UNL A   1      48.609  27.347  26.554  1.00  0.00     0.037 A 
ATOM     55  C   UNL A   1      42.095  29.043  28.496  1.00  0.00     0.037 A 
ATOM     56  C   UNL A   1      48.428  28.718  26.955  1.00  0.00     0.049 A 
ATOM     57  C   UNL A   1      43.220  30.040  28.545  1.00  0.00     0.074 A 
ATOM     58  C   UNL A   1      49.363  29.738  26.979  1.00  0.00     0.029 A 
ATOM     59  N   UNL A   1      47.232  29.261  27.403  1.00  0.00    -0.354 N 
ATOM     60  N   UNL A   1      44.474  29.886  28.191  1.00  0.00    -0.248 NA
ATOM     61  C   UNL A   1      42.898  31.380  29.058  1.00  0.00     0.031 C 
ATOM     62  C   UNL A   1      48.742  30.888  27.478  1.00  0.00     0.029 A 
ATOM     63  C   UNL A   1      47.411  30.596  27.727  1.00  0.00     0.049 A 
ATOM     64  H   UNL A   1      46.382  28.770  27.480  1.00  0.00     0.167 HD
ATOM     65  C   UNL A   1      45.086  31.112  28.421  1.00  0.00     0.074 A 
ATOM     66  C   UNL A   1      44.063  32.003  28.929  1.00  0.00     0.031 C 
ATOM     67  C   UNL A   1      46.380  31.470  28.228  1.00  0.00     0.037 A 
BRANCH  54  68
ATOM     68  C   UNL A   1      49.993  26.894  26.185  1.00  0.00     0.058 A 
ATOM     69  C   UNL A   1      50.475  26.998  24.870  1.00  0.00     0.135 A 
ATOM     70  C   UNL A   1      50.863  26.388  27.163  1.00  0.00     0.135 A 
ATOM     71  F   UNL A   1      49.679  27.461  23.894  1.00  0.00    -0.206 F 
ATOM     72  C   UNL A   1      51.764  26.597  24.534  1.00  0.00     0.059 A 
ATOM     73  C   UNL A   1      52.165  26.003  26.856  1.00  0.00     0.059 A 
ATOM     74  F   UNL A   1      50.452  26.264  28.435  1.00  0.00    -0.206 F 
ATOM     75  C   UNL A   1      52.601  26.100  25.535  1.00  0.00     0.060 A 
BRANCH  75  76
ATOM     76  S   UNL A   1      54.275  25.596  25.085  1.00  0.00     0.124 S 
ATOM     77  O   UNL A   1      54.133  24.145  25.015  1.00  0.00    -0.237 OA
ATOM     78  O   UNL A   1      54.474  26.274  23.808  1.00  0.00    -0.237 OA
ATOM     79  O   UNL A   1      55.089  26.094  26.190  1.00  0.00    -0.744 OA
ENDBRANCH  75  76
ENDBRANCH  54  68
BRANCH  55  80
ATOM     80  C   UNL A   1      40.737  29.402  28.980  1.00  0.00     0.058 A 
ATOM     81  C   UNL A   1      40.468  29.522  30.351  1.00  0.00     0.135 A 
ATOM     82  C   UNL A   1      39.685  29.645  28.082  1.00  0.00     0.135 A 
ATOM     83  F   UNL A   1      41.441  29.295  31.247  1.00  0.00    -0.206 F 
ATOM     84  C   UNL A   1      39.200  29.851  30.819  1.00  0.00     0.059 A 
ATOM     85  C   UNL A   1      38.414  29.997  28.525  1.00  0.00     0.059 A 
ATOM     86  F   UNL A   1      39.896  29.560  26.760  1.00  0.00    -0.206 F 
ATOM     87  C   UNL A   1      38.178  30.087  29.897  1.00  0.00     0.060 A 
BRANCH  87  88
ATOM     88  S   UNL A   1      36.547  30.561  30.510  1.00  0.00     0.124 S 
ATOM     89  O   UNL A   1      36.809  31.897  31.036  1.00  0.00    -0.237 OA
ATOM     90  O   UNL A   1      35.733  30.499  29.300  1.00  0.00    -0.237 OA
ATOM     91  O   UNL A   1      36.253  29.535  31.505  1.00  0.00    -0.744 OA
ENDBRANCH  87  88
ENDBRANCH  55  80
BRANCH  67  92
ATOM     92  C   UNL A   1      46.759  32.887  28.547  1.00  0.00     0.058 A 
ATOM     93  C   UNL A   1      47.239  33.252  29.814  1.00  0.00     0.135 A 
ATOM     94  C   UNL A   1      46.691  33.882  27.558  1.00  0.00     0.135 A 
ATOM     95  F   UNL A   1      47.315  32.340  30.795  1.00  0.00    -0.206 F 
ATOM     96  C   UNL A   1      47.621  34.560  30.095  1.00  0.00     0.059 A 
ATOM     97  C   UNL A   1      47.091  35.190  27.810  1.00  0.00     0.059 A 
ATOM     98  F   UNL A   1      46.247  33.581  26.326  1.00  0.00    -0.206 F 
ATOM     99  C   UNL A   1      47.545  35.522  29.087  1.00  0.00     0.060 A 
BRANCH  99 100
ATOM    100  S   UNL A   1      48.079  37.207  29.452  1.00  0.00     0.124 S 
ATOM    101  O   UNL A   1      47.131  37.596  30.491  1.00  0.00    -0.237 OA
ATOM    102  O   UNL A   1      49.457  37.012  29.892  1.00  0.00    -0.237 OA
ATOM    103  O   UNL A   1      47.928  37.895  28.174  1.00  0.00    -0.744 OA
ENDBRANCH  99 100
ENDBRANCH  67  92
ENDBRANCH  41  42
ENDBRANCH  33  36
ENDBRANCH  31  32
ENDBRANCH  30  31
ENDBRANCH  29  30
ENDBRANCH   1  29
TORSDOF 20
ENDMDL
MODEL 2
REMARK VINA RESULT:     -11.0      1.193      2.062
REMARK SMILES CCc1ccc(N2C(=O)C[C@@H](SC[C@@H](NC(C)=O)C(=O)NCCCCNC(=O)c3ccc(-c4c5nc(c(-c6c(F)cc(S(=O)(=O)[O-])cc6F)c6ccc([nH]6)c(-c6c(F)cc(S(=O)(=O)[O-])cc6F)c6nc(c(-c7c(F)cc(S(=O)(=O)[O-])cc7F)c7ccc4[nH]7)C=C6)C=C5)cc3)C2=O)cc1
REMARK SMILES IDX 22 1 21 2 19 3 20 4 14 6 13 7 12 8 11 9 7 10 8 11 95 12 9 13
REMARK SMILES IDX 10 14 96 15 6 16 3 17 4 18 98 19 5 20 97 21 2 22 1 23 15 24
REMARK SMILES IDX 16 25 17 27 18 28 23 29 24 30 25 31 26 32 27 33 28 35 29 36
REMARK SMILES IDX 30 37 94 38 31 39 93 40 32 41 33 42 34 43 87 44 35 45 92 46
REMARK SMILES IDX 86 47 88 48 36 49 91 50 85 51 84 52 37 54 71 55 50 56 70 57
REMARK SMILES IDX 51 58 54 59 69 60 89 61 52 62 53 63 68 65 90 66 55 67 38 68
REMARK SMILES IDX 39 69 48 70 40 71 41 72 47 73 49 74 42 75 43 76 44 77 45 78
REMARK SMILES IDX 46 79 72 80 73 81 82 82 74 83 75 84 81 85 83 86 76 87 77 88
REMARK SMILES IDX 78 89 79 90 80 91 56 92 57 93 66 94 58 95 59 96 65 97 67 98
REMARK SMILES IDX 60 99 61 100 62 101 63 102 64 103
REMARK H PARENT 21 5 15 26 26 34 88 53 54 64
REMARK Flexibility Score: inf
ROOT
ATOM      1  C   UNL A   1      37.751  23.217  26.014  1.00  0.00     0.116 C 
ENDROOT
BRANCH   1   2
ATOM      2  N   UNL A   1      37.574  23.241  24.576  1.00  0.00    -0.354 N 
ATOM      3  C   UNL A   1      36.461  23.016  23.819  1.00  0.00     0.243 C 
ATOM      4  O   UNL A   1      36.608  22.953  22.594  1.00  0.00    -0.273 OA
ATOM      5  H   UNL A   1      38.387  23.455  24.063  1.00  0.00     0.163 HD
BRANCH   3   6
ATOM      6  C   UNL A   1      35.104  22.628  24.457  1.00  0.00     0.181 C 
BRANCH   6   7
ATOM      7  C   UNL A   1      34.096  23.668  23.885  1.00  0.00     0.105 C 
BRANCH   7   8
ATOM      8  S   UNL A   1      32.398  23.154  23.413  1.00  0.00    -0.145 SA
BRANCH   8   9
ATOM      9  C   UNL A   1      31.842  24.594  22.426  1.00  0.00     0.146 C 
ATOM     10  N   UNL A   1      32.271  26.703  23.351  1.00  0.00    -0.250 N 
ATOM     11  C   UNL A   1      33.099  26.623  22.261  1.00  0.00     0.235 C 
ATOM     12  C   UNL A   1      31.408  25.642  23.420  1.00  0.00     0.247 C 
ATOM     13  O   UNL A   1      33.877  27.464  21.834  1.00  0.00    -0.274 OA
ATOM     14  C   UNL A   1      32.923  25.279  21.613  1.00  0.00     0.125 C 
ATOM     15  O   UNL A   1      30.401  25.517  24.110  1.00  0.00    -0.273 OA
BRANCH  10  16
ATOM     16  C   UNL A   1      32.279  27.764  24.281  1.00  0.00     0.052 A 
ATOM     17  C   UNL A   1      32.425  29.928  26.087  1.00  0.00    -0.048 A 
ATOM     18  C   UNL A   1      33.272  28.823  26.231  1.00  0.00     0.006 A 
ATOM     19  C   UNL A   1      31.505  29.937  25.031  1.00  0.00     0.006 A 
ATOM     20  C   UNL A   1      33.181  27.738  25.353  1.00  0.00     0.027 A 
ATOM     21  C   UNL A   1      31.449  28.877  24.121  1.00  0.00     0.027 A 
BRANCH  17  22
ATOM     22  C   UNL A   1      32.532  31.101  27.032  1.00  0.00     0.032 C 
ATOM     23  C   UNL A   1      31.403  32.107  26.864  1.00  0.00     0.009 C 
ENDBRANCH  17  22
ENDBRANCH  10  16
ENDBRANCH   8   9
ENDBRANCH   7   8
ENDBRANCH   6   7
BRANCH   6  24
ATOM     24  N   UNL A   1      34.672  21.235  24.267  1.00  0.00    -0.344 N 
ATOM     25  C   UNL A   1      33.957  20.520  25.204  1.00  0.00     0.217 C 
ATOM     26  H   UNL A   1      34.908  20.788  23.423  1.00  0.00     0.164 HD
ATOM     27  C   UNL A   1      33.673  19.100  24.785  1.00  0.00     0.114 C 
ATOM     28  O   UNL A   1      33.662  20.932  26.317  1.00  0.00    -0.275 OA
ENDBRANCH   6  24
ENDBRANCH   3   6
ENDBRANCH   1   2
BRANCH   1  29
ATOM     29  C   UNL A   1      39.144  22.710  26.385  1.00  0.00     0.023 C 
BRANCH  29  30
ATOM     30  C   UNL A   1      39.465  21.307  25.867  1.00  0.00     0.023 C 
BRANCH  30  31
ATOM     31  C   UNL A   1      39.973  20.331  26.924  1.00  0.00     0.116 C 
BRANCH  31  32
ATOM     32  N   UNL A   1      40.878  19.330  26.376  1.00  0.00    -0.352 N 
ATOM     33  C   UNL A   1      42.170  19.491  25.935  1.00  0.00     0.251 C 
ATOM     34  H   UNL A   1      40.517  18.416  26.313  1.00  0.00     0.163 HD
ATOM     35  O   UNL A   1      42.752  18.567  25.375  1.00  0.00    -0.269 OA
BRANCH  33  36
ATOM     36  C   UNL A   1      42.832  20.798  26.116  1.00  0.00     0.039 A 
ATOM     37  C   UNL A   1      43.171  21.548  24.988  1.00  0.00     0.014 A 
ATOM     38  C   UNL A   1      43.058  21.301  27.400  1.00  0.00     0.014 A 
ATOM     39  C   UNL A   1      43.663  22.846  25.149  1.00  0.00     0.010 A 
ATOM     40  C   UNL A   1      43.490  22.614  27.556  1.00  0.00     0.010 A 
ATOM     41  C   UNL A   1      43.784  23.403  26.433  1.00  0.00    -0.014 A 
BRANCH  41  42
ATOM     42  C   UNL A   1      44.179  24.820  26.627  1.00  0.00     0.031 A 
ATOM     43  C   UNL A   1      45.618  25.229  26.478  1.00  0.00     0.074 A 
ATOM     44  C   UNL A   1      43.258  25.716  27.035  1.00  0.00     0.049 A 
ATOM     45  N   UNL A   1      46.175  26.387  26.716  1.00  0.00    -0.248 NA
ATOM     46  C   UNL A   1      46.558  24.190  26.027  1.00  0.00     0.031 C 
ATOM     47  C   UNL A   1      41.841  25.425  27.273  1.00  0.00     0.029 A 
ATOM     48  N   UNL A   1      43.377  27.047  27.346  1.00  0.00    -0.354 N 
ATOM     49  C   UNL A   1      47.531  26.213  26.468  1.00  0.00     0.074 A 
ATOM     50  C   UNL A   1      47.718  24.828  26.095  1.00  0.00     0.031 C 
ATOM     51  C   UNL A   1      41.225  26.545  27.687  1.00  0.00     0.029 A 
ATOM     52  C   UNL A   1      42.205  27.622  27.779  1.00  0.00     0.049 A 
ATOM     53  H   UNL A   1      44.224  27.544  27.266  1.00  0.00     0.167 HD
ATOM     54  C   UNL A   1      48.525  27.130  26.530  1.00  0.00     0.037 A 
ATOM     55  C   UNL A   1      41.951  28.870  28.217  1.00  0.00     0.037 A 
ATOM     56  C   UNL A   1      48.327  28.516  26.868  1.00  0.00     0.049 A 
ATOM     57  C   UNL A   1      43.070  29.875  28.256  1.00  0.00     0.074 A 
ATOM     58  C   UNL A   1      49.256  29.541  26.876  1.00  0.00     0.029 A 
ATOM     59  N   UNL A   1      47.117  29.070  27.260  1.00  0.00    -0.354 N 
ATOM     60  N   UNL A   1      44.334  29.713  27.944  1.00  0.00    -0.248 NA
ATOM     61  C   UNL A   1      42.729  31.233  28.703  1.00  0.00     0.031 C 
ATOM     62  C   UNL A   1      48.617  30.707  27.309  1.00  0.00     0.029 A 
ATOM     63  C   UNL A   1      47.281  30.418  27.533  1.00  0.00     0.049 A 
ATOM     64  H   UNL A   1      46.267  28.579  27.333  1.00  0.00     0.167 HD
ATOM     65  C   UNL A   1      44.935  30.951  28.139  1.00  0.00     0.074 A 
ATOM     66  C   UNL A   1      43.894  31.856  28.581  1.00  0.00     0.031 C 
ATOM     67  C   UNL A   1      46.232  31.307  27.968  1.00  0.00     0.037 A 
BRANCH  54  68
ATOM     68  C   UNL A   1      49.920  26.669  26.218  1.00  0.00     0.058 A 
ATOM     69  C   UNL A   1      50.727  26.057  27.191  1.00  0.00     0.135 A 
ATOM     70  C   UNL A   1      50.444  26.801  24.922  1.00  0.00     0.135 A 
ATOM     71  F   UNL A   1      50.281  25.920  28.450  1.00  0.00    -0.206 F 
ATOM     72  C   UNL A   1      52.011  25.611  26.895  1.00  0.00     0.059 A 
ATOM     73  C   UNL A   1      51.716  26.341  24.597  1.00  0.00     0.059 A 
ATOM     74  F   UNL A   1      49.715  27.381  23.955  1.00  0.00    -0.206 F 
ATOM     75  C   UNL A   1      52.497  25.759  25.595  1.00  0.00     0.060 A 
BRANCH  75  76
ATOM     76  S   UNL A   1      54.160  25.164  25.224  1.00  0.00     0.124 S 
ATOM     77  O   UNL A   1      54.488  25.940  24.033  1.00  0.00    -0.237 OA
ATOM     78  O   UNL A   1      54.897  25.519  26.434  1.00  0.00    -0.237 OA
ATOM     79  O   UNL A   1      53.969  23.733  25.008  1.00  0.00    -0.744 OA
ENDBRANCH  75  76
ENDBRANCH  54  68
BRANCH  55  80
ATOM     80  C   UNL A   1      40.579  29.243  28.647  1.00  0.00     0.058 A 
ATOM     81  C   UNL A   1      39.560  29.449  27.707  1.00  0.00     0.135 A 
ATOM     82  C   UNL A   1      40.256  29.388  30.006  1.00  0.00     0.135 A 
ATOM     83  F   UNL A   1      39.822  29.327  26.396  1.00  0.00    -0.206 F 
ATOM     84  C   UNL A   1      38.272  29.805  28.094  1.00  0.00     0.059 A 
ATOM     85  C   UNL A   1      38.971  29.721  30.419  1.00  0.00     0.059 A 
ATOM     86  F   UNL A   1      41.192  29.183  30.945  1.00  0.00    -0.206 F 
ATOM     87  C   UNL A   1      37.986  29.938  29.455  1.00  0.00     0.060 A 
BRANCH  87  88
ATOM     88  S   UNL A   1      36.301  30.352  29.952  1.00  0.00     0.124 S 
ATOM     89  O   UNL A   1      36.097  29.448  31.078  1.00  0.00    -0.237 OA
ATOM     90  O   UNL A   1      36.417  31.770  30.283  1.00  0.00    -0.237 OA
ATOM     91  O   UNL A   1      35.518  30.061  28.755  1.00  0.00    -0.744 OA
ENDBRANCH  87  88
ENDBRANCH  55  80
BRANCH  67  92
ATOM     92  C   UNL A   1      46.597  32.738  28.238  1.00  0.00     0.058 A 
ATOM     93  C   UNL A   1      47.088  33.148  29.487  1.00  0.00     0.135 A 
ATOM     94  C   UNL A   1      46.502  33.701  27.220  1.00  0.00     0.135 A 
ATOM     95  F   UNL A   1      47.190  32.268  30.494  1.00  0.00    -0.206 F 
ATOM     96  C   UNL A   1      47.457  34.469  29.723  1.00  0.00     0.059 A 
ATOM     97  C   UNL A   1      46.888  35.021  27.427  1.00  0.00     0.059 A 
ATOM     98  F   UNL A   1      46.046  33.357  26.004  1.00  0.00    -0.206 F 
ATOM     99  C   UNL A   1      47.354  35.398  28.686  1.00  0.00     0.060 A 
BRANCH  99 100
ATOM    100  S   UNL A   1      47.870  37.101  28.992  1.00  0.00     0.124 S 
ATOM    101  O   UNL A   1      49.298  37.032  28.699  1.00  0.00    -0.237 OA
ATOM    102  O   UNL A   1      47.061  37.850  28.036  1.00  0.00    -0.237 OA
ATOM    103  O   UNL A   1      47.526  37.311  30.395  1.00  0.00    -0.744 OA
ENDBRANCH  99 100
ENDBRANCH  67  92
ENDBRANCH  41  42
ENDBRANCH  33  36
ENDBRANCH  31  32
ENDBRANCH  30  31
ENDBRANCH  29  30
ENDBRANCH   1  29
TORSDOF 20
ENDMDL
MODEL 3
REMARK VINA RESULT:     -10.1      5.240     12.119
REMARK SMILES CCc1ccc(N2C(=O)C[C@@H](SC[C@@H](NC(C)=O)C(=O)NCCCCNC(=O)c3ccc(-c4c5nc(c(-c6c(F)cc(S(=O)(=O)[O-])cc6F)c6ccc([nH]6)c(-c6c(F)cc(S(=O)(=O)[O-])cc6F)c6nc(c(-c7c(F)cc(S(=O)(=O)[O-])cc7F)c7ccc4[nH]7)C=C6)C=C5)cc3)C2=O)cc1
REMARK SMILES IDX 22 1 21 2 19 3 20 4 14 6 13 7 12 8 11 9 7 10 8 11 95 12 9 13
REMARK SMILES IDX 10 14 96 15 6 16 3 17 4 18 98 19 5 20 97 21 2 22 1 23 15 24
REMARK SMILES IDX 16 25 17 27 18 28 23 29 24 30 25 31 26 32 27 33 28 35 29 36
REMARK SMILES IDX 30 37 94 38 31 39 93 40 32 41 33 42 34 43 87 44 35 45 92 46
REMARK SMILES IDX 86 47 88 48 36 49 91 50 85 51 84 52 37 54 71 55 50 56 70 57
REMARK SMILES IDX 51 58 54 59 69 60 89 61 52 62 53 63 68 65 90 66 55 67 38 68
REMARK SMILES IDX 39 69 48 70 40 71 41 72 47 73 49 74 42 75 43 76 44 77 45 78
REMARK SMILES IDX 46 79 72 80 73 81 82 82 74 83 75 84 81 85 83 86 76 87 77 88
REMARK SMILES IDX 78 89 79 90 80 91 56 92 57 93 66 94 58 95 59 96 65 97 67 98
REMARK SMILES IDX 60 99 61 100 62 101 63 102 64 103
REMARK H PARENT 21 5 15 26 26 34 88 53 54 64
REMARK Flexibility Score: inf
ROOT
ATOM      1  C   UNL A   1      39.433  33.752  32.884  1.00  0.00     0.116 C 
ENDROOT
BRANCH   1   2
ATOM      2  N   UNL A   1      39.482  34.952  33.695  1.00  0.00    -0.354 N 
ATOM      3  C   UNL A   1      39.881  35.130  34.988  1.00  0.00     0.243 C 
ATOM      4  O   UNL A   1      39.687  36.238  35.497  1.00  0.00    -0.273 OA
ATOM      5  H   UNL A   1      39.180  35.771  33.240  1.00  0.00     0.163 HD
BRANCH   3   6
ATOM      6  C   UNL A   1      40.349  33.943  35.868  1.00  0.00     0.181 C 
BRANCH   6   7
ATOM      7  C   UNL A   1      41.798  34.324  36.291  1.00  0.00     0.105 C 
BRANCH   7   8
ATOM      8  S   UNL A   1      43.238  33.444  35.568  1.00  0.00    -0.145 SA
BRANCH   8   9
ATOM      9  C   UNL A   1      44.239  34.841  34.931  1.00  0.00     0.146 C 
ATOM     10  N   UNL A   1      43.552  35.750  32.885  1.00  0.00    -0.250 N 
ATOM     11  C   UNL A   1      43.280  36.724  33.811  1.00  0.00     0.235 C 
ATOM     12  C   UNL A   1      44.245  34.703  33.430  1.00  0.00     0.247 C 
ATOM     13  O   UNL A   1      42.809  37.838  33.628  1.00  0.00    -0.274 OA
ATOM     14  C   UNL A   1      43.655  36.218  35.175  1.00  0.00     0.125 C 
ATOM     15  O   UNL A   1      44.842  33.797  32.855  1.00  0.00    -0.273 OA
BRANCH  10  16
ATOM     16  C   UNL A   1      43.189  35.823  31.524  1.00  0.00     0.052 A 
ATOM     17  C   UNL A   1      42.584  35.890  28.768  1.00  0.00    -0.048 A 
ATOM     18  C   UNL A   1      43.657  36.630  29.279  1.00  0.00     0.006 A 
ATOM     19  C   UNL A   1      41.818  35.117  29.650  1.00  0.00     0.006 A 
ATOM     20  C   UNL A   1      43.940  36.619  30.648  1.00  0.00     0.027 A 
ATOM     21  C   UNL A   1      42.133  35.064  31.012  1.00  0.00     0.027 A 
BRANCH  17  22
ATOM     22  C   UNL A   1      42.287  35.898  27.288  1.00  0.00     0.032 C 
ATOM     23  C   UNL A   1      43.173  34.947  26.496  1.00  0.00     0.009 C 
ENDBRANCH  17  22
ENDBRANCH  10  16
ENDBRANCH   8   9
ENDBRANCH   7   8
ENDBRANCH   6   7
BRANCH   6  24
ATOM     24  N   UNL A   1      39.484  33.599  37.006  1.00  0.00    -0.344 N 
ATOM     25  C   UNL A   1      38.117  33.443  36.910  1.00  0.00     0.217 C 
ATOM     26  H   UNL A   1      39.904  33.473  37.887  1.00  0.00     0.164 HD
ATOM     27  C   UNL A   1      37.455  33.130  38.228  1.00  0.00     0.114 C 
ATOM     28  O   UNL A   1      37.465  33.638  35.894  1.00  0.00    -0.275 OA
ENDBRANCH   6  24
ENDBRANCH   3   6
ENDBRANCH   1   2
BRANCH   1  29
ATOM     29  C   UNL A   1      38.752  34.025  31.544  1.00  0.00     0.023 C 
BRANCH  29  30
ATOM     30  C   UNL A   1      37.228  33.903  31.572  1.00  0.00     0.023 C 
BRANCH  30  31
ATOM     31  C   UNL A   1      36.630  33.050  30.457  1.00  0.00     0.116 C 
BRANCH  31  32
ATOM     32  N   UNL A   1      36.058  31.804  30.949  1.00  0.00    -0.352 N 
ATOM     33  C   UNL A   1      36.612  30.546  30.949  1.00  0.00     0.251 C 
ATOM     34  H   UNL A   1      35.153  31.871  31.333  1.00  0.00     0.163 HD
ATOM     35  O   UNL A   1      35.941  29.574  31.279  1.00  0.00    -0.269 OA
BRANCH  33  36
ATOM     36  C   UNL A   1      38.013  30.380  30.513  1.00  0.00     0.039 A 
ATOM     37  C   UNL A   1      39.019  30.298  31.478  1.00  0.00     0.014 A 
ATOM     38  C   UNL A   1      38.317  30.246  29.155  1.00  0.00     0.014 A 
ATOM     39  C   UNL A   1      40.325  29.997  31.084  1.00  0.00     0.010 A 
ATOM     40  C   UNL A   1      39.604  29.885  28.772  1.00  0.00     0.010 A 
ATOM     41  C   UNL A   1      40.617  29.744  29.734  1.00  0.00    -0.014 A 
BRANCH  41  42
ATOM     42  C   UNL A   1      41.965  29.295  29.304  1.00  0.00     0.031 A 
ATOM     43  C   UNL A   1      43.093  30.284  29.202  1.00  0.00     0.074 A 
ATOM     44  C   UNL A   1      42.145  28.017  28.913  1.00  0.00     0.049 A 
ATOM     45  N   UNL A   1      44.304  30.109  28.741  1.00  0.00    -0.248 NA
ATOM     46  C   UNL A   1      42.812  31.657  29.652  1.00  0.00     0.031 C 
ATOM     47  C   UNL A   1      41.111  26.979  28.911  1.00  0.00     0.029 A 
ATOM     48  N   UNL A   1      43.255  27.379  28.419  1.00  0.00    -0.354 N 
ATOM     49  C   UNL A   1      44.922  31.351  28.822  1.00  0.00     0.074 A 
ATOM     50  C   UNL A   1      43.942  32.279  29.343  1.00  0.00     0.031 C 
ATOM     51  C   UNL A   1      41.637  25.835  28.442  1.00  0.00     0.029 A 
ATOM     52  C   UNL A   1      43.031  26.065  28.079  1.00  0.00     0.049 A 
ATOM     53  H   UNL A   1      44.129  27.821  28.317  1.00  0.00     0.167 HD
ATOM     54  C   UNL A   1      46.197  31.681  28.507  1.00  0.00     0.037 A 
ATOM     55  C   UNL A   1      43.851  25.153  27.521  1.00  0.00     0.037 A 
ATOM     56  C   UNL A   1      47.178  30.746  28.021  1.00  0.00     0.049 A 
ATOM     57  C   UNL A   1      45.268  25.541  27.199  1.00  0.00     0.074 A 
ATOM     58  C   UNL A   1      48.517  30.965  27.753  1.00  0.00     0.029 A 
ATOM     59  N   UNL A   1      46.925  29.413  27.730  1.00  0.00    -0.354 N 
ATOM     60  N   UNL A   1      45.860  26.702  27.354  1.00  0.00    -0.248 NA
ATOM     61  C   UNL A   1      46.131  24.496  26.630  1.00  0.00     0.031 C 
ATOM     62  C   UNL A   1      49.066  29.775  27.263  1.00  0.00     0.029 A 
ATOM     63  C   UNL A   1      48.079  28.804  27.264  1.00  0.00     0.049 A 
ATOM     64  H   UNL A   1      46.055  28.965  27.838  1.00  0.00     0.167 HD
ATOM     65  C   UNL A   1      47.168  26.523  26.919  1.00  0.00     0.074 A 
ATOM     66  C   UNL A   1      47.286  25.138  26.510  1.00  0.00     0.031 C 
ATOM     67  C   UNL A   1      48.180  27.423  26.864  1.00  0.00     0.037 A 
BRANCH  54  68
ATOM     68  C   UNL A   1      46.610  33.115  28.682  1.00  0.00     0.058 A 
ATOM     69  C   UNL A   1      46.527  34.038  27.628  1.00  0.00     0.135 A 
ATOM     70  C   UNL A   1      47.054  33.583  29.929  1.00  0.00     0.135 A 
ATOM     71  F   UNL A   1      46.124  33.640  26.411  1.00  0.00    -0.206 F 
ATOM     72  C   UNL A   1      46.890  35.370  27.797  1.00  0.00     0.059 A 
ATOM     73  C   UNL A   1      47.399  34.915  30.129  1.00  0.00     0.059 A 
ATOM     74  F   UNL A   1      47.154  32.741  30.970  1.00  0.00    -0.206 F 
ATOM     75  C   UNL A   1      47.326  35.799  29.053  1.00  0.00     0.060 A 
BRANCH  75  76
ATOM     76  S   UNL A   1      47.781  37.534  29.260  1.00  0.00     0.124 S 
ATOM     77  O   UNL A   1      47.065  37.877  30.484  1.00  0.00    -0.237 OA
ATOM     78  O   UNL A   1      49.235  37.464  29.375  1.00  0.00    -0.237 OA
ATOM     79  O   UNL A   1      47.281  38.164  28.042  1.00  0.00    -0.744 OA
ENDBRANCH  75  76
ENDBRANCH  54  68
BRANCH  55  80
ATOM     80  C   UNL A   1      43.354  23.782  27.237  1.00  0.00     0.058 A 
ATOM     81  C   UNL A   1      42.984  23.403  25.938  1.00  0.00     0.135 A 
ATOM     82  C   UNL A   1      43.250  22.820  28.254  1.00  0.00     0.135 A 
ATOM     83  F   UNL A   1      43.062  24.290  24.934  1.00  0.00    -0.206 F 
ATOM     84  C   UNL A   1      42.512  22.126  25.659  1.00  0.00     0.059 A 
ATOM     85  C   UNL A   1      42.801  21.530  27.996  1.00  0.00     0.059 A 
ATOM     86  F   UNL A   1      43.609  23.128  29.510  1.00  0.00    -0.206 F 
ATOM     87  C   UNL A   1      42.423  21.194  26.696  1.00  0.00     0.060 A 
BRANCH  87  88
ATOM     88  S   UNL A   1      41.854  19.523  26.316  1.00  0.00     0.124 S 
ATOM     89  O   UNL A   1      40.408  19.706  26.285  1.00  0.00    -0.237 OA
ATOM     90  O   UNL A   1      42.493  19.265  25.029  1.00  0.00    -0.237 OA
ATOM     91  O   UNL A   1      42.369  18.734  27.430  1.00  0.00    -0.744 OA
ENDBRANCH  87  88
ENDBRANCH  55  80
BRANCH  67  92
ATOM     92  C   UNL A   1      49.510  26.936  26.363  1.00  0.00     0.058 A 
ATOM     93  C   UNL A   1      50.397  26.236  27.194  1.00  0.00     0.135 A 
ATOM     94  C   UNL A   1      49.878  27.129  25.022  1.00  0.00     0.135 A 
ATOM     95  F   UNL A   1      50.094  26.033  28.486  1.00  0.00    -0.206 F 
ATOM     96  C   UNL A   1      51.613  25.757  26.717  1.00  0.00     0.059 A 
ATOM     97  C   UNL A   1      51.078  26.638  24.518  1.00  0.00     0.059 A 
ATOM     98  F   UNL A   1      49.060  27.785  24.183  1.00  0.00    -0.206 F 
ATOM     99  C   UNL A   1      51.944  25.962  25.377  1.00  0.00     0.060 A 
BRANCH  99 100
ATOM    100  S   UNL A   1      53.508  25.305  24.759  1.00  0.00     0.124 S 
ATOM    101  O   UNL A   1      54.474  26.022  25.585  1.00  0.00    -0.237 OA
ATOM    102  O   UNL A   1      53.378  23.877  25.030  1.00  0.00    -0.237 OA
ATOM    103  O   UNL A   1      53.495  25.672  23.346  1.00  0.00    -0.744 OA
ENDBRANCH  99 100
ENDBRANCH  67  92
ENDBRANCH  41  42
ENDBRANCH  33  36
ENDBRANCH  31  32
ENDBRANCH  30  31
ENDBRANCH  29  30
ENDBRANCH   1  29
TORSDOF 20
ENDMDL
