MODEL 1
REMARK VINA RESULT:     -12.3      0.000      0.000
REMARK SMILES COc1ccc2[nH]c(C(=O)c3cc(C)ccn3)c(CC(=O)NCCCCNC(=O)c3ccc(-c4c5nc(c(-c6c(F)cc(S(=O)(=O)[O-])cc6F)c6ccc([nH]6)c(-c6c(F)cc(S(=O)(=O)[O-])cc6F)c6nc(c(-c7c(F)cc(S(=O)(=O)[O-])cc7F)c7ccc4[nH]7)C=C6)C=C5)cc3)c2c1
REMARK SMILES IDX 24 1 23 2 22 3 20 4 21 5 19 7 18 8 3 9 4 10 97 11 5 12 96 13
REMARK SMILES IDX 6 14 7 15 8 16 2 18 1 19 9 20 10 21 11 22 12 23 17 24 13 25
REMARK SMILES IDX 16 26 14 27 15 28 25 29 26 30 27 31 28 32 29 34 30 35 31 36
REMARK SMILES IDX 95 37 32 38 94 39 33 40 34 41 35 42 88 43 36 44 93 45 87 46
REMARK SMILES IDX 89 47 37 48 92 49 86 50 85 51 38 53 72 54 51 55 71 56 52 57
REMARK SMILES IDX 55 58 70 59 90 60 53 61 54 62 69 64 91 65 56 66 39 67 40 68
REMARK SMILES IDX 49 69 41 70 42 71 48 72 50 73 43 74 44 75 45 76 46 77 47 78
REMARK SMILES IDX 73 79 74 80 83 81 75 82 76 83 82 84 84 85 77 86 78 87 79 88
REMARK SMILES IDX 80 89 81 90 57 91 58 92 67 93 59 94 60 95 66 96 68 97 61 98
REMARK SMILES IDX 62 99 63 100 64 101 65 102
REMARK H PARENT 22 6 7 17 27 33 89 52 55 63
REMARK Flexibility Score: inf
ROOT
ATOM      1  C   UNL A   1      33.018  26.659  25.782  1.00  0.00     0.023 C 
ENDROOT
BRANCH   1   2
ATOM      2  C   UNL A   1      31.646  26.146  26.215  1.00  0.00     0.116 C 
BRANCH   2   3
ATOM      3  N   UNL A   1      31.725  24.970  27.056  1.00  0.00    -0.356 N 
ATOM      4  C   UNL A   1      31.468  23.662  26.752  1.00  0.00     0.224 C 
ATOM      5  O   UNL A   1      31.811  22.818  27.584  1.00  0.00    -0.275 OA
ATOM      6  H   UNL A   1      32.006  25.137  27.985  1.00  0.00     0.163 HD
BRANCH   4   7
ATOM      7  C   UNL A   1      30.910  23.253  25.391  1.00  0.00     0.138 C 
BRANCH   7   8
ATOM      8  C   UNL A   1      31.893  23.323  24.252  1.00  0.00    -0.002 A 
ATOM      9  C   UNL A   1      31.408  26.280  21.865  1.00  0.00     0.119 A 
ATOM     10  C   UNL A   1      32.371  25.884  20.942  1.00  0.00     0.048 A 
ATOM     11  C   UNL A   1      31.200  25.538  23.032  1.00  0.00     0.057 A 
ATOM     12  C   UNL A   1      33.129  24.723  21.146  1.00  0.00     0.030 A 
ATOM     13  C   UNL A   1      31.929  24.350  23.249  1.00  0.00     0.008 A 
ATOM     14  C   UNL A   1      32.882  23.979  22.306  1.00  0.00     0.046 A 
ATOM     15  N   UNL A   1      33.449  22.808  22.749  1.00  0.00    -0.352 N 
ATOM     16  C   UNL A   1      32.935  22.437  23.974  1.00  0.00     0.093 A 
ATOM     17  H   UNL A   1      34.132  22.300  22.255  1.00  0.00     0.167 HD
BRANCH   9  18
ATOM     18  O   UNL A   1      30.641  27.409  21.743  1.00  0.00    -0.497 OA
ATOM     19  C   UNL A   1      30.189  27.948  22.983  1.00  0.00     0.278 C 
ENDBRANCH   9  18
BRANCH  16  20
ATOM     20  C   UNL A   1      33.401  21.309  24.776  1.00  0.00     0.227 C 
ATOM     21  O   UNL A   1      33.956  21.437  25.863  1.00  0.00    -0.285 OA
BRANCH  20  22
ATOM     22  C   UNL A   1      33.293  19.936  24.217  1.00  0.00     0.113 A 
ATOM     23  C   UNL A   1      34.085  18.919  24.741  1.00  0.00     0.036 A 
ATOM     24  N   UNL A   1      32.395  19.759  23.219  1.00  0.00    -0.253 NA
ATOM     25  C   UNL A   1      33.951  17.635  24.210  1.00  0.00    -0.047 A 
ATOM     26  C   UNL A   1      32.258  18.503  22.748  1.00  0.00     0.112 A 
ATOM     27  C   UNL A   1      34.773  16.492  24.724  1.00  0.00     0.044 C 
ATOM     28  C   UNL A   1      33.005  17.425  23.201  1.00  0.00     0.023 A 
ENDBRANCH  20  22
ENDBRANCH  16  20
ENDBRANCH   7   8
ENDBRANCH   4   7
ENDBRANCH   2   3
ENDBRANCH   1   2
BRANCH   1  29
ATOM     29  C   UNL A   1      33.283  28.137  26.077  1.00  0.00     0.023 C 
BRANCH  29  30
ATOM     30  C   UNL A   1      33.550  28.475  27.538  1.00  0.00     0.116 C 
BRANCH  30  31
ATOM     31  N   UNL A   1      33.496  29.903  27.820  1.00  0.00    -0.352 N 
ATOM     32  C   UNL A   1      34.509  30.712  28.281  1.00  0.00     0.251 C 
ATOM     33  H   UNL A   1      32.629  30.342  27.663  1.00  0.00     0.163 HD
ATOM     34  O   UNL A   1      34.288  31.883  28.573  1.00  0.00    -0.269 OA
BRANCH  32  35
ATOM     35  C   UNL A   1      35.859  30.137  28.459  1.00  0.00     0.039 A 
ATOM     36  C   UNL A   1      36.731  30.099  27.368  1.00  0.00     0.014 A 
ATOM     37  C   UNL A   1      36.277  29.695  29.716  1.00  0.00     0.014 A 
ATOM     38  C   UNL A   1      38.054  29.689  27.556  1.00  0.00     0.010 A 
ATOM     39  C   UNL A   1      37.609  29.347  29.914  1.00  0.00     0.010 A 
ATOM     40  C   UNL A   1      38.512  29.348  28.839  1.00  0.00    -0.014 A 
BRANCH  40  41
ATOM     41  C   UNL A   1      39.928  28.984  29.099  1.00  0.00     0.031 A 
ATOM     42  C   UNL A   1      40.879  30.030  29.607  1.00  0.00     0.074 A 
ATOM     43  C   UNL A   1      40.378  27.754  28.778  1.00  0.00     0.049 A 
ATOM     44  N   UNL A   1      42.180  29.980  29.721  1.00  0.00    -0.248 NA
ATOM     45  C   UNL A   1      40.287  31.317  30.009  1.00  0.00     0.031 C 
ATOM     46  C   UNL A   1      39.560  26.661  28.248  1.00  0.00     0.029 A 
ATOM     47  N   UNL A   1      41.644  27.225  28.828  1.00  0.00    -0.354 N 
ATOM     48  C   UNL A   1      42.567  31.236  30.173  1.00  0.00     0.074 A 
ATOM     49  C   UNL A   1      41.366  32.036  30.284  1.00  0.00     0.031 C 
ATOM     50  C   UNL A   1      40.344  25.594  28.024  1.00  0.00     0.029 A 
ATOM     51  C   UNL A   1      41.724  25.937  28.354  1.00  0.00     0.049 A 
ATOM     52  H   UNL A   1      42.422  27.723  29.170  1.00  0.00     0.167 HD
ATOM     53  C   UNL A   1      43.810  31.678  30.480  1.00  0.00     0.037 A 
ATOM     54  C   UNL A   1      42.791  25.131  28.186  1.00  0.00     0.037 A 
ATOM     55  C   UNL A   1      44.995  30.865  30.406  1.00  0.00     0.049 A 
ATOM     56  C   UNL A   1      44.160  25.637  28.553  1.00  0.00     0.074 A 
ATOM     57  C   UNL A   1      46.295  31.205  30.739  1.00  0.00     0.029 A 
ATOM     58  N   UNL A   1      45.023  29.547  29.977  1.00  0.00    -0.354 N 
ATOM     59  N   UNL A   1      44.505  26.817  29.009  1.00  0.00    -0.248 NA
ATOM     60  C   UNL A   1      45.283  24.703  28.387  1.00  0.00     0.031 C 
ATOM     61  C   UNL A   1      47.112  30.098  30.490  1.00  0.00     0.029 A 
ATOM     62  C   UNL A   1      46.317  29.059  30.035  1.00  0.00     0.049 A 
ATOM     63  H   UNL A   1      44.238  29.033  29.675  1.00  0.00     0.167 HD
ATOM     64  C   UNL A   1      45.879  26.758  29.214  1.00  0.00     0.074 A 
ATOM     65  C   UNL A   1      46.303  25.426  28.833  1.00  0.00     0.031 C 
ATOM     66  C   UNL A   1      46.713  27.719  29.680  1.00  0.00     0.037 A 
BRANCH  53  67
ATOM     67  C   UNL A   1      43.946  33.105  30.927  1.00  0.00     0.058 A 
ATOM     68  C   UNL A   1      44.252  34.133  30.022  1.00  0.00     0.135 A 
ATOM     69  C   UNL A   1      43.751  33.453  32.274  1.00  0.00     0.135 A 
ATOM     70  F   UNL A   1      44.463  33.851  28.726  1.00  0.00    -0.206 F 
ATOM     71  C   UNL A   1      44.394  35.452  30.440  1.00  0.00     0.059 A 
ATOM     72  C   UNL A   1      43.864  34.770  32.710  1.00  0.00     0.059 A 
ATOM     73  F   UNL A   1      43.457  32.509  33.181  1.00  0.00    -0.206 F 
ATOM     74  C   UNL A   1      44.203  35.760  31.787  1.00  0.00     0.060 A 
BRANCH  74  75
ATOM     75  S   UNL A   1      44.398  37.474  32.319  1.00  0.00     0.124 S 
ATOM     76  O   UNL A   1      43.628  37.482  33.559  1.00  0.00    -0.237 OA
ATOM     77  O   UNL A   1      45.845  37.593  32.472  1.00  0.00    -0.237 OA
ATOM     78  O   UNL A   1      43.824  38.238  31.217  1.00  0.00    -0.744 OA
ENDBRANCH  74  75
ENDBRANCH  53  67
BRANCH  54  79
ATOM     79  C   UNL A   1      42.605  23.754  27.659  1.00  0.00     0.058 A 
ATOM     80  C   UNL A   1      42.512  22.660  28.531  1.00  0.00     0.135 A 
ATOM     81  C   UNL A   1      42.502  23.504  26.282  1.00  0.00     0.135 A 
ATOM     82  F   UNL A   1      42.610  22.849  29.856  1.00  0.00    -0.206 F 
ATOM     83  C   UNL A   1      42.334  21.363  28.058  1.00  0.00     0.059 A 
ATOM     84  C   UNL A   1      42.304  22.218  25.786  1.00  0.00     0.059 A 
ATOM     85  F   UNL A   1      42.569  24.519  25.407  1.00  0.00    -0.206 F 
ATOM     86  C   UNL A   1      42.230  21.152  26.682  1.00  0.00     0.060 A 
BRANCH  86  87
ATOM     87  S   UNL A   1      41.947  19.473  26.081  1.00  0.00     0.124 S 
ATOM     88  O   UNL A   1      42.785  19.442  24.889  1.00  0.00    -0.237 OA
ATOM     89  O   UNL A   1      42.405  18.661  27.205  1.00  0.00    -0.237 OA
ATOM     90  O   UNL A   1      40.507  19.442  25.844  1.00  0.00    -0.744 OA
ENDBRANCH  86  87
ENDBRANCH  54  79
BRANCH  66  91
ATOM     91  C   UNL A   1      48.159  27.359  29.861  1.00  0.00     0.058 A 
ATOM     92  C   UNL A   1      49.126  27.681  28.898  1.00  0.00     0.135 A 
ATOM     93  C   UNL A   1      48.592  26.764  31.057  1.00  0.00     0.135 A 
ATOM     94  F   UNL A   1      48.761  28.245  27.736  1.00  0.00    -0.206 F 
ATOM     95  C   UNL A   1      50.476  27.422  29.112  1.00  0.00     0.059 A 
ATOM     96  C   UNL A   1      49.938  26.513  31.300  1.00  0.00     0.059 A 
ATOM     97  F   UNL A   1      47.705  26.443  32.013  1.00  0.00    -0.206 F 
ATOM     98  C   UNL A   1      50.874  26.842  30.320  1.00  0.00     0.060 A 
BRANCH  98  99
ATOM     99  S   UNL A   1      52.634  26.573  30.616  1.00  0.00     0.124 S 
ATOM    100  O   UNL A   1      52.605  25.461  31.562  1.00  0.00    -0.237 OA
ATOM    101  O   UNL A   1      53.134  26.258  29.282  1.00  0.00    -0.237 OA
ATOM    102  O   UNL A   1      53.085  27.849  31.162  1.00  0.00    -0.744 OA
ENDBRANCH  98  99
ENDBRANCH  66  91
ENDBRANCH  40  41
ENDBRANCH  32  35
ENDBRANCH  30  31
ENDBRANCH  29  30
ENDBRANCH   1  29
TORSDOF 18
ENDMDL
MODEL 2
REMARK VINA RESULT:     -12.0      3.192      8.209
REMARK SMILES COc1ccc2[nH]c(C(=O)c3cc(C)ccn3)c(CC(=O)NCCCCNC(=O)c3ccc(-c4c5nc(c(-c6c(F)cc(S(=O)(=O)[O-])cc6F)c6ccc([nH]6)c(-c6c(F)cc(S(=O)(=O)[O-])cc6F)c6nc(c(-c7c(F)cc(S(=O)(=O)[O-])cc7F)c7ccc4[nH]7)C=C6)C=C5)cc3)c2c1
REMARK SMILES IDX 24 1 23 2 22 3 20 4 21 5 19 7 18 8 3 9 4 10 97 11 5 12 96 13
REMARK SMILES IDX 6 14 7 15 8 16 2 18 1 19 9 20 10 21 11 22 12 23 17 24 13 25
REMARK SMILES IDX 16 26 14 27 15 28 25 29 26 30 27 31 28 32 29 34 30 35 31 36
REMARK SMILES IDX 95 37 32 38 94 39 33 40 34 41 35 42 88 43 36 44 93 45 87 46
REMARK SMILES IDX 89 47 37 48 92 49 86 50 85 51 38 53 72 54 51 55 71 56 52 57
REMARK SMILES IDX 55 58 70 59 90 60 53 61 54 62 69 64 91 65 56 66 39 67 40 68
REMARK SMILES IDX 49 69 41 70 42 71 48 72 50 73 43 74 44 75 45 76 46 77 47 78
REMARK SMILES IDX 73 79 74 80 83 81 75 82 76 83 82 84 84 85 77 86 78 87 79 88
REMARK SMILES IDX 80 89 81 90 57 91 58 92 67 93 59 94 60 95 66 96 68 97 61 98
REMARK SMILES IDX 62 99 63 100 64 101 65 102
REMARK H PARENT 22 6 7 17 27 33 89 52 55 63
REMARK Flexibility Score: inf
ROOT
ATOM      1  C   UNL A   1      37.401  20.516  25.009  1.00  0.00     0.023 C 
ENDROOT
BRANCH   1   2
ATOM      2  C   UNL A   1      37.671  21.950  25.461  1.00  0.00     0.116 C 
BRANCH   2   3
ATOM      3  N   UNL A   1      36.575  22.515  26.220  1.00  0.00    -0.356 N 
ATOM      4  C   UNL A   1      35.521  23.274  25.796  1.00  0.00     0.224 C 
ATOM      5  O   UNL A   1      34.605  23.459  26.602  1.00  0.00    -0.275 OA
ATOM      6  H   UNL A   1      36.592  22.324  27.186  1.00  0.00     0.163 HD
BRANCH   4   7
ATOM      7  C   UNL A   1      35.414  23.757  24.352  1.00  0.00     0.138 C 
BRANCH   7   8
ATOM      8  C   UNL A   1      34.155  23.345  23.634  1.00  0.00    -0.002 A 
ATOM      9  C   UNL A   1      33.277  19.625  23.898  1.00  0.00     0.119 A 
ATOM     10  C   UNL A   1      32.201  19.665  23.016  1.00  0.00     0.048 A 
ATOM     11  C   UNL A   1      33.967  20.796  24.223  1.00  0.00     0.057 A 
ATOM     12  C   UNL A   1      31.806  20.867  22.416  1.00  0.00     0.030 A 
ATOM     13  C   UNL A   1      33.610  22.017  23.612  1.00  0.00     0.008 A 
ATOM     14  C   UNL A   1      32.532  22.023  22.733  1.00  0.00     0.046 A 
ATOM     15  N   UNL A   1      32.386  23.315  22.288  1.00  0.00    -0.352 N 
ATOM     16  C   UNL A   1      33.297  24.156  22.890  1.00  0.00     0.093 A 
ATOM     17  H   UNL A   1      31.718  23.601  21.624  1.00  0.00     0.167 HD
BRANCH   9  18
ATOM     18  O   UNL A   1      33.711  18.492  24.535  1.00  0.00    -0.497 OA
ATOM     19  C   UNL A   1      33.709  17.323  23.719  1.00  0.00     0.278 C 
ENDBRANCH   9  18
BRANCH  16  20
ATOM     20  C   UNL A   1      33.338  25.608  22.729  1.00  0.00     0.227 C 
ATOM     21  O   UNL A   1      33.867  26.165  21.772  1.00  0.00    -0.285 OA
BRANCH  20  22
ATOM     22  C   UNL A   1      32.804  26.467  23.816  1.00  0.00     0.113 A 
ATOM     23  C   UNL A   1      33.685  27.053  24.721  1.00  0.00     0.036 A 
ATOM     24  N   UNL A   1      31.461  26.642  23.846  1.00  0.00    -0.253 NA
ATOM     25  C   UNL A   1      33.159  27.870  25.724  1.00  0.00    -0.047 A 
ATOM     26  C   UNL A   1      30.981  27.464  24.801  1.00  0.00     0.112 A 
ATOM     27  C   UNL A   1      34.048  28.531  26.733  1.00  0.00     0.044 C 
ATOM     28  C   UNL A   1      31.778  28.088  25.750  1.00  0.00     0.023 A 
ENDBRANCH  20  22
ENDBRANCH  16  20
ENDBRANCH   7   8
ENDBRANCH   4   7
ENDBRANCH   2   3
ENDBRANCH   1   2
BRANCH   1  29
ATOM     29  C   UNL A   1      38.543  19.529  25.262  1.00  0.00     0.023 C 
BRANCH  29  30
ATOM     30  C   UNL A   1      39.731  20.087  26.034  1.00  0.00     0.116 C 
BRANCH  30  31
ATOM     31  N   UNL A   1      40.872  19.183  26.074  1.00  0.00    -0.352 N 
ATOM     32  C   UNL A   1      42.193  19.498  26.295  1.00  0.00     0.251 C 
ATOM     33  H   UNL A   1      40.674  18.231  25.925  1.00  0.00     0.163 HD
ATOM     34  O   UNL A   1      43.064  18.639  26.197  1.00  0.00    -0.269 OA
BRANCH  32  35
ATOM     35  C   UNL A   1      42.551  20.897  26.609  1.00  0.00     0.039 A 
ATOM     36  C   UNL A   1      42.627  21.296  27.947  1.00  0.00     0.014 A 
ATOM     37  C   UNL A   1      42.871  21.791  25.585  1.00  0.00     0.014 A 
ATOM     38  C   UNL A   1      43.101  22.573  28.260  1.00  0.00     0.010 A 
ATOM     39  C   UNL A   1      43.400  23.037  25.900  1.00  0.00     0.010 A 
ATOM     40  C   UNL A   1      43.528  23.438  27.240  1.00  0.00    -0.014 A 
BRANCH  40  41
ATOM     41  C   UNL A   1      44.112  24.772  27.531  1.00  0.00     0.031 A 
ATOM     42  C   UNL A   1      43.215  25.888  27.986  1.00  0.00     0.074 A 
ATOM     43  C   UNL A   1      45.416  25.005  27.284  1.00  0.00     0.049 A 
ATOM     44  N   UNL A   1      43.479  27.162  28.113  1.00  0.00    -0.248 NA
ATOM     45  C   UNL A   1      41.826  25.525  28.311  1.00  0.00     0.031 C 
ATOM     46  C   UNL A   1      46.382  24.012  26.809  1.00  0.00     0.029 A 
ATOM     47  N   UNL A   1      46.149  26.163  27.372  1.00  0.00    -0.354 N 
ATOM     48  C   UNL A   1      42.284  27.758  28.496  1.00  0.00     0.074 A 
ATOM     49  C   UNL A   1      41.287  26.711  28.552  1.00  0.00     0.031 C 
ATOM     50  C   UNL A   1      47.579  24.602  26.652  1.00  0.00     0.029 A 
ATOM     51  C   UNL A   1      47.457  26.021  26.972  1.00  0.00     0.049 A 
ATOM     52  H   UNL A   1      45.772  27.015  27.691  1.00  0.00     0.167 HD
ATOM     53  C   UNL A   1      42.044  29.059  28.787  1.00  0.00     0.037 A 
ATOM     54  C   UNL A   1      48.441  26.935  26.857  1.00  0.00     0.037 A 
ATOM     55  C   UNL A   1      43.048  30.088  28.767  1.00  0.00     0.049 A 
ATOM     56  C   UNL A   1      48.155  28.371  27.206  1.00  0.00     0.074 A 
ATOM     57  C   UNL A   1      42.916  31.427  29.090  1.00  0.00     0.029 A 
ATOM     58  N   UNL A   1      44.375  29.890  28.413  1.00  0.00    -0.354 N 
ATOM     59  N   UNL A   1      47.027  28.913  27.597  1.00  0.00    -0.248 NA
ATOM     60  C   UNL A   1      49.275  29.318  27.101  1.00  0.00     0.031 C 
ATOM     61  C   UNL A   1      44.159  32.044  28.910  1.00  0.00     0.029 A 
ATOM     62  C   UNL A   1      45.072  31.083  28.509  1.00  0.00     0.049 A 
ATOM     63  H   UNL A   1      44.764  29.029  28.135  1.00  0.00     0.167 HD
ATOM     64  C   UNL A   1      47.308  30.257  27.815  1.00  0.00     0.074 A 
ATOM     65  C   UNL A   1      48.711  30.447  27.513  1.00  0.00     0.031 C 
ATOM     66  C   UNL A   1      46.478  31.244  28.232  1.00  0.00     0.037 A 
BRANCH  53  67
ATOM     67  C   UNL A   1      40.637  29.437  29.154  1.00  0.00     0.058 A 
ATOM     68  C   UNL A   1      39.627  29.541  28.184  1.00  0.00     0.135 A 
ATOM     69  C   UNL A   1      40.290  29.681  30.492  1.00  0.00     0.135 A 
ATOM     70  F   UNL A   1      39.910  29.333  26.889  1.00  0.00    -0.206 F 
ATOM     71  C   UNL A   1      38.329  29.908  28.524  1.00  0.00     0.059 A 
ATOM     72  C   UNL A   1      38.991  30.025  30.858  1.00  0.00     0.059 A 
ATOM     73  F   UNL A   1      41.217  29.596  31.458  1.00  0.00    -0.206 F 
ATOM     74  C   UNL A   1      38.022  30.152  29.863  1.00  0.00     0.060 A 
BRANCH  74  75
ATOM     75  S   UNL A   1      36.335  30.636  30.289  1.00  0.00     0.124 S 
ATOM     76  O   UNL A   1      35.967  29.592  31.240  1.00  0.00    -0.237 OA
ATOM     77  O   UNL A   1      36.523  31.968  30.853  1.00  0.00    -0.237 OA
ATOM     78  O   UNL A   1      35.637  30.594  29.008  1.00  0.00    -0.744 OA
ENDBRANCH  74  75
ENDBRANCH  53  67
BRANCH  54  79
ATOM     79  C   UNL A   1      49.794  26.516  26.407  1.00  0.00     0.058 A 
ATOM     80  C   UNL A   1      50.703  25.943  27.309  1.00  0.00     0.135 A 
ATOM     81  C   UNL A   1      50.201  26.664  25.073  1.00  0.00     0.135 A 
ATOM     82  F   UNL A   1      50.362  25.787  28.596  1.00  0.00    -0.206 F 
ATOM     83  C   UNL A   1      51.973  25.542  26.907  1.00  0.00     0.059 A 
ATOM     84  C   UNL A   1      51.459  26.251  24.642  1.00  0.00     0.059 A 
ATOM     85  F   UNL A   1      49.362  27.192  24.168  1.00  0.00    -0.206 F 
ATOM     86  C   UNL A   1      52.342  25.699  25.569  1.00  0.00     0.060 A 
BRANCH  86  87
ATOM     87  S   UNL A   1      53.973  25.126  25.046  1.00  0.00     0.124 S 
ATOM     88  O   UNL A   1      53.748  23.693  24.903  1.00  0.00    -0.237 OA
ATOM     89  O   UNL A   1      54.177  25.867  23.805  1.00  0.00    -0.237 OA
ATOM     90  O   UNL A   1      54.838  25.524  26.152  1.00  0.00    -0.744 OA
ENDBRANCH  86  87
ENDBRANCH  54  79
BRANCH  66  91
ATOM     91  C   UNL A   1      47.067  32.608  28.444  1.00  0.00     0.058 A 
ATOM     92  C   UNL A   1      47.675  32.969  29.655  1.00  0.00     0.135 A 
ATOM     93  C   UNL A   1      47.101  33.532  27.387  1.00  0.00     0.135 A 
ATOM     94  F   UNL A   1      47.661  32.122  30.696  1.00  0.00    -0.206 F 
ATOM     95  C   UNL A   1      48.295  34.204  29.814  1.00  0.00     0.059 A 
ATOM     96  C   UNL A   1      47.732  34.765  27.518  1.00  0.00     0.059 A 
ATOM     97  F   UNL A   1      46.540  33.230  26.206  1.00  0.00    -0.206 F 
ATOM     98  C   UNL A   1      48.324  35.094  28.737  1.00  0.00     0.060 A 
BRANCH  98  99
ATOM     99  S   UNL A   1      49.190  36.666  28.932  1.00  0.00     0.124 S 
ATOM    100  O   UNL A   1      48.078  37.612  28.967  1.00  0.00    -0.237 OA
ATOM    101  O   UNL A   1      49.903  36.479  30.191  1.00  0.00    -0.237 OA
ATOM    102  O   UNL A   1      50.036  36.736  27.744  1.00  0.00    -0.744 OA
ENDBRANCH  98  99
ENDBRANCH  66  91
ENDBRANCH  40  41
ENDBRANCH  32  35
ENDBRANCH  30  31
ENDBRANCH  29  30
ENDBRANCH   1  29
TORSDOF 18
ENDMDL
MODEL 3
REMARK VINA RESULT:     -11.9      4.863      6.360
REMARK SMILES COc1ccc2[nH]c(C(=O)c3cc(C)ccn3)c(CC(=O)NCCCCNC(=O)c3ccc(-c4c5nc(c(-c6c(F)cc(S(=O)(=O)[O-])cc6F)c6ccc([nH]6)c(-c6c(F)cc(S(=O)(=O)[O-])cc6F)c6nc(c(-c7c(F)cc(S(=O)(=O)[O-])cc7F)c7ccc4[nH]7)C=C6)C=C5)cc3)c2c1
REMARK SMILES IDX 24 1 23 2 22 3 20 4 21 5 19 7 18 8 3 9 4 10 97 11 5 12 96 13
REMARK SMILES IDX 6 14 7 15 8 16 2 18 1 19 9 20 10 21 11 22 12 23 17 24 13 25
REMARK SMILES IDX 16 26 14 27 15 28 25 29 26 30 27 31 28 32 29 34 30 35 31 36
REMARK SMILES IDX 95 37 32 38 94 39 33 40 34 41 35 42 88 43 36 44 93 45 87 46
REMARK SMILES IDX 89 47 37 48 92 49 86 50 85 51 38 53 72 54 51 55 71 56 52 57
REMARK SMILES IDX 55 58 70 59 90 60 53 61 54 62 69 64 91 65 56 66 39 67 40 68
REMARK SMILES IDX 49 69 41 70 42 71 48 72 50 73 43 74 44 75 45 76 46 77 47 78
REMARK SMILES IDX 73 79 74 80 83 81 75 82 76 83 82 84 84 85 77 86 78 87 79 88
REMARK SMILES IDX 80 89 81 90 57 91 58 92 67 93 59 94 60 95 66 96 68 97 61 98
REMARK SMILES IDX 62 99 63 100 64 101 65 102
REMARK H PARENT 22 6 7 17 27 33 89 52 55 63
REMARK Flexibility Score: inf
ROOT
ATOM      1  C   UNL A   1      34.904  31.026  27.807  1.00  0.00     0.023 C 
ENDROOT
BRANCH   1   2
ATOM      2  C   UNL A   1      34.564  29.595  27.395  1.00  0.00     0.116 C 
BRANCH   2   3
ATOM      3  N   UNL A   1      33.273  29.160  27.885  1.00  0.00    -0.356 N 
ATOM      4  C   UNL A   1      32.407  28.242  27.362  1.00  0.00     0.224 C 
ATOM      5  O   UNL A   1      31.463  27.893  28.077  1.00  0.00    -0.275 OA
ATOM      6  H   UNL A   1      32.975  29.590  28.719  1.00  0.00     0.163 HD
BRANCH   4   7
ATOM      7  C   UNL A   1      32.666  27.576  26.013  1.00  0.00     0.138 C 
BRANCH   7   8
ATOM      8  C   UNL A   1      31.460  26.936  25.376  1.00  0.00    -0.002 A 
ATOM      9  C   UNL A   1      29.320  29.280  23.230  1.00  0.00     0.119 A 
ATOM     10  C   UNL A   1      28.299  28.366  22.987  1.00  0.00     0.048 A 
ATOM     11  C   UNL A   1      30.447  28.900  23.964  1.00  0.00     0.057 A 
ATOM     12  C   UNL A   1      28.365  27.061  23.493  1.00  0.00     0.030 A 
ATOM     13  C   UNL A   1      30.527  27.602  24.511  1.00  0.00     0.008 A 
ATOM     14  C   UNL A   1      29.490  26.713  24.252  1.00  0.00     0.046 A 
ATOM     15  N   UNL A   1      29.808  25.533  24.880  1.00  0.00    -0.352 N 
ATOM     16  C   UNL A   1      31.042  25.609  25.490  1.00  0.00     0.093 A 
ATOM     17  H   UNL A   1      29.229  24.737  24.893  1.00  0.00     0.167 HD
BRANCH   9  18
ATOM     18  O   UNL A   1      29.334  30.565  22.755  1.00  0.00    -0.497 OA
ATOM     19  C   UNL A   1      28.277  31.384  23.249  1.00  0.00     0.278 C 
ENDBRANCH   9  18
BRANCH  16  20
ATOM     20  C   UNL A   1      31.729  24.498  26.145  1.00  0.00     0.227 C 
ATOM     21  O   UNL A   1      31.441  24.094  27.267  1.00  0.00    -0.285 OA
BRANCH  20  22
ATOM     22  C   UNL A   1      32.901  23.881  25.471  1.00  0.00     0.113 A 
ATOM     23  C   UNL A   1      34.180  24.124  25.963  1.00  0.00     0.036 A 
ATOM     24  N   UNL A   1      32.638  23.089  24.404  1.00  0.00    -0.253 NA
ATOM     25  C   UNL A   1      35.262  23.518  25.322  1.00  0.00    -0.047 A 
ATOM     26  C   UNL A   1      33.696  22.486  23.826  1.00  0.00     0.112 A 
ATOM     27  C   UNL A   1      36.667  23.736  25.797  1.00  0.00     0.044 C 
ATOM     28  C   UNL A   1      35.007  22.670  24.240  1.00  0.00     0.023 A 
ENDBRANCH  20  22
ENDBRANCH  16  20
ENDBRANCH   7   8
ENDBRANCH   4   7
ENDBRANCH   2   3
ENDBRANCH   1   2
BRANCH   1  29
ATOM     29  C   UNL A   1      33.711  31.982  27.881  1.00  0.00     0.023 C 
BRANCH  29  30
ATOM     30  C   UNL A   1      33.984  33.407  27.419  1.00  0.00     0.116 C 
BRANCH  30  31
ATOM     31  N   UNL A   1      33.196  34.406  28.127  1.00  0.00    -0.352 N 
ATOM     32  C   UNL A   1      33.312  34.800  29.440  1.00  0.00     0.251 C 
ATOM     33  H   UNL A   1      32.493  34.853  27.602  1.00  0.00     0.163 HD
ATOM     34  O   UNL A   1      32.505  35.585  29.929  1.00  0.00    -0.269 OA
BRANCH  32  35
ATOM     35  C   UNL A   1      34.399  34.231  30.263  1.00  0.00     0.039 A 
ATOM     36  C   UNL A   1      34.080  33.328  31.281  1.00  0.00     0.014 A 
ATOM     37  C   UNL A   1      35.732  34.542  29.985  1.00  0.00     0.014 A 
ATOM     38  C   UNL A   1      35.105  32.675  31.971  1.00  0.00     0.010 A 
ATOM     39  C   UNL A   1      36.749  33.847  30.629  1.00  0.00     0.010 A 
ATOM     40  C   UNL A   1      36.447  32.901  31.623  1.00  0.00    -0.014 A 
BRANCH  40  41
ATOM     41  C   UNL A   1      37.564  32.171  32.274  1.00  0.00     0.031 A 
ATOM     42  C   UNL A   1      38.060  32.626  33.617  1.00  0.00     0.074 A 
ATOM     43  C   UNL A   1      38.196  31.180  31.615  1.00  0.00     0.049 A 
ATOM     44  N   UNL A   1      39.130  32.258  34.272  1.00  0.00    -0.248 NA
ATOM     45  C   UNL A   1      37.261  33.658  34.299  1.00  0.00     0.031 C 
ATOM     46  C   UNL A   1      37.829  30.669  30.293  1.00  0.00     0.029 A 
ATOM     47  N   UNL A   1      39.301  30.441  31.960  1.00  0.00    -0.354 N 
ATOM     48  C   UNL A   1      39.154  33.035  35.423  1.00  0.00     0.074 A 
ATOM     49  C   UNL A   1      38.007  33.917  35.364  1.00  0.00     0.031 C 
ATOM     50  C   UNL A   1      38.690  29.700  29.941  1.00  0.00     0.029 A 
ATOM     51  C   UNL A   1      39.694  29.549  30.990  1.00  0.00     0.049 A 
ATOM     52  H   UNL A   1      39.768  30.542  32.821  1.00  0.00     0.167 HD
ATOM     53  C   UNL A   1      40.043  33.008  36.444  1.00  0.00     0.037 A 
ATOM     54  C   UNL A   1      40.754  28.718  30.943  1.00  0.00     0.037 A 
ATOM     55  C   UNL A   1      41.159  32.103  36.516  1.00  0.00     0.049 A 
ATOM     56  C   UNL A   1      41.718  28.690  32.099  1.00  0.00     0.074 A 
ATOM     57  C   UNL A   1      42.092  31.964  37.529  1.00  0.00     0.029 A 
ATOM     58  N   UNL A   1      41.487  31.174  35.539  1.00  0.00    -0.354 N 
ATOM     59  N   UNL A   1      41.709  29.410  33.195  1.00  0.00    -0.248 NA
ATOM     60  C   UNL A   1      42.835  27.737  32.013  1.00  0.00     0.031 C 
ATOM     61  C   UNL A   1      42.998  30.966  37.154  1.00  0.00     0.029 A 
ATOM     62  C   UNL A   1      42.609  30.460  35.924  1.00  0.00     0.049 A 
ATOM     63  H   UNL A   1      40.995  31.043  34.695  1.00  0.00     0.167 HD
ATOM     64  C   UNL A   1      42.796  28.976  33.943  1.00  0.00     0.074 A 
ATOM     65  C   UNL A   1      43.443  27.931  33.177  1.00  0.00     0.031 C 
ATOM     66  C   UNL A   1      43.219  29.402  35.159  1.00  0.00     0.037 A 
BRANCH  53  67
ATOM     67  C   UNL A   1      39.840  33.987  37.565  1.00  0.00     0.058 A 
ATOM     68  C   UNL A   1      40.419  35.265  37.538  1.00  0.00     0.135 A 
ATOM     69  C   UNL A   1      39.045  33.650  38.672  1.00  0.00     0.135 A 
ATOM     70  F   UNL A   1      41.202  35.631  36.511  1.00  0.00    -0.206 F 
ATOM     71  C   UNL A   1      40.244  36.164  38.585  1.00  0.00     0.059 A 
ATOM     72  C   UNL A   1      38.835  34.543  39.718  1.00  0.00     0.059 A 
ATOM     73  F   UNL A   1      38.469  32.440  38.747  1.00  0.00    -0.206 F 
ATOM     74  C   UNL A   1      39.454  35.792  39.673  1.00  0.00     0.060 A 
BRANCH  74  75
ATOM     75  S   UNL A   1      39.242  36.965  41.029  1.00  0.00     0.124 S 
ATOM     76  O   UNL A   1      38.467  38.018  40.381  1.00  0.00    -0.237 OA
ATOM     77  O   UNL A   1      38.525  36.172  42.022  1.00  0.00    -0.237 OA
ATOM     78  O   UNL A   1      40.611  37.321  41.387  1.00  0.00    -0.744 OA
ENDBRANCH  74  75
ENDBRANCH  53  67
BRANCH  54  79
ATOM     79  C   UNL A   1      40.951  27.831  29.768  1.00  0.00     0.058 A 
ATOM     80  C   UNL A   1      42.031  28.026  28.895  1.00  0.00     0.135 A 
ATOM     81  C   UNL A   1      40.079  26.765  29.500  1.00  0.00     0.135 A 
ATOM     82  F   UNL A   1      42.888  29.036  29.106  1.00  0.00    -0.206 F 
ATOM     83  C   UNL A   1      42.235  27.204  27.791  1.00  0.00     0.059 A 
ATOM     84  C   UNL A   1      40.273  25.916  28.414  1.00  0.00     0.059 A 
ATOM     85  F   UNL A   1      39.040  26.526  30.315  1.00  0.00    -0.206 F 
ATOM     86  C   UNL A   1      41.350  26.150  27.559  1.00  0.00     0.060 A 
BRANCH  86  87
ATOM     87  S   UNL A   1      41.653  25.056  26.155  1.00  0.00     0.124 S 
ATOM     88  O   UNL A   1      40.751  23.949  26.445  1.00  0.00    -0.237 OA
ATOM     89  O   UNL A   1      41.284  25.900  25.021  1.00  0.00    -0.237 OA
ATOM     90  O   UNL A   1      43.078  24.758  26.264  1.00  0.00    -0.744 OA
ENDBRANCH  86  87
ENDBRANCH  54  79
BRANCH  66  91
ATOM     91  C   UNL A   1      44.402  28.707  35.769  1.00  0.00     0.058 A 
ATOM     92  C   UNL A   1      45.714  29.148  35.544  1.00  0.00     0.135 A 
ATOM     93  C   UNL A   1      44.208  27.641  36.662  1.00  0.00     0.135 A 
ATOM     94  F   UNL A   1      45.950  30.159  34.692  1.00  0.00    -0.206 F 
ATOM     95  C   UNL A   1      46.797  28.552  36.181  1.00  0.00     0.059 A 
ATOM     96  C   UNL A   1      45.275  27.043  37.325  1.00  0.00     0.059 A 
ATOM     97  F   UNL A   1      42.970  27.188  36.916  1.00  0.00    -0.206 F 
ATOM     98  C   UNL A   1      46.568  27.504  37.075  1.00  0.00     0.060 A 
BRANCH  98  99
ATOM     99  S   UNL A   1      47.973  26.783  37.949  1.00  0.00     0.124 S 
ATOM    100  O   UNL A   1      49.081  27.140  37.068  1.00  0.00    -0.237 OA
ATOM    101  O   UNL A   1      47.936  27.476  39.232  1.00  0.00    -0.237 OA
ATOM    102  O   UNL A   1      47.646  25.361  38.003  1.00  0.00    -0.744 OA
ENDBRANCH  98  99
ENDBRANCH  66  91
ENDBRANCH  40  41
ENDBRANCH  32  35
ENDBRANCH  30  31
ENDBRANCH  29  30
ENDBRANCH   1  29
TORSDOF 18
ENDMDL
