MODEL 1
REMARK VINA RESULT:     -10.4      0.000      0.000
REMARK SMILES CCCCc1[nH]ncc1C(=O)NCCCCNC(=O)c1ccc(-c2c3nc(c(-c4c(F)cc(S(=O)(=O)[O-])cc4F)c4ccc([nH]4)c(-c4c(F)cc(S(=O)(=O)[O-])cc4F)c4nc(c(-c5c(F)cc(S(=O)(=O)[O-])cc5F)c5ccc2[nH]5)C=C4)C=C3)cc1
REMARK SMILES IDX 14 1 13 2 12 3 10 4 11 5 9 7 5 8 6 9 7 10 8 12 4 13 3 14
REMARK SMILES IDX 2 15 1 16 15 17 16 18 17 19 18 20 19 22 20 23 21 24 85 25
REMARK SMILES IDX 22 26 84 27 23 28 24 29 25 30 78 31 26 32 83 33 77 34 79 35
REMARK SMILES IDX 27 36 82 37 76 38 75 39 28 41 62 42 41 43 61 44 42 45 45 46
REMARK SMILES IDX 60 47 80 48 43 49 44 50 59 52 81 53 46 54 29 55 30 56 39 57
REMARK SMILES IDX 31 58 32 59 38 60 40 61 33 62 34 63 35 64 36 65 37 66 63 67
REMARK SMILES IDX 64 68 73 69 65 70 66 71 72 72 74 73 67 74 68 75 69 76 70 77
REMARK SMILES IDX 71 78 47 79 48 80 57 81 49 82 50 83 56 84 58 85 51 86 52 87
REMARK SMILES IDX 53 88 54 89 55 90
REMARK H PARENT 12 6 6 11 17 21 79 40 45 51
REMARK Flexibility Score: inf
ROOT
ATOM      1  C   UNL A   1      32.073  26.678  26.523  1.00  0.00     0.023 C 
ENDROOT
BRANCH   1   2
ATOM      2  C   UNL A   1      30.699  26.203  26.042  1.00  0.00     0.116 C 
BRANCH   2   3
ATOM      3  N   UNL A   1      30.799  25.545  24.765  1.00  0.00    -0.352 N 
ATOM      4  C   UNL A   1      31.156  25.961  23.513  1.00  0.00     0.254 C 
ATOM      5  O   UNL A   1      31.199  25.060  22.669  1.00  0.00    -0.269 OA
ATOM      6  H   UNL A   1      30.558  24.591  24.801  1.00  0.00     0.163 HD
BRANCH   4   7
ATOM      7  C   UNL A   1      31.515  27.326  23.120  1.00  0.00     0.080 A 
ATOM      8  C   UNL A   1      30.865  28.503  22.746  1.00  0.00     0.048 A 
ATOM      9  N   UNL A   1      31.860  29.394  22.422  1.00  0.00    -0.282 N 
ATOM     10  N   UNL A   1      33.098  28.926  22.565  1.00  0.00    -0.183 NA
ATOM     11  H   UNL A   1      31.672  30.308  22.108  1.00  0.00     0.190 HD
ATOM     12  C   UNL A   1      32.895  27.676  22.970  1.00  0.00     0.149 A 
BRANCH   8  13
ATOM     13  C   UNL A   1      29.460  28.961  22.548  1.00  0.00     0.056 C 
BRANCH  13  14
ATOM     14  C   UNL A   1      29.144  30.278  23.273  1.00  0.00     0.006 C 
BRANCH  14  15
ATOM     15  C   UNL A   1      28.767  31.450  22.360  1.00  0.00    -0.003 C 
ATOM     16  C   UNL A   1      28.133  31.014  21.048  1.00  0.00     0.004 C 
ENDBRANCH  14  15
ENDBRANCH  13  14
ENDBRANCH   8  13
ENDBRANCH   4   7
ENDBRANCH   2   3
ENDBRANCH   1   2
BRANCH   1  17
ATOM     17  C   UNL A   1      32.087  28.056  27.181  1.00  0.00     0.023 C 
BRANCH  17  18
ATOM     18  C   UNL A   1      33.460  28.713  27.248  1.00  0.00     0.116 C 
BRANCH  18  19
ATOM     19  N   UNL A   1      33.432  30.094  27.716  1.00  0.00    -0.352 N 
ATOM     20  C   UNL A   1      34.461  30.804  28.294  1.00  0.00     0.251 C 
ATOM     21  H   UNL A   1      32.580  30.574  27.607  1.00  0.00     0.163 HD
ATOM     22  O   UNL A   1      34.288  31.946  28.705  1.00  0.00    -0.269 OA
BRANCH  20  23
ATOM     23  C   UNL A   1      35.761  30.128  28.461  1.00  0.00     0.039 A 
ATOM     24  C   UNL A   1      36.650  30.099  27.385  1.00  0.00     0.014 A 
ATOM     25  C   UNL A   1      36.139  29.653  29.718  1.00  0.00     0.014 A 
ATOM     26  C   UNL A   1      37.964  29.680  27.596  1.00  0.00     0.010 A 
ATOM     27  C   UNL A   1      37.465  29.301  29.940  1.00  0.00     0.010 A 
ATOM     28  C   UNL A   1      38.393  29.331  28.886  1.00  0.00    -0.014 A 
BRANCH  28  29
ATOM     29  C   UNL A   1      39.813  29.027  29.184  1.00  0.00     0.031 A 
ATOM     30  C   UNL A   1      40.719  30.118  29.676  1.00  0.00     0.074 A 
ATOM     31  C   UNL A   1      40.314  27.813  28.879  1.00  0.00     0.049 A 
ATOM     32  N   UNL A   1      42.018  30.110  29.822  1.00  0.00    -0.248 NA
ATOM     33  C   UNL A   1      40.082  31.402  30.007  1.00  0.00     0.031 C 
ATOM     34  C   UNL A   1      39.546  26.694  28.329  1.00  0.00     0.029 A 
ATOM     35  N   UNL A   1      41.596  27.330  28.958  1.00  0.00    -0.354 N 
ATOM     36  C   UNL A   1      42.359  31.397  30.218  1.00  0.00     0.074 A 
ATOM     37  C   UNL A   1      41.133  32.166  30.261  1.00  0.00     0.031 C 
ATOM     38  C   UNL A   1      40.372  25.656  28.116  1.00  0.00     0.029 A 
ATOM     39  C   UNL A   1      41.730  26.047  28.482  1.00  0.00     0.049 A 
ATOM     40  H   UNL A   1      42.347  27.853  29.319  1.00  0.00     0.167 HD
ATOM     41  C   UNL A   1      43.581  31.889  30.528  1.00  0.00     0.037 A 
ATOM     42  C   UNL A   1      42.827  25.278  28.338  1.00  0.00     0.037 A 
ATOM     43  C   UNL A   1      44.788  31.106  30.529  1.00  0.00     0.049 A 
ATOM     44  C   UNL A   1      44.164  25.819  28.757  1.00  0.00     0.074 A 
ATOM     45  C   UNL A   1      46.061  31.486  30.915  1.00  0.00     0.029 A 
ATOM     46  N   UNL A   1      44.869  29.781  30.128  1.00  0.00    -0.354 N 
ATOM     47  N   UNL A   1      44.462  27.017  29.200  1.00  0.00    -0.248 NA
ATOM     48  C   UNL A   1      45.312  24.908  28.664  1.00  0.00     0.031 C 
ATOM     49  C   UNL A   1      46.917  30.395  30.725  1.00  0.00     0.029 A 
ATOM     50  C   UNL A   1      46.172  29.328  30.248  1.00  0.00     0.049 A 
ATOM     51  H   UNL A   1      44.112  29.241  29.804  1.00  0.00     0.167 HD
ATOM     52  C   UNL A   1      45.827  26.999  29.455  1.00  0.00     0.074 A 
ATOM     53  C   UNL A   1      46.297  25.669  29.124  1.00  0.00     0.031 C 
ATOM     54  C   UNL A   1      46.618  27.996  29.924  1.00  0.00     0.037 A 
BRANCH  41  55
ATOM     55  C   UNL A   1      43.662  33.346  30.883  1.00  0.00     0.058 A 
ATOM     56  C   UNL A   1      43.874  34.332  29.906  1.00  0.00     0.135 A 
ATOM     57  C   UNL A   1      43.551  33.759  32.220  1.00  0.00     0.135 A 
ATOM     58  F   UNL A   1      44.003  33.986  28.614  1.00  0.00    -0.206 F 
ATOM     59  C   UNL A   1      44.022  35.671  30.246  1.00  0.00     0.059 A 
ATOM     60  C   UNL A   1      43.672  35.098  32.580  1.00  0.00     0.059 A 
ATOM     61  F   UNL A   1      43.348  32.857  33.193  1.00  0.00    -0.206 F 
ATOM     62  C   UNL A   1      43.932  36.043  31.588  1.00  0.00     0.060 A 
BRANCH  62  63
ATOM     63  S   UNL A   1      44.170  37.778  32.028  1.00  0.00     0.124 S 
ATOM     64  O   UNL A   1      45.606  37.816  32.282  1.00  0.00    -0.237 OA
ATOM     65  O   UNL A   1      43.722  38.474  30.825  1.00  0.00    -0.237 OA
ATOM     66  O   UNL A   1      43.317  37.948  33.199  1.00  0.00    -0.744 OA
ENDBRANCH  62  63
ENDBRANCH  41  55
BRANCH  42  67
ATOM     67  C   UNL A   1      42.687  23.904  27.792  1.00  0.00     0.058 A 
ATOM     68  C   UNL A   1      42.596  22.797  28.646  1.00  0.00     0.135 A 
ATOM     69  C   UNL A   1      42.578  23.679  26.410  1.00  0.00     0.135 A 
ATOM     70  F   UNL A   1      42.698  22.965  29.973  1.00  0.00    -0.206 F 
ATOM     71  C   UNL A   1      42.396  21.512  28.153  1.00  0.00     0.059 A 
ATOM     72  C   UNL A   1      42.363  22.405  25.894  1.00  0.00     0.059 A 
ATOM     73  F   UNL A   1      42.641  24.711  25.555  1.00  0.00    -0.206 F 
ATOM     74  C   UNL A   1      42.274  21.327  26.774  1.00  0.00     0.060 A 
BRANCH  74  75
ATOM     75  S   UNL A   1      41.922  19.669  26.149  1.00  0.00     0.124 S 
ATOM     76  O   UNL A   1      42.337  18.837  27.272  1.00  0.00    -0.237 OA
ATOM     77  O   UNL A   1      40.486  19.732  25.897  1.00  0.00    -0.237 OA
ATOM     78  O   UNL A   1      42.755  19.581  24.953  1.00  0.00    -0.744 OA
ENDBRANCH  74  75
ENDBRANCH  42  67
BRANCH  54  79
ATOM     79  C   UNL A   1      48.071  27.686  30.135  1.00  0.00     0.058 A 
ATOM     80  C   UNL A   1      48.521  27.037  31.294  1.00  0.00     0.135 A 
ATOM     81  C   UNL A   1      49.009  27.967  29.129  1.00  0.00     0.135 A 
ATOM     82  F   UNL A   1      47.662  26.755  32.286  1.00  0.00    -0.206 F 
ATOM     83  C   UNL A   1      49.855  26.677  31.450  1.00  0.00     0.059 A 
ATOM     84  C   UNL A   1      50.345  27.601  29.257  1.00  0.00     0.059 A 
ATOM     85  F   UNL A   1      48.625  28.582  27.999  1.00  0.00    -0.206 F 
ATOM     86  C   UNL A   1      50.759  26.959  30.424  1.00  0.00     0.060 A 
BRANCH  86  87
ATOM     87  S   UNL A   1      52.476  26.429  30.606  1.00  0.00     0.124 S 
ATOM     88  O   UNL A   1      52.331  25.253  31.458  1.00  0.00    -0.237 OA
ATOM     89  O   UNL A   1      52.873  26.168  29.226  1.00  0.00    -0.237 OA
ATOM     90  O   UNL A   1      53.120  27.582  31.229  1.00  0.00    -0.744 OA
ENDBRANCH  86  87
ENDBRANCH  54  79
ENDBRANCH  28  29
ENDBRANCH  20  23
ENDBRANCH  18  19
ENDBRANCH  17  18
ENDBRANCH   1  17
TORSDOF 17
ENDMDL
MODEL 2
REMARK VINA RESULT:     -10.3      4.064      5.894
REMARK SMILES CCCCc1[nH]ncc1C(=O)NCCCCNC(=O)c1ccc(-c2c3nc(c(-c4c(F)cc(S(=O)(=O)[O-])cc4F)c4ccc([nH]4)c(-c4c(F)cc(S(=O)(=O)[O-])cc4F)c4nc(c(-c5c(F)cc(S(=O)(=O)[O-])cc5F)c5ccc2[nH]5)C=C4)C=C3)cc1
REMARK SMILES IDX 14 1 13 2 12 3 10 4 11 5 9 7 5 8 6 9 7 10 8 12 4 13 3 14
REMARK SMILES IDX 2 15 1 16 15 17 16 18 17 19 18 20 19 22 20 23 21 24 85 25
REMARK SMILES IDX 22 26 84 27 23 28 24 29 25 30 78 31 26 32 83 33 77 34 79 35
REMARK SMILES IDX 27 36 82 37 76 38 75 39 28 41 62 42 41 43 61 44 42 45 45 46
REMARK SMILES IDX 60 47 80 48 43 49 44 50 59 52 81 53 46 54 29 55 30 56 39 57
REMARK SMILES IDX 31 58 32 59 38 60 40 61 33 62 34 63 35 64 36 65 37 66 63 67
REMARK SMILES IDX 64 68 73 69 65 70 66 71 72 72 74 73 67 74 68 75 69 76 70 77
REMARK SMILES IDX 71 78 47 79 48 80 57 81 49 82 50 83 56 84 58 85 51 86 52 87
REMARK SMILES IDX 53 88 54 89 55 90
REMARK H PARENT 12 6 6 11 17 21 79 40 45 51
REMARK Flexibility Score: inf
ROOT
ATOM      1  C   UNL A   1      36.788  34.215  31.660  1.00  0.00     0.023 C 
ENDROOT
BRANCH   1   2
ATOM      2  C   UNL A   1      36.359  34.096  33.124  1.00  0.00     0.116 C 
BRANCH   2   3
ATOM      3  N   UNL A   1      34.963  33.755  33.226  1.00  0.00    -0.352 N 
ATOM      4  C   UNL A   1      33.805  34.415  32.929  1.00  0.00     0.254 C 
ATOM      5  O   UNL A   1      32.780  33.742  33.081  1.00  0.00    -0.269 OA
ATOM      6  H   UNL A   1      34.812  32.851  33.587  1.00  0.00     0.163 HD
BRANCH   4   7
ATOM      7  C   UNL A   1      33.691  35.788  32.428  1.00  0.00     0.080 A 
ATOM      8  C   UNL A   1      33.401  36.433  31.225  1.00  0.00     0.048 A 
ATOM      9  N   UNL A   1      33.564  37.776  31.471  1.00  0.00    -0.282 N 
ATOM     10  N   UNL A   1      33.913  38.077  32.719  1.00  0.00    -0.183 NA
ATOM     11  H   UNL A   1      33.434  38.462  30.776  1.00  0.00     0.190 HD
ATOM     12  C   UNL A   1      34.007  36.882  33.296  1.00  0.00     0.149 A 
BRANCH   8  13
ATOM     13  C   UNL A   1      33.066  36.040  29.827  1.00  0.00     0.056 C 
BRANCH  13  14
ATOM     14  C   UNL A   1      33.849  34.813  29.338  1.00  0.00     0.006 C 
BRANCH  14  15
ATOM     15  C   UNL A   1      33.121  33.944  28.307  1.00  0.00    -0.003 C 
ATOM     16  C   UNL A   1      33.983  32.822  27.746  1.00  0.00     0.004 C 
ENDBRANCH  14  15
ENDBRANCH  13  14
ENDBRANCH   8  13
ENDBRANCH   4   7
ENDBRANCH   2   3
ENDBRANCH   1   2
BRANCH   1  17
ATOM     17  C   UNL A   1      36.166  33.188  30.717  1.00  0.00     0.023 C 
BRANCH  17  18
ATOM     18  C   UNL A   1      36.354  31.738  31.146  1.00  0.00     0.116 C 
BRANCH  18  19
ATOM     19  N   UNL A   1      35.638  30.777  30.314  1.00  0.00    -0.352 N 
ATOM     20  C   UNL A   1      36.177  29.867  29.432  1.00  0.00     0.251 C 
ATOM     21  H   UNL A   1      34.657  30.781  30.391  1.00  0.00     0.163 HD
ATOM     22  O   UNL A   1      35.458  29.155  28.740  1.00  0.00    -0.269 OA
BRANCH  20  23
ATOM     23  C   UNL A   1      37.646  29.817  29.299  1.00  0.00     0.039 A 
ATOM     24  C   UNL A   1      38.413  29.466  30.412  1.00  0.00     0.014 A 
ATOM     25  C   UNL A   1      38.234  29.982  28.044  1.00  0.00     0.014 A 
ATOM     26  C   UNL A   1      39.769  29.182  30.244  1.00  0.00     0.010 A 
ATOM     27  C   UNL A   1      39.567  29.634  27.868  1.00  0.00     0.010 A 
ATOM     28  C   UNL A   1      40.340  29.211  28.963  1.00  0.00    -0.014 A 
BRANCH  28  29
ATOM     29  C   UNL A   1      41.735  28.771  28.717  1.00  0.00     0.031 A 
ATOM     30  C   UNL A   1      42.840  29.786  28.682  1.00  0.00     0.074 A 
ATOM     31  C   UNL A   1      41.980  27.487  28.390  1.00  0.00     0.049 A 
ATOM     32  N   UNL A   1      44.084  29.640  28.310  1.00  0.00    -0.248 NA
ATOM     33  C   UNL A   1      42.484  31.157  29.079  1.00  0.00     0.031 C 
ATOM     34  C   UNL A   1      40.977  26.423  28.321  1.00  0.00     0.029 A 
ATOM     35  N   UNL A   1      43.148  26.867  28.019  1.00  0.00    -0.354 N 
ATOM     36  C   UNL A   1      44.649  30.907  28.384  1.00  0.00     0.074 A 
ATOM     37  C   UNL A   1      43.603  31.813  28.810  1.00  0.00     0.031 C 
ATOM     38  C   UNL A   1      41.570  25.283  27.929  1.00  0.00     0.029 A 
ATOM     39  C   UNL A   1      42.986  25.543  27.686  1.00  0.00     0.049 A 
ATOM     40  H   UNL A   1      44.017  27.327  27.994  1.00  0.00     0.167 HD
ATOM     41  C   UNL A   1      45.926  31.279  28.131  1.00  0.00     0.037 A 
ATOM     42  C   UNL A   1      43.873  24.643  27.220  1.00  0.00     0.037 A 
ATOM     43  C   UNL A   1      46.971  30.364  27.756  1.00  0.00     0.049 A 
ATOM     44  C   UNL A   1      45.302  25.058  27.015  1.00  0.00     0.074 A 
ATOM     45  C   UNL A   1      48.316  30.625  27.566  1.00  0.00     0.029 A 
ATOM     46  N   UNL A   1      46.787  29.010  27.517  1.00  0.00    -0.354 N 
ATOM     47  N   UNL A   1      45.840  26.246  27.160  1.00  0.00    -0.248 NA
ATOM     48  C   UNL A   1      46.247  24.017  26.592  1.00  0.00     0.031 C 
ATOM     49  C   UNL A   1      48.942  29.431  27.189  1.00  0.00     0.029 A 
ATOM     50  C   UNL A   1      47.991  28.422  27.172  1.00  0.00     0.049 A 
ATOM     51  H   UNL A   1      45.926  28.537  27.582  1.00  0.00     0.167 HD
ATOM     52  C   UNL A   1      47.187  26.092  26.863  1.00  0.00     0.074 A 
ATOM     53  C   UNL A   1      47.387  24.694  26.537  1.00  0.00     0.031 C 
ATOM     54  C   UNL A   1      48.171  27.026  26.862  1.00  0.00     0.037 A 
BRANCH  41  55
ATOM     55  C   UNL A   1      46.249  32.740  28.249  1.00  0.00     0.058 A 
ATOM     56  C   UNL A   1      46.653  33.310  29.467  1.00  0.00     0.135 A 
ATOM     57  C   UNL A   1      46.129  33.587  27.136  1.00  0.00     0.135 A 
ATOM     58  F   UNL A   1      46.766  32.545  30.565  1.00  0.00    -0.206 F 
ATOM     59  C   UNL A   1      46.879  34.676  29.591  1.00  0.00     0.059 A 
ATOM     60  C   UNL A   1      46.375  34.953  27.231  1.00  0.00     0.059 A 
ATOM     61  F   UNL A   1      45.746  33.093  25.948  1.00  0.00    -0.206 F 
ATOM     62  C   UNL A   1      46.726  35.492  28.469  1.00  0.00     0.060 A 
BRANCH  62  63
ATOM     63  S   UNL A   1      46.978  37.270  28.647  1.00  0.00     0.124 S 
ATOM     64  O   UNL A   1      46.504  37.759  27.356  1.00  0.00    -0.237 OA
ATOM     65  O   UNL A   1      46.138  37.597  29.794  1.00  0.00    -0.237 OA
ATOM     66  O   UNL A   1      48.415  37.385  28.875  1.00  0.00    -0.744 OA
ENDBRANCH  62  63
ENDBRANCH  41  55
BRANCH  42  67
ATOM     67  C   UNL A   1      43.426  23.255  26.940  1.00  0.00     0.058 A 
ATOM     68  C   UNL A   1      43.347  22.777  25.624  1.00  0.00     0.135 A 
ATOM     69  C   UNL A   1      43.131  22.362  27.983  1.00  0.00     0.135 A 
ATOM     70  F   UNL A   1      43.616  23.597  24.597  1.00  0.00    -0.206 F 
ATOM     71  C   UNL A   1      42.995  21.460  25.349  1.00  0.00     0.059 A 
ATOM     72  C   UNL A   1      42.793  21.036  27.733  1.00  0.00     0.059 A 
ATOM     73  F   UNL A   1      43.212  22.769  29.258  1.00  0.00    -0.206 F 
ATOM     74  C   UNL A   1      42.727  20.594  26.411  1.00  0.00     0.060 A 
BRANCH  74  75
ATOM     75  S   UNL A   1      42.362  18.863  26.048  1.00  0.00     0.124 S 
ATOM     76  O   UNL A   1      42.673  18.224  27.322  1.00  0.00    -0.237 OA
ATOM     77  O   UNL A   1      40.949  18.913  25.687  1.00  0.00    -0.237 OA
ATOM     78  O   UNL A   1      43.270  18.555  24.946  1.00  0.00    -0.744 OA
ENDBRANCH  74  75
ENDBRANCH  42  67
BRANCH  54  79
ATOM     79  C   UNL A   1      49.560  26.568  26.526  1.00  0.00     0.058 A 
ATOM     80  C   UNL A   1      50.451  26.136  27.520  1.00  0.00     0.135 A 
ATOM     81  C   UNL A   1      49.973  26.483  25.187  1.00  0.00     0.135 A 
ATOM     82  F   UNL A   1      50.103  26.207  28.814  1.00  0.00    -0.206 F 
ATOM     83  C   UNL A   1      51.707  25.635  27.197  1.00  0.00     0.059 A 
ATOM     84  C   UNL A   1      51.219  25.969  24.841  1.00  0.00     0.059 A 
ATOM     85  F   UNL A   1      49.153  26.878  24.200  1.00  0.00    -0.206 F 
ATOM     86  C   UNL A   1      52.080  25.551  25.855  1.00  0.00     0.060 A 
BRANCH  86  87
ATOM     87  S   UNL A   1      53.688  24.838  25.441  1.00  0.00     0.124 S 
ATOM     88  O   UNL A   1      54.425  25.035  26.685  1.00  0.00    -0.237 OA
ATOM     89  O   UNL A   1      53.345  23.456  25.119  1.00  0.00    -0.237 OA
ATOM     90  O   UNL A   1      54.134  25.646  24.310  1.00  0.00    -0.744 OA
ENDBRANCH  86  87
ENDBRANCH  54  79
ENDBRANCH  28  29
ENDBRANCH  20  23
ENDBRANCH  18  19
ENDBRANCH  17  18
ENDBRANCH   1  17
TORSDOF 17
ENDMDL
MODEL 3
REMARK VINA RESULT:     -10.2      5.409     10.829
REMARK SMILES CCCCc1[nH]ncc1C(=O)NCCCCNC(=O)c1ccc(-c2c3nc(c(-c4c(F)cc(S(=O)(=O)[O-])cc4F)c4ccc([nH]4)c(-c4c(F)cc(S(=O)(=O)[O-])cc4F)c4nc(c(-c5c(F)cc(S(=O)(=O)[O-])cc5F)c5ccc2[nH]5)C=C4)C=C3)cc1
REMARK SMILES IDX 14 1 13 2 12 3 10 4 11 5 9 7 5 8 6 9 7 10 8 12 4 13 3 14
REMARK SMILES IDX 2 15 1 16 15 17 16 18 17 19 18 20 19 22 20 23 21 24 85 25
REMARK SMILES IDX 22 26 84 27 23 28 24 29 25 30 78 31 26 32 83 33 77 34 79 35
REMARK SMILES IDX 27 36 82 37 76 38 75 39 28 41 62 42 41 43 61 44 42 45 45 46
REMARK SMILES IDX 60 47 80 48 43 49 44 50 59 52 81 53 46 54 29 55 30 56 39 57
REMARK SMILES IDX 31 58 32 59 38 60 40 61 33 62 34 63 35 64 36 65 37 66 63 67
REMARK SMILES IDX 64 68 73 69 65 70 66 71 72 72 74 73 67 74 68 75 69 76 70 77
REMARK SMILES IDX 71 78 47 79 48 80 57 81 49 82 50 83 56 84 58 85 51 86 52 87
REMARK SMILES IDX 53 88 54 89 55 90
REMARK H PARENT 12 6 6 11 17 21 79 40 45 51
REMARK Flexibility Score: inf
ROOT
ATOM      1  C   UNL A   1      36.704  23.629  25.287  1.00  0.00     0.023 C 
ENDROOT
BRANCH   1   2
ATOM      2  C   UNL A   1      35.362  23.320  25.954  1.00  0.00     0.116 C 
BRANCH   2   3
ATOM      3  N   UNL A   1      34.472  22.653  25.038  1.00  0.00    -0.352 N 
ATOM      4  C   UNL A   1      33.117  22.658  24.864  1.00  0.00     0.254 C 
ATOM      5  O   UNL A   1      32.725  22.004  23.892  1.00  0.00    -0.269 OA
ATOM      6  H   UNL A   1      34.942  22.068  24.400  1.00  0.00     0.163 HD
BRANCH   4   7
ATOM      7  C   UNL A   1      32.139  23.381  25.681  1.00  0.00     0.080 A 
ATOM      8  C   UNL A   1      31.926  24.684  26.135  1.00  0.00     0.048 A 
ATOM      9  N   UNL A   1      30.825  24.620  26.955  1.00  0.00    -0.282 N 
ATOM     10  N   UNL A   1      30.282  23.410  27.069  1.00  0.00    -0.183 NA
ATOM     11  H   UNL A   1      30.466  25.408  27.424  1.00  0.00     0.190 HD
ATOM     12  C   UNL A   1      31.080  22.657  26.316  1.00  0.00     0.149 A 
BRANCH   8  13
ATOM     13  C   UNL A   1      32.604  26.006  26.020  1.00  0.00     0.056 C 
BRANCH  13  14
ATOM     14  C   UNL A   1      31.651  27.195  26.218  1.00  0.00     0.006 C 
BRANCH  14  15
ATOM     15  C   UNL A   1      32.083  28.206  27.285  1.00  0.00    -0.003 C 
ATOM     16  C   UNL A   1      33.568  28.537  27.238  1.00  0.00     0.004 C 
ENDBRANCH  14  15
ENDBRANCH  13  14
ENDBRANCH   8  13
ENDBRANCH   4   7
ENDBRANCH   2   3
ENDBRANCH   1   2
BRANCH   1  17
ATOM     17  C   UNL A   1      37.935  23.329  26.140  1.00  0.00     0.023 C 
BRANCH  17  18
ATOM     18  C   UNL A   1      39.018  24.399  26.090  1.00  0.00     0.116 C 
BRANCH  18  19
ATOM     19  N   UNL A   1      40.366  23.888  26.315  1.00  0.00    -0.352 N 
ATOM     20  C   UNL A   1      41.346  24.432  27.114  1.00  0.00     0.251 C 
ATOM     21  H   UNL A   1      40.601  23.058  25.842  1.00  0.00     0.163 HD
ATOM     22  O   UNL A   1      42.466  23.936  27.168  1.00  0.00    -0.269 OA
BRANCH  20  23
ATOM     23  C   UNL A   1      41.028  25.667  27.857  1.00  0.00     0.039 A 
ATOM     24  C   UNL A   1      39.904  25.687  28.684  1.00  0.00     0.014 A 
ATOM     25  C   UNL A   1      41.921  26.740  27.831  1.00  0.00     0.014 A 
ATOM     26  C   UNL A   1      39.726  26.752  29.568  1.00  0.00     0.010 A 
ATOM     27  C   UNL A   1      41.777  27.764  28.758  1.00  0.00     0.010 A 
ATOM     28  C   UNL A   1      40.690  27.769  29.648  1.00  0.00    -0.014 A 
BRANCH  28  29
ATOM     29  C   UNL A   1      40.620  28.836  30.675  1.00  0.00     0.031 A 
ATOM     30  C   UNL A   1      41.467  28.736  31.910  1.00  0.00     0.074 A 
ATOM     31  C   UNL A   1      39.698  29.813  30.560  1.00  0.00     0.049 A 
ATOM     32  N   UNL A   1      41.426  29.456  33.000  1.00  0.00    -0.248 NA
ATOM     33  C   UNL A   1      42.463  27.654  31.938  1.00  0.00     0.031 C 
ATOM     34  C   UNL A   1      38.770  29.974  29.438  1.00  0.00     0.029 A 
ATOM     35  N   UNL A   1      39.368  30.834  31.414  1.00  0.00    -0.354 N 
ATOM     36  C   UNL A   1      42.357  28.888  33.861  1.00  0.00     0.074 A 
ATOM     37  C   UNL A   1      42.926  27.746  33.175  1.00  0.00     0.031 C 
ATOM     38  C   UNL A   1      37.973  31.029  29.675  1.00  0.00     0.029 A 
ATOM     39  C   UNL A   1      38.310  31.597  30.977  1.00  0.00     0.049 A 
ATOM     40  H   UNL A   1      39.842  31.005  32.260  1.00  0.00     0.167 HD
ATOM     41  C   UNL A   1      42.712  29.288  35.104  1.00  0.00     0.037 A 
ATOM     42  C   UNL A   1      37.671  32.626  31.566  1.00  0.00     0.037 A 
ATOM     43  C   UNL A   1      42.177  30.452  35.758  1.00  0.00     0.049 A 
ATOM     44  C   UNL A   1      38.130  33.101  32.915  1.00  0.00     0.074 A 
ATOM     45  C   UNL A   1      42.537  30.995  36.978  1.00  0.00     0.029 A 
ATOM     46  N   UNL A   1      41.170  31.254  35.243  1.00  0.00    -0.354 N 
ATOM     47  N   UNL A   1      39.063  32.598  33.688  1.00  0.00    -0.248 NA
ATOM     48  C   UNL A   1      37.459  34.282  33.472  1.00  0.00     0.031 C 
ATOM     49  C   UNL A   1      41.730  32.115  37.212  1.00  0.00     0.029 A 
ATOM     50  C   UNL A   1      40.888  32.284  36.124  1.00  0.00     0.049 A 
ATOM     51  H   UNL A   1      40.721  31.112  34.379  1.00  0.00     0.167 HD
ATOM     52  C   UNL A   1      39.104  33.410  34.813  1.00  0.00     0.074 A 
ATOM     53  C   UNL A   1      38.106  34.443  34.619  1.00  0.00     0.031 C 
ATOM     54  C   UNL A   1      39.898  33.310  35.907  1.00  0.00     0.037 A 
BRANCH  41  55
ATOM     55  C   UNL A   1      43.724  28.449  35.829  1.00  0.00     0.058 A 
ATOM     56  C   UNL A   1      43.338  27.409  36.690  1.00  0.00     0.135 A 
ATOM     57  C   UNL A   1      45.097  28.703  35.681  1.00  0.00     0.135 A 
ATOM     58  F   UNL A   1      42.036  27.136  36.878  1.00  0.00    -0.206 F 
ATOM     59  C   UNL A   1      44.274  26.682  37.417  1.00  0.00     0.059 A 
ATOM     60  C   UNL A   1      46.052  27.972  36.380  1.00  0.00     0.059 A 
ATOM     61  F   UNL A   1      45.520  29.686  34.870  1.00  0.00    -0.206 F 
ATOM     62  C   UNL A   1      45.629  26.980  37.265  1.00  0.00     0.060 A 
BRANCH  62  63
ATOM     63  S   UNL A   1      46.836  26.063  38.245  1.00  0.00     0.124 S 
ATOM     64  O   UNL A   1      48.056  26.818  37.979  1.00  0.00    -0.237 OA
ATOM     65  O   UNL A   1      46.302  26.181  39.598  1.00  0.00    -0.237 OA
ATOM     66  O   UNL A   1      46.786  24.722  37.672  1.00  0.00    -0.744 OA
ENDBRANCH  62  63
ENDBRANCH  41  55
BRANCH  42  67
ATOM     67  C   UNL A   1      36.542  33.284  30.860  1.00  0.00     0.058 A 
ATOM     68  C   UNL A   1      35.220  33.097  31.288  1.00  0.00     0.135 A 
ATOM     69  C   UNL A   1      36.768  34.160  29.787  1.00  0.00     0.135 A 
ATOM     70  F   UNL A   1      34.958  32.266  32.308  1.00  0.00    -0.206 F 
ATOM     71  C   UNL A   1      34.159  33.759  30.681  1.00  0.00     0.059 A 
ATOM     72  C   UNL A   1      35.724  34.845  29.173  1.00  0.00     0.059 A 
ATOM     73  F   UNL A   1      38.018  34.385  29.354  1.00  0.00    -0.206 F 
ATOM     74  C   UNL A   1      34.422  34.637  29.627  1.00  0.00     0.060 A 
BRANCH  74  75
ATOM     75  S   UNL A   1      33.048  35.563  28.906  1.00  0.00     0.124 S 
ATOM     76  O   UNL A   1      32.353  36.033  30.099  1.00  0.00    -0.237 OA
ATOM     77  O   UNL A   1      33.740  36.584  28.126  1.00  0.00    -0.237 OA
ATOM     78  O   UNL A   1      32.345  34.555  28.118  1.00  0.00    -0.744 OA
ENDBRANCH  74  75
ENDBRANCH  42  67
BRANCH  54  79
ATOM     79  C   UNL A   1      39.746  34.356  36.973  1.00  0.00     0.058 A 
ATOM     80  C   UNL A   1      38.976  34.124  38.122  1.00  0.00     0.135 A 
ATOM     81  C   UNL A   1      40.447  35.568  36.881  1.00  0.00     0.135 A 
ATOM     82  F   UNL A   1      38.282  32.983  38.251  1.00  0.00    -0.206 F 
ATOM     83  C   UNL A   1      38.904  35.062  39.146  1.00  0.00     0.059 A 
ATOM     84  C   UNL A   1      40.403  36.514  37.900  1.00  0.00     0.059 A 
ATOM     85  F   UNL A   1      41.203  35.832  35.803  1.00  0.00    -0.206 F 
ATOM     86  C   UNL A   1      39.624  36.252  39.028  1.00  0.00     0.060 A 
BRANCH  86  87
ATOM     87  S   UNL A   1      39.578  37.436  40.391  1.00  0.00     0.124 S 
ATOM     88  O   UNL A   1      40.992  37.760  40.548  1.00  0.00    -0.237 OA
ATOM     89  O   UNL A   1      38.739  38.503  39.853  1.00  0.00    -0.237 OA
ATOM     90  O   UNL A   1      38.982  36.672  41.483  1.00  0.00    -0.744 OA
ENDBRANCH  86  87
ENDBRANCH  54  79
ENDBRANCH  28  29
ENDBRANCH  20  23
ENDBRANCH  18  19
ENDBRANCH  17  18
ENDBRANCH   1  17
TORSDOF 17
ENDMDL
