MODEL 1
REMARK VINA RESULT:     -13.2      0.000      0.000
REMARK SMILES C[C@H]1c2ccc(O)cc2OC(=O)[C@@H]1CC(=O)N[C@@H](CC1=c2ccccc2=NC1)C(=O)NCCCCNC(=O)c1ccc(-c2c3nc(c(-c4c(F)cc(S(=O)(=O)[O-])cc4F)c4ccc([nH]4)c(-c4c(F)cc(S(=O)(=O)[O-])cc4F)c4nc(c(-c5c(F)cc(S(=O)(=O)[O-])cc5F)c5ccc2[nH]5)C=C4)C=C3)cc1
REMARK SMILES IDX 33 1 32 2 31 3 29 4 30 5 18 7 17 8 15 9 16 10 14 12 13 13
REMARK SMILES IDX 1 14 2 15 3 16 4 17 9 18 11 19 5 20 8 21 10 22 12 23 6 24
REMARK SMILES IDX 7 25 19 27 20 28 21 29 28 30 22 31 26 32 27 33 23 34 25 35
REMARK SMILES IDX 24 36 34 37 35 38 36 39 37 40 38 42 39 43 40 44 104 45 41 46
REMARK SMILES IDX 103 47 42 48 43 49 44 50 97 51 45 52 102 53 96 54 98 55
REMARK SMILES IDX 46 56 101 57 95 58 94 59 47 61 81 62 60 63 80 64 61 65 64 66
REMARK SMILES IDX 79 67 99 68 62 69 63 70 78 72 100 73 65 74 48 75 49 76 58 77
REMARK SMILES IDX 50 78 51 79 57 80 59 81 52 82 53 83 54 84 55 85 56 86 82 87
REMARK SMILES IDX 83 88 92 89 84 90 85 91 91 92 93 93 86 94 87 95 88 96 89 97
REMARK SMILES IDX 90 98 66 99 67 100 76 101 68 102 69 103 75 104 77 105 70 106
REMARK SMILES IDX 71 107 72 108 73 109 74 110
REMARK H PARENT 31 6 17 11 7 26 36 41 98 60 64 71
REMARK Flexibility Score: inf
ROOT
ATOM      1  C   UNL A   1      33.857  32.100  28.507  1.00  0.00     0.023 C 
ENDROOT
BRANCH   1   2
ATOM      2  C   UNL A   1      34.445  31.216  27.419  1.00  0.00     0.116 C 
BRANCH   2   3
ATOM      3  N   UNL A   1      34.260  29.803  27.590  1.00  0.00    -0.354 N 
ATOM      4  C   UNL A   1      33.584  28.962  26.751  1.00  0.00     0.242 C 
ATOM      5  O   UNL A   1      33.715  27.748  26.938  1.00  0.00    -0.273 OA
ATOM      6  H   UNL A   1      34.661  29.399  28.394  1.00  0.00     0.163 HD
BRANCH   4   7
ATOM      7  C   UNL A   1      32.756  29.481  25.539  1.00  0.00     0.175 C 
BRANCH   7   8
ATOM      8  N   UNL A   1      33.480  29.450  24.252  1.00  0.00    -0.344 N 
ATOM      9  C   UNL A   1      34.039  28.429  23.549  1.00  0.00     0.221 C 
ATOM     10  O   UNL A   1      34.540  28.680  22.451  1.00  0.00    -0.275 OA
ATOM     11  H   UNL A   1      33.575  30.331  23.824  1.00  0.00     0.164 HD
BRANCH   9  12
ATOM     12  C   UNL A   1      34.095  27.024  24.109  1.00  0.00     0.116 C 
BRANCH  12  13
ATOM     13  C   UNL A   1      33.022  26.130  23.459  1.00  0.00     0.116 C 
ATOM     14  C   UNL A   1      31.139  24.446  23.786  1.00  0.00     0.014 C 
ATOM     15  C   UNL A   1      32.337  25.154  24.433  1.00  0.00     0.034 C 
ATOM     16  C   UNL A   1      33.355  24.151  24.910  1.00  0.00    -0.001 A 
ATOM     17  C   UNL A   1      33.278  23.557  26.173  1.00  0.00     0.011 A 
ATOM     18  C   UNL A   1      34.441  23.836  24.087  1.00  0.00     0.138 A 
ATOM     19  C   UNL A   1      33.635  25.303  22.362  1.00  0.00     0.315 C 
ATOM     20  C   UNL A   1      34.307  22.722  26.615  1.00  0.00     0.047 A 
ATOM     21  C   UNL A   1      35.481  23.025  24.521  1.00  0.00     0.093 A 
ATOM     22  O   UNL A   1      34.513  24.314  22.770  1.00  0.00    -0.426 OA
ATOM     23  O   UNL A   1      33.413  25.509  21.178  1.00  0.00    -0.251 OA
ATOM     24  C   UNL A   1      35.411  22.484  25.797  1.00  0.00     0.119 A 
BRANCH  24  25
ATOM     25  O   UNL A   1      36.453  21.714  26.216  1.00  0.00    -0.508 OA
ATOM     26  H   UNL A   1      36.309  20.819  26.454  1.00  0.00     0.293 HD
ENDBRANCH  24  25
ENDBRANCH  12  13
ENDBRANCH   9  12
ENDBRANCH   7   8
BRANCH   7  27
ATOM     27  C   UNL A   1      31.302  28.877  25.501  1.00  0.00     0.068 C 
BRANCH  27  28
ATOM     28  C   UNL A   1      30.496  29.091  24.243  1.00  0.00    -0.037 C 
ATOM     29  C   UNL A   1      29.809  30.128  23.768  1.00  0.00     0.001 A 
ATOM     30  C   UNL A   1      30.279  27.963  23.269  1.00  0.00     0.174 C 
ATOM     31  C   UNL A   1      29.744  31.543  23.896  1.00  0.00     0.010 A 
ATOM     32  C   UNL A   1      28.700  29.399  23.113  1.00  0.00     0.065 A 
ATOM     33  N   UNL A   1      28.905  28.165  22.769  1.00  0.00    -0.280 NA
ATOM     34  C   UNL A   1      28.590  32.176  23.629  1.00  0.00     0.001 A 
ATOM     35  C   UNL A   1      27.402  30.112  23.070  1.00  0.00     0.028 A 
ATOM     36  C   UNL A   1      27.378  31.423  23.364  1.00  0.00     0.002 A 
ENDBRANCH  27  28
ENDBRANCH   7  27
ENDBRANCH   4   7
ENDBRANCH   2   3
ENDBRANCH   1   2
BRANCH   1  37
ATOM     37  C   UNL A   1      34.786  33.180  29.045  1.00  0.00     0.023 C 
BRANCH  37  38
ATOM     38  C   UNL A   1      35.820  32.725  30.067  1.00  0.00     0.116 C 
BRANCH  38  39
ATOM     39  N   UNL A   1      35.626  31.367  30.572  1.00  0.00    -0.352 N 
ATOM     40  C   UNL A   1      36.540  30.338  30.653  1.00  0.00     0.251 C 
ATOM     41  H   UNL A   1      34.719  31.159  30.897  1.00  0.00     0.163 HD
ATOM     42  O   UNL A   1      36.226  29.249  31.126  1.00  0.00    -0.269 OA
BRANCH  40  43
ATOM     43  C   UNL A   1      37.875  30.557  30.069  1.00  0.00     0.039 A 
ATOM     44  C   UNL A   1      38.087  30.261  28.723  1.00  0.00     0.014 A 
ATOM     45  C   UNL A   1      38.947  30.796  30.932  1.00  0.00     0.014 A 
ATOM     46  C   UNL A   1      39.374  29.941  28.311  1.00  0.00     0.010 A 
ATOM     47  C   UNL A   1      40.249  30.583  30.477  1.00  0.00     0.010 A 
ATOM     48  C   UNL A   1      40.467  30.064  29.192  1.00  0.00    -0.014 A 
BRANCH  48  49
ATOM     49  C   UNL A   1      41.808  29.580  28.766  1.00  0.00     0.031 A 
ATOM     50  C   UNL A   1      43.020  30.479  28.839  1.00  0.00     0.074 A 
ATOM     51  C   UNL A   1      41.948  28.295  28.389  1.00  0.00     0.049 A 
ATOM     52  N   UNL A   1      44.257  30.224  28.491  1.00  0.00    -0.248 NA
ATOM     53  C   UNL A   1      42.824  31.841  29.364  1.00  0.00     0.031 C 
ATOM     54  C   UNL A   1      40.857  27.320  28.305  1.00  0.00     0.029 A 
ATOM     55  N   UNL A   1      43.062  27.576  28.040  1.00  0.00    -0.354 N 
ATOM     56  C   UNL A   1      44.974  31.395  28.716  1.00  0.00     0.074 A 
ATOM     57  C   UNL A   1      44.032  32.371  29.218  1.00  0.00     0.031 C 
ATOM     58  C   UNL A   1      41.364  26.118  28.001  1.00  0.00     0.029 A 
ATOM     59  C   UNL A   1      42.800  26.252  27.782  1.00  0.00     0.049 A 
ATOM     60  H   UNL A   1      43.962  27.971  27.979  1.00  0.00     0.167 HD
ATOM     61  C   UNL A   1      46.294  31.632  28.527  1.00  0.00     0.037 A 
ATOM     62  C   UNL A   1      43.616  25.257  27.390  1.00  0.00     0.037 A 
ATOM     63  C   UNL A   1      47.236  30.641  28.068  1.00  0.00     0.049 A 
ATOM     64  C   UNL A   1      45.068  25.550  27.163  1.00  0.00     0.074 A 
ATOM     65  C   UNL A   1      48.598  30.778  27.863  1.00  0.00     0.029 A 
ATOM     66  N   UNL A   1      46.916  29.328  27.757  1.00  0.00    -0.354 N 
ATOM     67  N   UNL A   1      45.716  26.675  27.343  1.00  0.00    -0.248 NA
ATOM     68  C   UNL A   1      45.895  24.447  26.658  1.00  0.00     0.031 C 
ATOM     69  C   UNL A   1      49.095  29.558  27.393  1.00  0.00     0.029 A 
ATOM     70  C   UNL A   1      48.051  28.649  27.345  1.00  0.00     0.049 A 
ATOM     71  H   UNL A   1      46.015  28.937  27.819  1.00  0.00     0.167 HD
ATOM     72  C   UNL A   1      47.029  26.419  26.970  1.00  0.00     0.074 A 
ATOM     73  C   UNL A   1      47.088  25.024  26.579  1.00  0.00     0.031 C 
ATOM     74  C   UNL A   1      48.088  27.265  26.946  1.00  0.00     0.037 A 
BRANCH  61  75
ATOM     75  C   UNL A   1      46.812  33.020  28.801  1.00  0.00     0.058 A 
ATOM     76  C   UNL A   1      46.767  34.032  27.831  1.00  0.00     0.135 A 
ATOM     77  C   UNL A   1      47.303  33.356  30.074  1.00  0.00     0.135 A 
ATOM     78  F   UNL A   1      46.322  33.764  26.594  1.00  0.00    -0.206 F 
ATOM     79  C   UNL A   1      47.207  35.324  28.107  1.00  0.00     0.059 A 
ATOM     80  C   UNL A   1      47.728  34.648  30.379  1.00  0.00     0.059 A 
ATOM     81  F   UNL A   1      47.367  32.427  31.041  1.00  0.00    -0.206 F 
ATOM     82  C   UNL A   1      47.686  35.622  29.384  1.00  0.00     0.060 A 
BRANCH  82  83
ATOM     83  S   UNL A   1      48.246  37.306  29.726  1.00  0.00     0.124 S 
ATOM     84  O   UNL A   1      47.743  38.021  28.556  1.00  0.00    -0.237 OA
ATOM     85  O   UNL A   1      47.577  37.607  30.986  1.00  0.00    -0.237 OA
ATOM     86  O   UNL A   1      49.697  37.174  29.804  1.00  0.00    -0.744 OA
ENDBRANCH  82  83
ENDBRANCH  61  75
BRANCH  62  87
ATOM     87  C   UNL A   1      43.053  23.900  27.175  1.00  0.00     0.058 A 
ATOM     88  C   UNL A   1      42.727  23.452  25.888  1.00  0.00     0.135 A 
ATOM     89  C   UNL A   1      42.901  23.001  28.243  1.00  0.00     0.135 A 
ATOM     90  F   UNL A   1      42.852  24.278  24.838  1.00  0.00    -0.206 F 
ATOM     91  C   UNL A   1      42.279  22.155  25.665  1.00  0.00     0.059 A 
ATOM     92  C   UNL A   1      42.479  21.693  28.042  1.00  0.00     0.059 A 
ATOM     93  F   UNL A   1      43.217  23.382  29.492  1.00  0.00    -0.206 F 
ATOM     94  C   UNL A   1      42.168  21.280  26.748  1.00  0.00     0.060 A 
BRANCH  94  95
ATOM     95  S   UNL A   1      41.674  19.571  26.435  1.00  0.00     0.124 S 
ATOM     96  O   UNL A   1      42.111  18.911  27.659  1.00  0.00    -0.237 OA
ATOM     97  O   UNL A   1      40.230  19.698  26.258  1.00  0.00    -0.237 OA
ATOM     98  O   UNL A   1      42.416  19.224  25.227  1.00  0.00    -0.744 OA
ENDBRANCH  94  95
ENDBRANCH  62  87
BRANCH  74  99
ATOM     99  C   UNL A   1      49.400  26.706  26.478  1.00  0.00     0.058 A 
ATOM    100  C   UNL A   1      49.825  26.863  25.150  1.00  0.00     0.135 A 
ATOM    101  C   UNL A   1      50.261  26.054  27.374  1.00  0.00     0.135 A 
ATOM    102  F   UNL A   1      49.032  27.470  24.254  1.00  0.00    -0.206 F 
ATOM    103  C   UNL A   1      51.056  26.379  24.722  1.00  0.00     0.059 A 
ATOM    104  C   UNL A   1      51.506  25.582  26.973  1.00  0.00     0.059 A 
ATOM    105  F   UNL A   1      49.902  25.886  28.657  1.00  0.00    -0.206 F 
ATOM    106  C   UNL A   1      51.891  25.741  25.642  1.00  0.00     0.060 A 
BRANCH 106 107
ATOM    107  S   UNL A   1      53.502  25.152  25.081  1.00  0.00     0.124 S 
ATOM    108  O   UNL A   1      53.505  25.586  23.687  1.00  0.00    -0.237 OA
ATOM    109  O   UNL A   1      54.420  25.861  25.966  1.00  0.00    -0.237 OA
ATOM    110  O   UNL A   1      53.428  23.710  25.288  1.00  0.00    -0.744 OA
ENDBRANCH 106 107
ENDBRANCH  74  99
ENDBRANCH  48  49
ENDBRANCH  40  43
ENDBRANCH  38  39
ENDBRANCH  37  38
ENDBRANCH   1  37
TORSDOF 20
ENDMDL
MODEL 2
REMARK VINA RESULT:     -13.1      6.221     11.753
REMARK SMILES C[C@H]1c2ccc(O)cc2OC(=O)[C@@H]1CC(=O)N[C@@H](CC1=c2ccccc2=NC1)C(=O)NCCCCNC(=O)c1ccc(-c2c3nc(c(-c4c(F)cc(S(=O)(=O)[O-])cc4F)c4ccc([nH]4)c(-c4c(F)cc(S(=O)(=O)[O-])cc4F)c4nc(c(-c5c(F)cc(S(=O)(=O)[O-])cc5F)c5ccc2[nH]5)C=C4)C=C3)cc1
REMARK SMILES IDX 33 1 32 2 31 3 29 4 30 5 18 7 17 8 15 9 16 10 14 12 13 13
REMARK SMILES IDX 1 14 2 15 3 16 4 17 9 18 11 19 5 20 8 21 10 22 12 23 6 24
REMARK SMILES IDX 7 25 19 27 20 28 21 29 28 30 22 31 26 32 27 33 23 34 25 35
REMARK SMILES IDX 24 36 34 37 35 38 36 39 37 40 38 42 39 43 40 44 104 45 41 46
REMARK SMILES IDX 103 47 42 48 43 49 44 50 97 51 45 52 102 53 96 54 98 55
REMARK SMILES IDX 46 56 101 57 95 58 94 59 47 61 81 62 60 63 80 64 61 65 64 66
REMARK SMILES IDX 79 67 99 68 62 69 63 70 78 72 100 73 65 74 48 75 49 76 58 77
REMARK SMILES IDX 50 78 51 79 57 80 59 81 52 82 53 83 54 84 55 85 56 86 82 87
REMARK SMILES IDX 83 88 92 89 84 90 85 91 91 92 93 93 86 94 87 95 88 96 89 97
REMARK SMILES IDX 90 98 66 99 67 100 76 101 68 102 69 103 75 104 77 105 70 106
REMARK SMILES IDX 71 107 72 108 73 109 74 110
REMARK H PARENT 31 6 17 11 7 26 36 41 98 60 64 71
REMARK Flexibility Score: inf
ROOT
ATOM      1  C   UNL A   1      37.203  24.095  25.843  1.00  0.00     0.023 C 
ENDROOT
BRANCH   1   2
ATOM      2  C   UNL A   1      35.901  23.769  25.129  1.00  0.00     0.116 C 
BRANCH   2   3
ATOM      3  N   UNL A   1      34.714  24.341  25.695  1.00  0.00    -0.354 N 
ATOM      4  C   UNL A   1      33.425  23.964  25.439  1.00  0.00     0.242 C 
ATOM      5  O   UNL A   1      32.544  24.414  26.180  1.00  0.00    -0.273 OA
ATOM      6  H   UNL A   1      34.840  25.081  26.333  1.00  0.00     0.163 HD
BRANCH   4   7
ATOM      7  C   UNL A   1      33.063  22.932  24.332  1.00  0.00     0.175 C 
BRANCH   7   8
ATOM      8  N   UNL A   1      33.300  23.410  22.955  1.00  0.00    -0.344 N 
ATOM      9  C   UNL A   1      32.863  24.512  22.289  1.00  0.00     0.221 C 
ATOM     10  O   UNL A   1      33.271  24.703  21.141  1.00  0.00    -0.275 OA
ATOM     11  H   UNL A   1      33.883  22.824  22.422  1.00  0.00     0.164 HD
BRANCH   9  12
ATOM     12  C   UNL A   1      31.865  25.465  22.910  1.00  0.00     0.116 C 
BRANCH  12  13
ATOM     13  C   UNL A   1      32.137  26.914  22.464  1.00  0.00     0.116 C 
ATOM     14  C   UNL A   1      33.647  28.961  22.603  1.00  0.00     0.014 C 
ATOM     15  C   UNL A   1      33.279  27.608  23.228  1.00  0.00     0.034 C 
ATOM     16  C   UNL A   1      32.867  27.779  24.667  1.00  0.00    -0.001 A 
ATOM     17  C   UNL A   1      33.796  27.782  25.711  1.00  0.00     0.011 A 
ATOM     18  C   UNL A   1      31.509  27.889  24.978  1.00  0.00     0.138 A 
ATOM     19  C   UNL A   1      30.903  27.754  22.657  1.00  0.00     0.315 C 
ATOM     20  C   UNL A   1      33.356  27.828  27.036  1.00  0.00     0.047 A 
ATOM     21  C   UNL A   1      31.056  27.913  26.291  1.00  0.00     0.093 A 
ATOM     22  O   UNL A   1      30.541  28.002  23.969  1.00  0.00    -0.426 OA
ATOM     23  O   UNL A   1      30.229  28.161  21.722  1.00  0.00    -0.251 OA
ATOM     24  C   UNL A   1      31.991  27.866  27.315  1.00  0.00     0.119 A 
BRANCH  24  25
ATOM     25  O   UNL A   1      31.526  27.863  28.596  1.00  0.00    -0.508 OA
ATOM     26  H   UNL A   1      30.728  28.306  28.806  1.00  0.00     0.293 HD
ENDBRANCH  24  25
ENDBRANCH  12  13
ENDBRANCH   9  12
ENDBRANCH   7   8
BRANCH   7  27
ATOM     27  C   UNL A   1      33.623  21.494  24.644  1.00  0.00     0.068 C 
BRANCH  27  28
ATOM     28  C   UNL A   1      32.839  20.315  24.120  1.00  0.00    -0.037 C 
ATOM     29  C   UNL A   1      32.668  19.069  24.557  1.00  0.00     0.001 A 
ATOM     30  C   UNL A   1      32.111  20.403  22.804  1.00  0.00     0.174 C 
ATOM     31  C   UNL A   1      32.749  18.315  25.760  1.00  0.00     0.010 A 
ATOM     32  C   UNL A   1      32.600  18.368  23.254  1.00  0.00     0.065 A 
ATOM     33  N   UNL A   1      32.256  19.058  22.212  1.00  0.00    -0.280 NA
ATOM     34  C   UNL A   1      32.989  16.995  25.695  1.00  0.00     0.001 A 
ATOM     35  C   UNL A   1      33.099  16.973  23.252  1.00  0.00     0.028 A 
ATOM     36  C   UNL A   1      33.316  16.365  24.430  1.00  0.00     0.002 A 
ENDBRANCH  27  28
ENDBRANCH   7  27
ENDBRANCH   4   7
ENDBRANCH   2   3
ENDBRANCH   1   2
BRANCH   1  37
ATOM     37  C   UNL A   1      38.258  22.997  25.815  1.00  0.00     0.023 C 
BRANCH  37  38
ATOM     38  C   UNL A   1      39.356  23.096  26.866  1.00  0.00     0.116 C 
BRANCH  38  39
ATOM     39  N   UNL A   1      40.675  23.446  26.343  1.00  0.00    -0.352 N 
ATOM     40  C   UNL A   1      41.396  24.606  26.529  1.00  0.00     0.251 C 
ATOM     41  H   UNL A   1      41.106  22.762  25.780  1.00  0.00     0.163 HD
ATOM     42  O   UNL A   1      42.512  24.744  26.035  1.00  0.00    -0.269 OA
BRANCH  40  43
ATOM     43  C   UNL A   1      40.747  25.710  27.261  1.00  0.00     0.039 A 
ATOM     44  C   UNL A   1      41.226  27.009  27.100  1.00  0.00     0.014 A 
ATOM     45  C   UNL A   1      39.857  25.391  28.289  1.00  0.00     0.014 A 
ATOM     46  C   UNL A   1      41.023  27.921  28.127  1.00  0.00     0.010 A 
ATOM     47  C   UNL A   1      39.565  26.352  29.259  1.00  0.00     0.010 A 
ATOM     48  C   UNL A   1      40.219  27.593  29.236  1.00  0.00    -0.014 A 
BRANCH  48  49
ATOM     49  C   UNL A   1      40.137  28.536  30.385  1.00  0.00     0.031 A 
ATOM     50  C   UNL A   1      41.122  28.460  31.527  1.00  0.00     0.074 A 
ATOM     51  C   UNL A   1      39.216  29.518  30.357  1.00  0.00     0.049 A 
ATOM     52  N   UNL A   1      41.182  29.189  32.614  1.00  0.00    -0.248 NA
ATOM     53  C   UNL A   1      42.175  27.433  31.449  1.00  0.00     0.031 C 
ATOM     54  C   UNL A   1      38.227  29.713  29.295  1.00  0.00     0.029 A 
ATOM     55  N   UNL A   1      38.982  30.555  31.222  1.00  0.00    -0.354 N 
ATOM     56  C   UNL A   1      42.244  28.689  33.361  1.00  0.00     0.074 A 
ATOM     57  C   UNL A   1      42.797  27.582  32.612  1.00  0.00     0.031 C 
ATOM     58  C   UNL A   1      37.543  30.841  29.531  1.00  0.00     0.029 A 
ATOM     59  C   UNL A   1      37.982  31.400  30.804  1.00  0.00     0.049 A 
ATOM     60  H   UNL A   1      39.481  30.682  32.062  1.00  0.00     0.167 HD
ATOM     61  C   UNL A   1      42.718  29.118  34.555  1.00  0.00     0.037 A 
ATOM     62  C   UNL A   1      37.456  32.493  31.388  1.00  0.00     0.037 A 
ATOM     63  C   UNL A   1      42.191  30.250  35.275  1.00  0.00     0.049 A 
ATOM     64  C   UNL A   1      37.980  32.932  32.721  1.00  0.00     0.074 A 
ATOM     65  C   UNL A   1      42.614  30.775  36.484  1.00  0.00     0.029 A 
ATOM     66  N   UNL A   1      41.135  31.040  34.847  1.00  0.00    -0.354 N 
ATOM     67  N   UNL A   1      38.959  32.420  33.428  1.00  0.00    -0.248 NA
ATOM     68  C   UNL A   1      37.315  34.081  33.348  1.00  0.00     0.031 C 
ATOM     69  C   UNL A   1      41.791  31.860  36.804  1.00  0.00     0.029 A 
ATOM     70  C   UNL A   1      40.881  32.037  35.775  1.00  0.00     0.049 A 
ATOM     71  H   UNL A   1      40.638  30.911  34.006  1.00  0.00     0.167 HD
ATOM     72  C   UNL A   1      39.027  33.182  34.587  1.00  0.00     0.074 A 
ATOM     73  C   UNL A   1      38.007  34.206  34.474  1.00  0.00     0.031 C 
ATOM     74  C   UNL A   1      39.853  33.040  35.652  1.00  0.00     0.037 A 
BRANCH  61  75
ATOM     75  C   UNL A   1      43.859  28.358  35.180  1.00  0.00     0.058 A 
ATOM     76  C   UNL A   1      43.643  27.270  36.039  1.00  0.00     0.135 A 
ATOM     77  C   UNL A   1      45.188  28.686  34.863  1.00  0.00     0.135 A 
ATOM     78  F   UNL A   1      42.394  26.921  36.387  1.00  0.00    -0.206 F 
ATOM     79  C   UNL A   1      44.703  26.545  36.575  1.00  0.00     0.059 A 
ATOM     80  C   UNL A   1      46.264  27.961  35.372  1.00  0.00     0.059 A 
ATOM     81  F   UNL A   1      45.453  29.718  34.046  1.00  0.00    -0.206 F 
ATOM     82  C   UNL A   1      46.010  26.898  36.236  1.00  0.00     0.060 A 
BRANCH  82  83
ATOM     83  S   UNL A   1      47.374  25.942  36.937  1.00  0.00     0.124 S 
ATOM     84  O   UNL A   1      47.058  25.992  38.362  1.00  0.00    -0.237 OA
ATOM     85  O   UNL A   1      47.205  24.642  36.298  1.00  0.00    -0.237 OA
ATOM     86  O   UNL A   1      48.559  26.689  36.531  1.00  0.00    -0.744 OA
ENDBRANCH  82  83
ENDBRANCH  61  75
BRANCH  62  87
ATOM     87  C   UNL A   1      36.360  33.224  30.703  1.00  0.00     0.058 A 
ATOM     88  C   UNL A   1      35.037  33.121  31.154  1.00  0.00     0.135 A 
ATOM     89  C   UNL A   1      36.626  34.094  29.634  1.00  0.00     0.135 A 
ATOM     90  F   UNL A   1      34.735  32.298  32.169  1.00  0.00    -0.206 F 
ATOM     91  C   UNL A   1      34.015  33.866  30.574  1.00  0.00     0.059 A 
ATOM     92  C   UNL A   1      35.627  34.867  29.056  1.00  0.00     0.059 A 
ATOM     93  F   UNL A   1      37.882  34.237  29.181  1.00  0.00    -0.206 F 
ATOM     94  C   UNL A   1      34.323  34.744  29.532  1.00  0.00     0.060 A 
BRANCH  94  95
ATOM     95  S   UNL A   1      33.006  35.773  28.849  1.00  0.00     0.124 S 
ATOM     96  O   UNL A   1      32.312  34.825  27.986  1.00  0.00    -0.237 OA
ATOM     97  O   UNL A   1      32.288  36.189  30.050  1.00  0.00    -0.237 OA
ATOM     98  O   UNL A   1      33.735  36.837  28.165  1.00  0.00    -0.744 OA
ENDBRANCH  94  95
ENDBRANCH  62  87
BRANCH  74  99
ATOM     99  C   UNL A   1      39.687  34.013  36.782  1.00  0.00     0.058 A 
ATOM    100  C   UNL A   1      38.939  33.684  37.922  1.00  0.00     0.135 A 
ATOM    101  C   UNL A   1      40.322  35.265  36.748  1.00  0.00     0.135 A 
ATOM    102  F   UNL A   1      38.305  32.503  37.996  1.00  0.00    -0.206 F 
ATOM    103  C   UNL A   1      38.813  34.569  38.987  1.00  0.00     0.059 A 
ATOM    104  C   UNL A   1      40.228  36.157  37.811  1.00  0.00     0.059 A 
ATOM    105  F   UNL A   1      41.055  35.623  35.681  1.00  0.00    -0.206 F 
ATOM    106  C   UNL A   1      39.464  35.803  38.923  1.00  0.00     0.060 A 
BRANCH 106 107
ATOM    107  S   UNL A   1      39.323  36.926  40.329  1.00  0.00     0.124 S 
ATOM    108  O   UNL A   1      38.626  38.060  39.730  1.00  0.00    -0.237 OA
ATOM    109  O   UNL A   1      38.549  36.139  41.283  1.00  0.00    -0.237 OA
ATOM    110  O   UNL A   1      40.711  37.172  40.707  1.00  0.00    -0.744 OA
ENDBRANCH 106 107
ENDBRANCH  74  99
ENDBRANCH  48  49
ENDBRANCH  40  43
ENDBRANCH  38  39
ENDBRANCH  37  38
ENDBRANCH   1  37
TORSDOF 20
ENDMDL
MODEL 3
REMARK VINA RESULT:     -13.1      3.059      9.185
REMARK SMILES C[C@H]1c2ccc(O)cc2OC(=O)[C@@H]1CC(=O)N[C@@H](CC1=c2ccccc2=NC1)C(=O)NCCCCNC(=O)c1ccc(-c2c3nc(c(-c4c(F)cc(S(=O)(=O)[O-])cc4F)c4ccc([nH]4)c(-c4c(F)cc(S(=O)(=O)[O-])cc4F)c4nc(c(-c5c(F)cc(S(=O)(=O)[O-])cc5F)c5ccc2[nH]5)C=C4)C=C3)cc1
REMARK SMILES IDX 33 1 32 2 31 3 29 4 30 5 18 7 17 8 15 9 16 10 14 12 13 13
REMARK SMILES IDX 1 14 2 15 3 16 4 17 9 18 11 19 5 20 8 21 10 22 12 23 6 24
REMARK SMILES IDX 7 25 19 27 20 28 21 29 28 30 22 31 26 32 27 33 23 34 25 35
REMARK SMILES IDX 24 36 34 37 35 38 36 39 37 40 38 42 39 43 40 44 104 45 41 46
REMARK SMILES IDX 103 47 42 48 43 49 44 50 97 51 45 52 102 53 96 54 98 55
REMARK SMILES IDX 46 56 101 57 95 58 94 59 47 61 81 62 60 63 80 64 61 65 64 66
REMARK SMILES IDX 79 67 99 68 62 69 63 70 78 72 100 73 65 74 48 75 49 76 58 77
REMARK SMILES IDX 50 78 51 79 57 80 59 81 52 82 53 83 54 84 55 85 56 86 82 87
REMARK SMILES IDX 83 88 92 89 84 90 85 91 91 92 93 93 86 94 87 95 88 96 89 97
REMARK SMILES IDX 90 98 66 99 67 100 76 101 68 102 69 103 75 104 77 105 70 106
REMARK SMILES IDX 71 107 72 108 73 109 74 110
REMARK H PARENT 31 6 17 11 7 26 36 41 98 60 64 71
REMARK Flexibility Score: inf
ROOT
ATOM      1  C   UNL A   1      37.459  20.742  24.958  1.00  0.00     0.023 C 
ENDROOT
BRANCH   1   2
ATOM      2  C   UNL A   1      35.994  20.856  25.345  1.00  0.00     0.116 C 
BRANCH   2   3
ATOM      3  N   UNL A   1      35.687  21.811  26.371  1.00  0.00    -0.354 N 
ATOM      4  C   UNL A   1      34.451  22.090  26.882  1.00  0.00     0.242 C 
ATOM      5  O   UNL A   1      34.403  22.777  27.909  1.00  0.00    -0.273 OA
ATOM      6  H   UNL A   1      36.445  22.319  26.743  1.00  0.00     0.163 HD
BRANCH   4   7
ATOM      7  C   UNL A   1      33.145  21.496  26.277  1.00  0.00     0.175 C 
BRANCH   7   8
ATOM      8  N   UNL A   1      31.904  22.110  26.792  1.00  0.00    -0.344 N 
ATOM      9  C   UNL A   1      31.434  23.385  26.744  1.00  0.00     0.221 C 
ATOM     10  O   UNL A   1      30.317  23.615  27.211  1.00  0.00    -0.275 OA
ATOM     11  H   UNL A   1      31.307  21.479  27.254  1.00  0.00     0.164 HD
BRANCH   9  12
ATOM     12  C   UNL A   1      32.270  24.513  26.178  1.00  0.00     0.116 C 
BRANCH  12  13
ATOM     13  C   UNL A   1      32.403  24.385  24.649  1.00  0.00     0.116 C 
ATOM     14  C   UNL A   1      33.658  25.055  22.535  1.00  0.00     0.014 C 
ATOM     15  C   UNL A   1      33.407  25.367  24.017  1.00  0.00     0.034 C 
ATOM     16  C   UNL A   1      32.885  26.770  24.185  1.00  0.00    -0.001 A 
ATOM     17  C   UNL A   1      33.737  27.871  24.303  1.00  0.00     0.011 A 
ATOM     18  C   UNL A   1      31.505  26.978  24.276  1.00  0.00     0.138 A 
ATOM     19  C   UNL A   1      31.072  24.631  23.993  1.00  0.00     0.315 C 
ATOM     20  C   UNL A   1      33.208  29.137  24.573  1.00  0.00     0.047 A 
ATOM     21  C   UNL A   1      30.967  28.225  24.564  1.00  0.00     0.093 A 
ATOM     22  O   UNL A   1      30.599  25.930  24.054  1.00  0.00    -0.426 OA
ATOM     23  O   UNL A   1      30.418  23.739  23.472  1.00  0.00    -0.251 OA
ATOM     24  C   UNL A   1      31.832  29.297  24.727  1.00  0.00     0.119 A 
BRANCH  24  25
ATOM     25  O   UNL A   1      31.288  30.507  25.038  1.00  0.00    -0.508 OA
ATOM     26  H   UNL A   1      30.396  30.561  25.319  1.00  0.00     0.293 HD
ENDBRANCH  24  25
ENDBRANCH  12  13
ENDBRANCH   9  12
ENDBRANCH   7   8
BRANCH   7  27
ATOM     27  C   UNL A   1      33.219  21.354  24.711  1.00  0.00     0.068 C 
BRANCH  27  28
ATOM     28  C   UNL A   1      32.673  20.085  24.103  1.00  0.00    -0.037 C 
ATOM     29  C   UNL A   1      32.638  18.820  24.519  1.00  0.00     0.001 A 
ATOM     30  C   UNL A   1      32.086  20.088  22.717  1.00  0.00     0.174 C 
ATOM     31  C   UNL A   1      32.696  18.066  25.723  1.00  0.00     0.010 A 
ATOM     32  C   UNL A   1      32.812  18.137  23.216  1.00  0.00     0.065 A 
ATOM     33  N   UNL A   1      32.487  18.788  22.143  1.00  0.00    -0.280 NA
ATOM     34  C   UNL A   1      33.129  16.795  25.684  1.00  0.00     0.001 A 
ATOM     35  C   UNL A   1      33.504  16.829  23.267  1.00  0.00     0.028 A 
ATOM     36  C   UNL A   1      33.678  16.239  24.462  1.00  0.00     0.002 A 
ENDBRANCH  27  28
ENDBRANCH   7  27
ENDBRANCH   4   7
ENDBRANCH   2   3
ENDBRANCH   1   2
BRANCH   1  37
ATOM     37  C   UNL A   1      38.356  21.870  25.453  1.00  0.00     0.023 C 
BRANCH  37  38
ATOM     38  C   UNL A   1      39.538  21.454  26.319  1.00  0.00     0.116 C 
BRANCH  38  39
ATOM     39  N   UNL A   1      40.078  20.129  26.022  1.00  0.00    -0.352 N 
ATOM     40  C   UNL A   1      41.384  19.692  26.102  1.00  0.00     0.251 C 
ATOM     41  H   UNL A   1      39.422  19.458  25.724  1.00  0.00     0.163 HD
ATOM     42  O   UNL A   1      41.680  18.531  25.836  1.00  0.00    -0.269 OA
BRANCH  40  43
ATOM     43  C   UNL A   1      42.423  20.687  26.425  1.00  0.00     0.039 A 
ATOM     44  C   UNL A   1      42.560  21.127  27.741  1.00  0.00     0.014 A 
ATOM     45  C   UNL A   1      43.054  21.354  25.373  1.00  0.00     0.014 A 
ATOM     46  C   UNL A   1      43.105  22.384  27.966  1.00  0.00     0.010 A 
ATOM     47  C   UNL A   1      43.702  22.565  25.625  1.00  0.00     0.010 A 
ATOM     48  C   UNL A   1      43.651  23.134  26.906  1.00  0.00    -0.014 A 
BRANCH  48  49
ATOM     49  C   UNL A   1      44.096  24.533  27.153  1.00  0.00     0.031 A 
ATOM     50  C   UNL A   1      45.514  24.962  26.856  1.00  0.00     0.074 A 
ATOM     51  C   UNL A   1      43.194  25.440  27.571  1.00  0.00     0.049 A 
ATOM     52  N   UNL A   1      46.074  26.134  27.030  1.00  0.00    -0.248 NA
ATOM     53  C   UNL A   1      46.427  23.951  26.296  1.00  0.00     0.031 C 
ATOM     54  C   UNL A   1      41.788  25.154  27.866  1.00  0.00     0.029 A 
ATOM     55  N   UNL A   1      43.310  26.789  27.788  1.00  0.00    -0.354 N 
ATOM     56  C   UNL A   1      47.402  25.992  26.642  1.00  0.00     0.074 A 
ATOM     57  C   UNL A   1      47.574  24.615  26.234  1.00  0.00     0.031 C 
ATOM     58  C   UNL A   1      41.156  26.300  28.152  1.00  0.00     0.029 A 
ATOM     59  C   UNL A   1      42.127  27.388  28.150  1.00  0.00     0.049 A 
ATOM     60  H   UNL A   1      44.158  27.280  27.695  1.00  0.00     0.167 HD
ATOM     61  C   UNL A   1      48.385  26.925  26.621  1.00  0.00     0.037 A 
ATOM     62  C   UNL A   1      41.853  28.667  28.468  1.00  0.00     0.037 A 
ATOM     63  C   UNL A   1      48.196  28.307  26.986  1.00  0.00     0.049 A 
ATOM     64  C   UNL A   1      42.962  29.674  28.462  1.00  0.00     0.074 A 
ATOM     65  C   UNL A   1      49.124  29.334  26.980  1.00  0.00     0.029 A 
ATOM     66  N   UNL A   1      46.995  28.858  27.408  1.00  0.00    -0.354 N 
ATOM     67  N   UNL A   1      44.219  29.509  28.131  1.00  0.00    -0.248 NA
ATOM     68  C   UNL A   1      42.622  31.035  28.896  1.00  0.00     0.031 C 
ATOM     69  C   UNL A   1      48.494  30.497  27.434  1.00  0.00     0.029 A 
ATOM     70  C   UNL A   1      47.163  30.206  27.683  1.00  0.00     0.049 A 
ATOM     71  H   UNL A   1      46.148  28.364  27.500  1.00  0.00     0.167 HD
ATOM     72  C   UNL A   1      44.825  30.745  28.318  1.00  0.00     0.074 A 
ATOM     73  C   UNL A   1      43.789  31.654  28.768  1.00  0.00     0.031 C 
ATOM     74  C   UNL A   1      46.123  31.092  28.142  1.00  0.00     0.037 A 
BRANCH  61  75
ATOM     75  C   UNL A   1      49.765  26.492  26.202  1.00  0.00     0.058 A 
ATOM     76  C   UNL A   1      50.261  26.739  24.914  1.00  0.00     0.135 A 
ATOM     77  C   UNL A   1      50.626  25.874  27.126  1.00  0.00     0.135 A 
ATOM     78  F   UNL A   1      49.478  27.312  23.987  1.00  0.00    -0.206 F 
ATOM     79  C   UNL A   1      51.555  26.375  24.550  1.00  0.00     0.059 A 
ATOM     80  C   UNL A   1      51.931  25.521  26.790  1.00  0.00     0.059 A 
ATOM     81  F   UNL A   1      50.204  25.614  28.374  1.00  0.00    -0.206 F 
ATOM     82  C   UNL A   1      52.382  25.766  25.495  1.00  0.00     0.060 A 
BRANCH  82  83
ATOM     83  S   UNL A   1      54.060  25.307  25.007  1.00  0.00     0.124 S 
ATOM     84  O   UNL A   1      54.174  25.966  23.709  1.00  0.00    -0.237 OA
ATOM     85  O   UNL A   1      54.865  25.879  26.080  1.00  0.00    -0.237 OA
ATOM     86  O   UNL A   1      54.017  23.849  24.967  1.00  0.00    -0.744 OA
ENDBRANCH  82  83
ENDBRANCH  61  75
BRANCH  62  87
ATOM     87  C   UNL A   1      40.463  29.040  28.833  1.00  0.00     0.058 A 
ATOM     88  C   UNL A   1      40.074  29.141  30.176  1.00  0.00     0.135 A 
ATOM     89  C   UNL A   1      39.520  29.375  27.848  1.00  0.00     0.135 A 
ATOM     90  F   UNL A   1      40.941  28.826  31.151  1.00  0.00    -0.206 F 
ATOM     91  C   UNL A   1      38.801  29.571  30.531  1.00  0.00     0.059 A 
ATOM     92  C   UNL A   1      38.250  29.832  28.178  1.00  0.00     0.059 A 
ATOM     93  F   UNL A   1      39.854  29.310  26.549  1.00  0.00    -0.206 F 
ATOM     94  C   UNL A   1      37.899  29.925  29.524  1.00  0.00     0.060 A 
BRANCH  94  95
ATOM     95  S   UNL A   1      36.280  30.570  29.997  1.00  0.00     0.124 S 
ATOM     96  O   UNL A   1      36.587  31.972  30.249  1.00  0.00    -0.237 OA
ATOM     97  O   UNL A   1      35.481  30.293  28.808  1.00  0.00    -0.237 OA
ATOM     98  O   UNL A   1      35.935  29.775  31.173  1.00  0.00    -0.744 OA
ENDBRANCH  94  95
ENDBRANCH  62  87
BRANCH  74  99
ATOM     99  C   UNL A   1      46.498  32.515  28.440  1.00  0.00     0.058 A 
ATOM    100  C   UNL A   1      46.975  32.892  29.704  1.00  0.00     0.135 A 
ATOM    101  C   UNL A   1      46.428  33.497  27.440  1.00  0.00     0.135 A 
ATOM    102  F   UNL A   1      47.049  31.990  30.695  1.00  0.00    -0.206 F 
ATOM    103  C   UNL A   1      47.357  34.202  29.972  1.00  0.00     0.059 A 
ATOM    104  C   UNL A   1      46.826  34.808  27.679  1.00  0.00     0.059 A 
ATOM    105  F   UNL A   1      45.985  33.183  26.212  1.00  0.00    -0.206 F 
ATOM    106  C   UNL A   1      47.282  35.152  28.952  1.00  0.00     0.060 A 
BRANCH 106 107
ATOM    107  S   UNL A   1      47.818  36.840  29.304  1.00  0.00     0.124 S 
ATOM    108  O   UNL A   1      47.171  37.584  28.228  1.00  0.00    -0.237 OA
ATOM    109  O   UNL A   1      47.281  37.066  30.642  1.00  0.00    -0.237 OA
ATOM    110  O   UNL A   1      49.273  36.758  29.223  1.00  0.00    -0.744 OA
ENDBRANCH 106 107
ENDBRANCH  74  99
ENDBRANCH  48  49
ENDBRANCH  40  43
ENDBRANCH  38  39
ENDBRANCH  37  38
ENDBRANCH   1  37
TORSDOF 20
ENDMDL
