MODEL 1
REMARK VINA RESULT:     -12.0      0.000      0.000
REMARK SMILES CCC(C)(C)NC(=O)[C@@H](C)Oc1ccc(C)nc1C(=O)NCCCCNC(=O)c1ccc(-c2c3nc(c(-c4c(F)cc(S(=O)(=O)[O-])cc4F)c4ccc([nH]4)c(-c4c(F)cc(S(=O)(=O)[O-])cc4F)c4nc(c(-c5c(F)cc(S(=O)(=O)[O-])cc5F)c5ccc2[nH]5)C=C4)C=C3)cc1
REMARK SMILES IDX 22 1 21 2 19 3 20 4 18 6 12 7 13 8 14 9 17 10 15 11 16 12
REMARK SMILES IDX 11 13 9 14 10 15 7 16 6 17 8 19 3 20 4 21 5 22 2 23 1 24
REMARK SMILES IDX 23 25 24 26 25 27 26 28 27 29 28 31 29 32 30 33 94 34 31 35
REMARK SMILES IDX 93 36 32 37 33 38 34 39 87 40 35 41 92 42 86 43 88 44 36 45
REMARK SMILES IDX 91 46 85 47 84 48 37 50 71 51 50 52 70 53 51 54 54 55 69 56
REMARK SMILES IDX 89 57 52 58 53 59 68 61 90 62 55 63 38 64 39 65 48 66 40 67
REMARK SMILES IDX 41 68 47 69 49 70 42 71 43 72 44 73 45 74 46 75 72 76 73 77
REMARK SMILES IDX 82 78 74 79 75 80 81 81 83 82 76 83 77 84 78 85 79 86 80 87
REMARK SMILES IDX 56 88 57 89 66 90 58 91 59 92 65 93 67 94 60 95 61 96 62 97
REMARK SMILES IDX 63 98 64 99
REMARK H PARENT 21 5 6 18 26 30 88 49 54 60
REMARK Flexibility Score: inf
ROOT
ATOM      1  C   UNL A   1      36.421  23.458  25.697  1.00  0.00     0.116 C 
ENDROOT
BRANCH   1   2
ATOM      2  N   UNL A   1      35.555  22.983  26.749  1.00  0.00    -0.351 N 
ATOM      3  C   UNL A   1      34.316  22.400  26.789  1.00  0.00     0.273 C 
ATOM      4  O   UNL A   1      33.818  22.388  27.925  1.00  0.00    -0.267 OA
ATOM      5  H   UNL A   1      35.945  23.108  27.644  1.00  0.00     0.163 HD
BRANCH   3   6
ATOM      6  C   UNL A   1      33.575  21.707  25.666  1.00  0.00     0.170 A 
ATOM      7  C   UNL A   1      33.003  22.226  24.498  1.00  0.00     0.151 A 
ATOM      8  C   UNL A   1      32.686  21.304  23.493  1.00  0.00     0.051 A 
ATOM      9  C   UNL A   1      32.620  19.939  23.778  1.00  0.00     0.027 A 
ATOM     10  N   UNL A   1      33.469  20.367  25.946  1.00  0.00    -0.244 NA
ATOM     11  C   UNL A   1      32.906  19.530  25.061  1.00  0.00     0.038 A 
ATOM     12  C   UNL A   1      32.550  18.165  25.561  1.00  0.00     0.067 C 
BRANCH   7  13
ATOM     13  O   UNL A   1      32.594  23.531  24.448  1.00  0.00    -0.478 OA
BRANCH  13  14
ATOM     14  C   UNL A   1      31.340  23.917  24.997  1.00  0.00     0.259 C 
ATOM     15  C   UNL A   1      30.550  24.734  23.958  1.00  0.00     0.064 C 
BRANCH  14  16
ATOM     16  C   UNL A   1      31.120  24.687  26.327  1.00  0.00     0.261 C 
ATOM     17  N   UNL A   1      30.851  26.021  26.362  1.00  0.00    -0.348 N 
ATOM     18  H   UNL A   1      29.905  26.237  26.533  1.00  0.00     0.164 HD
ATOM     19  O   UNL A   1      30.958  24.059  27.382  1.00  0.00    -0.271 OA
BRANCH  17  20
ATOM     20  C   UNL A   1      31.721  27.210  26.191  1.00  0.00     0.034 C 
ATOM     21  C   UNL A   1      33.188  26.723  26.117  1.00  0.00     0.034 C 
ATOM     22  C   UNL A   1      31.576  28.027  27.496  1.00  0.00     0.034 C 
BRANCH  20  23
ATOM     23  C   UNL A   1      31.476  28.173  25.002  1.00  0.00     0.024 C 
ATOM     24  C   UNL A   1      32.617  29.031  24.489  1.00  0.00     0.006 C 
ENDBRANCH  20  23
ENDBRANCH  17  20
ENDBRANCH  14  16
ENDBRANCH  13  14
ENDBRANCH   7  13
ENDBRANCH   3   6
ENDBRANCH   1   2
BRANCH   1  25
ATOM     25  C   UNL A   1      37.594  22.487  25.541  1.00  0.00     0.023 C 
BRANCH  25  26
ATOM     26  C   UNL A   1      38.724  22.654  26.553  1.00  0.00     0.023 C 
BRANCH  26  27
ATOM     27  C   UNL A   1      39.145  24.095  26.802  1.00  0.00     0.116 C 
BRANCH  27  28
ATOM     28  N   UNL A   1      40.069  24.644  25.817  1.00  0.00    -0.352 N 
ATOM     29  C   UNL A   1      40.944  25.696  25.993  1.00  0.00     0.251 C 
ATOM     30  H   UNL A   1      40.069  24.218  24.930  1.00  0.00     0.163 HD
ATOM     31  O   UNL A   1      41.634  26.103  25.065  1.00  0.00    -0.269 OA
BRANCH  29  32
ATOM     32  C   UNL A   1      40.975  26.359  27.314  1.00  0.00     0.039 A 
ATOM     33  C   UNL A   1      41.956  27.318  27.572  1.00  0.00     0.014 A 
ATOM     34  C   UNL A   1      39.942  26.136  28.227  1.00  0.00     0.014 A 
ATOM     35  C   UNL A   1      41.841  28.121  28.708  1.00  0.00     0.010 A 
ATOM     36  C   UNL A   1      39.767  27.014  29.287  1.00  0.00     0.010 A 
ATOM     37  C   UNL A   1      40.717  28.013  29.544  1.00  0.00    -0.014 A 
BRANCH  37  38
ATOM     38  C   UNL A   1      40.521  28.923  30.703  1.00  0.00     0.031 A 
ATOM     39  C   UNL A   1      41.396  28.782  31.921  1.00  0.00     0.074 A 
ATOM     40  C   UNL A   1      39.521  29.828  30.687  1.00  0.00     0.049 A 
ATOM     41  N   UNL A   1      41.362  29.451  33.044  1.00  0.00    -0.248 NA
ATOM     42  C   UNL A   1      42.418  27.723  31.886  1.00  0.00     0.031 C 
ATOM     43  C   UNL A   1      38.557  30.011  29.598  1.00  0.00     0.029 A 
ATOM     44  N   UNL A   1      39.150  30.769  31.613  1.00  0.00    -0.354 N 
ATOM     45  C   UNL A   1      42.343  28.883  33.848  1.00  0.00     0.074 A 
ATOM     46  C   UNL A   1      42.895  27.764  33.120  1.00  0.00     0.031 C 
ATOM     47  C   UNL A   1      37.743  31.036  29.897  1.00  0.00     0.029 A 
ATOM     48  C   UNL A   1      38.101  31.563  31.209  1.00  0.00     0.049 A 
ATOM     49  H   UNL A   1      39.594  30.868  32.487  1.00  0.00     0.167 HD
ATOM     50  C   UNL A   1      42.779  29.282  35.067  1.00  0.00     0.037 A 
ATOM     51  C   UNL A   1      37.508  32.606  31.822  1.00  0.00     0.037 A 
ATOM     52  C   UNL A   1      42.252  30.419  35.771  1.00  0.00     0.049 A 
ATOM     53  C   UNL A   1      38.021  33.046  33.168  1.00  0.00     0.074 A 
ATOM     54  C   UNL A   1      42.654  30.944  36.985  1.00  0.00     0.029 A 
ATOM     55  N   UNL A   1      41.208  31.213  35.316  1.00  0.00    -0.354 N 
ATOM     56  N   UNL A   1      38.996  32.541  33.885  1.00  0.00    -0.248 NA
ATOM     57  C   UNL A   1      37.360  34.205  33.783  1.00  0.00     0.031 C 
ATOM     58  C   UNL A   1      41.831  32.037  37.281  1.00  0.00     0.029 A 
ATOM     59  C   UNL A   1      40.946  32.219  36.229  1.00  0.00     0.049 A 
ATOM     60  H   UNL A   1      40.726  31.080  34.468  1.00  0.00     0.167 HD
ATOM     61  C   UNL A   1      39.090  33.340  35.018  1.00  0.00     0.074 A 
ATOM     62  C   UNL A   1      38.075  34.367  34.887  1.00  0.00     0.031 C 
ATOM     63  C   UNL A   1      39.939  33.239  36.070  1.00  0.00     0.037 A 
BRANCH  50  64
ATOM     64  C   UNL A   1      43.894  28.488  35.692  1.00  0.00     0.058 A 
ATOM     65  C   UNL A   1      45.242  28.759  35.400  1.00  0.00     0.135 A 
ATOM     66  C   UNL A   1      43.618  27.435  36.578  1.00  0.00     0.135 A 
ATOM     67  F   UNL A   1      45.563  29.743  34.544  1.00  0.00    -0.206 F 
ATOM     68  C   UNL A   1      46.272  27.985  35.923  1.00  0.00     0.059 A 
ATOM     69  C   UNL A   1      44.635  26.668  37.140  1.00  0.00     0.059 A 
ATOM     70  F   UNL A   1      42.350  27.131  36.894  1.00  0.00    -0.206 F 
ATOM     71  C   UNL A   1      45.957  26.937  36.788  1.00  0.00     0.060 A 
BRANCH  71  72
ATOM     72  S   UNL A   1      47.303  25.925  37.439  1.00  0.00     0.124 S 
ATOM     73  O   UNL A   1      47.506  26.525  38.754  1.00  0.00    -0.237 OA
ATOM     74  O   UNL A   1      46.719  24.588  37.435  1.00  0.00    -0.237 OA
ATOM     75  O   UNL A   1      48.381  26.138  36.478  1.00  0.00    -0.744 OA
ENDBRANCH  71  72
ENDBRANCH  50  64
BRANCH  51  76
ATOM     76  C   UNL A   1      36.413  33.347  31.142  1.00  0.00     0.058 A 
ATOM     77  C   UNL A   1      36.681  34.148  30.021  1.00  0.00     0.135 A 
ATOM     78  C   UNL A   1      35.083  33.263  31.580  1.00  0.00     0.135 A 
ATOM     79  F   UNL A   1      37.937  34.265  29.566  1.00  0.00    -0.206 F 
ATOM     80  C   UNL A   1      35.674  34.852  29.369  1.00  0.00     0.059 A 
ATOM     81  C   UNL A   1      34.055  33.939  30.930  1.00  0.00     0.059 A 
ATOM     82  F   UNL A   1      34.770  32.497  32.637  1.00  0.00    -0.206 F 
ATOM     83  C   UNL A   1      34.361  34.739  29.829  1.00  0.00     0.060 A 
BRANCH  83  84
ATOM     84  S   UNL A   1      33.055  35.617  28.943  1.00  0.00     0.124 S 
ATOM     85  O   UNL A   1      33.819  36.616  28.206  1.00  0.00    -0.237 OA
ATOM     86  O   UNL A   1      32.457  34.551  28.145  1.00  0.00    -0.237 OA
ATOM     87  O   UNL A   1      32.210  36.132  30.016  1.00  0.00    -0.744 OA
ENDBRANCH  83  84
ENDBRANCH  51  76
BRANCH  63  88
ATOM     88  C   UNL A   1      39.841  34.289  37.142  1.00  0.00     0.058 A 
ATOM     89  C   UNL A   1      40.542  35.501  37.056  1.00  0.00     0.135 A 
ATOM     90  C   UNL A   1      38.989  34.097  38.243  1.00  0.00     0.135 A 
ATOM     91  F   UNL A   1      41.372  35.730  36.026  1.00  0.00    -0.206 F 
ATOM     92  C   UNL A   1      40.422  36.478  38.037  1.00  0.00     0.059 A 
ATOM     93  C   UNL A   1      38.834  35.072  39.221  1.00  0.00     0.059 A 
ATOM     94  F   UNL A   1      38.287  32.959  38.365  1.00  0.00    -0.206 F 
ATOM     95  C   UNL A   1      39.564  36.255  39.116  1.00  0.00     0.060 A 
BRANCH  95  96
ATOM     96  S   UNL A   1      39.390  37.545  40.366  1.00  0.00     0.124 S 
ATOM     97  O   UNL A   1      40.702  38.184  40.313  1.00  0.00    -0.237 OA
ATOM     98  O   UNL A   1      38.279  38.336  39.849  1.00  0.00    -0.237 OA
ATOM     99  O   UNL A   1      39.105  36.798  41.588  1.00  0.00    -0.744 OA
ENDBRANCH  95  96
ENDBRANCH  63  88
ENDBRANCH  37  38
ENDBRANCH  29  32
ENDBRANCH  27  28
ENDBRANCH  26  27
ENDBRANCH  25  26
ENDBRANCH   1  25
TORSDOF 19
ENDMDL
MODEL 2
REMARK VINA RESULT:     -11.7      1.010      3.495
REMARK SMILES CCC(C)(C)NC(=O)[C@@H](C)Oc1ccc(C)nc1C(=O)NCCCCNC(=O)c1ccc(-c2c3nc(c(-c4c(F)cc(S(=O)(=O)[O-])cc4F)c4ccc([nH]4)c(-c4c(F)cc(S(=O)(=O)[O-])cc4F)c4nc(c(-c5c(F)cc(S(=O)(=O)[O-])cc5F)c5ccc2[nH]5)C=C4)C=C3)cc1
REMARK SMILES IDX 22 1 21 2 19 3 20 4 18 6 12 7 13 8 14 9 17 10 15 11 16 12
REMARK SMILES IDX 11 13 9 14 10 15 7 16 6 17 8 19 3 20 4 21 5 22 2 23 1 24
REMARK SMILES IDX 23 25 24 26 25 27 26 28 27 29 28 31 29 32 30 33 94 34 31 35
REMARK SMILES IDX 93 36 32 37 33 38 34 39 87 40 35 41 92 42 86 43 88 44 36 45
REMARK SMILES IDX 91 46 85 47 84 48 37 50 71 51 50 52 70 53 51 54 54 55 69 56
REMARK SMILES IDX 89 57 52 58 53 59 68 61 90 62 55 63 38 64 39 65 48 66 40 67
REMARK SMILES IDX 41 68 47 69 49 70 42 71 43 72 44 73 45 74 46 75 72 76 73 77
REMARK SMILES IDX 82 78 74 79 75 80 81 81 83 82 76 83 77 84 78 85 79 86 80 87
REMARK SMILES IDX 56 88 57 89 66 90 58 91 59 92 65 93 67 94 60 95 61 96 62 97
REMARK SMILES IDX 63 98 64 99
REMARK H PARENT 21 5 6 18 26 30 88 49 54 60
REMARK Flexibility Score: inf
ROOT
ATOM      1  C   UNL A   1      36.696  21.796  25.144  1.00  0.00     0.116 C 
ENDROOT
BRANCH   1   2
ATOM      2  N   UNL A   1      35.724  21.888  26.206  1.00  0.00    -0.351 N 
ATOM      3  C   UNL A   1      34.702  22.749  26.507  1.00  0.00     0.273 C 
ATOM      4  O   UNL A   1      34.275  22.617  27.663  1.00  0.00    -0.267 OA
ATOM      5  H   UNL A   1      35.819  21.165  26.868  1.00  0.00     0.163 HD
BRANCH   3   6
ATOM      6  C   UNL A   1      34.001  23.723  25.582  1.00  0.00     0.170 A 
ATOM      7  C   UNL A   1      33.429  23.525  24.320  1.00  0.00     0.151 A 
ATOM      8  C   UNL A   1      32.563  24.525  23.861  1.00  0.00     0.051 A 
ATOM      9  C   UNL A   1      32.550  25.783  24.466  1.00  0.00     0.027 A 
ATOM     10  N   UNL A   1      34.010  24.975  26.145  1.00  0.00    -0.244 NA
ATOM     11  C   UNL A   1      33.388  25.997  25.537  1.00  0.00     0.038 A 
ATOM     12  C   UNL A   1      33.702  27.370  26.043  1.00  0.00     0.067 C 
BRANCH   7  13
ATOM     13  O   UNL A   1      33.869  22.513  23.511  1.00  0.00    -0.478 OA
BRANCH  13  14
ATOM     14  C   UNL A   1      33.158  21.282  23.443  1.00  0.00     0.259 C 
ATOM     15  C   UNL A   1      31.989  21.413  22.450  1.00  0.00     0.064 C 
BRANCH  14  16
ATOM     16  C   UNL A   1      32.547  20.510  24.644  1.00  0.00     0.261 C 
ATOM     17  N   UNL A   1      33.154  19.423  25.197  1.00  0.00    -0.348 N 
ATOM     18  H   UNL A   1      33.612  19.609  26.050  1.00  0.00     0.164 HD
ATOM     19  O   UNL A   1      31.604  21.002  25.276  1.00  0.00    -0.271 OA
BRANCH  17  20
ATOM     20  C   UNL A   1      33.251  18.012  24.753  1.00  0.00     0.034 C 
ATOM     21  C   UNL A   1      34.719  17.739  24.344  1.00  0.00     0.034 C 
ATOM     22  C   UNL A   1      32.394  17.916  23.469  1.00  0.00     0.034 C 
BRANCH  20  23
ATOM     23  C   UNL A   1      32.801  16.877  25.706  1.00  0.00     0.024 C 
ATOM     24  C   UNL A   1      32.809  15.441  25.214  1.00  0.00     0.006 C 
ENDBRANCH  20  23
ENDBRANCH  17  20
ENDBRANCH  14  16
ENDBRANCH  13  14
ENDBRANCH   7  13
ENDBRANCH   3   6
ENDBRANCH   1   2
BRANCH   1  25
ATOM     25  C   UNL A   1      38.095  22.008  25.728  1.00  0.00     0.023 C 
BRANCH  25  26
ATOM     26  C   UNL A   1      38.426  23.442  26.134  1.00  0.00     0.023 C 
BRANCH  26  27
ATOM     27  C   UNL A   1      39.608  23.576  27.082  1.00  0.00     0.116 C 
BRANCH  27  28
ATOM     28  N   UNL A   1      40.886  23.850  26.437  1.00  0.00    -0.352 N 
ATOM     29  C   UNL A   1      41.667  24.976  26.585  1.00  0.00     0.251 C 
ATOM     30  H   UNL A   1      41.227  23.155  25.829  1.00  0.00     0.163 HD
ATOM     31  O   UNL A   1      42.702  25.115  25.941  1.00  0.00    -0.269 OA
BRANCH  29  32
ATOM     32  C   UNL A   1      41.188  26.040  27.493  1.00  0.00     0.039 A 
ATOM     33  C   UNL A   1      40.176  25.750  28.409  1.00  0.00     0.014 A 
ATOM     34  C   UNL A   1      41.851  27.269  27.531  1.00  0.00     0.014 A 
ATOM     35  C   UNL A   1      39.897  26.664  29.427  1.00  0.00     0.010 A 
ATOM     36  C   UNL A   1      41.654  28.116  28.612  1.00  0.00     0.010 A 
ATOM     37  C   UNL A   1      40.672  27.828  29.570  1.00  0.00    -0.014 A 
BRANCH  37  38
ATOM     38  C   UNL A   1      40.462  28.767  30.703  1.00  0.00     0.031 A 
ATOM     39  C   UNL A   1      41.309  28.645  31.942  1.00  0.00     0.074 A 
ATOM     40  C   UNL A   1      39.473  29.681  30.644  1.00  0.00     0.049 A 
ATOM     41  N   UNL A   1      41.259  29.339  33.048  1.00  0.00    -0.248 NA
ATOM     42  C   UNL A   1      42.320  27.574  31.953  1.00  0.00     0.031 C 
ATOM     43  C   UNL A   1      38.534  29.850  29.531  1.00  0.00     0.029 A 
ATOM     44  N   UNL A   1      39.093  30.648  31.541  1.00  0.00    -0.354 N 
ATOM     45  C   UNL A   1      42.216  28.780  33.886  1.00  0.00     0.074 A 
ATOM     46  C   UNL A   1      42.771  27.639  33.196  1.00  0.00     0.031 C 
ATOM     47  C   UNL A   1      37.725  30.890  29.789  1.00  0.00     0.029 A 
ATOM     48  C   UNL A   1      38.062  31.443  31.097  1.00  0.00     0.049 A 
ATOM     49  H   UNL A   1      39.519  30.762  32.422  1.00  0.00     0.167 HD
ATOM     50  C   UNL A   1      42.631  29.202  35.104  1.00  0.00     0.037 A 
ATOM     51  C   UNL A   1      37.467  32.506  31.673  1.00  0.00     0.037 A 
ATOM     52  C   UNL A   1      42.102  30.360  35.771  1.00  0.00     0.049 A 
ATOM     53  C   UNL A   1      37.956  32.971  33.019  1.00  0.00     0.074 A 
ATOM     54  C   UNL A   1      42.483  30.909  36.981  1.00  0.00     0.029 A 
ATOM     55  N   UNL A   1      41.077  31.155  35.276  1.00  0.00    -0.354 N 
ATOM     56  N   UNL A   1      38.911  32.472  33.768  1.00  0.00    -0.248 NA
ATOM     57  C   UNL A   1      37.296  34.151  33.593  1.00  0.00     0.031 C 
ATOM     58  C   UNL A   1      41.667  32.017  37.234  1.00  0.00     0.029 A 
ATOM     59  C   UNL A   1      40.806  32.184  36.160  1.00  0.00     0.049 A 
ATOM     60  H   UNL A   1      40.611  31.007  34.421  1.00  0.00     0.167 HD
ATOM     61  C   UNL A   1      38.989  33.297  34.885  1.00  0.00     0.074 A 
ATOM     62  C   UNL A   1      37.988  34.331  34.709  1.00  0.00     0.031 C 
ATOM     63  C   UNL A   1      39.815  33.211  35.957  1.00  0.00     0.037 A 
BRANCH  50  64
ATOM     64  C   UNL A   1      43.723  28.410  35.771  1.00  0.00     0.058 A 
ATOM     65  C   UNL A   1      45.080  28.667  35.509  1.00  0.00     0.135 A 
ATOM     66  C   UNL A   1      43.417  27.375  36.668  1.00  0.00     0.135 A 
ATOM     67  F   UNL A   1      45.431  29.634  34.646  1.00  0.00    -0.206 F 
ATOM     68  C   UNL A   1      46.091  27.895  36.072  1.00  0.00     0.059 A 
ATOM     69  C   UNL A   1      44.414  26.611  37.268  1.00  0.00     0.059 A 
ATOM     70  F   UNL A   1      42.139  27.086  36.956  1.00  0.00    -0.206 F 
ATOM     71  C   UNL A   1      45.746  26.864  36.946  1.00  0.00     0.060 A 
BRANCH  71  72
ATOM     72  S   UNL A   1      47.067  25.854  37.648  1.00  0.00     0.124 S 
ATOM     73  O   UNL A   1      46.948  24.632  36.858  1.00  0.00    -0.237 OA
ATOM     74  O   UNL A   1      48.253  26.663  37.387  1.00  0.00    -0.237 OA
ATOM     75  O   UNL A   1      46.691  25.733  39.053  1.00  0.00    -0.744 OA
ENDBRANCH  71  72
ENDBRANCH  50  64
BRANCH  51  76
ATOM     76  C   UNL A   1      36.395  33.243  30.953  1.00  0.00     0.058 A 
ATOM     77  C   UNL A   1      35.057  33.141  31.365  1.00  0.00     0.135 A 
ATOM     78  C   UNL A   1      36.678  34.072  29.857  1.00  0.00     0.135 A 
ATOM     79  F   UNL A   1      34.734  32.358  32.405  1.00  0.00    -0.206 F 
ATOM     80  C   UNL A   1      34.036  33.820  30.707  1.00  0.00     0.059 A 
ATOM     81  C   UNL A   1      35.677  34.779  29.197  1.00  0.00     0.059 A 
ATOM     82  F   UNL A   1      37.943  34.218  29.434  1.00  0.00    -0.206 F 
ATOM     83  C   UNL A   1      34.357  34.640  29.625  1.00  0.00     0.060 A 
BRANCH  83  84
ATOM     84  S   UNL A   1      33.030  35.556  28.810  1.00  0.00     0.124 S 
ATOM     85  O   UNL A   1      33.780  36.551  28.055  1.00  0.00    -0.237 OA
ATOM     86  O   UNL A   1      32.377  34.514  28.023  1.00  0.00    -0.237 OA
ATOM     87  O   UNL A   1      32.243  36.070  29.927  1.00  0.00    -0.744 OA
ENDBRANCH  83  84
ENDBRANCH  51  76
BRANCH  63  88
ATOM     88  C   UNL A   1      39.705  34.286  37.002  1.00  0.00     0.058 A 
ATOM     89  C   UNL A   1      38.939  34.111  38.164  1.00  0.00     0.135 A 
ATOM     90  C   UNL A   1      40.422  35.485  36.860  1.00  0.00     0.135 A 
ATOM     91  F   UNL A   1      38.232  32.984  38.345  1.00  0.00    -0.206 F 
ATOM     92  C   UNL A   1      38.868  35.099  39.140  1.00  0.00     0.059 A 
ATOM     93  C   UNL A   1      40.385  36.475  37.835  1.00  0.00     0.059 A 
ATOM     94  F   UNL A   1      41.179  35.696  35.771  1.00  0.00    -0.206 F 
ATOM     95  C   UNL A   1      39.595  36.278  38.967  1.00  0.00     0.060 A 
BRANCH  95  96
ATOM     96  S   UNL A   1      39.521  37.540  40.255  1.00  0.00     0.124 S 
ATOM     97  O   UNL A   1      38.361  38.320  39.835  1.00  0.00    -0.237 OA
ATOM     98  O   UNL A   1      39.344  36.743  41.464  1.00  0.00    -0.237 OA
ATOM     99  O   UNL A   1      40.809  38.218  40.141  1.00  0.00    -0.744 OA
ENDBRANCH  95  96
ENDBRANCH  63  88
ENDBRANCH  37  38
ENDBRANCH  29  32
ENDBRANCH  27  28
ENDBRANCH  26  27
ENDBRANCH  25  26
ENDBRANCH   1  25
TORSDOF 19
ENDMDL
MODEL 3
REMARK VINA RESULT:     -11.5      6.186      8.911
REMARK SMILES CCC(C)(C)NC(=O)[C@@H](C)Oc1ccc(C)nc1C(=O)NCCCCNC(=O)c1ccc(-c2c3nc(c(-c4c(F)cc(S(=O)(=O)[O-])cc4F)c4ccc([nH]4)c(-c4c(F)cc(S(=O)(=O)[O-])cc4F)c4nc(c(-c5c(F)cc(S(=O)(=O)[O-])cc5F)c5ccc2[nH]5)C=C4)C=C3)cc1
REMARK SMILES IDX 22 1 21 2 19 3 20 4 18 6 12 7 13 8 14 9 17 10 15 11 16 12
REMARK SMILES IDX 11 13 9 14 10 15 7 16 6 17 8 19 3 20 4 21 5 22 2 23 1 24
REMARK SMILES IDX 23 25 24 26 25 27 26 28 27 29 28 31 29 32 30 33 94 34 31 35
REMARK SMILES IDX 93 36 32 37 33 38 34 39 87 40 35 41 92 42 86 43 88 44 36 45
REMARK SMILES IDX 91 46 85 47 84 48 37 50 71 51 50 52 70 53 51 54 54 55 69 56
REMARK SMILES IDX 89 57 52 58 53 59 68 61 90 62 55 63 38 64 39 65 48 66 40 67
REMARK SMILES IDX 41 68 47 69 49 70 42 71 43 72 44 73 45 74 46 75 72 76 73 77
REMARK SMILES IDX 82 78 74 79 75 80 81 81 83 82 76 83 77 84 78 85 79 86 80 87
REMARK SMILES IDX 56 88 57 89 66 90 58 91 59 92 65 93 67 94 60 95 61 96 62 97
REMARK SMILES IDX 63 98 64 99
REMARK H PARENT 21 5 6 18 26 30 88 49 54 60
REMARK Flexibility Score: inf
ROOT
ATOM      1  C   UNL A   1      36.597  23.266  26.110  1.00  0.00     0.116 C 
ENDROOT
BRANCH   1   2
ATOM      2  N   UNL A   1      35.232  23.415  26.553  1.00  0.00    -0.351 N 
ATOM      3  C   UNL A   1      34.114  24.023  26.046  1.00  0.00     0.273 C 
ATOM      4  O   UNL A   1      33.201  24.140  26.876  1.00  0.00    -0.267 OA
ATOM      5  H   UNL A   1      35.067  22.981  27.421  1.00  0.00     0.163 HD
BRANCH   3   6
ATOM      6  C   UNL A   1      33.851  24.446  24.616  1.00  0.00     0.170 A 
ATOM      7  C   UNL A   1      33.629  23.677  23.467  1.00  0.00     0.151 A 
ATOM      8  C   UNL A   1      33.083  24.344  22.363  1.00  0.00     0.051 A 
ATOM      9  C   UNL A   1      33.092  25.738  22.302  1.00  0.00     0.027 A 
ATOM     10  N   UNL A   1      33.891  25.815  24.529  1.00  0.00    -0.244 NA
ATOM     11  C   UNL A   1      33.623  26.431  23.367  1.00  0.00     0.038 A 
ATOM     12  C   UNL A   1      33.987  27.879  23.275  1.00  0.00     0.067 C 
BRANCH   7  13
ATOM     13  O   UNL A   1      34.118  22.402  23.381  1.00  0.00    -0.478 OA
BRANCH  13  14
ATOM     14  C   UNL A   1      33.314  21.292  23.765  1.00  0.00     0.259 C 
ATOM     15  C   UNL A   1      31.850  21.743  23.918  1.00  0.00     0.064 C 
BRANCH  14  16
ATOM     16  C   UNL A   1      33.554  20.368  24.990  1.00  0.00     0.261 C 
ATOM     17  N   UNL A   1      34.093  19.123  24.869  1.00  0.00    -0.348 N 
ATOM     18  H   UNL A   1      35.040  19.068  25.133  1.00  0.00     0.164 HD
ATOM     19  O   UNL A   1      33.472  20.830  26.135  1.00  0.00    -0.271 OA
BRANCH  17  20
ATOM     20  C   UNL A   1      33.515  17.835  24.416  1.00  0.00     0.034 C 
ATOM     21  C   UNL A   1      32.613  18.120  23.191  1.00  0.00     0.034 C 
ATOM     22  C   UNL A   1      32.591  17.363  25.563  1.00  0.00     0.034 C 
BRANCH  20  23
ATOM     23  C   UNL A   1      34.456  16.659  24.054  1.00  0.00     0.024 C 
ATOM     24  C   UNL A   1      35.106  15.854  25.164  1.00  0.00     0.006 C 
ENDBRANCH  20  23
ENDBRANCH  17  20
ENDBRANCH  14  16
ENDBRANCH  13  14
ENDBRANCH   7  13
ENDBRANCH   3   6
ENDBRANCH   1   2
BRANCH   1  25
ATOM     25  C   UNL A   1      36.832  21.808  25.704  1.00  0.00     0.023 C 
BRANCH  25  26
ATOM     26  C   UNL A   1      38.224  21.495  25.163  1.00  0.00     0.023 C 
BRANCH  26  27
ATOM     27  C   UNL A   1      39.282  21.259  26.230  1.00  0.00     0.116 C 
BRANCH  27  28
ATOM     28  N   UNL A   1      40.026  20.013  26.093  1.00  0.00    -0.352 N 
ATOM     29  C   UNL A   1      41.393  19.847  26.178  1.00  0.00     0.251 C 
ATOM     30  H   UNL A   1      39.496  19.202  25.921  1.00  0.00     0.163 HD
ATOM     31  O   UNL A   1      41.908  18.750  25.988  1.00  0.00    -0.269 OA
BRANCH  29  32
ATOM     32  C   UNL A   1      42.223  21.042  26.439  1.00  0.00     0.039 A 
ATOM     33  C   UNL A   1      42.567  21.878  25.377  1.00  0.00     0.014 A 
ATOM     34  C   UNL A   1      42.523  21.404  27.754  1.00  0.00     0.014 A 
ATOM     35  C   UNL A   1      43.129  23.127  25.648  1.00  0.00     0.010 A 
ATOM     36  C   UNL A   1      42.969  22.690  28.023  1.00  0.00     0.010 A 
ATOM     37  C   UNL A   1      43.283  23.565  26.974  1.00  0.00    -0.014 A 
BRANCH  37  38
ATOM     38  C   UNL A   1      43.785  24.928  27.289  1.00  0.00     0.031 A 
ATOM     39  C   UNL A   1      45.235  25.263  27.056  1.00  0.00     0.074 A 
ATOM     40  C   UNL A   1      42.958  25.840  27.839  1.00  0.00     0.049 A 
ATOM     41  N   UNL A   1      45.874  26.377  27.298  1.00  0.00    -0.248 NA
ATOM     42  C   UNL A   1      46.087  24.189  26.518  1.00  0.00     0.031 C 
ATOM     43  C   UNL A   1      41.551  25.614  28.184  1.00  0.00     0.029 A 
ATOM     44  N   UNL A   1      43.178  27.144  28.204  1.00  0.00    -0.354 N 
ATOM     45  C   UNL A   1      47.199  26.132  26.957  1.00  0.00     0.074 A 
ATOM     46  C   UNL A   1      47.288  24.742  26.573  1.00  0.00     0.031 C 
ATOM     47  C   UNL A   1      41.024  26.754  28.658  1.00  0.00     0.029 A 
ATOM     48  C   UNL A   1      42.058  27.783  28.683  1.00  0.00     0.049 A 
ATOM     49  H   UNL A   1      44.057  27.583  28.128  1.00  0.00     0.167 HD
ATOM     50  C   UNL A   1      48.242  26.995  26.921  1.00  0.00     0.037 A 
ATOM     51  C   UNL A   1      41.884  29.058  29.082  1.00  0.00     0.037 A 
ATOM     52  C   UNL A   1      48.139  28.386  27.268  1.00  0.00     0.049 A 
ATOM     53  C   UNL A   1      43.051  30.007  29.017  1.00  0.00     0.074 A 
ATOM     54  C   UNL A   1      49.117  29.362  27.219  1.00  0.00     0.029 A 
ATOM     55  N   UNL A   1      46.981  29.001  27.724  1.00  0.00    -0.354 N 
ATOM     56  N   UNL A   1      44.281  29.776  28.626  1.00  0.00    -0.248 NA
ATOM     57  C   UNL A   1      42.803  31.393  29.437  1.00  0.00     0.031 C 
ATOM     58  C   UNL A   1      48.559  30.562  27.676  1.00  0.00     0.029 A 
ATOM     59  C   UNL A   1      47.222  30.342  27.968  1.00  0.00     0.049 A 
ATOM     60  H   UNL A   1      46.116  28.550  27.854  1.00  0.00     0.167 HD
ATOM     61  C   UNL A   1      44.946  30.994  28.718  1.00  0.00     0.074 A 
ATOM     62  C   UNL A   1      43.977  31.960  29.197  1.00  0.00     0.031 C 
ATOM     63  C   UNL A   1      46.238  31.288  28.431  1.00  0.00     0.037 A 
BRANCH  50  64
ATOM     64  C   UNL A   1      49.571  26.450  26.471  1.00  0.00     0.058 A 
ATOM     65  C   UNL A   1      50.414  25.754  27.354  1.00  0.00     0.135 A 
ATOM     66  C   UNL A   1      50.016  26.637  25.154  1.00  0.00     0.135 A 
ATOM     67  F   UNL A   1      50.046  25.562  28.631  1.00  0.00    -0.206 F 
ATOM     68  C   UNL A   1      51.671  25.306  26.961  1.00  0.00     0.059 A 
ATOM     69  C   UNL A   1      51.257  26.169  24.730  1.00  0.00     0.059 A 
ATOM     70  F   UNL A   1      49.252  27.294  24.268  1.00  0.00    -0.206 F 
ATOM     71  C   UNL A   1      52.086  25.525  25.647  1.00  0.00     0.060 A 
BRANCH  71  72
ATOM     72  S   UNL A   1      53.730  24.962  25.159  1.00  0.00     0.124 S 
ATOM     73  O   UNL A   1      53.533  23.517  25.093  1.00  0.00    -0.237 OA
ATOM     74  O   UNL A   1      53.925  25.634  23.879  1.00  0.00    -0.237 OA
ATOM     75  O   UNL A   1      54.585  25.430  26.246  1.00  0.00    -0.744 OA
ENDBRANCH  71  72
ENDBRANCH  50  64
BRANCH  51  76
ATOM     76  C   UNL A   1      40.540  29.529  29.512  1.00  0.00     0.058 A 
ATOM     77  C   UNL A   1      40.275  29.798  30.864  1.00  0.00     0.135 A 
ATOM     78  C   UNL A   1      39.501  29.734  28.592  1.00  0.00     0.135 A 
ATOM     79  F   UNL A   1      41.234  29.613  31.784  1.00  0.00    -0.206 F 
ATOM     80  C   UNL A   1      39.027  30.238  31.291  1.00  0.00     0.059 A 
ATOM     81  C   UNL A   1      38.250  30.196  28.992  1.00  0.00     0.059 A 
ATOM     82  F   UNL A   1      39.707  29.508  27.285  1.00  0.00    -0.206 F 
ATOM     83  C   UNL A   1      38.020  30.437  30.346  1.00  0.00     0.060 A 
BRANCH  83  84
ATOM     84  S   UNL A   1      36.418  31.057  30.905  1.00  0.00     0.124 S 
ATOM     85  O   UNL A   1      35.683  31.147  29.650  1.00  0.00    -0.237 OA
ATOM     86  O   UNL A   1      35.988  30.007  31.824  1.00  0.00    -0.237 OA
ATOM     87  O   UNL A   1      36.753  32.330  31.535  1.00  0.00    -0.744 OA
ENDBRANCH  83  84
ENDBRANCH  51  76
BRANCH  63  88
ATOM     88  C   UNL A   1      46.670  32.721  28.581  1.00  0.00     0.058 A 
ATOM     89  C   UNL A   1      47.254  33.195  29.765  1.00  0.00     0.135 A 
ATOM     90  C   UNL A   1      46.546  33.613  27.504  1.00  0.00     0.135 A 
ATOM     91  F   UNL A   1      47.391  32.383  30.825  1.00  0.00    -0.206 F 
ATOM     92  C   UNL A   1      47.678  34.514  29.885  1.00  0.00     0.059 A 
ATOM     93  C   UNL A   1      46.987  34.928  27.593  1.00  0.00     0.059 A 
ATOM     94  F   UNL A   1      46.004  33.203  26.345  1.00  0.00    -0.206 F 
ATOM     95  C   UNL A   1      47.541  35.374  28.792  1.00  0.00     0.060 A 
BRANCH  95  96
ATOM     96  S   UNL A   1      48.125  37.073  28.948  1.00  0.00     0.124 S 
ATOM     97  O   UNL A   1      49.525  36.871  29.309  1.00  0.00    -0.237 OA
ATOM     98  O   UNL A   1      47.887  37.611  27.613  1.00  0.00    -0.237 OA
ATOM     99  O   UNL A   1      47.280  37.629  30.002  1.00  0.00    -0.744 OA
ENDBRANCH  95  96
ENDBRANCH  63  88
ENDBRANCH  37  38
ENDBRANCH  29  32
ENDBRANCH  27  28
ENDBRANCH  26  27
ENDBRANCH  25  26
ENDBRANCH   1  25
TORSDOF 19
ENDMDL
