MODEL 1
REMARK VINA RESULT:     -12.4      0.000      0.000
REMARK SMILES COc1cc([C@H]2c3c(-c4ccccc4)n[nH]c3C(=O)N2c2ccc(C(=O)NCCCCNC(=O)c3ccc(-c4c5nc(c(-c6c(F)cc(S(=O)(=O)[O-])cc6F)c6ccc([nH]6)c(-c6c(F)cc(S(=O)(=O)[O-])cc6F)c6nc(c(-c7c(F)cc(S(=O)(=O)[O-])cc7F)c7ccc4[nH]7)C=C6)C=C5)cc3)cc2)ccc1O
REMARK SMILES IDX 29 1 28 2 27 3 25 4 26 5 24 7 21 8 22 9 102 10 23 11 101 12
REMARK SMILES IDX 20 13 6 14 7 15 8 16 17 17 18 18 15 19 16 20 19 21 5 23 3 24
REMARK SMILES IDX 4 25 105 26 104 27 103 28 2 29 1 30 106 31 9 33 10 34 14 35
REMARK SMILES IDX 11 36 13 37 12 38 30 39 31 40 32 41 33 42 34 44 35 45 36 46
REMARK SMILES IDX 100 47 37 48 99 49 38 50 39 51 40 52 93 53 41 54 98 55 92 56
REMARK SMILES IDX 94 57 42 58 97 59 91 60 90 61 43 63 77 64 56 65 76 66 57 67
REMARK SMILES IDX 60 68 75 69 95 70 58 71 59 72 74 74 96 75 61 76 44 77 45 78
REMARK SMILES IDX 54 79 46 80 47 81 53 82 55 83 48 84 49 85 50 86 51 87 52 88
REMARK SMILES IDX 78 89 79 90 88 91 80 92 81 93 87 94 89 95 82 96 83 97 84 98
REMARK SMILES IDX 85 99 86 100 62 101 63 102 72 103 64 104 65 105 71 106
REMARK SMILES IDX 73 107 66 108 67 109 68 110 69 111 70 112
REMARK H PARENT 27 6 16 22 106 32 32 43 94 62 60 73
REMARK Flexibility Score: inf
ROOT
ATOM      1  C   UNL A   1      41.205  19.036  26.578  1.00  0.00     0.023 C 
ENDROOT
BRANCH   1   2
ATOM      2  C   UNL A   1      40.076  19.955  26.090  1.00  0.00     0.116 C 
BRANCH   2   3
ATOM      3  N   UNL A   1      40.476  21.348  26.125  1.00  0.00    -0.352 N 
ATOM      4  C   UNL A   1      39.785  22.533  26.116  1.00  0.00     0.251 C 
ATOM      5  O   UNL A   1      40.457  23.565  26.132  1.00  0.00    -0.269 OA
ATOM      6  H   UNL A   1      41.452  21.470  26.166  1.00  0.00     0.163 HD
BRANCH   4   7
ATOM      7  C   UNL A   1      38.295  22.651  26.110  1.00  0.00     0.039 A 
ATOM      8  C   UNL A   1      35.504  23.064  26.195  1.00  0.00     0.045 A 
ATOM      9  C   UNL A   1      36.369  24.112  26.495  1.00  0.00     0.027 A 
ATOM     10  C   UNL A   1      36.025  21.827  25.816  1.00  0.00     0.027 A 
ATOM     11  C   UNL A   1      37.753  23.894  26.484  1.00  0.00     0.016 A 
ATOM     12  C   UNL A   1      37.409  21.641  25.728  1.00  0.00     0.016 A 
BRANCH   8  13
ATOM     13  N   UNL A   1      34.115  23.246  26.236  1.00  0.00    -0.295 N 
ATOM     14  C   UNL A   1      33.441  24.357  25.505  1.00  0.00     0.156 C 
ATOM     15  C   UNL A   1      32.068  24.212  26.046  1.00  0.00     0.038 A 
ATOM     16  C   UNL A   1      30.777  24.764  26.052  1.00  0.00     0.099 A 
ATOM     17  C   UNL A   1      32.017  23.168  26.923  1.00  0.00     0.129 A 
ATOM     18  C   UNL A   1      33.260  22.491  27.063  1.00  0.00     0.277 C 
ATOM     19  N   UNL A   1      29.999  24.111  26.949  1.00  0.00    -0.174 NA
ATOM     20  N   UNL A   1      30.787  23.126  27.449  1.00  0.00    -0.272 N 
ATOM     21  O   UNL A   1      33.496  21.547  27.778  1.00  0.00    -0.267 OA
ATOM     22  H   UNL A   1      30.491  22.464  28.115  1.00  0.00     0.190 HD
BRANCH  14  23
ATOM     23  C   UNL A   1      33.384  24.131  24.008  1.00  0.00    -0.016 A 
ATOM     24  C   UNL A   1      33.438  25.094  21.743  1.00  0.00     0.160 A 
ATOM     25  C   UNL A   1      33.477  25.237  23.140  1.00  0.00     0.056 A 
ATOM     26  C   UNL A   1      33.298  23.813  21.211  1.00  0.00     0.157 A 
ATOM     27  C   UNL A   1      33.203  22.701  22.049  1.00  0.00     0.050 A 
ATOM     28  C   UNL A   1      33.260  22.857  23.434  1.00  0.00     0.010 A 
BRANCH  24  29
ATOM     29  O   UNL A   1      33.526  26.290  21.086  1.00  0.00    -0.493 OA
ATOM     30  C   UNL A   1      33.565  27.491  21.841  1.00  0.00     0.278 C 
ENDBRANCH  24  29
BRANCH  26  31
ATOM     31  O   UNL A   1      33.243  23.546  19.874  1.00  0.00    -0.504 OA
ATOM     32  H   UNL A   1      33.326  24.243  19.254  1.00  0.00     0.293 HD
ENDBRANCH  26  31
ENDBRANCH  14  23
BRANCH  16  33
ATOM     33  C   UNL A   1      30.249  25.872  25.268  1.00  0.00     0.002 A 
ATOM     34  C   UNL A   1      30.972  27.067  25.156  1.00  0.00     0.010 A 
ATOM     35  C   UNL A   1      28.997  25.774  24.652  1.00  0.00     0.010 A 
ATOM     36  C   UNL A   1      30.455  28.138  24.422  1.00  0.00     0.001 A 
ATOM     37  C   UNL A   1      28.482  26.843  23.917  1.00  0.00     0.001 A 
ATOM     38  C   UNL A   1      29.212  28.024  23.802  1.00  0.00     0.000 A 
ENDBRANCH  16  33
ENDBRANCH   8  13
ENDBRANCH   4   7
ENDBRANCH   2   3
ENDBRANCH   1   2
BRANCH   1  39
ATOM     39  C   UNL A   1      42.317  18.766  25.553  1.00  0.00     0.023 C 
BRANCH  39  40
ATOM     40  C   UNL A   1      43.675  19.372  25.893  1.00  0.00     0.116 C 
BRANCH  40  41
ATOM     41  N   UNL A   1      44.379  19.903  24.721  1.00  0.00    -0.352 N 
ATOM     42  C   UNL A   1      44.412  21.208  24.259  1.00  0.00     0.251 C 
ATOM     43  H   UNL A   1      44.894  19.249  24.196  1.00  0.00     0.163 HD
ATOM     44  O   UNL A   1      44.701  21.462  23.097  1.00  0.00    -0.269 OA
BRANCH  42  45
ATOM     45  C   UNL A   1      44.112  22.288  25.213  1.00  0.00     0.039 A 
ATOM     46  C   UNL A   1      44.641  22.318  26.506  1.00  0.00     0.014 A 
ATOM     47  C   UNL A   1      43.334  23.333  24.731  1.00  0.00     0.014 A 
ATOM     48  C   UNL A   1      44.452  23.464  27.279  1.00  0.00     0.010 A 
ATOM     49  C   UNL A   1      43.314  24.518  25.415  1.00  0.00     0.010 A 
ATOM     50  C   UNL A   1      43.803  24.572  26.718  1.00  0.00    -0.014 A 
BRANCH  50  51
ATOM     51  C   UNL A   1      43.670  25.834  27.439  1.00  0.00     0.031 A 
ATOM     52  C   UNL A   1      44.637  26.909  27.070  1.00  0.00     0.074 A 
ATOM     53  C   UNL A   1      42.580  26.105  28.191  1.00  0.00     0.049 A 
ATOM     54  N   UNL A   1      45.547  27.448  27.814  1.00  0.00    -0.248 NA
ATOM     55  C   UNL A   1      44.671  27.374  25.673  1.00  0.00     0.031 C 
ATOM     56  C   UNL A   1      41.376  25.287  28.396  1.00  0.00     0.029 A 
ATOM     57  N   UNL A   1      42.256  27.258  28.827  1.00  0.00    -0.354 N 
ATOM     58  C   UNL A   1      46.122  28.467  27.056  1.00  0.00     0.074 A 
ATOM     59  C   UNL A   1      45.673  28.256  25.703  1.00  0.00     0.031 C 
ATOM     60  C   UNL A   1      40.373  26.065  28.853  1.00  0.00     0.029 A 
ATOM     61  C   UNL A   1      40.911  27.377  29.153  1.00  0.00     0.049 A 
ATOM     62  H   UNL A   1      42.918  27.954  29.040  1.00  0.00     0.167 HD
ATOM     63  C   UNL A   1      46.742  29.535  27.638  1.00  0.00     0.037 A 
ATOM     64  C   UNL A   1      40.283  28.494  29.595  1.00  0.00     0.037 A 
ATOM     65  C   UNL A   1      46.995  29.296  29.036  1.00  0.00     0.049 A 
ATOM     66  C   UNL A   1      41.345  29.382  30.150  1.00  0.00     0.074 A 
ATOM     67  C   UNL A   1      47.677  28.321  29.742  1.00  0.00     0.029 A 
ATOM     68  N   UNL A   1      46.174  29.907  29.956  1.00  0.00    -0.354 N 
ATOM     69  N   UNL A   1      42.059  29.081  31.204  1.00  0.00    -0.248 NA
ATOM     70  C   UNL A   1      41.947  30.360  29.254  1.00  0.00     0.031 C 
ATOM     71  C   UNL A   1      46.848  28.046  30.870  1.00  0.00     0.029 A 
ATOM     72  C   UNL A   1      45.764  28.925  30.826  1.00  0.00     0.049 A 
ATOM     73  H   UNL A   1      45.929  30.859  29.987  1.00  0.00     0.167 HD
ATOM     74  C   UNL A   1      43.349  29.491  30.895  1.00  0.00     0.074 A 
ATOM     75  C   UNL A   1      43.200  30.344  29.714  1.00  0.00     0.031 C 
ATOM     76  C   UNL A   1      44.449  28.878  31.429  1.00  0.00     0.037 A 
BRANCH  63  77
ATOM     77  C   UNL A   1      46.816  30.925  27.047  1.00  0.00     0.058 A 
ATOM     78  C   UNL A   1      48.062  31.587  26.981  1.00  0.00     0.135 A 
ATOM     79  C   UNL A   1      45.685  31.736  26.808  1.00  0.00     0.135 A 
ATOM     80  F   UNL A   1      49.205  30.915  27.195  1.00  0.00    -0.206 F 
ATOM     81  C   UNL A   1      48.169  32.963  26.777  1.00  0.00     0.059 A 
ATOM     82  C   UNL A   1      45.772  33.100  26.547  1.00  0.00     0.059 A 
ATOM     83  F   UNL A   1      44.436  31.268  26.922  1.00  0.00    -0.206 F 
ATOM     84  C   UNL A   1      47.014  33.714  26.580  1.00  0.00     0.060 A 
BRANCH  84  85
ATOM     85  S   UNL A   1      47.135  35.506  26.446  1.00  0.00     0.124 S 
ATOM     86  O   UNL A   1      48.230  35.650  25.493  1.00  0.00    -0.237 OA
ATOM     87  O   UNL A   1      45.808  35.865  25.954  1.00  0.00    -0.237 OA
ATOM     88  O   UNL A   1      47.426  35.925  27.813  1.00  0.00    -0.744 OA
ENDBRANCH  84  85
ENDBRANCH  63  77
BRANCH  64  89
ATOM     89  C   UNL A   1      38.916  28.958  29.234  1.00  0.00     0.058 A 
ATOM     90  C   UNL A   1      37.938  29.182  30.218  1.00  0.00     0.135 A 
ATOM     91  C   UNL A   1      38.612  29.441  27.942  1.00  0.00     0.135 A 
ATOM     92  F   UNL A   1      38.148  28.773  31.479  1.00  0.00    -0.206 F 
ATOM     93  C   UNL A   1      36.756  29.883  29.952  1.00  0.00     0.059 A 
ATOM     94  C   UNL A   1      37.435  30.130  27.650  1.00  0.00     0.059 A 
ATOM     95  F   UNL A   1      39.491  29.337  26.934  1.00  0.00    -0.206 F 
ATOM     96  C   UNL A   1      36.522  30.371  28.666  1.00  0.00     0.060 A 
BRANCH  96  97
ATOM     97  S   UNL A   1      35.084  31.423  28.357  1.00  0.00     0.124 S 
ATOM     98  O   UNL A   1      34.148  30.482  27.752  1.00  0.00    -0.237 OA
ATOM     99  O   UNL A   1      34.748  31.886  29.698  1.00  0.00    -0.237 OA
ATOM    100  O   UNL A   1      35.603  32.450  27.456  1.00  0.00    -0.744 OA
ENDBRANCH  96  97
ENDBRANCH  64  89
BRANCH  76 101
ATOM    101  C   UNL A   1      44.268  27.891  32.557  1.00  0.00     0.058 A 
ATOM    102  C   UNL A   1      44.078  28.252  33.904  1.00  0.00     0.135 A 
ATOM    103  C   UNL A   1      44.087  26.538  32.235  1.00  0.00     0.135 A 
ATOM    104  F   UNL A   1      44.120  29.533  34.289  1.00  0.00    -0.206 F 
ATOM    105  C   UNL A   1      43.761  27.311  34.886  1.00  0.00     0.059 A 
ATOM    106  C   UNL A   1      43.740  25.586  33.191  1.00  0.00     0.059 A 
ATOM    107  F   UNL A   1      44.185  26.132  30.958  1.00  0.00    -0.206 F 
ATOM    108  C   UNL A   1      43.590  25.978  34.520  1.00  0.00     0.060 A 
BRANCH 108 109
ATOM    109  S   UNL A   1      43.100  24.779  35.778  1.00  0.00     0.124 S 
ATOM    110  O   UNL A   1      42.598  23.675  34.968  1.00  0.00    -0.237 OA
ATOM    111  O   UNL A   1      44.354  24.528  36.483  1.00  0.00    -0.237 OA
ATOM    112  O   UNL A   1      42.091  25.493  36.556  1.00  0.00    -0.744 OA
ENDBRANCH 108 109
ENDBRANCH  76 101
ENDBRANCH  50  51
ENDBRANCH  42  45
ENDBRANCH  40  41
ENDBRANCH  39  40
ENDBRANCH   1  39
TORSDOF 19
ENDMDL
MODEL 2
REMARK VINA RESULT:     -11.9      6.229     13.709
REMARK SMILES COc1cc([C@H]2c3c(-c4ccccc4)n[nH]c3C(=O)N2c2ccc(C(=O)NCCCCNC(=O)c3ccc(-c4c5nc(c(-c6c(F)cc(S(=O)(=O)[O-])cc6F)c6ccc([nH]6)c(-c6c(F)cc(S(=O)(=O)[O-])cc6F)c6nc(c(-c7c(F)cc(S(=O)(=O)[O-])cc7F)c7ccc4[nH]7)C=C6)C=C5)cc3)cc2)ccc1O
REMARK SMILES IDX 29 1 28 2 27 3 25 4 26 5 24 7 21 8 22 9 102 10 23 11 101 12
REMARK SMILES IDX 20 13 6 14 7 15 8 16 17 17 18 18 15 19 16 20 19 21 5 23 3 24
REMARK SMILES IDX 4 25 105 26 104 27 103 28 2 29 1 30 106 31 9 33 10 34 14 35
REMARK SMILES IDX 11 36 13 37 12 38 30 39 31 40 32 41 33 42 34 44 35 45 36 46
REMARK SMILES IDX 100 47 37 48 99 49 38 50 39 51 40 52 93 53 41 54 98 55 92 56
REMARK SMILES IDX 94 57 42 58 97 59 91 60 90 61 43 63 77 64 56 65 76 66 57 67
REMARK SMILES IDX 60 68 75 69 95 70 58 71 59 72 74 74 96 75 61 76 44 77 45 78
REMARK SMILES IDX 54 79 46 80 47 81 53 82 55 83 48 84 49 85 50 86 51 87 52 88
REMARK SMILES IDX 78 89 79 90 88 91 80 92 81 93 87 94 89 95 82 96 83 97 84 98
REMARK SMILES IDX 85 99 86 100 62 101 63 102 72 103 64 104 65 105 71 106
REMARK SMILES IDX 73 107 66 108 67 109 68 110 69 111 70 112
REMARK H PARENT 27 6 16 22 106 32 32 43 94 62 60 73
REMARK Flexibility Score: inf
ROOT
ATOM      1  C   UNL A   1      35.813  32.875  32.852  1.00  0.00     0.023 C 
ENDROOT
BRANCH   1   2
ATOM      2  C   UNL A   1      36.674  31.604  32.863  1.00  0.00     0.116 C 
BRANCH   2   3
ATOM      3  N   UNL A   1      38.072  31.914  33.091  1.00  0.00    -0.352 N 
ATOM      4  C   UNL A   1      38.826  32.120  34.218  1.00  0.00     0.251 C 
ATOM      5  O   UNL A   1      40.015  32.394  34.046  1.00  0.00    -0.269 OA
ATOM      6  H   UNL A   1      38.592  31.992  32.258  1.00  0.00     0.163 HD
BRANCH   4   7
ATOM      7  C   UNL A   1      38.313  32.014  35.618  1.00  0.00     0.039 A 
ATOM      8  C   UNL A   1      37.353  32.028  38.273  1.00  0.00     0.045 A 
ATOM      9  C   UNL A   1      37.426  33.219  37.556  1.00  0.00     0.027 A 
ATOM     10  C   UNL A   1      37.718  30.831  37.658  1.00  0.00     0.027 A 
ATOM     11  C   UNL A   1      37.934  33.213  36.250  1.00  0.00     0.016 A 
ATOM     12  C   UNL A   1      38.147  30.822  36.327  1.00  0.00     0.016 A 
BRANCH   8  13
ATOM     13  N   UNL A   1      36.883  32.014  39.593  1.00  0.00    -0.295 N 
ATOM     14  C   UNL A   1      37.776  31.704  40.746  1.00  0.00     0.156 C 
ATOM     15  C   UNL A   1      36.764  31.619  41.826  1.00  0.00     0.038 A 
ATOM     16  C   UNL A   1      36.565  31.334  43.187  1.00  0.00     0.099 A 
ATOM     17  C   UNL A   1      35.520  31.863  41.323  1.00  0.00     0.129 A 
ATOM     18  C   UNL A   1      35.524  32.156  39.932  1.00  0.00     0.277 C 
ATOM     19  N   UNL A   1      35.240  31.346  43.472  1.00  0.00    -0.174 NA
ATOM     20  N   UNL A   1      34.631  31.694  42.311  1.00  0.00    -0.272 N 
ATOM     21  O   UNL A   1      34.565  32.397  39.238  1.00  0.00    -0.267 OA
ATOM     22  H   UNL A   1      33.658  31.808  42.207  1.00  0.00     0.190 HD
BRANCH  14  23
ATOM     23  C   UNL A   1      38.727  32.835  41.079  1.00  0.00    -0.016 A 
ATOM     24  C   UNL A   1      39.108  35.259  41.278  1.00  0.00     0.160 A 
ATOM     25  C   UNL A   1      38.278  34.166  40.977  1.00  0.00     0.056 A 
ATOM     26  C   UNL A   1      40.418  35.005  41.684  1.00  0.00     0.157 A 
ATOM     27  C   UNL A   1      40.888  33.696  41.791  1.00  0.00     0.050 A 
ATOM     28  C   UNL A   1      40.047  32.620  41.505  1.00  0.00     0.010 A 
BRANCH  24  29
ATOM     29  O   UNL A   1      38.485  36.463  41.099  1.00  0.00    -0.493 OA
ATOM     30  C   UNL A   1      38.857  37.275  39.996  1.00  0.00     0.278 C 
ENDBRANCH  24  29
BRANCH  26  31
ATOM     31  O   UNL A   1      41.319  35.980  41.998  1.00  0.00    -0.504 OA
ATOM     32  H   UNL A   1      42.209  35.752  42.184  1.00  0.00     0.293 HD
ENDBRANCH  26  31
ENDBRANCH  14  23
BRANCH  16  33
ATOM     33  C   UNL A   1      37.551  31.044  44.218  1.00  0.00     0.002 A 
ATOM     34  C   UNL A   1      38.461  29.992  44.051  1.00  0.00     0.010 A 
ATOM     35  C   UNL A   1      37.577  31.785  45.405  1.00  0.00     0.010 A 
ATOM     36  C   UNL A   1      39.393  29.700  45.050  1.00  0.00     0.001 A 
ATOM     37  C   UNL A   1      38.510  31.494  46.402  1.00  0.00     0.001 A 
ATOM     38  C   UNL A   1      39.418  30.452  46.224  1.00  0.00     0.000 A 
ENDBRANCH  16  33
ENDBRANCH   8  13
ENDBRANCH   4   7
ENDBRANCH   2   3
ENDBRANCH   1   2
BRANCH   1  39
ATOM     39  C   UNL A   1      34.562  32.809  31.963  1.00  0.00     0.023 C 
BRANCH  39  40
ATOM     40  C   UNL A   1      34.710  33.455  30.588  1.00  0.00     0.116 C 
BRANCH  40  41
ATOM     41  N   UNL A   1      34.155  32.637  29.505  1.00  0.00    -0.352 N 
ATOM     42  C   UNL A   1      34.815  31.733  28.689  1.00  0.00     0.251 C 
ATOM     43  H   UNL A   1      33.191  32.743  29.336  1.00  0.00     0.163 HD
ATOM     44  O   UNL A   1      34.354  31.406  27.603  1.00  0.00    -0.269 OA
BRANCH  42  45
ATOM     45  C   UNL A   1      36.080  31.159  29.173  1.00  0.00     0.039 A 
ATOM     46  C   UNL A   1      36.225  29.800  29.468  1.00  0.00     0.014 A 
ATOM     47  C   UNL A   1      37.161  32.027  29.245  1.00  0.00     0.014 A 
ATOM     48  C   UNL A   1      37.500  29.308  29.747  1.00  0.00     0.010 A 
ATOM     49  C   UNL A   1      38.426  31.511  29.330  1.00  0.00     0.010 A 
ATOM     50  C   UNL A   1      38.603  30.169  29.656  1.00  0.00    -0.014 A 
BRANCH  50  51
ATOM     51  C   UNL A   1      39.970  29.689  29.831  1.00  0.00     0.031 A 
ATOM     52  C   UNL A   1      40.399  29.418  31.235  1.00  0.00     0.074 A 
ATOM     53  C   UNL A   1      40.707  29.259  28.783  1.00  0.00     0.049 A 
ATOM     54  N   UNL A   1      41.324  30.018  31.912  1.00  0.00    -0.248 NA
ATOM     55  C   UNL A   1      39.641  28.433  32.023  1.00  0.00     0.031 C 
ATOM     56  C   UNL A   1      40.318  29.145  27.369  1.00  0.00     0.029 A 
ATOM     57  N   UNL A   1      41.936  28.687  28.789  1.00  0.00    -0.354 N 
ATOM     58  C   UNL A   1      41.416  29.345  33.130  1.00  0.00     0.074 A 
ATOM     59  C   UNL A   1      40.247  28.508  33.211  1.00  0.00     0.031 C 
ATOM     60  C   UNL A   1      41.161  28.304  26.734  1.00  0.00     0.029 A 
ATOM     61  C   UNL A   1      42.248  27.978  27.636  1.00  0.00     0.049 A 
ATOM     62  H   UNL A   1      42.557  28.768  29.548  1.00  0.00     0.167 HD
ATOM     63  C   UNL A   1      42.559  29.363  33.876  1.00  0.00     0.037 A 
ATOM     64  C   UNL A   1      43.304  27.147  27.461  1.00  0.00     0.037 A 
ATOM     65  C   UNL A   1      43.468  30.384  33.419  1.00  0.00     0.049 A 
ATOM     66  C   UNL A   1      44.314  27.525  28.491  1.00  0.00     0.074 A 
ATOM     67  C   UNL A   1      43.377  31.754  33.248  1.00  0.00     0.029 A 
ATOM     68  N   UNL A   1      44.556  29.994  32.672  1.00  0.00    -0.354 N 
ATOM     69  N   UNL A   1      44.925  28.682  28.511  1.00  0.00    -0.248 NA
ATOM     70  C   UNL A   1      44.275  26.824  29.767  1.00  0.00     0.031 C 
ATOM     71  C   UNL A   1      44.046  32.009  32.014  1.00  0.00     0.029 A 
ATOM     72  C   UNL A   1      44.574  30.799  31.559  1.00  0.00     0.049 A 
ATOM     73  H   UNL A   1      45.196  29.280  32.892  1.00  0.00     0.167 HD
ATOM     74  C   UNL A   1      44.970  29.043  29.851  1.00  0.00     0.074 A 
ATOM     75  C   UNL A   1      44.627  27.822  30.582  1.00  0.00     0.031 C 
ATOM     76  C   UNL A   1      44.988  30.352  30.245  1.00  0.00     0.037 A 
BRANCH  63  77
ATOM     77  C   UNL A   1      43.015  28.251  34.794  1.00  0.00     0.058 A 
ATOM     78  C   UNL A   1      43.390  28.555  36.121  1.00  0.00     0.135 A 
ATOM     79  C   UNL A   1      43.368  26.960  34.345  1.00  0.00     0.135 A 
ATOM     80  F   UNL A   1      43.108  29.756  36.653  1.00  0.00    -0.206 F 
ATOM     81  C   UNL A   1      44.130  27.675  36.911  1.00  0.00     0.059 A 
ATOM     82  C   UNL A   1      44.057  26.045  35.134  1.00  0.00     0.059 A 
ATOM     83  F   UNL A   1      43.156  26.562  33.084  1.00  0.00    -0.206 F 
ATOM     84  C   UNL A   1      44.475  26.427  36.399  1.00  0.00     0.060 A 
BRANCH  84  85
ATOM     85  S   UNL A   1      45.540  25.339  37.362  1.00  0.00     0.124 S 
ATOM     86  O   UNL A   1      46.037  26.253  38.384  1.00  0.00    -0.237 OA
ATOM     87  O   UNL A   1      44.599  24.320  37.818  1.00  0.00    -0.237 OA
ATOM     88  O   UNL A   1      46.525  24.884  36.385  1.00  0.00    -0.744 OA
ENDBRANCH  84  85
ENDBRANCH  63  77
BRANCH  64  89
ATOM     89  C   UNL A   1      43.318  25.858  26.717  1.00  0.00     0.058 A 
ATOM     90  C   UNL A   1      44.045  25.713  25.523  1.00  0.00     0.135 A 
ATOM     91  C   UNL A   1      42.831  24.663  27.291  1.00  0.00     0.135 A 
ATOM     92  F   UNL A   1      44.561  26.792  24.915  1.00  0.00    -0.206 F 
ATOM     93  C   UNL A   1      44.315  24.460  24.959  1.00  0.00     0.059 A 
ATOM     94  C   UNL A   1      43.076  23.405  26.741  1.00  0.00     0.059 A 
ATOM     95  F   UNL A   1      42.173  24.669  28.460  1.00  0.00    -0.206 F 
ATOM     96  C   UNL A   1      43.841  23.309  25.588  1.00  0.00     0.060 A 
BRANCH  96  97
ATOM     97  S   UNL A   1      44.331  21.683  24.963  1.00  0.00     0.124 S 
ATOM     98  O   UNL A   1      43.176  20.865  25.317  1.00  0.00    -0.237 OA
ATOM     99  O   UNL A   1      44.517  21.944  23.540  1.00  0.00    -0.237 OA
ATOM    100  O   UNL A   1      45.553  21.389  25.706  1.00  0.00    -0.744 OA
ENDBRANCH  96  97
ENDBRANCH  64  89
BRANCH  76 101
ATOM    101  C   UNL A   1      45.201  31.431  29.211  1.00  0.00     0.058 A 
ATOM    102  C   UNL A   1      46.453  31.772  28.666  1.00  0.00     0.135 A 
ATOM    103  C   UNL A   1      44.073  32.007  28.608  1.00  0.00     0.135 A 
ATOM    104  F   UNL A   1      47.577  31.189  29.100  1.00  0.00    -0.206 F 
ATOM    105  C   UNL A   1      46.580  32.667  27.602  1.00  0.00     0.059 A 
ATOM    106  C   UNL A   1      44.172  32.879  27.525  1.00  0.00     0.059 A 
ATOM    107  F   UNL A   1      42.842  31.675  29.031  1.00  0.00    -0.206 F 
ATOM    108  C   UNL A   1      45.432  33.214  27.034  1.00  0.00     0.060 A 
BRANCH 108 109
ATOM    109  S   UNL A   1      45.595  34.308  25.606  1.00  0.00     0.124 S 
ATOM    110  O   UNL A   1      47.028  34.250  25.339  1.00  0.00    -0.237 OA
ATOM    111  O   UNL A   1      44.739  33.666  24.614  1.00  0.00    -0.237 OA
ATOM    112  O   UNL A   1      45.104  35.591  26.103  1.00  0.00    -0.744 OA
ENDBRANCH 108 109
ENDBRANCH  76 101
ENDBRANCH  50  51
ENDBRANCH  42  45
ENDBRANCH  40  41
ENDBRANCH  39  40
ENDBRANCH   1  39
TORSDOF 19
ENDMDL
MODEL 3
REMARK VINA RESULT:     -11.8      4.802      9.741
REMARK SMILES COc1cc([C@H]2c3c(-c4ccccc4)n[nH]c3C(=O)N2c2ccc(C(=O)NCCCCNC(=O)c3ccc(-c4c5nc(c(-c6c(F)cc(S(=O)(=O)[O-])cc6F)c6ccc([nH]6)c(-c6c(F)cc(S(=O)(=O)[O-])cc6F)c6nc(c(-c7c(F)cc(S(=O)(=O)[O-])cc7F)c7ccc4[nH]7)C=C6)C=C5)cc3)cc2)ccc1O
REMARK SMILES IDX 29 1 28 2 27 3 25 4 26 5 24 7 21 8 22 9 102 10 23 11 101 12
REMARK SMILES IDX 20 13 6 14 7 15 8 16 17 17 18 18 15 19 16 20 19 21 5 23 3 24
REMARK SMILES IDX 4 25 105 26 104 27 103 28 2 29 1 30 106 31 9 33 10 34 14 35
REMARK SMILES IDX 11 36 13 37 12 38 30 39 31 40 32 41 33 42 34 44 35 45 36 46
REMARK SMILES IDX 100 47 37 48 99 49 38 50 39 51 40 52 93 53 41 54 98 55 92 56
REMARK SMILES IDX 94 57 42 58 97 59 91 60 90 61 43 63 77 64 56 65 76 66 57 67
REMARK SMILES IDX 60 68 75 69 95 70 58 71 59 72 74 74 96 75 61 76 44 77 45 78
REMARK SMILES IDX 54 79 46 80 47 81 53 82 55 83 48 84 49 85 50 86 51 87 52 88
REMARK SMILES IDX 78 89 79 90 88 91 80 92 81 93 87 94 89 95 82 96 83 97 84 98
REMARK SMILES IDX 85 99 86 100 62 101 63 102 72 103 64 104 65 105 71 106
REMARK SMILES IDX 73 107 66 108 67 109 68 110 69 111 70 112
REMARK H PARENT 27 6 16 22 106 32 32 43 94 62 60 73
REMARK Flexibility Score: inf
ROOT
ATOM      1  C   UNL A   1      45.428  23.827  24.647  1.00  0.00     0.023 C 
ENDROOT
BRANCH   1   2
ATOM      2  C   UNL A   1      44.855  25.070  25.340  1.00  0.00     0.116 C 
BRANCH   2   3
ATOM      3  N   UNL A   1      45.664  26.244  25.074  1.00  0.00    -0.352 N 
ATOM      4  C   UNL A   1      46.574  26.955  25.813  1.00  0.00     0.251 C 
ATOM      5  O   UNL A   1      47.074  27.943  25.273  1.00  0.00    -0.269 OA
ATOM      6  H   UNL A   1      45.532  26.607  24.168  1.00  0.00     0.163 HD
BRANCH   4   7
ATOM      7  C   UNL A   1      47.008  26.603  27.199  1.00  0.00     0.039 A 
ATOM      8  C   UNL A   1      47.948  26.115  29.816  1.00  0.00     0.045 A 
ATOM      9  C   UNL A   1      48.187  27.346  29.212  1.00  0.00     0.027 A 
ATOM     10  C   UNL A   1      47.211  25.146  29.137  1.00  0.00     0.027 A 
ATOM     11  C   UNL A   1      47.748  27.573  27.901  1.00  0.00     0.016 A 
ATOM     12  C   UNL A   1      46.705  25.410  27.860  1.00  0.00     0.016 A 
BRANCH   8  13
ATOM     13  N   UNL A   1      48.410  25.851  31.113  1.00  0.00    -0.295 N 
ATOM     14  C   UNL A   1      47.616  26.209  32.323  1.00  0.00     0.156 C 
ATOM     15  C   UNL A   1      48.622  25.917  33.373  1.00  0.00     0.038 A 
ATOM     16  C   UNL A   1      48.885  25.971  34.752  1.00  0.00     0.099 A 
ATOM     17  C   UNL A   1      49.774  25.458  32.804  1.00  0.00     0.129 A 
ATOM     18  C   UNL A   1      49.699  25.355  31.388  1.00  0.00     0.277 C 
ATOM     19  N   UNL A   1      50.171  25.616  34.991  1.00  0.00    -0.174 NA
ATOM     20  N   UNL A   1      50.679  25.288  33.777  1.00  0.00    -0.272 N 
ATOM     21  O   UNL A   1      50.573  24.990  30.640  1.00  0.00    -0.267 OA
ATOM     22  H   UNL A   1      51.598  24.966  33.628  1.00  0.00     0.190 HD
BRANCH  14  23
ATOM     23  C   UNL A   1      46.427  25.296  32.542  1.00  0.00    -0.016 A 
ATOM     24  C   UNL A   1      45.417  23.442  33.809  1.00  0.00     0.160 A 
ATOM     25  C   UNL A   1      46.488  24.314  33.551  1.00  0.00     0.056 A 
ATOM     26  C   UNL A   1      44.266  23.558  33.032  1.00  0.00     0.157 A 
ATOM     27  C   UNL A   1      44.180  24.521  32.026  1.00  0.00     0.050 A 
ATOM     28  C   UNL A   1      45.245  25.392  31.792  1.00  0.00     0.010 A 
BRANCH  24  29
ATOM     29  O   UNL A   1      45.686  22.556  34.815  1.00  0.00    -0.493 OA
ATOM     30  C   UNL A   1      46.179  21.266  34.484  1.00  0.00     0.278 C 
ENDBRANCH  24  29
BRANCH  26  31
ATOM     31  O   UNL A   1      43.163  22.768  33.182  1.00  0.00    -0.504 OA
ATOM     32  H   UNL A   1      42.324  23.158  33.330  1.00  0.00     0.293 HD
ENDBRANCH  26  31
ENDBRANCH  14  23
BRANCH  16  33
ATOM     33  C   UNL A   1      47.996  26.347  35.842  1.00  0.00     0.002 A 
ATOM     34  C   UNL A   1      47.629  27.686  36.026  1.00  0.00     0.010 A 
ATOM     35  C   UNL A   1      47.528  25.383  36.742  1.00  0.00     0.010 A 
ATOM     36  C   UNL A   1      46.793  28.050  37.085  1.00  0.00     0.001 A 
ATOM     37  C   UNL A   1      46.691  25.746  37.798  1.00  0.00     0.001 A 
ATOM     38  C   UNL A   1      46.323  27.079  37.969  1.00  0.00     0.000 A 
ENDBRANCH  16  33
ENDBRANCH   8  13
ENDBRANCH   4   7
ENDBRANCH   2   3
ENDBRANCH   1   2
BRANCH   1  39
ATOM     39  C   UNL A   1      44.408  22.720  24.341  1.00  0.00     0.023 C 
BRANCH  39  40
ATOM     40  C   UNL A   1      44.043  21.829  25.525  1.00  0.00     0.116 C 
BRANCH  40  41
ATOM     41  N   UNL A   1      42.623  21.463  25.554  1.00  0.00    -0.352 N 
ATOM     42  C   UNL A   1      41.603  22.042  26.291  1.00  0.00     0.251 C 
ATOM     43  H   UNL A   1      42.361  20.711  24.976  1.00  0.00     0.163 HD
ATOM     44  O   UNL A   1      40.568  21.433  26.528  1.00  0.00    -0.269 OA
BRANCH  42  45
ATOM     45  C   UNL A   1      41.790  23.422  26.767  1.00  0.00     0.039 A 
ATOM     46  C   UNL A   1      41.254  24.526  26.099  1.00  0.00     0.014 A 
ATOM     47  C   UNL A   1      42.463  23.570  27.973  1.00  0.00     0.014 A 
ATOM     48  C   UNL A   1      41.324  25.778  26.712  1.00  0.00     0.010 A 
ATOM     49  C   UNL A   1      42.361  24.754  28.651  1.00  0.00     0.010 A 
ATOM     50  C   UNL A   1      41.862  25.881  28.002  1.00  0.00    -0.014 A 
BRANCH  50  51
ATOM     51  C   UNL A   1      41.865  27.142  28.737  1.00  0.00     0.031 A 
ATOM     52  C   UNL A   1      42.996  28.072  28.446  1.00  0.00     0.074 A 
ATOM     53  C   UNL A   1      40.780  27.560  29.425  1.00  0.00     0.049 A 
ATOM     54  N   UNL A   1      43.925  28.468  29.254  1.00  0.00    -0.248 NA
ATOM     55  C   UNL A   1      43.183  28.540  27.063  1.00  0.00     0.031 C 
ATOM     56  C   UNL A   1      39.461  26.920  29.542  1.00  0.00     0.029 A 
ATOM     57  N   UNL A   1      40.583  28.741  30.061  1.00  0.00    -0.354 N 
ATOM     58  C   UNL A   1      44.685  29.402  28.550  1.00  0.00     0.074 A 
ATOM     59  C   UNL A   1      44.297  29.269  27.169  1.00  0.00     0.031 C 
ATOM     60  C   UNL A   1      38.552  27.829  29.951  1.00  0.00     0.029 A 
ATOM     61  C   UNL A   1      39.251  29.048  30.307  1.00  0.00     0.049 A 
ATOM     62  H   UNL A   1      41.323  29.333  30.326  1.00  0.00     0.167 HD
ATOM     63  C   UNL A   1      45.412  30.365  29.188  1.00  0.00     0.037 A 
ATOM     64  C   UNL A   1      38.762  30.240  30.730  1.00  0.00     0.037 A 
ATOM     65  C   UNL A   1      45.541  30.079  30.595  1.00  0.00     0.049 A 
ATOM     66  C   UNL A   1      39.902  30.961  31.364  1.00  0.00     0.074 A 
ATOM     67  C   UNL A   1      46.032  29.010  31.323  1.00  0.00     0.029 A 
ATOM     68  N   UNL A   1      44.759  30.792  31.474  1.00  0.00    -0.354 N 
ATOM     69  N   UNL A   1      40.499  30.552  32.454  1.00  0.00    -0.248 NA
ATOM     70  C   UNL A   1      40.691  31.851  30.524  1.00  0.00     0.031 C 
ATOM     71  C   UNL A   1      45.103  28.846  32.393  1.00  0.00     0.029 A 
ATOM     72  C   UNL A   1      44.160  29.872  32.299  1.00  0.00     0.049 A 
ATOM     73  H   UNL A   1      44.651  31.770  31.507  1.00  0.00     0.167 HD
ATOM     74  C   UNL A   1      41.851  30.776  32.231  1.00  0.00     0.074 A 
ATOM     75  C   UNL A   1      41.899  31.652  31.059  1.00  0.00     0.031 C 
ATOM     76  C   UNL A   1      42.817  30.007  32.820  1.00  0.00     0.037 A 
BRANCH  63  77
ATOM     77  C   UNL A   1      45.720  31.735  28.628  1.00  0.00     0.058 A 
ATOM     78  C   UNL A   1      44.666  32.539  28.140  1.00  0.00     0.135 A 
ATOM     79  C   UNL A   1      47.020  32.170  28.292  1.00  0.00     0.135 A 
ATOM     80  F   UNL A   1      43.387  32.219  28.395  1.00  0.00    -0.206 F 
ATOM     81  C   UNL A   1      44.887  33.641  27.314  1.00  0.00     0.059 A 
ATOM     82  C   UNL A   1      47.265  33.298  27.515  1.00  0.00     0.059 A 
ATOM     83  F   UNL A   1      48.112  31.463  28.609  1.00  0.00    -0.206 F 
ATOM     84  C   UNL A   1      46.192  34.001  26.991  1.00  0.00     0.060 A 
BRANCH  84  85
ATOM     85  S   UNL A   1      46.478  35.341  25.821  1.00  0.00     0.124 S 
ATOM     86  O   UNL A   1      45.915  34.780  24.598  1.00  0.00    -0.237 OA
ATOM     87  O   UNL A   1      45.730  36.438  26.427  1.00  0.00    -0.237 OA
ATOM     88  O   UNL A   1      47.930  35.495  25.838  1.00  0.00    -0.744 OA
ENDBRANCH  84  85
ENDBRANCH  63  77
BRANCH  64  89
ATOM     89  C   UNL A   1      37.500  30.898  30.295  1.00  0.00     0.058 A 
ATOM     90  C   UNL A   1      36.609  31.456  31.228  1.00  0.00     0.135 A 
ATOM     91  C   UNL A   1      37.260  31.224  28.942  1.00  0.00     0.135 A 
ATOM     92  F   UNL A   1      36.769  31.215  32.538  1.00  0.00    -0.206 F 
ATOM     93  C   UNL A   1      35.576  32.322  30.850  1.00  0.00     0.059 A 
ATOM     94  C   UNL A   1      36.230  32.074  28.540  1.00  0.00     0.059 A 
ATOM     95  F   UNL A   1      38.076  30.797  27.967  1.00  0.00    -0.206 F 
ATOM     96  C   UNL A   1      35.407  32.641  29.503  1.00  0.00     0.060 A 
BRANCH  96  97
ATOM     97  S   UNL A   1      34.189  33.890  29.025  1.00  0.00     0.124 S 
ATOM     98  O   UNL A   1      33.371  33.160  28.063  1.00  0.00    -0.237 OA
ATOM     99  O   UNL A   1      33.552  34.201  30.300  1.00  0.00    -0.237 OA
ATOM    100  O   UNL A   1      35.006  34.962  28.462  1.00  0.00    -0.744 OA
ENDBRANCH  96  97
ENDBRANCH  64  89
BRANCH  76 101
ATOM    101  C   UNL A   1      42.427  29.046  33.918  1.00  0.00     0.058 A 
ATOM    102  C   UNL A   1      41.780  27.815  33.702  1.00  0.00     0.135 A 
ATOM    103  C   UNL A   1      42.899  29.292  35.216  1.00  0.00     0.135 A 
ATOM    104  F   UNL A   1      41.394  27.443  32.476  1.00  0.00    -0.206 F 
ATOM    105  C   UNL A   1      41.580  26.893  34.731  1.00  0.00     0.059 A 
ATOM    106  C   UNL A   1      42.740  28.373  36.251  1.00  0.00     0.059 A 
ATOM    107  F   UNL A   1      43.586  30.417  35.479  1.00  0.00    -0.206 F 
ATOM    108  C   UNL A   1      42.067  27.179  36.004  1.00  0.00     0.060 A 
BRANCH 108 109
ATOM    109  S   UNL A   1      41.879  25.948  37.312  1.00  0.00     0.124 S 
ATOM    110  O   UNL A   1      40.476  26.107  37.681  1.00  0.00    -0.237 OA
ATOM    111  O   UNL A   1      42.218  24.703  36.630  1.00  0.00    -0.237 OA
ATOM    112  O   UNL A   1      42.842  26.376  38.324  1.00  0.00    -0.744 OA
ENDBRANCH 108 109
ENDBRANCH  76 101
ENDBRANCH  50  51
ENDBRANCH  42  45
ENDBRANCH  40  41
ENDBRANCH  39  40
ENDBRANCH   1  39
TORSDOF 19
ENDMDL
