MODEL 1
REMARK VINA RESULT:     -10.7      0.000      0.000
REMARK SMILES COC(=O)CCN(C)C(=O)NCc1ccc(C(=O)NCCCCNC(=O)c2ccc(-c3c4nc(c(-c5c(F)cc(S(=O)(=O)[O-])cc5F)c5ccc([nH]5)c(-c5c(F)cc(S(=O)(=O)[O-])cc5F)c5nc(c(-c6c(F)cc(S(=O)(=O)[O-])cc6F)c6ccc3[nH]6)C=C5)C=C4)cc2)o1
REMARK SMILES IDX 17 1 18 2 19 3 16 5 13 6 14 7 93 8 15 9 12 10 11 11 9 12
REMARK SMILES IDX 10 13 7 15 8 16 6 17 5 18 3 19 4 20 2 21 1 22 20 23 21 24
REMARK SMILES IDX 22 25 23 26 24 27 25 28 26 30 27 31 28 32 92 33 29 34 91 35
REMARK SMILES IDX 30 36 31 37 32 38 85 39 33 40 90 41 84 42 86 43 34 44 89 45
REMARK SMILES IDX 83 46 82 47 35 49 69 50 48 51 68 52 49 53 52 54 67 55 87 56
REMARK SMILES IDX 50 57 51 58 66 60 88 61 53 62 36 63 37 64 46 65 38 66 39 67
REMARK SMILES IDX 45 68 47 69 40 70 41 71 42 72 43 73 44 74 70 75 71 76 80 77
REMARK SMILES IDX 72 78 73 79 79 80 81 81 74 82 75 83 76 84 77 85 78 86 54 87
REMARK SMILES IDX 55 88 64 89 56 90 57 91 63 92 65 93 58 94 59 95 60 96 61 97
REMARK SMILES IDX 62 98
REMARK H PARENT 19 4 11 14 24 29 86 48 52 59
REMARK Flexibility Score: inf
ROOT
ATOM      1  C   UNL A   1      32.110  28.834  23.530  1.00  0.00     0.286 C 
ATOM      2  O   UNL A   1      32.766  29.007  22.502  1.00  0.00    -0.266 OA
ATOM      3  N   UNL A   1      32.385  29.688  24.571  1.00  0.00    -0.349 N 
ATOM      4  H   UNL A   1      33.147  30.292  24.419  1.00  0.00     0.163 HD
ENDROOT
BRANCH   1   5
ATOM      5  C   UNL A   1      31.088  27.809  23.647  1.00  0.00     0.191 A 
ATOM      6  C   UNL A   1      30.472  25.689  23.823  1.00  0.00     0.124 A 
ATOM      7  C   UNL A   1      29.313  26.426  23.880  1.00  0.00     0.048 A 
ATOM      8  O   UNL A   1      31.537  26.515  23.639  1.00  0.00    -0.454 OA
ATOM      9  C   UNL A   1      29.713  27.786  23.814  1.00  0.00     0.056 A 
BRANCH   6  10
ATOM     10  C   UNL A   1      30.805  24.257  23.993  1.00  0.00     0.193 C 
BRANCH  10  11
ATOM     11  N   UNL A   1      30.589  23.948  25.390  1.00  0.00    -0.331 N 
ATOM     12  C   UNL A   1      31.110  23.111  26.296  1.00  0.00     0.317 C 
ATOM     13  O   UNL A   1      30.693  23.243  27.450  1.00  0.00    -0.249 OA
ATOM     14  H   UNL A   1      29.868  24.496  25.775  1.00  0.00     0.165 HD
BRANCH  12  15
ATOM     15  N   UNL A   1      32.095  22.212  25.993  1.00  0.00    -0.327 N 
ATOM     16  C   UNL A   1      32.117  21.309  24.857  1.00  0.00     0.148 C 
BRANCH  15  17
ATOM     17  C   UNL A   1      33.228  22.123  26.926  1.00  0.00     0.132 C 
BRANCH  17  18
ATOM     18  C   UNL A   1      34.305  23.165  26.652  1.00  0.00     0.144 C 
BRANCH  18  19
ATOM     19  C   UNL A   1      35.383  22.619  25.754  1.00  0.00     0.307 C 
ATOM     20  O   UNL A   1      36.236  21.821  26.119  1.00  0.00    -0.252 OA
BRANCH  19  21
ATOM     21  O   UNL A   1      35.265  23.136  24.500  1.00  0.00    -0.469 OA
ATOM     22  C   UNL A   1      34.676  24.436  24.448  1.00  0.00     0.282 C 
ENDBRANCH  19  21
ENDBRANCH  18  19
ENDBRANCH  17  18
ENDBRANCH  15  17
ENDBRANCH  12  15
ENDBRANCH  10  11
ENDBRANCH   6  10
ENDBRANCH   1   5
BRANCH   3  23
ATOM     23  C   UNL A   1      31.735  29.841  25.852  1.00  0.00     0.116 C 
BRANCH  23  24
ATOM     24  C   UNL A   1      32.755  30.115  26.954  1.00  0.00     0.023 C 
BRANCH  24  25
ATOM     25  C   UNL A   1      33.682  28.931  27.242  1.00  0.00     0.023 C 
BRANCH  25  26
ATOM     26  C   UNL A   1      35.107  29.311  27.631  1.00  0.00     0.116 C 
BRANCH  26  27
ATOM     27  N   UNL A   1      35.170  30.241  28.750  1.00  0.00    -0.352 N 
ATOM     28  C   UNL A   1      36.245  30.518  29.562  1.00  0.00     0.251 C 
ATOM     29  H   UNL A   1      34.341  30.733  28.949  1.00  0.00     0.163 HD
ATOM     30  O   UNL A   1      36.115  31.244  30.541  1.00  0.00    -0.269 OA
BRANCH  28  31
ATOM     31  C   UNL A   1      37.545  29.893  29.251  1.00  0.00     0.039 A 
ATOM     32  C   UNL A   1      37.962  29.821  27.920  1.00  0.00     0.014 A 
ATOM     33  C   UNL A   1      38.378  29.454  30.283  1.00  0.00     0.014 A 
ATOM     34  C   UNL A   1      39.253  29.373  27.631  1.00  0.00     0.010 A 
ATOM     35  C   UNL A   1      39.686  29.083  29.999  1.00  0.00     0.010 A 
ATOM     36  C   UNL A   1      40.138  29.041  28.670  1.00  0.00    -0.014 A 
BRANCH  36  37
ATOM     37  C   UNL A   1      41.544  28.649  28.397  1.00  0.00     0.031 A 
ATOM     38  C   UNL A   1      42.623  29.696  28.383  1.00  0.00     0.074 A 
ATOM     39  C   UNL A   1      41.836  27.368  28.088  1.00  0.00     0.049 A 
ATOM     40  N   UNL A   1      43.887  29.576  28.067  1.00  0.00    -0.248 NA
ATOM     41  C   UNL A   1      42.221  31.067  28.740  1.00  0.00     0.031 C 
ATOM     42  C   UNL A   1      40.868  26.270  28.027  1.00  0.00     0.029 A 
ATOM     43  N   UNL A   1      43.028  26.776  27.752  1.00  0.00    -0.354 N 
ATOM     44  C   UNL A   1      44.426  30.854  28.174  1.00  0.00     0.074 A 
ATOM     45  C   UNL A   1      43.341  31.742  28.526  1.00  0.00     0.031 C 
ATOM     46  C   UNL A   1      41.508  25.137  27.693  1.00  0.00     0.029 A 
ATOM     47  C   UNL A   1      42.920  25.434  27.474  1.00  0.00     0.049 A 
ATOM     48  H   UNL A   1      43.880  27.267  27.714  1.00  0.00     0.167 HD
ATOM     49  C   UNL A   1      45.712  31.244  28.018  1.00  0.00     0.037 A 
ATOM     50  C   UNL A   1      43.851  24.545  27.074  1.00  0.00     0.037 A 
ATOM     51  C   UNL A   1      46.790  30.347  27.692  1.00  0.00     0.049 A 
ATOM     52  C   UNL A   1      45.273  25.007  26.892  1.00  0.00     0.074 A 
ATOM     53  C   UNL A   1      48.138  30.635  27.563  1.00  0.00     0.029 A 
ATOM     54  N   UNL A   1      46.644  28.991  27.439  1.00  0.00    -0.354 N 
ATOM     55  N   UNL A   1      45.778  26.207  27.057  1.00  0.00    -0.248 NA
ATOM     56  C   UNL A   1      46.254  23.996  26.474  1.00  0.00     0.031 C 
ATOM     57  C   UNL A   1      48.799  29.463  27.184  1.00  0.00     0.029 A 
ATOM     58  C   UNL A   1      47.875  28.432  27.135  1.00  0.00     0.049 A 
ATOM     59  H   UNL A   1      45.793  28.499  27.472  1.00  0.00     0.167 HD
ATOM     60  C   UNL A   1      47.139  26.087  26.798  1.00  0.00     0.074 A 
ATOM     61  C   UNL A   1      47.380  24.697  26.471  1.00  0.00     0.031 C 
ATOM     62  C   UNL A   1      48.102  27.041  26.830  1.00  0.00     0.037 A 
BRANCH  49  63
ATOM     63  C   UNL A   1      46.029  32.703  28.205  1.00  0.00     0.058 A 
ATOM     64  C   UNL A   1      45.946  33.617  27.142  1.00  0.00     0.135 A 
ATOM     65  C   UNL A   1      46.380  33.202  29.469  1.00  0.00     0.135 A 
ATOM     66  F   UNL A   1      45.632  33.193  25.907  1.00  0.00    -0.206 F 
ATOM     67  C   UNL A   1      46.226  34.968  27.320  1.00  0.00     0.059 A 
ATOM     68  C   UNL A   1      46.634  34.554  29.678  1.00  0.00     0.059 A 
ATOM     69  F   UNL A   1      46.477  32.373  30.521  1.00  0.00    -0.206 F 
ATOM     70  C   UNL A   1      46.568  35.427  28.593  1.00  0.00     0.060 A 
BRANCH  70  71
ATOM     71  S   UNL A   1      46.914  37.185  28.806  1.00  0.00     0.124 S 
ATOM     72  O   UNL A   1      48.068  37.147  29.700  1.00  0.00    -0.237 OA
ATOM     73  O   UNL A   1      47.186  37.617  27.440  1.00  0.00    -0.237 OA
ATOM     74  O   UNL A   1      45.684  37.707  29.394  1.00  0.00    -0.744 OA
ENDBRANCH  70  71
ENDBRANCH  49  63
BRANCH  50  75
ATOM     75  C   UNL A   1      43.474  23.124  26.833  1.00  0.00     0.058 A 
ATOM     76  C   UNL A   1      43.405  22.607  25.531  1.00  0.00     0.135 A 
ATOM     77  C   UNL A   1      43.176  22.257  27.895  1.00  0.00     0.135 A 
ATOM     78  F   UNL A   1      43.675  23.397  24.480  1.00  0.00    -0.206 F 
ATOM     79  C   UNL A   1      43.033  21.288  25.287  1.00  0.00     0.059 A 
ATOM     80  C   UNL A   1      42.829  20.927  27.680  1.00  0.00     0.059 A 
ATOM     81  F   UNL A   1      43.243  22.697  29.161  1.00  0.00    -0.206 F 
ATOM     82  C   UNL A   1      42.748  20.455  26.370  1.00  0.00     0.060 A 
BRANCH  82  83
ATOM     83  S   UNL A   1      42.303  18.736  26.044  1.00  0.00     0.124 S 
ATOM     84  O   UNL A   1      43.214  18.397  24.958  1.00  0.00    -0.237 OA
ATOM     85  O   UNL A   1      42.577  18.100  27.330  1.00  0.00    -0.237 OA
ATOM     86  O   UNL A   1      40.891  18.817  25.682  1.00  0.00    -0.744 OA
ENDBRANCH  82  83
ENDBRANCH  50  75
BRANCH  62  87
ATOM     87  C   UNL A   1      49.517  26.615  26.554  1.00  0.00     0.058 A 
ATOM     88  C   UNL A   1      50.352  26.114  27.564  1.00  0.00     0.135 A 
ATOM     89  C   UNL A   1      50.018  26.640  25.242  1.00  0.00     0.135 A 
ATOM     90  F   UNL A   1      49.926  26.075  28.836  1.00  0.00    -0.206 F 
ATOM     91  C   UNL A   1      51.640  25.666  27.286  1.00  0.00     0.059 A 
ATOM     92  C   UNL A   1      51.291  26.170  24.936  1.00  0.00     0.059 A 
ATOM     93  F   UNL A   1      49.257  27.101  24.236  1.00  0.00    -0.206 F 
ATOM     94  C   UNL A   1      52.099  25.693  25.967  1.00  0.00     0.060 A 
BRANCH  94  95
ATOM     95  S   UNL A   1      53.752  25.060  25.614  1.00  0.00     0.124 S 
ATOM     96  O   UNL A   1      54.451  25.352  26.861  1.00  0.00    -0.237 OA
ATOM     97  O   UNL A   1      53.495  23.650  25.346  1.00  0.00    -0.237 OA
ATOM     98  O   UNL A   1      54.177  25.845  24.458  1.00  0.00    -0.744 OA
ENDBRANCH  94  95
ENDBRANCH  62  87
ENDBRANCH  36  37
ENDBRANCH  28  31
ENDBRANCH  26  27
ENDBRANCH  25  26
ENDBRANCH  24  25
ENDBRANCH  23  24
ENDBRANCH   3  23
TORSDOF 21
ENDMDL
MODEL 2
REMARK VINA RESULT:     -10.5      6.569     11.988
REMARK SMILES COC(=O)CCN(C)C(=O)NCc1ccc(C(=O)NCCCCNC(=O)c2ccc(-c3c4nc(c(-c5c(F)cc(S(=O)(=O)[O-])cc5F)c5ccc([nH]5)c(-c5c(F)cc(S(=O)(=O)[O-])cc5F)c5nc(c(-c6c(F)cc(S(=O)(=O)[O-])cc6F)c6ccc3[nH]6)C=C5)C=C4)cc2)o1
REMARK SMILES IDX 17 1 18 2 19 3 16 5 13 6 14 7 93 8 15 9 12 10 11 11 9 12
REMARK SMILES IDX 10 13 7 15 8 16 6 17 5 18 3 19 4 20 2 21 1 22 20 23 21 24
REMARK SMILES IDX 22 25 23 26 24 27 25 28 26 30 27 31 28 32 92 33 29 34 91 35
REMARK SMILES IDX 30 36 31 37 32 38 85 39 33 40 90 41 84 42 86 43 34 44 89 45
REMARK SMILES IDX 83 46 82 47 35 49 69 50 48 51 68 52 49 53 52 54 67 55 87 56
REMARK SMILES IDX 50 57 51 58 66 60 88 61 53 62 36 63 37 64 46 65 38 66 39 67
REMARK SMILES IDX 45 68 47 69 40 70 41 71 42 72 43 73 44 74 70 75 71 76 80 77
REMARK SMILES IDX 72 78 73 79 79 80 81 81 74 82 75 83 76 84 77 85 78 86 54 87
REMARK SMILES IDX 55 88 64 89 56 90 57 91 63 92 65 93 58 94 59 95 60 96 61 97
REMARK SMILES IDX 62 98
REMARK H PARENT 19 4 11 14 24 29 86 48 52 59
REMARK Flexibility Score: inf
ROOT
ATOM      1  C   UNL A   1      36.594  22.606  23.971  1.00  0.00     0.286 C 
ATOM      2  O   UNL A   1      36.480  23.344  22.991  1.00  0.00    -0.266 OA
ATOM      3  N   UNL A   1      37.832  22.583  24.567  1.00  0.00    -0.349 N 
ATOM      4  H   UNL A   1      38.529  23.091  24.092  1.00  0.00     0.163 HD
ENDROOT
BRANCH   1   5
ATOM      5  C   UNL A   1      35.493  21.816  24.492  1.00  0.00     0.191 A 
ATOM      6  C   UNL A   1      33.328  21.453  24.785  1.00  0.00     0.124 A 
ATOM      7  C   UNL A   1      33.972  20.380  25.355  1.00  0.00     0.048 A 
ATOM      8  O   UNL A   1      34.241  22.339  24.303  1.00  0.00    -0.454 OA
ATOM      9  C   UNL A   1      35.356  20.591  25.126  1.00  0.00     0.056 A 
BRANCH   6  10
ATOM     10  C   UNL A   1      31.913  21.798  24.520  1.00  0.00     0.193 C 
BRANCH  10  11
ATOM     11  N   UNL A   1      31.316  22.094  25.805  1.00  0.00    -0.331 N 
ATOM     12  C   UNL A   1      31.030  23.190  26.519  1.00  0.00     0.317 C 
ATOM     13  O   UNL A   1      30.401  23.000  27.563  1.00  0.00    -0.249 OA
ATOM     14  H   UNL A   1      31.052  21.274  26.279  1.00  0.00     0.165 HD
BRANCH  12  15
ATOM     15  N   UNL A   1      31.343  24.453  26.095  1.00  0.00    -0.327 N 
ATOM     16  C   UNL A   1      32.677  24.977  25.862  1.00  0.00     0.148 C 
BRANCH  15  17
ATOM     17  C   UNL A   1      30.226  25.384  25.888  1.00  0.00     0.132 C 
BRANCH  17  18
ATOM     18  C   UNL A   1      30.091  25.837  24.438  1.00  0.00     0.144 C 
BRANCH  18  19
ATOM     19  C   UNL A   1      30.417  27.299  24.286  1.00  0.00     0.307 C 
ATOM     20  O   UNL A   1      30.822  28.006  25.200  1.00  0.00    -0.252 OA
BRANCH  19  21
ATOM     21  O   UNL A   1      30.199  27.705  23.005  1.00  0.00    -0.469 OA
ATOM     22  C   UNL A   1      31.307  28.372  22.398  1.00  0.00     0.282 C 
ENDBRANCH  19  21
ENDBRANCH  18  19
ENDBRANCH  17  18
ENDBRANCH  15  17
ENDBRANCH  12  15
ENDBRANCH  10  11
ENDBRANCH   6  10
ENDBRANCH   1   5
BRANCH   3  23
ATOM     23  C   UNL A   1      38.274  21.935  25.780  1.00  0.00     0.116 C 
BRANCH  23  24
ATOM     24  C   UNL A   1      39.137  22.874  26.620  1.00  0.00     0.023 C 
BRANCH  24  25
ATOM     25  C   UNL A   1      40.388  22.207  27.197  1.00  0.00     0.023 C 
BRANCH  25  26
ATOM     26  C   UNL A   1      41.631  23.090  27.228  1.00  0.00     0.116 C 
BRANCH  26  27
ATOM     27  N   UNL A   1      41.767  23.936  26.050  1.00  0.00    -0.352 N 
ATOM     28  C   UNL A   1      41.740  25.309  25.986  1.00  0.00     0.251 C 
ATOM     29  H   UNL A   1      41.891  23.466  25.194  1.00  0.00     0.163 HD
ATOM     30  O   UNL A   1      41.752  25.882  24.902  1.00  0.00    -0.269 OA
BRANCH  28  31
ATOM     31  C   UNL A   1      41.660  26.075  27.246  1.00  0.00     0.039 A 
ATOM     32  C   UNL A   1      42.738  26.879  27.620  1.00  0.00     0.014 A 
ATOM     33  C   UNL A   1      40.490  26.052  28.007  1.00  0.00     0.014 A 
ATOM     34  C   UNL A   1      42.611  27.722  28.726  1.00  0.00     0.010 A 
ATOM     35  C   UNL A   1      40.338  26.948  29.058  1.00  0.00     0.010 A 
ATOM     36  C   UNL A   1      41.396  27.794  29.427  1.00  0.00    -0.014 A 
BRANCH  36  37
ATOM     37  C   UNL A   1      41.202  28.746  30.550  1.00  0.00     0.031 A 
ATOM     38  C   UNL A   1      42.055  28.633  31.783  1.00  0.00     0.074 A 
ATOM     39  C   UNL A   1      40.211  29.661  30.490  1.00  0.00     0.049 A 
ATOM     40  N   UNL A   1      41.975  29.297  32.907  1.00  0.00    -0.248 NA
ATOM     41  C   UNL A   1      43.118  27.614  31.762  1.00  0.00     0.031 C 
ATOM     42  C   UNL A   1      39.289  29.840  29.366  1.00  0.00     0.029 A 
ATOM     43  N   UNL A   1      39.803  30.601  31.404  1.00  0.00    -0.354 N 
ATOM     44  C   UNL A   1      42.965  28.769  33.728  1.00  0.00     0.074 A 
ATOM     45  C   UNL A   1      43.593  27.692  32.996  1.00  0.00     0.031 C 
ATOM     46  C   UNL A   1      38.439  30.840  29.648  1.00  0.00     0.029 A 
ATOM     47  C   UNL A   1      38.723  31.344  30.988  1.00  0.00     0.049 A 
ATOM     48  H   UNL A   1      40.243  30.732  32.274  1.00  0.00     0.167 HD
ATOM     49  C   UNL A   1      43.334  29.165  34.969  1.00  0.00     0.037 A 
ATOM     50  C   UNL A   1      38.031  32.312  31.621  1.00  0.00     0.037 A 
ATOM     51  C   UNL A   1      42.718  30.255  35.680  1.00  0.00     0.049 A 
ATOM     52  C   UNL A   1      38.450  32.724  33.008  1.00  0.00     0.074 A 
ATOM     53  C   UNL A   1      43.053  30.769  36.921  1.00  0.00     0.029 A 
ATOM     54  N   UNL A   1      41.642  30.997  35.218  1.00  0.00    -0.354 N 
ATOM     55  N   UNL A   1      39.428  32.257  33.746  1.00  0.00    -0.248 NA
ATOM     56  C   UNL A   1      37.676  33.797  33.647  1.00  0.00     0.031 C 
ATOM     57  C   UNL A   1      42.147  31.788  37.230  1.00  0.00     0.029 A 
ATOM     58  C   UNL A   1      41.285  31.951  36.157  1.00  0.00     0.049 A 
ATOM     59  H   UNL A   1      41.196  30.865  34.349  1.00  0.00     0.167 HD
ATOM     60  C   UNL A   1      39.409  33.001  34.920  1.00  0.00     0.074 A 
ATOM     61  C   UNL A   1      38.327  33.955  34.792  1.00  0.00     0.031 C 
ATOM     62  C   UNL A   1      40.217  32.906  36.006  1.00  0.00     0.037 A 
BRANCH  49  63
ATOM     63  C   UNL A   1      44.458  28.420  35.637  1.00  0.00     0.058 A 
ATOM     64  C   UNL A   1      45.792  28.843  35.523  1.00  0.00     0.135 A 
ATOM     65  C   UNL A   1      44.195  27.295  36.433  1.00  0.00     0.135 A 
ATOM     66  F   UNL A   1      46.104  29.903  34.760  1.00  0.00    -0.206 F 
ATOM     67  C   UNL A   1      46.828  28.161  36.153  1.00  0.00     0.059 A 
ATOM     68  C   UNL A   1      45.211  26.615  37.098  1.00  0.00     0.059 A 
ATOM     69  F   UNL A   1      42.938  26.845  36.575  1.00  0.00    -0.206 F 
ATOM     70  C   UNL A   1      46.527  27.049  36.940  1.00  0.00     0.060 A 
BRANCH  70  71
ATOM     71  S   UNL A   1      47.883  26.185  37.759  1.00  0.00     0.124 S 
ATOM     72  O   UNL A   1      48.309  27.178  38.741  1.00  0.00    -0.237 OA
ATOM     73  O   UNL A   1      47.218  25.004  38.301  1.00  0.00    -0.237 OA
ATOM     74  O   UNL A   1      48.828  25.929  36.677  1.00  0.00    -0.744 OA
ENDBRANCH  70  71
ENDBRANCH  49  63
BRANCH  50  75
ATOM     75  C   UNL A   1      36.879  32.972  30.945  1.00  0.00     0.058 A 
ATOM     76  C   UNL A   1      37.081  33.999  30.011  1.00  0.00     0.135 A 
ATOM     77  C   UNL A   1      35.556  32.591  31.218  1.00  0.00     0.135 A 
ATOM     78  F   UNL A   1      38.327  34.404  29.719  1.00  0.00    -0.206 F 
ATOM     79  C   UNL A   1      36.015  34.640  29.388  1.00  0.00     0.059 A 
ATOM     80  C   UNL A   1      34.474  33.197  30.587  1.00  0.00     0.059 A 
ATOM     81  F   UNL A   1      35.307  31.603  32.092  1.00  0.00    -0.206 F 
ATOM     82  C   UNL A   1      34.714  34.230  29.682  1.00  0.00     0.060 A 
BRANCH  82  83
ATOM     83  S   UNL A   1      33.340  35.044  28.839  1.00  0.00     0.124 S 
ATOM     84  O   UNL A   1      32.546  35.521  29.965  1.00  0.00    -0.237 OA
ATOM     85  O   UNL A   1      34.025  36.070  28.059  1.00  0.00    -0.237 OA
ATOM     86  O   UNL A   1      32.741  33.967  28.056  1.00  0.00    -0.744 OA
ENDBRANCH  82  83
ENDBRANCH  50  75
BRANCH  62  87
ATOM     87  C   UNL A   1      40.000  33.886  37.126  1.00  0.00     0.058 A 
ATOM     88  C   UNL A   1      40.632  35.138  37.149  1.00  0.00     0.135 A 
ATOM     89  C   UNL A   1      39.087  33.593  38.152  1.00  0.00     0.135 A 
ATOM     90  F   UNL A   1      41.519  35.466  36.196  1.00  0.00    -0.206 F 
ATOM     91  C   UNL A   1      40.379  36.062  38.159  1.00  0.00     0.059 A 
ATOM     92  C   UNL A   1      38.796  34.512  39.155  1.00  0.00     0.059 A 
ATOM     93  F   UNL A   1      38.447  32.413  38.173  1.00  0.00    -0.206 F 
ATOM     94  C   UNL A   1      39.454  35.741  39.155  1.00  0.00     0.060 A 
BRANCH  94  95
ATOM     95  S   UNL A   1      39.095  36.969  40.429  1.00  0.00     0.124 S 
ATOM     96  O   UNL A   1      38.386  36.166  41.419  1.00  0.00    -0.237 OA
ATOM     97  O   UNL A   1      40.429  37.418  40.813  1.00  0.00    -0.237 OA
ATOM     98  O   UNL A   1      38.284  37.960  39.728  1.00  0.00    -0.744 OA
ENDBRANCH  94  95
ENDBRANCH  62  87
ENDBRANCH  36  37
ENDBRANCH  28  31
ENDBRANCH  26  27
ENDBRANCH  25  26
ENDBRANCH  24  25
ENDBRANCH  23  24
ENDBRANCH   3  23
TORSDOF 21
ENDMDL
MODEL 3
REMARK VINA RESULT:     -10.4      6.389      8.428
REMARK SMILES COC(=O)CCN(C)C(=O)NCc1ccc(C(=O)NCCCCNC(=O)c2ccc(-c3c4nc(c(-c5c(F)cc(S(=O)(=O)[O-])cc5F)c5ccc([nH]5)c(-c5c(F)cc(S(=O)(=O)[O-])cc5F)c5nc(c(-c6c(F)cc(S(=O)(=O)[O-])cc6F)c6ccc3[nH]6)C=C5)C=C4)cc2)o1
REMARK SMILES IDX 17 1 18 2 19 3 16 5 13 6 14 7 93 8 15 9 12 10 11 11 9 12
REMARK SMILES IDX 10 13 7 15 8 16 6 17 5 18 3 19 4 20 2 21 1 22 20 23 21 24
REMARK SMILES IDX 22 25 23 26 24 27 25 28 26 30 27 31 28 32 92 33 29 34 91 35
REMARK SMILES IDX 30 36 31 37 32 38 85 39 33 40 90 41 84 42 86 43 34 44 89 45
REMARK SMILES IDX 83 46 82 47 35 49 69 50 48 51 68 52 49 53 52 54 67 55 87 56
REMARK SMILES IDX 50 57 51 58 66 60 88 61 53 62 36 63 37 64 46 65 38 66 39 67
REMARK SMILES IDX 45 68 47 69 40 70 41 71 42 72 43 73 44 74 70 75 71 76 80 77
REMARK SMILES IDX 72 78 73 79 79 80 81 81 74 82 75 83 76 84 77 85 78 86 54 87
REMARK SMILES IDX 55 88 64 89 56 90 57 91 63 92 65 93 58 94 59 95 60 96 61 97
REMARK SMILES IDX 62 98
REMARK H PARENT 19 4 11 14 24 29 86 48 52 59
REMARK Flexibility Score: inf
ROOT
ATOM      1  C   UNL A   1      33.212  28.881  23.894  1.00  0.00     0.286 C 
ATOM      2  O   UNL A   1      34.071  28.988  23.018  1.00  0.00    -0.266 OA
ATOM      3  N   UNL A   1      33.449  29.572  25.058  1.00  0.00    -0.349 N 
ATOM      4  H   UNL A   1      34.331  30.008  25.107  1.00  0.00     0.163 HD
ENDROOT
BRANCH   1   5
ATOM      5  C   UNL A   1      32.004  28.094  23.719  1.00  0.00     0.191 A 
ATOM      6  C   UNL A   1      30.975  26.168  23.348  1.00  0.00     0.124 A 
ATOM      7  C   UNL A   1      29.981  27.098  23.541  1.00  0.00     0.048 A 
ATOM      8  O   UNL A   1      32.192  26.773  23.412  1.00  0.00    -0.454 OA
ATOM      9  C   UNL A   1      30.642  28.321  23.824  1.00  0.00     0.056 A 
BRANCH   6  10
ATOM     10  C   UNL A   1      31.008  24.699  23.175  1.00  0.00     0.193 C 
BRANCH  10  11
ATOM     11  N   UNL A   1      32.285  24.385  22.573  1.00  0.00    -0.331 N 
ATOM     12  C   UNL A   1      33.208  23.422  22.688  1.00  0.00     0.317 C 
ATOM     13  O   UNL A   1      34.142  23.475  21.882  1.00  0.00    -0.249 OA
ATOM     14  H   UNL A   1      32.545  25.057  21.903  1.00  0.00     0.165 HD
BRANCH  12  15
ATOM     15  N   UNL A   1      33.100  22.396  23.587  1.00  0.00    -0.327 N 
ATOM     16  C   UNL A   1      32.246  21.230  23.462  1.00  0.00     0.148 C 
BRANCH  15  17
ATOM     17  C   UNL A   1      33.898  22.499  24.817  1.00  0.00     0.132 C 
BRANCH  17  18
ATOM     18  C   UNL A   1      33.047  22.465  26.081  1.00  0.00     0.144 C 
BRANCH  18  19
ATOM     19  C   UNL A   1      32.620  23.849  26.493  1.00  0.00     0.307 C 
ATOM     20  O   UNL A   1      33.174  24.874  26.118  1.00  0.00    -0.252 OA
BRANCH  19  21
ATOM     21  O   UNL A   1      31.546  23.787  27.327  1.00  0.00    -0.469 OA
ATOM     22  C   UNL A   1      30.280  23.824  26.667  1.00  0.00     0.282 C 
ENDBRANCH  19  21
ENDBRANCH  18  19
ENDBRANCH  17  18
ENDBRANCH  15  17
ENDBRANCH  12  15
ENDBRANCH  10  11
ENDBRANCH   6  10
ENDBRANCH   1   5
BRANCH   3  23
ATOM     23  C   UNL A   1      32.613  29.761  26.221  1.00  0.00     0.116 C 
BRANCH  23  24
ATOM     24  C   UNL A   1      31.802  31.050  26.108  1.00  0.00     0.023 C 
BRANCH  24  25
ATOM     25  C   UNL A   1      31.817  31.899  27.383  1.00  0.00     0.023 C 
BRANCH  25  26
ATOM     26  C   UNL A   1      33.040  32.797  27.541  1.00  0.00     0.116 C 
BRANCH  26  27
ATOM     27  N   UNL A   1      32.702  34.189  27.803  1.00  0.00    -0.352 N 
ATOM     28  C   UNL A   1      33.224  35.021  28.765  1.00  0.00     0.251 C 
ATOM     29  H   UNL A   1      32.014  34.583  27.219  1.00  0.00     0.163 HD
ATOM     30  O   UNL A   1      32.757  36.140  28.941  1.00  0.00    -0.269 OA
BRANCH  28  31
ATOM     31  C   UNL A   1      34.331  34.523  29.605  1.00  0.00     0.039 A 
ATOM     32  C   UNL A   1      34.036  33.920  30.829  1.00  0.00     0.014 A 
ATOM     33  C   UNL A   1      35.647  34.584  29.140  1.00  0.00     0.014 A 
ATOM     34  C   UNL A   1      35.061  33.310  31.556  1.00  0.00     0.010 A 
ATOM     35  C   UNL A   1      36.649  33.910  29.826  1.00  0.00     0.010 A 
ATOM     36  C   UNL A   1      36.366  33.264  31.040  1.00  0.00    -0.014 A 
BRANCH  36  37
ATOM     37  C   UNL A   1      37.456  32.544  31.747  1.00  0.00     0.031 A 
ATOM     38  C   UNL A   1      37.972  33.071  33.058  1.00  0.00     0.074 A 
ATOM     39  C   UNL A   1      38.030  31.466  31.174  1.00  0.00     0.049 A 
ATOM     40  N   UNL A   1      38.979  32.650  33.778  1.00  0.00    -0.248 NA
ATOM     41  C   UNL A   1      37.284  34.246  33.618  1.00  0.00     0.031 C 
ATOM     42  C   UNL A   1      37.647  30.887  29.884  1.00  0.00     0.029 A 
ATOM     43  N   UNL A   1      39.070  30.675  31.595  1.00  0.00    -0.354 N 
ATOM     44  C   UNL A   1      39.054  33.514  34.865  1.00  0.00     0.074 A 
ATOM     45  C   UNL A   1      38.029  34.516  34.680  1.00  0.00     0.031 C 
ATOM     46  C   UNL A   1      38.426  29.823  29.630  1.00  0.00     0.029 A 
ATOM     47  C   UNL A   1      39.393  29.670  30.712  1.00  0.00     0.049 A 
ATOM     48  H   UNL A   1      39.540  30.812  32.449  1.00  0.00     0.167 HD
ATOM     49  C   UNL A   1      39.885  33.461  35.932  1.00  0.00     0.037 A 
ATOM     50  C   UNL A   1      40.367  28.740  30.764  1.00  0.00     0.037 A 
ATOM     51  C   UNL A   1      40.887  32.445  36.120  1.00  0.00     0.049 A 
ATOM     52  C   UNL A   1      41.290  28.710  31.954  1.00  0.00     0.074 A 
ATOM     53  C   UNL A   1      41.744  32.271  37.193  1.00  0.00     0.029 A 
ATOM     54  N   UNL A   1      41.169  31.432  35.215  1.00  0.00    -0.354 N 
ATOM     55  N   UNL A   1      41.306  29.498  33.003  1.00  0.00    -0.248 NA
ATOM     56  C   UNL A   1      42.322  27.665  31.971  1.00  0.00     0.031 C 
ATOM     57  C   UNL A   1      42.578  31.184  36.913  1.00  0.00     0.029 A 
ATOM     58  C   UNL A   1      42.202  30.643  35.695  1.00  0.00     0.049 A 
ATOM     59  H   UNL A   1      40.704  31.294  34.358  1.00  0.00     0.167 HD
ATOM     60  C   UNL A   1      42.325  29.022  33.821  1.00  0.00     0.074 A 
ATOM     61  C   UNL A   1      42.898  27.874  33.148  1.00  0.00     0.031 C 
ATOM     62  C   UNL A   1      42.748  29.491  35.021  1.00  0.00     0.037 A 
BRANCH  49  63
ATOM     63  C   UNL A   1      39.743  34.527  36.984  1.00  0.00     0.058 A 
ATOM     64  C   UNL A   1      40.374  35.776  36.858  1.00  0.00     0.135 A 
ATOM     65  C   UNL A   1      38.935  34.315  38.112  1.00  0.00     0.135 A 
ATOM     66  F   UNL A   1      41.174  36.027  35.808  1.00  0.00    -0.206 F 
ATOM     67  C   UNL A   1      40.231  36.765  37.825  1.00  0.00     0.059 A 
ATOM     68  C   UNL A   1      38.751  35.301  39.077  1.00  0.00     0.059 A 
ATOM     69  F   UNL A   1      38.310  33.140  38.285  1.00  0.00    -0.206 F 
ATOM     70  C   UNL A   1      39.416  36.519  38.931  1.00  0.00     0.060 A 
BRANCH  70  71
ATOM     71  S   UNL A   1      39.231  37.819  40.168  1.00  0.00     0.124 S 
ATOM     72  O   UNL A   1      40.539  38.465  40.108  1.00  0.00    -0.237 OA
ATOM     73  O   UNL A   1      38.117  38.597  39.639  1.00  0.00    -0.237 OA
ATOM     74  O   UNL A   1      38.952  37.083  41.397  1.00  0.00    -0.744 OA
ENDBRANCH  70  71
ENDBRANCH  49  63
BRANCH  50  75
ATOM     75  C   UNL A   1      40.513  27.748  29.662  1.00  0.00     0.058 A 
ATOM     76  C   UNL A   1      41.538  27.869  28.713  1.00  0.00     0.135 A 
ATOM     77  C   UNL A   1      39.632  26.663  29.535  1.00  0.00     0.135 A 
ATOM     78  F   UNL A   1      42.404  28.892  28.786  1.00  0.00    -0.206 F 
ATOM     79  C   UNL A   1      41.675  26.963  27.665  1.00  0.00     0.059 A 
ATOM     80  C   UNL A   1      39.764  25.728  28.512  1.00  0.00     0.059 A 
ATOM     81  F   UNL A   1      38.643  26.491  30.425  1.00  0.00    -0.206 F 
ATOM     82  C   UNL A   1      40.782  25.895  27.574  1.00  0.00     0.060 A 
BRANCH  82  83
ATOM     83  S   UNL A   1      40.991  24.705  26.232  1.00  0.00     0.124 S 
ATOM     84  O   UNL A   1      41.153  25.585  25.081  1.00  0.00    -0.237 OA
ATOM     85  O   UNL A   1      42.184  23.976  26.652  1.00  0.00    -0.237 OA
ATOM     86  O   UNL A   1      39.751  23.936  26.269  1.00  0.00    -0.744 OA
ENDBRANCH  82  83
ENDBRANCH  50  75
BRANCH  62  87
ATOM     87  C   UNL A   1      43.850  28.740  35.716  1.00  0.00     0.058 A 
ATOM     88  C   UNL A   1      45.201  29.077  35.542  1.00  0.00     0.135 A 
ATOM     89  C   UNL A   1      43.541  27.717  36.627  1.00  0.00     0.135 A 
ATOM     90  F   UNL A   1      45.552  30.042  34.678  1.00  0.00    -0.206 F 
ATOM     91  C   UNL A   1      46.210  28.414  36.236  1.00  0.00     0.059 A 
ATOM     92  C   UNL A   1      44.530  27.062  37.354  1.00  0.00     0.059 A 
ATOM     93  F   UNL A   1      42.263  27.362  36.839  1.00  0.00    -0.206 F 
ATOM     94  C   UNL A   1      45.863  27.411  37.145  1.00  0.00     0.060 A 
BRANCH  94  95
ATOM     95  S   UNL A   1      47.177  26.598  38.077  1.00  0.00     0.124 S 
ATOM     96  O   UNL A   1      47.847  25.832  37.031  1.00  0.00    -0.237 OA
ATOM     97  O   UNL A   1      47.925  27.729  38.613  1.00  0.00    -0.237 OA
ATOM     98  O   UNL A   1      46.453  25.806  39.067  1.00  0.00    -0.744 OA
ENDBRANCH  94  95
ENDBRANCH  62  87
ENDBRANCH  36  37
ENDBRANCH  28  31
ENDBRANCH  26  27
ENDBRANCH  25  26
ENDBRANCH  24  25
ENDBRANCH  23  24
ENDBRANCH   3  23
TORSDOF 21
ENDMDL
