MODEL 1
REMARK VINA RESULT:     -12.5      0.000      0.000
REMARK SMILES Cc1nc(-c2cccc(N3C[C@H](C(=O)NCCCCNC(=O)c4ccc(-c5c6nc(c(-c7c(F)cc(S(=O)(=O)[O-])cc7F)c7ccc([nH]7)c(-c7c(F)cc(S(=O)(=O)[O-])cc7F)c7nc(c(-c8c(F)cc(S(=O)(=O)[O-])cc8F)c8ccc5[nH]8)C=C7)C=C6)cc4)CC3=O)c2)no1
REMARK SMILES IDX 18 1 17 2 16 3 15 4 13 5 14 6 12 8 10 9 11 10 90 11 89 12
REMARK SMILES IDX 91 13 9 14 5 15 6 16 92 17 7 18 8 19 4 20 1 21 2 22 3 23
REMARK SMILES IDX 94 24 93 25 19 26 20 27 21 28 22 30 23 31 24 32 88 33 25 34
REMARK SMILES IDX 87 35 26 36 27 37 28 38 81 39 29 40 86 41 80 42 82 43 30 44
REMARK SMILES IDX 85 45 79 46 78 47 31 49 65 50 44 51 64 52 45 53 48 54 63 55
REMARK SMILES IDX 83 56 46 57 47 58 62 60 84 61 49 62 32 63 33 64 42 65 34 66
REMARK SMILES IDX 35 67 41 68 43 69 36 70 37 71 38 72 39 73 40 74 66 75 67 76
REMARK SMILES IDX 76 77 68 78 69 79 75 80 77 81 70 82 71 83 72 84 73 85 74 86
REMARK SMILES IDX 50 87 51 88 60 89 52 90 53 91 59 92 61 93 54 94 55 95 56 96
REMARK SMILES IDX 57 97 58 98
REMARK H PARENT 15 7 20 29 82 48 48 59
REMARK Flexibility Score: inf
ROOT
ATOM      1  C   UNL A   1      32.373  27.902  26.449  1.00  0.00     0.023 C 
ENDROOT
BRANCH   1   2
ATOM      2  C   UNL A   1      31.570  29.002  25.746  1.00  0.00     0.023 C 
BRANCH   2   3
ATOM      3  C   UNL A   1      31.191  28.682  24.299  1.00  0.00     0.116 C 
BRANCH   3   4
ATOM      4  N   UNL A   1      30.633  27.346  24.186  1.00  0.00    -0.356 N 
ATOM      5  C   UNL A   1      31.092  26.262  23.495  1.00  0.00     0.225 C 
ATOM      6  O   UNL A   1      30.386  25.258  23.436  1.00  0.00    -0.275 OA
ATOM      7  H   UNL A   1      29.796  27.200  24.683  1.00  0.00     0.163 HD
BRANCH   5   8
ATOM      8  C   UNL A   1      32.492  26.303  22.920  1.00  0.00     0.107 C 
ATOM      9  N   UNL A   1      33.625  24.250  23.125  1.00  0.00    -0.312 N 
ATOM     10  C   UNL A   1      33.396  25.487  23.828  1.00  0.00     0.139 C 
ATOM     11  C   UNL A   1      33.241  24.318  21.788  1.00  0.00     0.227 C 
ATOM     12  C   UNL A   1      32.599  25.656  21.544  1.00  0.00     0.116 C 
ATOM     13  O   UNL A   1      33.391  23.473  20.916  1.00  0.00    -0.274 OA
BRANCH   9  14
ATOM     14  C   UNL A   1      34.284  23.152  23.714  1.00  0.00     0.044 A 
ATOM     15  C   UNL A   1      34.228  20.875  24.574  1.00  0.00     0.025 A 
ATOM     16  C   UNL A   1      35.570  20.987  24.952  1.00  0.00     0.012 A 
ATOM     17  C   UNL A   1      33.585  21.971  23.982  1.00  0.00     0.038 A 
ATOM     18  C   UNL A   1      36.274  22.163  24.689  1.00  0.00     0.003 A 
ATOM     19  C   UNL A   1      35.641  23.231  24.048  1.00  0.00     0.026 A 
BRANCH  15  20
ATOM     20  C   UNL A   1      33.513  19.620  24.726  1.00  0.00     0.202 A 
ATOM     21  C   UNL A   1      33.205  16.081  24.684  1.00  0.00     0.114 C 
ATOM     22  C   UNL A   1      33.176  17.551  24.738  1.00  0.00     0.223 A 
ATOM     23  N   UNL A   1      34.089  18.418  24.371  1.00  0.00    -0.191 NA
ATOM     24  O   UNL A   1      32.061  18.128  25.269  1.00  0.00    -0.339 OA
ATOM     25  N   UNL A   1      32.295  19.504  25.279  1.00  0.00    -0.057 NA
ENDBRANCH  15  20
ENDBRANCH   9  14
ENDBRANCH   5   8
ENDBRANCH   3   4
ENDBRANCH   2   3
ENDBRANCH   1   2
BRANCH   1  26
ATOM     26  C   UNL A   1      33.575  28.381  27.261  1.00  0.00     0.116 C 
BRANCH  26  27
ATOM     27  N   UNL A   1      33.496  29.790  27.611  1.00  0.00    -0.352 N 
ATOM     28  C   UNL A   1      34.446  30.602  28.181  1.00  0.00     0.251 C 
ATOM     29  H   UNL A   1      32.636  30.226  27.409  1.00  0.00     0.163 HD
ATOM     30  O   UNL A   1      34.139  31.741  28.522  1.00  0.00    -0.269 OA
BRANCH  28  31
ATOM     31  C   UNL A   1      35.818  30.098  28.418  1.00  0.00     0.039 A 
ATOM     32  C   UNL A   1      36.731  30.126  27.360  1.00  0.00     0.014 A 
ATOM     33  C   UNL A   1      36.208  29.598  29.664  1.00  0.00     0.014 A 
ATOM     34  C   UNL A   1      38.051  29.720  27.571  1.00  0.00     0.010 A 
ATOM     35  C   UNL A   1      37.541  29.254  29.889  1.00  0.00     0.010 A 
ATOM     36  C   UNL A   1      38.479  29.318  28.847  1.00  0.00    -0.014 A 
BRANCH  36  37
ATOM     37  C   UNL A   1      39.908  28.997  29.107  1.00  0.00     0.031 A 
ATOM     38  C   UNL A   1      40.833  30.029  29.693  1.00  0.00     0.074 A 
ATOM     39  C   UNL A   1      40.384  27.782  28.764  1.00  0.00     0.049 A 
ATOM     40  N   UNL A   1      42.113  29.937  29.950  1.00  0.00    -0.248 NA
ATOM     41  C   UNL A   1      40.252  31.343  30.013  1.00  0.00     0.031 C 
ATOM     42  C   UNL A   1      39.602  26.714  28.137  1.00  0.00     0.029 A 
ATOM     43  N   UNL A   1      41.639  27.241  28.888  1.00  0.00    -0.354 N 
ATOM     44  C   UNL A   1      42.491  31.174  30.458  1.00  0.00     0.074 A 
ATOM     45  C   UNL A   1      41.315  32.019  30.424  1.00  0.00     0.031 C 
ATOM     46  C   UNL A   1      40.389  25.642  27.951  1.00  0.00     0.029 A 
ATOM     47  C   UNL A   1      41.737  25.954  28.412  1.00  0.00     0.049 A 
ATOM     48  H   UNL A   1      42.399  27.729  29.281  1.00  0.00     0.167 HD
ATOM     49  C   UNL A   1      43.698  31.565  30.933  1.00  0.00     0.037 A 
ATOM     50  C   UNL A   1      42.794  25.121  28.346  1.00  0.00     0.037 A 
ATOM     51  C   UNL A   1      44.862  30.715  30.983  1.00  0.00     0.049 A 
ATOM     52  C   UNL A   1      44.123  25.580  28.881  1.00  0.00     0.074 A 
ATOM     53  C   UNL A   1      46.117  31.005  31.492  1.00  0.00     0.029 A 
ATOM     54  N   UNL A   1      44.915  29.412  30.512  1.00  0.00    -0.354 N 
ATOM     55  N   UNL A   1      44.444  26.734  29.416  1.00  0.00    -0.248 NA
ATOM     56  C   UNL A   1      45.234  24.620  28.812  1.00  0.00     0.031 C 
ATOM     57  C   UNL A   1      46.939  29.892  31.292  1.00  0.00     0.029 A 
ATOM     58  C   UNL A   1      46.185  28.891  30.701  1.00  0.00     0.049 A 
ATOM     59  H   UNL A   1      44.162  28.928  30.101  1.00  0.00     0.167 HD
ATOM     60  C   UNL A   1      45.785  26.630  29.767  1.00  0.00     0.074 A 
ATOM     61  C   UNL A   1      46.209  25.294  29.405  1.00  0.00     0.031 C 
ATOM     62  C   UNL A   1      46.594  27.558  30.337  1.00  0.00     0.037 A 
BRANCH  49  63
ATOM     63  C   UNL A   1      43.826  32.969  31.457  1.00  0.00     0.058 A 
ATOM     64  C   UNL A   1      44.206  34.030  30.621  1.00  0.00     0.135 A 
ATOM     65  C   UNL A   1      43.505  33.269  32.791  1.00  0.00     0.135 A 
ATOM     66  F   UNL A   1      44.540  33.798  29.341  1.00  0.00    -0.206 F 
ATOM     67  C   UNL A   1      44.278  35.338  31.091  1.00  0.00     0.059 A 
ATOM     68  C   UNL A   1      43.545  34.573  33.277  1.00  0.00     0.059 A 
ATOM     69  F   UNL A   1      43.137  32.292  33.634  1.00  0.00    -0.206 F 
ATOM     70  C   UNL A   1      43.943  35.600  32.420  1.00  0.00     0.060 A 
BRANCH  70  71
ATOM     71  S   UNL A   1      44.017  37.307  33.006  1.00  0.00     0.124 S 
ATOM     72  O   UNL A   1      42.900  37.340  33.945  1.00  0.00    -0.237 OA
ATOM     73  O   UNL A   1      45.348  37.374  33.602  1.00  0.00    -0.237 OA
ATOM     74  O   UNL A   1      43.837  38.091  31.788  1.00  0.00    -0.744 OA
ENDBRANCH  70  71
ENDBRANCH  49  63
BRANCH  50  75
ATOM     75  C   UNL A   1      42.641  23.762  27.760  1.00  0.00     0.058 A 
ATOM     76  C   UNL A   1      42.433  22.641  28.577  1.00  0.00     0.135 A 
ATOM     77  C   UNL A   1      42.713  23.556  26.374  1.00  0.00     0.135 A 
ATOM     78  F   UNL A   1      42.363  22.786  29.909  1.00  0.00    -0.206 F 
ATOM     79  C   UNL A   1      42.332  21.360  28.045  1.00  0.00     0.059 A 
ATOM     80  C   UNL A   1      42.587  22.289  25.815  1.00  0.00     0.059 A 
ATOM     81  F   UNL A   1      42.890  24.598  25.546  1.00  0.00    -0.206 F 
ATOM     82  C   UNL A   1      42.413  21.194  26.661  1.00  0.00     0.060 A 
BRANCH  82  83
ATOM     83  S   UNL A   1      42.255  19.530  25.977  1.00  0.00     0.124 S 
ATOM     84  O   UNL A   1      42.736  18.712  27.084  1.00  0.00    -0.237 OA
ATOM     85  O   UNL A   1      40.827  19.447  25.694  1.00  0.00    -0.237 OA
ATOM     86  O   UNL A   1      43.118  19.571  24.799  1.00  0.00    -0.744 OA
ENDBRANCH  82  83
ENDBRANCH  50  75
BRANCH  62  87
ATOM     87  C   UNL A   1      48.012  27.149  30.627  1.00  0.00     0.058 A 
ATOM     88  C   UNL A   1      48.353  26.450  31.795  1.00  0.00     0.135 A 
ATOM     89  C   UNL A   1      49.038  27.440  29.714  1.00  0.00     0.135 A 
ATOM     90  F   UNL A   1      47.411  26.152  32.704  1.00  0.00    -0.206 F 
ATOM     91  C   UNL A   1      49.667  26.083  32.065  1.00  0.00     0.059 A 
ATOM     92  C   UNL A   1      50.355  27.058  29.949  1.00  0.00     0.059 A 
ATOM     93  F   UNL A   1      48.765  28.097  28.576  1.00  0.00    -0.206 F 
ATOM     94  C   UNL A   1      50.663  26.394  31.136  1.00  0.00     0.060 A 
BRANCH  94  95
ATOM     95  S   UNL A   1      52.363  25.902  31.491  1.00  0.00     0.124 S 
ATOM     96  O   UNL A   1      52.978  25.998  30.171  1.00  0.00    -0.237 OA
ATOM     97  O   UNL A   1      52.785  26.908  32.462  1.00  0.00    -0.237 OA
ATOM     98  O   UNL A   1      52.222  24.549  32.022  1.00  0.00    -0.744 OA
ENDBRANCH  94  95
ENDBRANCH  62  87
ENDBRANCH  36  37
ENDBRANCH  28  31
ENDBRANCH  26  27
ENDBRANCH   1  26
TORSDOF 16
ENDMDL
MODEL 2
REMARK VINA RESULT:     -12.3      4.699     10.764
REMARK SMILES Cc1nc(-c2cccc(N3C[C@H](C(=O)NCCCCNC(=O)c4ccc(-c5c6nc(c(-c7c(F)cc(S(=O)(=O)[O-])cc7F)c7ccc([nH]7)c(-c7c(F)cc(S(=O)(=O)[O-])cc7F)c7nc(c(-c8c(F)cc(S(=O)(=O)[O-])cc8F)c8ccc5[nH]8)C=C7)C=C6)cc4)CC3=O)c2)no1
REMARK SMILES IDX 18 1 17 2 16 3 15 4 13 5 14 6 12 8 10 9 11 10 90 11 89 12
REMARK SMILES IDX 91 13 9 14 5 15 6 16 92 17 7 18 8 19 4 20 1 21 2 22 3 23
REMARK SMILES IDX 94 24 93 25 19 26 20 27 21 28 22 30 23 31 24 32 88 33 25 34
REMARK SMILES IDX 87 35 26 36 27 37 28 38 81 39 29 40 86 41 80 42 82 43 30 44
REMARK SMILES IDX 85 45 79 46 78 47 31 49 65 50 44 51 64 52 45 53 48 54 63 55
REMARK SMILES IDX 83 56 46 57 47 58 62 60 84 61 49 62 32 63 33 64 42 65 34 66
REMARK SMILES IDX 35 67 41 68 43 69 36 70 37 71 38 72 39 73 40 74 66 75 67 76
REMARK SMILES IDX 76 77 68 78 69 79 75 80 77 81 70 82 71 83 72 84 73 85 74 86
REMARK SMILES IDX 50 87 51 88 60 89 52 90 53 91 59 92 61 93 54 94 55 95 56 96
REMARK SMILES IDX 57 97 58 98
REMARK H PARENT 15 7 20 29 82 48 48 59
REMARK Flexibility Score: inf
ROOT
ATOM      1  C   UNL A   1      37.762  22.879  25.838  1.00  0.00     0.023 C 
ENDROOT
BRANCH   1   2
ATOM      2  C   UNL A   1      36.467  23.336  25.157  1.00  0.00     0.023 C 
BRANCH   2   3
ATOM      3  C   UNL A   1      35.416  22.238  24.993  1.00  0.00     0.116 C 
BRANCH   3   4
ATOM      4  N   UNL A   1      34.330  22.676  24.133  1.00  0.00    -0.356 N 
ATOM      5  C   UNL A   1      33.155  23.293  24.454  1.00  0.00     0.225 C 
ATOM      6  O   UNL A   1      32.317  23.460  23.571  1.00  0.00    -0.275 OA
ATOM      7  H   UNL A   1      34.462  22.501  23.173  1.00  0.00     0.163 HD
BRANCH   5   8
ATOM      8  C   UNL A   1      32.976  23.836  25.855  1.00  0.00     0.107 C 
ATOM      9  N   UNL A   1      31.925  25.942  25.890  1.00  0.00    -0.312 N 
ATOM     10  C   UNL A   1      33.229  25.334  25.813  1.00  0.00     0.139 C 
ATOM     11  C   UNL A   1      30.938  25.041  26.281  1.00  0.00     0.227 C 
ATOM     12  C   UNL A   1      31.557  23.674  26.389  1.00  0.00     0.116 C 
ATOM     13  O   UNL A   1      29.761  25.269  26.525  1.00  0.00    -0.274 OA
BRANCH   9  14
ATOM     14  C   UNL A   1      31.720  27.326  25.711  1.00  0.00     0.044 A 
ATOM     15  C   UNL A   1      30.861  29.172  24.377  1.00  0.00     0.025 A 
ATOM     16  C   UNL A   1      31.371  30.081  25.311  1.00  0.00     0.012 A 
ATOM     17  C   UNL A   1      31.065  27.800  24.570  1.00  0.00     0.038 A 
ATOM     18  C   UNL A   1      32.028  29.617  26.451  1.00  0.00     0.003 A 
ATOM     19  C   UNL A   1      32.178  28.244  26.663  1.00  0.00     0.026 A 
BRANCH  15  20
ATOM     20  C   UNL A   1      30.068  29.630  23.250  1.00  0.00     0.202 A 
ATOM     21  C   UNL A   1      28.022  31.947  21.498  1.00  0.00     0.114 C 
ATOM     22  C   UNL A   1      28.850  30.888  22.099  1.00  0.00     0.223 A 
ATOM     23  N   UNL A   1      29.330  30.793  23.315  1.00  0.00    -0.191 NA
ATOM     24  O   UNL A   1      29.212  29.854  21.288  1.00  0.00    -0.339 OA
ATOM     25  N   UNL A   1      30.039  29.027  22.050  1.00  0.00    -0.057 NA
ENDBRANCH  15  20
ENDBRANCH   9  14
ENDBRANCH   5   8
ENDBRANCH   3   4
ENDBRANCH   2   3
ENDBRANCH   1   2
BRANCH   1  26
ATOM     26  C   UNL A   1      38.621  23.992  26.435  1.00  0.00     0.116 C 
BRANCH  26  27
ATOM     27  N   UNL A   1      40.033  23.849  26.120  1.00  0.00    -0.352 N 
ATOM     28  C   UNL A   1      41.098  24.620  26.518  1.00  0.00     0.251 C 
ATOM     29  H   UNL A   1      40.259  23.087  25.537  1.00  0.00     0.163 HD
ATOM     30  O   UNL A   1      42.207  24.411  26.035  1.00  0.00    -0.269 OA
BRANCH  28  31
ATOM     31  C   UNL A   1      40.906  25.718  27.493  1.00  0.00     0.039 A 
ATOM     32  C   UNL A   1      39.894  25.592  28.449  1.00  0.00     0.014 A 
ATOM     33  C   UNL A   1      41.706  26.864  27.470  1.00  0.00     0.014 A 
ATOM     34  C   UNL A   1      39.733  26.580  29.424  1.00  0.00     0.010 A 
ATOM     35  C   UNL A   1      41.586  27.817  28.481  1.00  0.00     0.010 A 
ATOM     36  C   UNL A   1      40.603  27.682  29.473  1.00  0.00    -0.014 A 
BRANCH  36  37
ATOM     37  C   UNL A   1      40.512  28.676  30.576  1.00  0.00     0.031 A 
ATOM     38  C   UNL A   1      41.401  28.567  31.785  1.00  0.00     0.074 A 
ATOM     39  C   UNL A   1      39.586  29.655  30.508  1.00  0.00     0.049 A 
ATOM     40  N   UNL A   1      41.433  29.319  32.856  1.00  0.00    -0.248 NA
ATOM     41  C   UNL A   1      42.366  27.455  31.806  1.00  0.00     0.031 C 
ATOM     42  C   UNL A   1      38.627  29.836  29.414  1.00  0.00     0.029 A 
ATOM     43  N   UNL A   1      39.293  30.678  31.374  1.00  0.00    -0.354 N 
ATOM     44  C   UNL A   1      42.415  28.775  33.676  1.00  0.00     0.074 A 
ATOM     45  C   UNL A   1      42.918  27.597  33.002  1.00  0.00     0.031 C 
ATOM     46  C   UNL A   1      37.868  30.915  29.668  1.00  0.00     0.029 A 
ATOM     47  C   UNL A   1      38.260  31.483  30.953  1.00  0.00     0.049 A 
ATOM     48  H   UNL A   1      39.777  30.822  32.220  1.00  0.00     0.167 HD
ATOM     49  C   UNL A   1      42.872  29.228  34.868  1.00  0.00     0.037 A 
ATOM     50  C   UNL A   1      37.688  32.554  31.538  1.00  0.00     0.037 A 
ATOM     51  C   UNL A   1      42.381  30.413  35.526  1.00  0.00     0.049 A 
ATOM     52  C   UNL A   1      38.216  33.037  32.861  1.00  0.00     0.074 A 
ATOM     53  C   UNL A   1      42.816  30.979  36.713  1.00  0.00     0.029 A 
ATOM     54  N   UNL A   1      41.350  31.213  35.057  1.00  0.00    -0.354 N 
ATOM     55  N   UNL A   1      39.189  32.544  33.590  1.00  0.00    -0.248 NA
ATOM     56  C   UNL A   1      37.575  34.226  33.438  1.00  0.00     0.031 C 
ATOM     57  C   UNL A   1      42.021  32.099  36.981  1.00  0.00     0.029 A 
ATOM     58  C   UNL A   1      41.122  32.258  35.939  1.00  0.00     0.049 A 
ATOM     59  H   UNL A   1      40.852  31.061  34.221  1.00  0.00     0.167 HD
ATOM     60  C   UNL A   1      39.290  33.377  34.699  1.00  0.00     0.074 A 
ATOM     61  C   UNL A   1      38.296  34.416  34.534  1.00  0.00     0.031 C 
ATOM     62  C   UNL A   1      40.130  33.287  35.761  1.00  0.00     0.037 A 
BRANCH  49  63
ATOM     63  C   UNL A   1      43.975  28.455  35.537  1.00  0.00     0.058 A 
ATOM     64  C   UNL A   1      45.326  28.744  35.288  1.00  0.00     0.135 A 
ATOM     65  C   UNL A   1      43.682  27.460  36.484  1.00  0.00     0.135 A 
ATOM     66  F   UNL A   1      45.664  29.674  34.381  1.00  0.00    -0.206 F 
ATOM     67  C   UNL A   1      46.349  28.063  35.941  1.00  0.00     0.059 A 
ATOM     68  C   UNL A   1      44.688  26.784  37.169  1.00  0.00     0.059 A 
ATOM     69  F   UNL A   1      42.408  27.143  36.759  1.00  0.00    -0.206 F 
ATOM     70  C   UNL A   1      46.020  27.086  36.883  1.00  0.00     0.060 A 
BRANCH  70  71
ATOM     71  S   UNL A   1      47.360  26.232  37.741  1.00  0.00     0.124 S 
ATOM     72  O   UNL A   1      47.450  27.002  38.977  1.00  0.00    -0.237 OA
ATOM     73  O   UNL A   1      46.830  24.878  37.874  1.00  0.00    -0.237 OA
ATOM     74  O   UNL A   1      48.491  26.373  36.829  1.00  0.00    -0.744 OA
ENDBRANCH  70  71
ENDBRANCH  49  63
BRANCH  50  75
ATOM     75  C   UNL A   1      36.555  33.253  30.873  1.00  0.00     0.058 A 
ATOM     76  C   UNL A   1      36.764  34.059  29.744  1.00  0.00     0.135 A 
ATOM     77  C   UNL A   1      35.245  33.140  31.361  1.00  0.00     0.135 A 
ATOM     78  F   UNL A   1      38.000  34.202  29.242  1.00  0.00    -0.206 F 
ATOM     79  C   UNL A   1      35.721  34.752  29.140  1.00  0.00     0.059 A 
ATOM     80  C   UNL A   1      34.180  33.801  30.758  1.00  0.00     0.059 A 
ATOM     81  F   UNL A   1      34.987  32.365  32.427  1.00  0.00    -0.206 F 
ATOM     82  C   UNL A   1      34.431  34.619  29.657  1.00  0.00     0.060 A 
BRANCH  82  83
ATOM     83  S   UNL A   1      33.077  35.503  28.852  1.00  0.00     0.124 S 
ATOM     84  O   UNL A   1      33.801  36.518  28.096  1.00  0.00    -0.237 OA
ATOM     85  O   UNL A   1      32.446  34.449  28.065  1.00  0.00    -0.237 OA
ATOM     86  O   UNL A   1      32.285  35.995  29.976  1.00  0.00    -0.744 OA
ENDBRANCH  82  83
ENDBRANCH  50  75
BRANCH  62  87
ATOM     87  C   UNL A   1      40.026  34.358  36.812  1.00  0.00     0.058 A 
ATOM     88  C   UNL A   1      40.797  35.529  36.749  1.00  0.00     0.135 A 
ATOM     89  C   UNL A   1      39.126  34.222  37.881  1.00  0.00     0.135 A 
ATOM     90  F   UNL A   1      41.676  35.707  35.750  1.00  0.00    -0.206 F 
ATOM     91  C   UNL A   1      40.706  36.513  37.729  1.00  0.00     0.059 A 
ATOM     92  C   UNL A   1      38.998  35.206  38.857  1.00  0.00     0.059 A 
ATOM     93  F   UNL A   1      38.357  33.127  37.983  1.00  0.00    -0.206 F 
ATOM     94  C   UNL A   1      39.804  36.341  38.781  1.00  0.00     0.060 A 
BRANCH  94  95
ATOM     95  S   UNL A   1      39.686  37.629  40.040  1.00  0.00     0.124 S 
ATOM     96  O   UNL A   1      38.503  38.362  39.599  1.00  0.00    -0.237 OA
ATOM     97  O   UNL A   1      39.531  36.855  41.268  1.00  0.00    -0.237 OA
ATOM     98  O   UNL A   1      40.952  38.345  39.914  1.00  0.00    -0.744 OA
ENDBRANCH  94  95
ENDBRANCH  62  87
ENDBRANCH  36  37
ENDBRANCH  28  31
ENDBRANCH  26  27
ENDBRANCH   1  26
TORSDOF 16
ENDMDL
MODEL 3
REMARK VINA RESULT:     -12.2      2.551      3.233
REMARK SMILES Cc1nc(-c2cccc(N3C[C@H](C(=O)NCCCCNC(=O)c4ccc(-c5c6nc(c(-c7c(F)cc(S(=O)(=O)[O-])cc7F)c7ccc([nH]7)c(-c7c(F)cc(S(=O)(=O)[O-])cc7F)c7nc(c(-c8c(F)cc(S(=O)(=O)[O-])cc8F)c8ccc5[nH]8)C=C7)C=C6)cc4)CC3=O)c2)no1
REMARK SMILES IDX 18 1 17 2 16 3 15 4 13 5 14 6 12 8 10 9 11 10 90 11 89 12
REMARK SMILES IDX 91 13 9 14 5 15 6 16 92 17 7 18 8 19 4 20 1 21 2 22 3 23
REMARK SMILES IDX 94 24 93 25 19 26 20 27 21 28 22 30 23 31 24 32 88 33 25 34
REMARK SMILES IDX 87 35 26 36 27 37 28 38 81 39 29 40 86 41 80 42 82 43 30 44
REMARK SMILES IDX 85 45 79 46 78 47 31 49 65 50 44 51 64 52 45 53 48 54 63 55
REMARK SMILES IDX 83 56 46 57 47 58 62 60 84 61 49 62 32 63 33 64 42 65 34 66
REMARK SMILES IDX 35 67 41 68 43 69 36 70 37 71 38 72 39 73 40 74 66 75 67 76
REMARK SMILES IDX 76 77 68 78 69 79 75 80 77 81 70 82 71 83 72 84 73 85 74 86
REMARK SMILES IDX 50 87 51 88 60 89 52 90 53 91 59 92 61 93 54 94 55 95 56 96
REMARK SMILES IDX 57 97 58 98
REMARK H PARENT 15 7 20 29 82 48 48 59
REMARK Flexibility Score: inf
ROOT
ATOM      1  C   UNL A   1      33.098  27.725  26.838  1.00  0.00     0.023 C 
ENDROOT
BRANCH   1   2
ATOM      2  C   UNL A   1      31.596  27.964  26.645  1.00  0.00     0.023 C 
BRANCH   2   3
ATOM      3  C   UNL A   1      31.152  28.056  25.185  1.00  0.00     0.116 C 
BRANCH   3   4
ATOM      4  N   UNL A   1      30.560  26.807  24.737  1.00  0.00    -0.356 N 
ATOM      5  C   UNL A   1      31.009  25.910  23.812  1.00  0.00     0.225 C 
ATOM      6  O   UNL A   1      30.277  24.975  23.494  1.00  0.00    -0.275 OA
ATOM      7  H   UNL A   1      29.706  26.573  25.166  1.00  0.00     0.163 HD
BRANCH   5   8
ATOM      8  C   UNL A   1      32.424  26.043  23.292  1.00  0.00     0.107 C 
ATOM      9  N   UNL A   1      33.612  24.011  23.345  1.00  0.00    -0.312 N 
ATOM     10  C   UNL A   1      33.323  25.170  24.152  1.00  0.00     0.139 C 
ATOM     11  C   UNL A   1      33.270  24.194  22.008  1.00  0.00     0.227 C 
ATOM     12  C   UNL A   1      32.596  25.531  21.867  1.00  0.00     0.116 C 
ATOM     13  O   UNL A   1      33.474  23.440  21.067  1.00  0.00    -0.274 OA
BRANCH   9  14
ATOM     14  C   UNL A   1      34.284  22.881  23.853  1.00  0.00     0.044 A 
ATOM     15  C   UNL A   1      34.236  20.576  24.635  1.00  0.00     0.025 A 
ATOM     16  C   UNL A   1      35.602  20.650  24.930  1.00  0.00     0.012 A 
ATOM     17  C   UNL A   1      33.580  21.704  24.124  1.00  0.00     0.038 A 
ATOM     18  C   UNL A   1      36.312  21.821  24.664  1.00  0.00     0.003 A 
ATOM     19  C   UNL A   1      35.661  22.923  24.103  1.00  0.00     0.026 A 
BRANCH  15  20
ATOM     20  C   UNL A   1      33.507  19.329  24.788  1.00  0.00     0.202 A 
ATOM     21  C   UNL A   1      33.187  15.792  24.871  1.00  0.00     0.114 C 
ATOM     22  C   UNL A   1      33.161  17.263  24.862  1.00  0.00     0.223 A 
ATOM     23  N   UNL A   1      34.101  18.112  24.524  1.00  0.00    -0.191 NA
ATOM     24  O   UNL A   1      32.014  17.863  25.290  1.00  0.00    -0.339 OA
ATOM     25  N   UNL A   1      32.253  19.238  25.260  1.00  0.00    -0.057 NA
ENDBRANCH  15  20
ENDBRANCH   9  14
ENDBRANCH   5   8
ENDBRANCH   3   4
ENDBRANCH   2   3
ENDBRANCH   1   2
BRANCH   1  26
ATOM     26  C   UNL A   1      34.019  28.698  26.103  1.00  0.00     0.116 C 
BRANCH  26  27
ATOM     27  N   UNL A   1      33.809  30.082  26.496  1.00  0.00    -0.352 N 
ATOM     28  C   UNL A   1      34.509  30.848  27.396  1.00  0.00     0.251 C 
ATOM     29  H   UNL A   1      33.057  30.537  26.052  1.00  0.00     0.163 HD
ATOM     30  O   UNL A   1      34.092  31.965  27.689  1.00  0.00    -0.269 OA
BRANCH  28  31
ATOM     31  C   UNL A   1      35.735  30.320  28.037  1.00  0.00     0.039 A 
ATOM     32  C   UNL A   1      36.953  30.461  27.365  1.00  0.00     0.014 A 
ATOM     33  C   UNL A   1      35.694  29.687  29.283  1.00  0.00     0.014 A 
ATOM     34  C   UNL A   1      38.135  30.033  27.974  1.00  0.00     0.010 A 
ATOM     35  C   UNL A   1      36.882  29.319  29.916  1.00  0.00     0.010 A 
ATOM     36  C   UNL A   1      38.116  29.495  29.271  1.00  0.00    -0.014 A 
BRANCH  36  37
ATOM     37  C   UNL A   1      39.381  29.146  29.971  1.00  0.00     0.031 A 
ATOM     38  C   UNL A   1      39.820  29.909  31.191  1.00  0.00     0.074 A 
ATOM     39  C   UNL A   1      40.164  28.167  29.471  1.00  0.00     0.049 A 
ATOM     40  N   UNL A   1      40.909  29.767  31.905  1.00  0.00    -0.248 NA
ATOM     41  C   UNL A   1      38.932  30.984  31.662  1.00  0.00     0.031 C 
ATOM     42  C   UNL A   1      39.877  27.390  28.261  1.00  0.00     0.029 A 
ATOM     43  N   UNL A   1      41.361  27.660  29.911  1.00  0.00    -0.354 N 
ATOM     44  C   UNL A   1      40.839  30.732  32.903  1.00  0.00     0.074 A 
ATOM     45  C   UNL A   1      39.626  31.488  32.672  1.00  0.00     0.031 C 
ATOM     46  C   UNL A   1      40.859  26.495  28.070  1.00  0.00     0.029 A 
ATOM     47  C   UNL A   1      41.860  26.653  29.118  1.00  0.00     0.049 A 
ATOM     48  H   UNL A   1      41.819  27.987  30.719  1.00  0.00     0.167 HD
ATOM     49  C   UNL A   1      41.693  30.952  33.931  1.00  0.00     0.037 A 
ATOM     50  C   UNL A   1      43.001  25.942  29.219  1.00  0.00     0.037 A 
ATOM     51  C   UNL A   1      42.890  30.185  34.169  1.00  0.00     0.049 A 
ATOM     52  C   UNL A   1      43.931  26.206  30.371  1.00  0.00     0.074 A 
ATOM     53  C   UNL A   1      43.793  30.302  35.212  1.00  0.00     0.029 A 
ATOM     54  N   UNL A   1      43.351  29.160  33.356  1.00  0.00    -0.354 N 
ATOM     55  N   UNL A   1      43.815  27.082  31.341  1.00  0.00    -0.248 NA
ATOM     56  C   UNL A   1      45.144  25.380  30.449  1.00  0.00     0.031 C 
ATOM     57  C   UNL A   1      44.820  29.374  35.009  1.00  0.00     0.029 A 
ATOM     58  C   UNL A   1      44.534  28.647  33.865  1.00  0.00     0.049 A 
ATOM     59  H   UNL A   1      42.904  28.843  32.538  1.00  0.00     0.167 HD
ATOM     60  C   UNL A   1      44.926  26.895  32.155  1.00  0.00     0.074 A 
ATOM     61  C   UNL A   1      45.691  25.811  31.577  1.00  0.00     0.031 C 
ATOM     62  C   UNL A   1      45.284  27.565  33.279  1.00  0.00     0.037 A 
BRANCH  49  63
ATOM     63  C   UNL A   1      41.360  32.057  34.897  1.00  0.00     0.058 A 
ATOM     64  C   UNL A   1      41.798  33.373  34.682  1.00  0.00     0.135 A 
ATOM     65  C   UNL A   1      40.542  31.813  36.012  1.00  0.00     0.135 A 
ATOM     66  F   UNL A   1      42.596  33.660  33.640  1.00  0.00    -0.206 F 
ATOM     67  C   UNL A   1      41.452  34.407  35.546  1.00  0.00     0.059 A 
ATOM     68  C   UNL A   1      40.161  32.836  36.876  1.00  0.00     0.059 A 
ATOM     69  F   UNL A   1      40.097  30.574  36.265  1.00  0.00    -0.206 F 
ATOM     70  C   UNL A   1      40.629  34.129  36.640  1.00  0.00     0.060 A 
BRANCH  70  71
ATOM     71  S   UNL A   1      40.168  35.487  37.736  1.00  0.00     0.124 S 
ATOM     72  O   UNL A   1      40.115  36.608  36.803  1.00  0.00    -0.237 OA
ATOM     73  O   UNL A   1      38.881  35.040  38.261  1.00  0.00    -0.237 OA
ATOM     74  O   UNL A   1      41.258  35.527  38.705  1.00  0.00    -0.744 OA
ENDBRANCH  70  71
ENDBRANCH  49  63
BRANCH  50  75
ATOM     75  C   UNL A   1      43.325  24.901  28.206  1.00  0.00     0.058 A 
ATOM     76  C   UNL A   1      44.012  25.227  27.027  1.00  0.00     0.135 A 
ATOM     77  C   UNL A   1      42.942  23.564  28.390  1.00  0.00     0.135 A 
ATOM     78  F   UNL A   1      44.394  26.493  26.803  1.00  0.00    -0.206 F 
ATOM     79  C   UNL A   1      44.282  24.272  26.053  1.00  0.00     0.059 A 
ATOM     80  C   UNL A   1      43.225  22.585  27.444  1.00  0.00     0.059 A 
ATOM     81  F   UNL A   1      42.300  23.195  29.510  1.00  0.00    -0.206 F 
ATOM     82  C   UNL A   1      43.881  22.952  26.270  1.00  0.00     0.060 A 
BRANCH  82  83
ATOM     83  S   UNL A   1      44.258  21.713  25.011  1.00  0.00     0.124 S 
ATOM     84  O   UNL A   1      45.644  21.388  25.327  1.00  0.00    -0.237 OA
ATOM     85  O   UNL A   1      43.276  20.673  25.299  1.00  0.00    -0.237 OA
ATOM     86  O   UNL A   1      44.047  22.434  23.759  1.00  0.00    -0.744 OA
ENDBRANCH  82  83
ENDBRANCH  50  75
BRANCH  62  87
ATOM     87  C   UNL A   1      46.544  27.123  33.972  1.00  0.00     0.058 A 
ATOM     88  C   UNL A   1      47.792  27.683  33.659  1.00  0.00     0.135 A 
ATOM     89  C   UNL A   1      46.498  26.144  34.977  1.00  0.00     0.135 A 
ATOM     90  F   UNL A   1      47.892  28.619  32.702  1.00  0.00    -0.206 F 
ATOM     91  C   UNL A   1      48.956  27.264  34.295  1.00  0.00     0.059 A 
ATOM     92  C   UNL A   1      47.646  25.730  35.646  1.00  0.00     0.059 A 
ATOM     93  F   UNL A   1      45.329  25.583  35.323  1.00  0.00    -0.206 F 
ATOM     94  C   UNL A   1      48.873  26.284  35.286  1.00  0.00     0.060 A 
BRANCH  94  95
ATOM     95  S   UNL A   1      50.390  25.757  36.112  1.00  0.00     0.124 S 
ATOM     96  O   UNL A   1      51.136  25.166  35.006  1.00  0.00    -0.237 OA
ATOM     97  O   UNL A   1      50.916  27.014  36.634  1.00  0.00    -0.237 OA
ATOM     98  O   UNL A   1      49.916  24.817  37.124  1.00  0.00    -0.744 OA
ENDBRANCH  94  95
ENDBRANCH  62  87
ENDBRANCH  36  37
ENDBRANCH  28  31
ENDBRANCH  26  27
ENDBRANCH   1  26
TORSDOF 16
ENDMDL
