MODEL 1
REMARK VINA RESULT:     -10.8      0.000      0.000
REMARK SMILES O=C(CSc1nc(-c2cccc(F)c2)n[nH]1)NCCCCNC(=O)c1ccc(-c2c3nc(c(-c4c(F)cc(S(=O)(=O)[O-])cc4F)c4ccc([nH]4)c(-c4c(F)cc(S(=O)(=O)[O-])cc4F)c4nc(c(-c5c(F)cc(S(=O)(=O)[O-])cc5F)c5ccc2[nH]5)C=C4)C=C3)cc1
REMARK SMILES IDX 19 1 18 2 17 3 1 4 2 5 3 7 4 8 5 9 6 10 16 11 7 12 15 13
REMARK SMILES IDX 8 15 9 16 14 17 10 18 12 19 11 20 13 21 20 22 21 23 22 24
REMARK SMILES IDX 23 25 24 27 25 28 26 29 90 30 27 31 89 32 28 33 29 34 30 35
REMARK SMILES IDX 83 36 31 37 88 38 82 39 84 40 32 41 87 42 81 43 80 44 33 46
REMARK SMILES IDX 67 47 46 48 66 49 47 50 50 51 65 52 85 53 48 54 49 55 64 57
REMARK SMILES IDX 86 58 51 59 34 60 35 61 44 62 36 63 37 64 43 65 45 66 38 67
REMARK SMILES IDX 39 68 40 69 41 70 42 71 68 72 69 73 78 74 70 75 71 76 77 77
REMARK SMILES IDX 79 78 72 79 73 80 74 81 75 82 76 83 52 84 53 85 62 86 54 87
REMARK SMILES IDX 55 88 61 89 63 90 56 91 57 92 58 93 59 94 60 95
REMARK H PARENT 17 6 16 14 22 26 84 45 50 56
REMARK Flexibility Score: inf
ROOT
ATOM      1  C   UNL A   1      41.652  21.135  27.125  1.00  0.00     0.023 C 
ENDROOT
BRANCH   1   2
ATOM      2  C   UNL A   1      41.854  19.801  26.409  1.00  0.00     0.116 C 
BRANCH   2   3
ATOM      3  N   UNL A   1      42.837  19.883  25.346  1.00  0.00    -0.355 N 
ATOM      4  O   UNL A   1      44.060  18.053  26.005  1.00  0.00    -0.274 OA
ATOM      5  C   UNL A   1      43.855  18.959  25.200  1.00  0.00     0.230 C 
ATOM      6  H   UNL A   1      42.778  20.626  24.704  1.00  0.00     0.163 HD
BRANCH   5   7
ATOM      7  C   UNL A   1      44.760  19.191  24.001  1.00  0.00     0.178 C 
BRANCH   7   8
ATOM      8  S   UNL A   1      46.343  19.923  24.502  1.00  0.00    -0.077 SA
BRANCH   8   9
ATOM      9  C   UNL A   1      45.871  21.530  24.888  1.00  0.00     0.184 A 
ATOM     10  N   UNL A   1      46.028  22.196  26.005  1.00  0.00    -0.201 NA
ATOM     11  N   UNL A   1      45.148  22.264  24.005  1.00  0.00    -0.254 N 
ATOM     12  C   UNL A   1      45.303  23.350  25.775  1.00  0.00     0.182 A 
ATOM     13  N   UNL A   1      44.760  23.427  24.548  1.00  0.00    -0.153 NA
ATOM     14  H   UNL A   1      44.938  21.981  23.087  1.00  0.00     0.192 HD
BRANCH  12  15
ATOM     15  C   UNL A   1      45.078  24.366  26.791  1.00  0.00     0.024 A 
ATOM     16  C   UNL A   1      45.533  25.680  26.615  1.00  0.00     0.012 A 
ATOM     17  C   UNL A   1      44.378  24.032  27.959  1.00  0.00     0.051 A 
ATOM     18  C   UNL A   1      45.271  26.653  27.587  1.00  0.00     0.004 A 
ATOM     19  C   UNL A   1      44.141  25.002  28.924  1.00  0.00     0.123 A 
ATOM     20  C   UNL A   1      44.575  26.311  28.746  1.00  0.00     0.039 A 
ATOM     21  F   UNL A   1      43.482  24.674  30.043  1.00  0.00    -0.207 F 
ENDBRANCH  12  15
ENDBRANCH   8   9
ENDBRANCH   7   8
ENDBRANCH   5   7
ENDBRANCH   2   3
ENDBRANCH   1   2
BRANCH   1  22
ATOM     22  C   UNL A   1      40.348  21.865  26.794  1.00  0.00     0.023 C 
BRANCH  22  23
ATOM     23  C   UNL A   1      40.370  23.381  26.978  1.00  0.00     0.116 C 
BRANCH  23  24
ATOM     24  N   UNL A   1      41.205  24.063  26.003  1.00  0.00    -0.352 N 
ATOM     25  C   UNL A   1      41.604  25.379  25.961  1.00  0.00     0.251 C 
ATOM     26  H   UNL A   1      41.534  23.502  25.265  1.00  0.00     0.163 HD
ATOM     27  O   UNL A   1      42.204  25.799  24.974  1.00  0.00    -0.269 OA
BRANCH  25  28
ATOM     28  C   UNL A   1      41.290  26.297  27.080  1.00  0.00     0.039 A 
ATOM     29  C   UNL A   1      40.529  25.819  28.151  1.00  0.00     0.014 A 
ATOM     30  C   UNL A   1      41.739  27.621  27.084  1.00  0.00     0.014 A 
ATOM     31  C   UNL A   1      40.283  26.642  29.254  1.00  0.00     0.010 A 
ATOM     32  C   UNL A   1      41.559  28.415  28.216  1.00  0.00     0.010 A 
ATOM     33  C   UNL A   1      40.834  27.934  29.317  1.00  0.00    -0.014 A 
BRANCH  33  34
ATOM     34  C   UNL A   1      40.678  28.783  30.528  1.00  0.00     0.031 A 
ATOM     35  C   UNL A   1      39.636  29.867  30.572  1.00  0.00     0.074 A 
ATOM     36  C   UNL A   1      41.517  28.616  31.572  1.00  0.00     0.049 A 
ATOM     37  N   UNL A   1      39.402  30.749  31.511  1.00  0.00    -0.248 NA
ATOM     38  C   UNL A   1      38.755  29.993  29.400  1.00  0.00     0.031 C 
ATOM     39  C   UNL A   1      42.594  27.625  31.639  1.00  0.00     0.029 A 
ATOM     40  N   UNL A   1      41.602  29.277  32.774  1.00  0.00    -0.354 N 
ATOM     41  C   UNL A   1      38.353  31.533  31.043  1.00  0.00     0.074 A 
ATOM     42  C   UNL A   1      38.036  31.062  29.713  1.00  0.00     0.031 C 
ATOM     43  C   UNL A   1      43.208  27.723  32.829  1.00  0.00     0.029 A 
ATOM     44  C   UNL A   1      42.606  28.812  33.591  1.00  0.00     0.049 A 
ATOM     45  H   UNL A   1      41.000  30.014  33.025  1.00  0.00     0.167 HD
ATOM     46  C   UNL A   1      37.695  32.533  31.676  1.00  0.00     0.037 A 
ATOM     47  C   UNL A   1      43.004  29.218  34.814  1.00  0.00     0.037 A 
ATOM     48  C   UNL A   1      38.003  32.987  33.008  1.00  0.00     0.049 A 
ATOM     49  C   UNL A   1      42.279  30.352  35.485  1.00  0.00     0.074 A 
ATOM     50  C   UNL A   1      37.366  33.969  33.749  1.00  0.00     0.029 A 
ATOM     51  N   UNL A   1      39.030  32.494  33.800  1.00  0.00    -0.354 N 
ATOM     52  N   UNL A   1      41.262  31.053  35.045  1.00  0.00    -0.248 NA
ATOM     53  C   UNL A   1      42.752  30.751  36.818  1.00  0.00     0.031 C 
ATOM     54  C   UNL A   1      38.040  34.105  34.966  1.00  0.00     0.029 A 
ATOM     55  C   UNL A   1      39.060  33.168  35.010  1.00  0.00     0.049 A 
ATOM     56  H   UNL A   1      39.647  31.772  33.541  1.00  0.00     0.167 HD
ATOM     57  C   UNL A   1      40.958  31.960  36.054  1.00  0.00     0.074 A 
ATOM     58  C   UNL A   1      41.891  31.712  37.133  1.00  0.00     0.031 C 
ATOM     59  C   UNL A   1      39.993  32.912  36.081  1.00  0.00     0.037 A 
BRANCH  46  60
ATOM     60  C   UNL A   1      36.563  33.203  30.944  1.00  0.00     0.058 A 
ATOM     61  C   UNL A   1      36.819  34.168  29.956  1.00  0.00     0.135 A 
ATOM     62  C   UNL A   1      35.221  32.937  31.265  1.00  0.00     0.135 A 
ATOM     63  F   UNL A   1      38.080  34.460  29.606  1.00  0.00    -0.206 F 
ATOM     64  C   UNL A   1      35.786  34.851  29.322  1.00  0.00     0.059 A 
ATOM     65  C   UNL A   1      34.172  33.586  30.622  1.00  0.00     0.059 A 
ATOM     66  F   UNL A   1      34.919  32.011  32.189  1.00  0.00    -0.206 F 
ATOM     67  C   UNL A   1      34.465  34.554  29.661  1.00  0.00     0.060 A 
BRANCH  67  68
ATOM     68  S   UNL A   1      33.137  35.421  28.799  1.00  0.00     0.124 S 
ATOM     69  O   UNL A   1      32.506  34.339  28.054  1.00  0.00    -0.237 OA
ATOM     70  O   UNL A   1      32.362  35.968  29.909  1.00  0.00    -0.237 OA
ATOM     71  O   UNL A   1      33.846  36.411  27.994  1.00  0.00    -0.744 OA
ENDBRANCH  67  68
ENDBRANCH  46  60
BRANCH  47  72
ATOM     72  C   UNL A   1      44.132  28.519  35.487  1.00  0.00     0.058 A 
ATOM     73  C   UNL A   1      43.905  27.467  36.389  1.00  0.00     0.135 A 
ATOM     74  C   UNL A   1      45.459  28.924  35.278  1.00  0.00     0.135 A 
ATOM     75  F   UNL A   1      42.654  27.046  36.632  1.00  0.00    -0.206 F 
ATOM     76  C   UNL A   1      44.947  26.866  37.085  1.00  0.00     0.059 A 
ATOM     77  C   UNL A   1      46.523  28.319  35.942  1.00  0.00     0.059 A 
ATOM     78  F   UNL A   1      45.728  29.915  34.415  1.00  0.00    -0.206 F 
ATOM     79  C   UNL A   1      46.253  27.304  36.860  1.00  0.00     0.060 A 
BRANCH  79  80
ATOM     80  S   UNL A   1      47.588  26.533  37.801  1.00  0.00     0.124 S 
ATOM     81  O   UNL A   1      48.256  27.700  38.367  1.00  0.00    -0.237 OA
ATOM     82  O   UNL A   1      46.850  25.702  38.748  1.00  0.00    -0.237 OA
ATOM     83  O   UNL A   1      48.343  25.807  36.785  1.00  0.00    -0.744 OA
ENDBRANCH  79  80
ENDBRANCH  47  72
BRANCH  59  84
ATOM     84  C   UNL A   1      39.871  33.757  37.321  1.00  0.00     0.058 A 
ATOM     85  C   UNL A   1      38.966  33.404  38.335  1.00  0.00     0.135 A 
ATOM     86  C   UNL A   1      40.580  34.959  37.466  1.00  0.00     0.135 A 
ATOM     87  F   UNL A   1      38.257  32.267  38.246  1.00  0.00    -0.206 F 
ATOM     88  C   UNL A   1      38.749  34.226  39.436  1.00  0.00     0.059 A 
ATOM     89  C   UNL A   1      40.401  35.783  38.574  1.00  0.00     0.059 A 
ATOM     90  F   UNL A   1      41.466  35.337  36.531  1.00  0.00    -0.206 F 
ATOM     91  C   UNL A   1      39.468  35.417  39.545  1.00  0.00     0.060 A 
BRANCH  91  92
ATOM     92  S   UNL A   1      39.173  36.471  40.980  1.00  0.00     0.124 S 
ATOM     93  O   UNL A   1      38.657  37.685  40.358  1.00  0.00    -0.237 OA
ATOM     94  O   UNL A   1      38.204  35.687  41.742  1.00  0.00    -0.237 OA
ATOM     95  O   UNL A   1      40.493  36.590  41.592  1.00  0.00    -0.744 OA
ENDBRANCH  91  92
ENDBRANCH  59  84
ENDBRANCH  33  34
ENDBRANCH  25  28
ENDBRANCH  23  24
ENDBRANCH  22  23
ENDBRANCH   1  22
TORSDOF 17
ENDMDL
MODEL 2
REMARK VINA RESULT:     -10.7      0.616      8.452
REMARK SMILES O=C(CSc1nc(-c2cccc(F)c2)n[nH]1)NCCCCNC(=O)c1ccc(-c2c3nc(c(-c4c(F)cc(S(=O)(=O)[O-])cc4F)c4ccc([nH]4)c(-c4c(F)cc(S(=O)(=O)[O-])cc4F)c4nc(c(-c5c(F)cc(S(=O)(=O)[O-])cc5F)c5ccc2[nH]5)C=C4)C=C3)cc1
REMARK SMILES IDX 19 1 18 2 17 3 1 4 2 5 3 7 4 8 5 9 6 10 16 11 7 12 15 13
REMARK SMILES IDX 8 15 9 16 14 17 10 18 12 19 11 20 13 21 20 22 21 23 22 24
REMARK SMILES IDX 23 25 24 27 25 28 26 29 90 30 27 31 89 32 28 33 29 34 30 35
REMARK SMILES IDX 83 36 31 37 88 38 82 39 84 40 32 41 87 42 81 43 80 44 33 46
REMARK SMILES IDX 67 47 46 48 66 49 47 50 50 51 65 52 85 53 48 54 49 55 64 57
REMARK SMILES IDX 86 58 51 59 34 60 35 61 44 62 36 63 37 64 43 65 45 66 38 67
REMARK SMILES IDX 39 68 40 69 41 70 42 71 68 72 69 73 78 74 70 75 71 76 77 77
REMARK SMILES IDX 79 78 72 79 73 80 74 81 75 82 76 83 52 84 53 85 62 86 54 87
REMARK SMILES IDX 55 88 61 89 63 90 56 91 57 92 58 93 59 94 60 95
REMARK H PARENT 17 6 16 14 22 26 84 45 50 56
REMARK Flexibility Score: inf
ROOT
ATOM      1  C   UNL A   1      41.900  21.268  26.829  1.00  0.00     0.023 C 
ENDROOT
BRANCH   1   2
ATOM      2  C   UNL A   1      41.970  19.929  26.099  1.00  0.00     0.116 C 
BRANCH   2   3
ATOM      3  N   UNL A   1      42.966  19.920  25.046  1.00  0.00    -0.355 N 
ATOM      4  O   UNL A   1      44.278  18.274  25.967  1.00  0.00    -0.274 OA
ATOM      5  C   UNL A   1      44.038  19.046  25.042  1.00  0.00     0.230 C 
ATOM      6  H   UNL A   1      42.877  20.563  24.306  1.00  0.00     0.163 HD
BRANCH   5   7
ATOM      7  C   UNL A   1      44.950  19.163  23.832  1.00  0.00     0.178 C 
BRANCH   7   8
ATOM      8  S   UNL A   1      46.506  19.993  24.257  1.00  0.00    -0.077 SA
BRANCH   8   9
ATOM      9  C   UNL A   1      45.934  21.452  24.965  1.00  0.00     0.184 A 
ATOM     10  N   UNL A   1      46.038  21.872  26.201  1.00  0.00    -0.201 NA
ATOM     11  N   UNL A   1      45.178  22.315  24.242  1.00  0.00    -0.254 N 
ATOM     12  C   UNL A   1      45.247  23.005  26.205  1.00  0.00     0.182 A 
ATOM     13  N   UNL A   1      44.714  23.311  25.010  1.00  0.00    -0.153 NA
ATOM     14  H   UNL A   1      44.995  22.224  23.279  1.00  0.00     0.192 HD
BRANCH  12  15
ATOM     15  C   UNL A   1      44.950  23.766  27.408  1.00  0.00     0.024 A 
ATOM     16  C   UNL A   1      43.957  23.345  28.304  1.00  0.00     0.012 A 
ATOM     17  C   UNL A   1      45.680  24.929  27.690  1.00  0.00     0.051 A 
ATOM     18  C   UNL A   1      43.712  24.069  29.477  1.00  0.00     0.004 A 
ATOM     19  C   UNL A   1      45.415  25.648  28.848  1.00  0.00     0.123 A 
ATOM     20  C   UNL A   1      44.443  25.225  29.748  1.00  0.00     0.039 A 
ATOM     21  F   UNL A   1      46.108  26.765  29.105  1.00  0.00    -0.207 F 
ENDBRANCH  12  15
ENDBRANCH   8   9
ENDBRANCH   7   8
ENDBRANCH   5   7
ENDBRANCH   2   3
ENDBRANCH   1   2
BRANCH   1  22
ATOM     22  C   UNL A   1      40.519  21.647  27.372  1.00  0.00     0.023 C 
BRANCH  22  23
ATOM     23  C   UNL A   1      40.111  23.107  27.189  1.00  0.00     0.116 C 
BRANCH  23  24
ATOM     24  N   UNL A   1      40.877  23.790  26.160  1.00  0.00    -0.352 N 
ATOM     25  C   UNL A   1      41.393  25.066  26.155  1.00  0.00     0.251 C 
ATOM     26  H   UNL A   1      41.054  23.263  25.348  1.00  0.00     0.163 HD
ATOM     27  O   UNL A   1      41.900  25.510  25.128  1.00  0.00    -0.269 OA
BRANCH  25  28
ATOM     28  C   UNL A   1      41.312  25.915  27.366  1.00  0.00     0.039 A 
ATOM     29  C   UNL A   1      42.218  26.971  27.510  1.00  0.00     0.014 A 
ATOM     30  C   UNL A   1      40.355  25.681  28.356  1.00  0.00     0.014 A 
ATOM     31  C   UNL A   1      42.114  27.833  28.606  1.00  0.00     0.010 A 
ATOM     32  C   UNL A   1      40.204  26.585  29.407  1.00  0.00     0.010 A 
ATOM     33  C   UNL A   1      41.078  27.675  29.542  1.00  0.00    -0.014 A 
BRANCH  33  34
ATOM     34  C   UNL A   1      40.883  28.646  30.652  1.00  0.00     0.031 A 
ATOM     35  C   UNL A   1      41.726  28.565  31.895  1.00  0.00     0.074 A 
ATOM     36  C   UNL A   1      39.904  29.570  30.565  1.00  0.00     0.049 A 
ATOM     37  N   UNL A   1      41.652  29.278  32.991  1.00  0.00    -0.248 NA
ATOM     38  C   UNL A   1      42.776  27.534  31.922  1.00  0.00     0.031 C 
ATOM     39  C   UNL A   1      38.993  29.731  29.429  1.00  0.00     0.029 A 
ATOM     40  N   UNL A   1      39.505  30.546  31.447  1.00  0.00    -0.354 N 
ATOM     41  C   UNL A   1      42.639  28.782  33.834  1.00  0.00     0.074 A 
ATOM     42  C   UNL A   1      43.259  27.669  33.150  1.00  0.00     0.031 C 
ATOM     43  C   UNL A   1      38.166  30.760  29.669  1.00  0.00     0.029 A 
ATOM     44  C   UNL A   1      38.451  31.305  30.994  1.00  0.00     0.049 A 
ATOM     45  H   UNL A   1      39.935  30.688  32.321  1.00  0.00     0.167 HD
ATOM     46  C   UNL A   1      43.015  29.232  35.056  1.00  0.00     0.037 A 
ATOM     47  C   UNL A   1      37.781  32.320  31.577  1.00  0.00     0.037 A 
ATOM     48  C   UNL A   1      42.407  30.353  35.726  1.00  0.00     0.049 A 
ATOM     49  C   UNL A   1      38.195  32.782  32.947  1.00  0.00     0.074 A 
ATOM     50  C   UNL A   1      42.746  30.908  36.949  1.00  0.00     0.029 A 
ATOM     51  N   UNL A   1      41.339  31.090  35.236  1.00  0.00    -0.354 N 
ATOM     52  N   UNL A   1      39.159  32.328  33.712  1.00  0.00    -0.248 NA
ATOM     53  C   UNL A   1      37.435  33.895  33.534  1.00  0.00     0.031 C 
ATOM     54  C   UNL A   1      41.850  31.946  37.221  1.00  0.00     0.029 A 
ATOM     55  C   UNL A   1      40.990  32.079  36.142  1.00  0.00     0.049 A 
ATOM     56  H   UNL A   1      40.894  30.935  34.372  1.00  0.00     0.167 HD
ATOM     57  C   UNL A   1      39.136  33.113  34.860  1.00  0.00     0.074 A 
ATOM     58  C   UNL A   1      38.071  34.078  34.685  1.00  0.00     0.031 C 
ATOM     59  C   UNL A   1      39.928  33.038  35.958  1.00  0.00     0.037 A 
BRANCH  46  60
ATOM     60  C   UNL A   1      44.148  28.523  35.748  1.00  0.00     0.058 A 
ATOM     61  C   UNL A   1      43.895  27.476  36.649  1.00  0.00     0.135 A 
ATOM     62  C   UNL A   1      45.483  28.922  35.569  1.00  0.00     0.135 A 
ATOM     63  F   UNL A   1      42.640  27.050  36.857  1.00  0.00    -0.206 F 
ATOM     64  C   UNL A   1      44.923  26.858  37.354  1.00  0.00     0.059 A 
ATOM     65  C   UNL A   1      46.530  28.299  36.241  1.00  0.00     0.059 A 
ATOM     66  F   UNL A   1      45.784  29.905  34.706  1.00  0.00    -0.206 F 
ATOM     67  C   UNL A   1      46.238  27.276  37.143  1.00  0.00     0.060 A 
BRANCH  67  68
ATOM     68  S   UNL A   1      47.564  26.437  38.037  1.00  0.00     0.124 S 
ATOM     69  O   UNL A   1      47.835  25.297  37.170  1.00  0.00    -0.237 OA
ATOM     70  O   UNL A   1      48.599  27.466  38.082  1.00  0.00    -0.237 OA
ATOM     71  O   UNL A   1      46.954  26.118  39.325  1.00  0.00    -0.744 OA
ENDBRANCH  67  68
ENDBRANCH  46  60
BRANCH  47  72
ATOM     72  C   UNL A   1      36.668  32.980  30.844  1.00  0.00     0.058 A 
ATOM     73  C   UNL A   1      36.916  33.877  29.793  1.00  0.00     0.135 A 
ATOM     74  C   UNL A   1      35.332  32.765  31.216  1.00  0.00     0.135 A 
ATOM     75  F   UNL A   1      38.176  34.126  29.403  1.00  0.00    -0.206 F 
ATOM     76  C   UNL A   1      35.885  34.562  29.161  1.00  0.00     0.059 A 
ATOM     77  C   UNL A   1      34.280  33.417  30.580  1.00  0.00     0.059 A 
ATOM     78  F   UNL A   1      35.043  31.906  32.205  1.00  0.00    -0.206 F 
ATOM     79  C   UNL A   1      34.570  34.331  29.565  1.00  0.00     0.060 A 
BRANCH  79  80
ATOM     80  S   UNL A   1      33.250  35.258  28.754  1.00  0.00     0.124 S 
ATOM     81  O   UNL A   1      32.593  34.211  27.979  1.00  0.00    -0.237 OA
ATOM     82  O   UNL A   1      32.496  35.772  29.893  1.00  0.00    -0.237 OA
ATOM     83  O   UNL A   1      33.969  36.259  27.974  1.00  0.00    -0.744 OA
ENDBRANCH  79  80
ENDBRANCH  47  72
BRANCH  59  84
ATOM     84  C   UNL A   1      39.696  34.033  37.064  1.00  0.00     0.058 A 
ATOM     85  C   UNL A   1      40.276  35.311  37.003  1.00  0.00     0.135 A 
ATOM     86  C   UNL A   1      38.977  33.695  38.220  1.00  0.00     0.135 A 
ATOM     87  F   UNL A   1      40.979  35.685  35.922  1.00  0.00    -0.206 F 
ATOM     88  C   UNL A   1      40.174  36.208  38.061  1.00  0.00     0.059 A 
ATOM     89  C   UNL A   1      38.838  34.588  39.279  1.00  0.00     0.059 A 
ATOM     90  F   UNL A   1      38.393  32.491  38.324  1.00  0.00    -0.206 F 
ATOM     91  C   UNL A   1      39.456  35.835  39.198  1.00  0.00     0.060 A 
BRANCH  91  92
ATOM     92  S   UNL A   1      39.336  37.012  40.562  1.00  0.00     0.124 S 
ATOM     93  O   UNL A   1      38.446  36.313  41.482  1.00  0.00    -0.237 OA
ATOM     94  O   UNL A   1      40.727  37.129  40.989  1.00  0.00    -0.237 OA
ATOM     95  O   UNL A   1      38.778  38.205  39.933  1.00  0.00    -0.744 OA
ENDBRANCH  91  92
ENDBRANCH  59  84
ENDBRANCH  33  34
ENDBRANCH  25  28
ENDBRANCH  23  24
ENDBRANCH  22  23
ENDBRANCH   1  22
TORSDOF 17
ENDMDL
MODEL 3
REMARK VINA RESULT:     -10.7      5.248     13.614
REMARK SMILES O=C(CSc1nc(-c2cccc(F)c2)n[nH]1)NCCCCNC(=O)c1ccc(-c2c3nc(c(-c4c(F)cc(S(=O)(=O)[O-])cc4F)c4ccc([nH]4)c(-c4c(F)cc(S(=O)(=O)[O-])cc4F)c4nc(c(-c5c(F)cc(S(=O)(=O)[O-])cc5F)c5ccc2[nH]5)C=C4)C=C3)cc1
REMARK SMILES IDX 19 1 18 2 17 3 1 4 2 5 3 7 4 8 5 9 6 10 16 11 7 12 15 13
REMARK SMILES IDX 8 15 9 16 14 17 10 18 12 19 11 20 13 21 20 22 21 23 22 24
REMARK SMILES IDX 23 25 24 27 25 28 26 29 90 30 27 31 89 32 28 33 29 34 30 35
REMARK SMILES IDX 83 36 31 37 88 38 82 39 84 40 32 41 87 42 81 43 80 44 33 46
REMARK SMILES IDX 67 47 46 48 66 49 47 50 50 51 65 52 85 53 48 54 49 55 64 57
REMARK SMILES IDX 86 58 51 59 34 60 35 61 44 62 36 63 37 64 43 65 45 66 38 67
REMARK SMILES IDX 39 68 40 69 41 70 42 71 68 72 69 73 78 74 70 75 71 76 77 77
REMARK SMILES IDX 79 78 72 79 73 80 74 81 75 82 76 83 52 84 53 85 62 86 54 87
REMARK SMILES IDX 55 88 61 89 63 90 56 91 57 92 58 93 59 94 60 95
REMARK H PARENT 17 6 16 14 22 26 84 45 50 56
REMARK Flexibility Score: inf
ROOT
ATOM      1  C   UNL A   1      34.005  33.256  28.220  1.00  0.00     0.023 C 
ENDROOT
BRANCH   1   2
ATOM      2  C   UNL A   1      34.228  34.764  28.123  1.00  0.00     0.116 C 
BRANCH   2   3
ATOM      3  N   UNL A   1      34.220  35.412  29.420  1.00  0.00    -0.355 N 
ATOM      4  O   UNL A   1      32.186  36.449  29.160  1.00  0.00    -0.274 OA
ATOM      5  C   UNL A   1      33.159  36.182  29.861  1.00  0.00     0.230 C 
ATOM      6  H   UNL A   1      35.001  35.301  30.009  1.00  0.00     0.163 HD
BRANCH   5   7
ATOM      7  C   UNL A   1      33.320  36.745  31.264  1.00  0.00     0.178 C 
BRANCH   7   8
ATOM      8  S   UNL A   1      32.842  35.527  32.521  1.00  0.00    -0.077 SA
BRANCH   8   9
ATOM      9  C   UNL A   1      34.374  34.912  33.002  1.00  0.00     0.184 A 
ATOM     10  N   UNL A   1      35.535  35.015  32.405  1.00  0.00    -0.201 NA
ATOM     11  N   UNL A   1      34.482  34.117  34.096  1.00  0.00    -0.254 N 
ATOM     12  C   UNL A   1      36.340  34.185  33.161  1.00  0.00     0.182 A 
ATOM     13  N   UNL A   1      35.724  33.627  34.217  1.00  0.00    -0.153 NA
ATOM     14  H   UNL A   1      33.746  33.927  34.721  1.00  0.00     0.192 HD
BRANCH  12  15
ATOM     15  C   UNL A   1      37.718  33.875  32.811  1.00  0.00     0.024 A 
ATOM     16  C   UNL A   1      38.538  33.143  33.680  1.00  0.00     0.012 A 
ATOM     17  C   UNL A   1      38.229  34.298  31.576  1.00  0.00     0.051 A 
ATOM     18  C   UNL A   1      39.849  32.820  33.307  1.00  0.00     0.004 A 
ATOM     19  C   UNL A   1      39.537  33.987  31.227  1.00  0.00     0.123 A 
ATOM     20  C   UNL A   1      40.350  33.246  32.077  1.00  0.00     0.039 A 
ATOM     21  F   UNL A   1      40.023  34.404  30.050  1.00  0.00    -0.207 F 
ENDBRANCH  12  15
ENDBRANCH   8   9
ENDBRANCH   7   8
ENDBRANCH   5   7
ENDBRANCH   2   3
ENDBRANCH   1   2
BRANCH   1  22
ATOM     22  C   UNL A   1      35.258  32.395  28.039  1.00  0.00     0.023 C 
BRANCH  22  23
ATOM     23  C   UNL A   1      36.321  32.531  29.126  1.00  0.00     0.116 C 
BRANCH  23  24
ATOM     24  N   UNL A   1      35.924  31.937  30.392  1.00  0.00    -0.352 N 
ATOM     25  C   UNL A   1      36.508  30.912  31.099  1.00  0.00     0.251 C 
ATOM     26  H   UNL A   1      35.118  32.325  30.804  1.00  0.00     0.163 HD
ATOM     27  O   UNL A   1      35.940  30.459  32.091  1.00  0.00    -0.269 OA
BRANCH  25  28
ATOM     28  C   UNL A   1      37.797  30.332  30.657  1.00  0.00     0.039 A 
ATOM     29  C   UNL A   1      38.068  30.256  29.287  1.00  0.00     0.014 A 
ATOM     30  C   UNL A   1      38.739  29.865  31.578  1.00  0.00     0.014 A 
ATOM     31  C   UNL A   1      39.308  29.783  28.848  1.00  0.00     0.010 A 
ATOM     32  C   UNL A   1      40.002  29.466  31.142  1.00  0.00     0.010 A 
ATOM     33  C   UNL A   1      40.304  29.425  29.772  1.00  0.00    -0.014 A 
BRANCH  33  34
ATOM     34  C   UNL A   1      41.666  29.027  29.327  1.00  0.00     0.031 A 
ATOM     35  C   UNL A   1      42.793  30.023  29.332  1.00  0.00     0.074 A 
ATOM     36  C   UNL A   1      41.877  27.778  28.861  1.00  0.00     0.049 A 
ATOM     37  N   UNL A   1      44.026  29.878  28.914  1.00  0.00    -0.248 NA
ATOM     38  C   UNL A   1      42.493  31.366  29.853  1.00  0.00     0.031 C 
ATOM     39  C   UNL A   1      40.860  26.728  28.770  1.00  0.00     0.029 A 
ATOM     40  N   UNL A   1      43.014  27.179  28.372  1.00  0.00    -0.354 N 
ATOM     41  C   UNL A   1      44.644  31.106  29.119  1.00  0.00     0.074 A 
ATOM     42  C   UNL A   1      43.636  32.003  29.642  1.00  0.00     0.031 C 
ATOM     43  C   UNL A   1      41.424  25.610  28.287  1.00  0.00     0.029 A 
ATOM     44  C   UNL A   1      42.828  25.871  27.988  1.00  0.00     0.049 A 
ATOM     45  H   UNL A   1      43.879  27.643  28.304  1.00  0.00     0.167 HD
ATOM     46  C   UNL A   1      45.940  31.446  28.919  1.00  0.00     0.037 A 
ATOM     47  C   UNL A   1      43.687  24.982  27.449  1.00  0.00     0.037 A 
ATOM     48  C   UNL A   1      46.943  30.544  28.415  1.00  0.00     0.049 A 
ATOM     49  C   UNL A   1      45.114  25.392  27.206  1.00  0.00     0.074 A 
ATOM     50  C   UNL A   1      48.292  30.787  28.215  1.00  0.00     0.029 A 
ATOM     51  N   UNL A   1      46.714  29.231  28.033  1.00  0.00    -0.354 N 
ATOM     52  N   UNL A   1      45.691  26.545  27.446  1.00  0.00    -0.248 NA
ATOM     53  C   UNL A   1      46.008  24.382  26.621  1.00  0.00     0.031 C 
ATOM     54  C   UNL A   1      48.866  29.638  27.663  1.00  0.00     0.029 A 
ATOM     55  C   UNL A   1      47.890  28.658  27.575  1.00  0.00     0.049 A 
ATOM     56  H   UNL A   1      45.844  28.772  28.079  1.00  0.00     0.167 HD
ATOM     57  C   UNL A   1      47.019  26.393  27.063  1.00  0.00     0.074 A 
ATOM     58  C   UNL A   1      47.164  25.034  26.586  1.00  0.00     0.031 C 
ATOM     59  C   UNL A   1      48.025  27.301  27.103  1.00  0.00     0.037 A 
BRANCH  46  60
ATOM     60  C   UNL A   1      46.357  32.853  29.257  1.00  0.00     0.058 A 
ATOM     61  C   UNL A   1      46.344  33.859  28.278  1.00  0.00     0.135 A 
ATOM     62  C   UNL A   1      46.831  33.191  30.535  1.00  0.00     0.135 A 
ATOM     63  F   UNL A   1      45.898  33.595  27.041  1.00  0.00    -0.206 F 
ATOM     64  C   UNL A   1      46.796  35.146  28.551  1.00  0.00     0.059 A 
ATOM     65  C   UNL A   1      47.260  34.479  30.840  1.00  0.00     0.059 A 
ATOM     66  F   UNL A   1      46.848  32.273  31.514  1.00  0.00    -0.206 F 
ATOM     67  C   UNL A   1      47.252  35.448  29.836  1.00  0.00     0.060 A 
BRANCH  67  68
ATOM     68  S   UNL A   1      47.799  37.133  30.184  1.00  0.00     0.124 S 
ATOM     69  O   UNL A   1      48.970  37.252  29.325  1.00  0.00    -0.237 OA
ATOM     70  O   UNL A   1      46.633  37.918  29.788  1.00  0.00    -0.237 OA
ATOM     71  O   UNL A   1      48.069  37.111  31.619  1.00  0.00    -0.744 OA
ENDBRANCH  67  68
ENDBRANCH  46  60
BRANCH  47  72
ATOM     72  C   UNL A   1      43.216  23.607  27.134  1.00  0.00     0.058 A 
ATOM     73  C   UNL A   1      42.972  22.667  28.148  1.00  0.00     0.135 A 
ATOM     74  C   UNL A   1      43.048  23.189  25.804  1.00  0.00     0.135 A 
ATOM     75  F   UNL A   1      43.126  23.012  29.436  1.00  0.00    -0.206 F 
ATOM     76  C   UNL A   1      42.613  21.356  27.857  1.00  0.00     0.059 A 
ATOM     77  C   UNL A   1      42.663  21.889  25.488  1.00  0.00     0.059 A 
ATOM     78  F   UNL A   1      43.255  24.054  24.800  1.00  0.00    -0.206 F 
ATOM     79  C   UNL A   1      42.468  20.974  26.523  1.00  0.00     0.060 A 
BRANCH  79  80
ATOM     80  S   UNL A   1      42.036  19.257  26.167  1.00  0.00     0.124 S 
ATOM     81  O   UNL A   1      42.791  19.015  24.942  1.00  0.00    -0.237 OA
ATOM     82  O   UNL A   1      42.521  18.569  27.359  1.00  0.00    -0.237 OA
ATOM     83  O   UNL A   1      40.585  19.298  26.012  1.00  0.00    -0.744 OA
ENDBRANCH  79  80
ENDBRANCH  47  72
BRANCH  59  84
ATOM     84  C   UNL A   1      49.389  26.864  26.638  1.00  0.00     0.058 A 
ATOM     85  C   UNL A   1      49.735  26.939  25.279  1.00  0.00     0.135 A 
ATOM     86  C   UNL A   1      50.317  26.289  27.519  1.00  0.00     0.135 A 
ATOM     87  F   UNL A   1      48.882  27.476  24.392  1.00  0.00    -0.206 F 
ATOM     88  C   UNL A   1      50.942  26.437  24.806  1.00  0.00     0.059 A 
ATOM     89  C   UNL A   1      51.544  25.805  27.072  1.00  0.00     0.059 A 
ATOM     90  F   UNL A   1      50.041  26.203  28.830  1.00  0.00    -0.206 F 
ATOM     91  C   UNL A   1      51.839  25.867  25.710  1.00  0.00     0.060 A 
BRANCH  91  92
ATOM     92  S   UNL A   1      53.400  25.218  25.078  1.00  0.00     0.124 S 
ATOM     93  O   UNL A   1      54.374  25.922  25.905  1.00  0.00    -0.237 OA
ATOM     94  O   UNL A   1      53.265  23.787  25.335  1.00  0.00    -0.237 OA
ATOM     95  O   UNL A   1      53.381  25.599  23.669  1.00  0.00    -0.744 OA
ENDBRANCH  91  92
ENDBRANCH  59  84
ENDBRANCH  33  34
ENDBRANCH  25  28
ENDBRANCH  23  24
ENDBRANCH  22  23
ENDBRANCH   1  22
TORSDOF 17
ENDMDL
