MODEL 1
REMARK VINA RESULT:     -12.4      0.000      0.000
REMARK SMILES O=C(NCCCCNC(=O)c1ccc(-c2c3nc(c(-c4c(F)cc(S(=O)(=O)[O-])cc4F)c4ccc([nH]4)c(-c4c(F)cc(S(=O)(=O)[O-])cc4F)c4nc(c(-c5c(F)cc(S(=O)(=O)[O-])cc5F)c5ccc2[nH]5)C=C4)C=C3)cc1)c1ccc(NS(=O)(=O)C2=Cc3ccccc3CC2)cc1
REMARK SMILES IDX 5 1 4 2 3 3 1 4 2 5 77 7 78 8 96 9 79 10 95 11 80 12 81 13
REMARK SMILES IDX 82 15 83 16 84 17 85 18 86 19 94 20 87 21 93 22 88 23 92 24
REMARK SMILES IDX 89 25 91 26 90 27 6 28 7 29 8 30 9 31 10 33 11 34 12 35
REMARK SMILES IDX 76 36 13 37 75 38 14 39 15 40 16 41 69 42 17 43 74 44 68 45
REMARK SMILES IDX 70 46 18 47 73 48 67 49 66 50 19 52 53 53 32 54 52 55 33 56
REMARK SMILES IDX 36 57 51 58 71 59 34 60 35 61 50 63 72 64 37 65 20 66 21 67
REMARK SMILES IDX 30 68 22 69 23 70 29 71 31 72 24 73 25 74 26 75 27 76 28 77
REMARK SMILES IDX 54 78 55 79 64 80 56 81 57 82 63 83 65 84 58 85 59 86 60 87
REMARK SMILES IDX 61 88 62 89 38 90 39 91 48 92 40 93 41 94 47 95 49 96 42 97
REMARK SMILES IDX 43 98 44 99 45 100 46 101
REMARK H PARENT 3 6 81 14 8 32 70 51 36 62
REMARK Flexibility Score: inf
ROOT
ATOM      1  C   UNL A   1      35.502  21.963  26.422  1.00  0.00     0.023 C 
ENDROOT
BRANCH   1   2
ATOM      2  C   UNL A   1      34.182  21.634  27.112  1.00  0.00     0.116 C 
BRANCH   2   3
ATOM      3  N   UNL A   1      33.603  20.394  26.626  1.00  0.00    -0.352 N 
ATOM      4  O   UNL A   1      32.170  19.116  25.436  1.00  0.00    -0.269 OA
ATOM      5  C   UNL A   1      32.709  20.204  25.603  1.00  0.00     0.251 C 
ATOM      6  H   UNL A   1      33.890  19.578  27.096  1.00  0.00     0.163 HD
BRANCH   5   7
ATOM      7  C   UNL A   1      32.397  21.316  24.682  1.00  0.00     0.039 A 
ATOM      8  C   UNL A   1      31.465  22.291  25.046  1.00  0.00     0.016 A 
ATOM      9  C   UNL A   1      33.117  21.446  23.490  1.00  0.00     0.016 A 
ATOM     10  C   UNL A   1      31.234  23.378  24.203  1.00  0.00     0.027 A 
ATOM     11  C   UNL A   1      32.870  22.532  22.641  1.00  0.00     0.027 A 
ATOM     12  C   UNL A   1      31.922  23.497  22.995  1.00  0.00     0.049 A 
BRANCH  12  13
ATOM     13  N   UNL A   1      31.784  24.683  22.210  1.00  0.00    -0.280 N 
ATOM     14  H   UNL A   1      31.094  24.731  21.509  1.00  0.00     0.180 HD
BRANCH  13  15
ATOM     15  S   UNL A   1      32.809  26.013  22.487  1.00  0.00     0.258 S 
ATOM     16  O   UNL A   1      33.587  25.624  23.647  1.00  0.00    -0.202 OA
ATOM     17  O   UNL A   1      33.499  26.234  21.228  1.00  0.00    -0.202 OA
BRANCH  15  18
ATOM     18  C   UNL A   1      31.809  27.421  22.859  1.00  0.00     0.066 C 
ATOM     19  C   UNL A   1      31.093  27.360  24.004  1.00  0.00     0.026 C 
ATOM     20  C   UNL A   1      32.446  28.753  22.543  1.00  0.00     0.055 C 
ATOM     21  C   UNL A   1      31.799  27.918  25.196  1.00  0.00    -0.021 A 
ATOM     22  C   UNL A   1      33.417  29.151  23.664  1.00  0.00     0.041 C 
ATOM     23  C   UNL A   1      31.344  27.587  26.474  1.00  0.00     0.008 A 
ATOM     24  C   UNL A   1      32.917  28.764  25.041  1.00  0.00    -0.040 A 
ATOM     25  C   UNL A   1      32.025  28.052  27.600  1.00  0.00     0.001 A 
ATOM     26  C   UNL A   1      33.604  29.207  26.178  1.00  0.00     0.004 A 
ATOM     27  C   UNL A   1      33.160  28.847  27.451  1.00  0.00     0.000 A 
ENDBRANCH  15  18
ENDBRANCH  13  15
ENDBRANCH  12  13
ENDBRANCH   5   7
ENDBRANCH   2   3
ENDBRANCH   1   2
BRANCH   1  28
ATOM     28  C   UNL A   1      35.577  23.349  25.782  1.00  0.00     0.023 C 
BRANCH  28  29
ATOM     29  C   UNL A   1      36.864  23.655  25.023  1.00  0.00     0.116 C 
BRANCH  29  30
ATOM     30  N   UNL A   1      37.927  22.699  25.293  1.00  0.00    -0.352 N 
ATOM     31  C   UNL A   1      39.096  22.873  25.996  1.00  0.00     0.251 C 
ATOM     32  H   UNL A   1      37.789  21.798  24.920  1.00  0.00     0.163 HD
ATOM     33  O   UNL A   1      39.937  21.978  26.017  1.00  0.00    -0.269 OA
BRANCH  31  34
ATOM     34  C   UNL A   1      39.352  24.154  26.691  1.00  0.00     0.039 A 
ATOM     35  C   UNL A   1      38.884  24.320  27.996  1.00  0.00     0.014 A 
ATOM     36  C   UNL A   1      40.080  25.172  26.069  1.00  0.00     0.014 A 
ATOM     37  C   UNL A   1      39.220  25.473  28.709  1.00  0.00     0.010 A 
ATOM     38  C   UNL A   1      40.472  26.287  26.803  1.00  0.00     0.010 A 
ATOM     39  C   UNL A   1      40.054  26.446  28.134  1.00  0.00    -0.014 A 
BRANCH  39  40
ATOM     40  C   UNL A   1      40.517  27.626  28.908  1.00  0.00     0.031 A 
ATOM     41  C   UNL A   1      41.863  27.609  29.579  1.00  0.00     0.074 A 
ATOM     42  C   UNL A   1      39.692  28.679  29.078  1.00  0.00     0.049 A 
ATOM     43  N   UNL A   1      42.402  28.496  30.374  1.00  0.00    -0.248 NA
ATOM     44  C   UNL A   1      42.702  26.421  29.349  1.00  0.00     0.031 C 
ATOM     45  C   UNL A   1      38.340  28.793  28.527  1.00  0.00     0.029 A 
ATOM     46  N   UNL A   1      39.864  29.848  29.777  1.00  0.00    -0.354 N 
ATOM     47  C   UNL A   1      43.628  27.968  30.756  1.00  0.00     0.074 A 
ATOM     48  C   UNL A   1      43.735  26.662  30.142  1.00  0.00     0.031 C 
ATOM     49  C   UNL A   1      37.814  29.973  28.892  1.00  0.00     0.029 A 
ATOM     50  C   UNL A   1      38.774  30.685  29.731  1.00  0.00     0.049 A 
ATOM     51  H   UNL A   1      40.691  30.067  30.264  1.00  0.00     0.167 HD
ATOM     52  C   UNL A   1      44.588  28.528  31.533  1.00  0.00     0.037 A 
ATOM     53  C   UNL A   1      38.568  31.885  30.305  1.00  0.00     0.037 A 
ATOM     54  C   UNL A   1      44.493  29.841  32.113  1.00  0.00     0.049 A 
ATOM     55  C   UNL A   1      39.657  32.499  31.140  1.00  0.00     0.074 A 
ATOM     56  C   UNL A   1      45.438  30.522  32.860  1.00  0.00     0.029 A 
ATOM     57  N   UNL A   1      43.389  30.675  32.009  1.00  0.00    -0.354 N 
ATOM     58  N   UNL A   1      40.836  32.010  31.443  1.00  0.00    -0.248 NA
ATOM     59  C   UNL A   1      39.394  33.830  31.706  1.00  0.00     0.031 C 
ATOM     60  C   UNL A   1      44.895  31.757  33.232  1.00  0.00     0.029 A 
ATOM     61  C   UNL A   1      43.625  31.860  32.686  1.00  0.00     0.049 A 
ATOM     62  H   UNL A   1      42.560  30.457  31.524  1.00  0.00     0.167 HD
ATOM     63  C   UNL A   1      41.463  32.981  32.214  1.00  0.00     0.074 A 
ATOM     64  C   UNL A   1      40.538  34.090  32.324  1.00  0.00     0.031 C 
ATOM     65  C   UNL A   1      42.695  32.957  32.779  1.00  0.00     0.037 A 
BRANCH  52  66
ATOM     66  C   UNL A   1      45.827  27.718  31.789  1.00  0.00     0.058 A 
ATOM     67  C   UNL A   1      45.945  26.893  32.918  1.00  0.00     0.135 A 
ATOM     68  C   UNL A   1      46.903  27.752  30.887  1.00  0.00     0.135 A 
ATOM     69  F   UNL A   1      44.953  26.835  33.820  1.00  0.00    -0.206 F 
ATOM     70  C   UNL A   1      47.101  26.159  33.165  1.00  0.00     0.059 A 
ATOM     71  C   UNL A   1      48.058  27.005  31.100  1.00  0.00     0.059 A 
ATOM     72  F   UNL A   1      46.841  28.524  29.790  1.00  0.00    -0.206 F 
ATOM     73  C   UNL A   1      48.154  26.226  32.252  1.00  0.00     0.060 A 
BRANCH  73  74
ATOM     74  S   UNL A   1      49.653  25.277  32.590  1.00  0.00     0.124 S 
ATOM     75  O   UNL A   1      50.467  26.265  33.292  1.00  0.00    -0.237 OA
ATOM     76  O   UNL A   1      49.151  24.176  33.406  1.00  0.00    -0.237 OA
ATOM     77  O   UNL A   1      50.124  24.904  31.260  1.00  0.00    -0.744 OA
ENDBRANCH  73  74
ENDBRANCH  52  66
BRANCH  53  78
ATOM     78  C   UNL A   1      37.285  32.600  30.082  1.00  0.00     0.058 A 
ATOM     79  C   UNL A   1      36.160  32.321  30.872  1.00  0.00     0.135 A 
ATOM     80  C   UNL A   1      37.162  33.591  29.094  1.00  0.00     0.135 A 
ATOM     81  F   UNL A   1      36.228  31.379  31.825  1.00  0.00    -0.206 F 
ATOM     82  C   UNL A   1      34.955  32.991  30.688  1.00  0.00     0.059 A 
ATOM     83  C   UNL A   1      35.973  34.288  28.904  1.00  0.00     0.059 A 
ATOM     84  F   UNL A   1      38.214  33.905  28.324  1.00  0.00    -0.206 F 
ATOM     85  C   UNL A   1      34.872  33.976  29.702  1.00  0.00     0.060 A 
BRANCH  85  86
ATOM     86  S   UNL A   1      33.323  34.884  29.511  1.00  0.00     0.124 S 
ATOM     87  O   UNL A   1      32.862  34.971  30.891  1.00  0.00    -0.237 OA
ATOM     88  O   UNL A   1      33.772  36.135  28.907  1.00  0.00    -0.237 OA
ATOM     89  O   UNL A   1      32.536  34.023  28.633  1.00  0.00    -0.744 OA
ENDBRANCH  85  86
ENDBRANCH  53  78
BRANCH  65  90
ATOM     90  C   UNL A   1      43.130  34.177  33.540  1.00  0.00     0.058 A 
ATOM     91  C   UNL A   1      43.855  35.208  32.923  1.00  0.00     0.135 A 
ATOM     92  C   UNL A   1      42.771  34.340  34.887  1.00  0.00     0.135 A 
ATOM     93  F   UNL A   1      44.230  35.095  31.638  1.00  0.00    -0.206 F 
ATOM     94  C   UNL A   1      44.224  36.354  33.620  1.00  0.00     0.059 A 
ATOM     95  C   UNL A   1      43.109  35.487  35.598  1.00  0.00     0.059 A 
ATOM     96  F   UNL A   1      42.069  33.386  35.519  1.00  0.00    -0.206 F 
ATOM     97  C   UNL A   1      43.845  36.483  34.958  1.00  0.00     0.060 A 
BRANCH  97  98
ATOM     98  S   UNL A   1      44.294  37.991  35.844  1.00  0.00     0.124 S 
ATOM     99  O   UNL A   1      43.562  37.826  37.095  1.00  0.00    -0.237 OA
ATOM    100  O   UNL A   1      45.747  37.881  35.941  1.00  0.00    -0.237 OA
ATOM    101  O   UNL A   1      43.810  39.055  34.969  1.00  0.00    -0.744 OA
ENDBRANCH  97  98
ENDBRANCH  65  90
ENDBRANCH  39  40
ENDBRANCH  31  34
ENDBRANCH  29  30
ENDBRANCH  28  29
ENDBRANCH   1  28
TORSDOF 17
ENDMDL
MODEL 2
REMARK VINA RESULT:     -12.3      4.724     11.635
REMARK SMILES O=C(NCCCCNC(=O)c1ccc(-c2c3nc(c(-c4c(F)cc(S(=O)(=O)[O-])cc4F)c4ccc([nH]4)c(-c4c(F)cc(S(=O)(=O)[O-])cc4F)c4nc(c(-c5c(F)cc(S(=O)(=O)[O-])cc5F)c5ccc2[nH]5)C=C4)C=C3)cc1)c1ccc(NS(=O)(=O)C2=Cc3ccccc3CC2)cc1
REMARK SMILES IDX 5 1 4 2 3 3 1 4 2 5 77 7 78 8 96 9 79 10 95 11 80 12 81 13
REMARK SMILES IDX 82 15 83 16 84 17 85 18 86 19 94 20 87 21 93 22 88 23 92 24
REMARK SMILES IDX 89 25 91 26 90 27 6 28 7 29 8 30 9 31 10 33 11 34 12 35
REMARK SMILES IDX 76 36 13 37 75 38 14 39 15 40 16 41 69 42 17 43 74 44 68 45
REMARK SMILES IDX 70 46 18 47 73 48 67 49 66 50 19 52 53 53 32 54 52 55 33 56
REMARK SMILES IDX 36 57 51 58 71 59 34 60 35 61 50 63 72 64 37 65 20 66 21 67
REMARK SMILES IDX 30 68 22 69 23 70 29 71 31 72 24 73 25 74 26 75 27 76 28 77
REMARK SMILES IDX 54 78 55 79 64 80 56 81 57 82 63 83 65 84 58 85 59 86 60 87
REMARK SMILES IDX 61 88 62 89 38 90 39 91 48 92 40 93 41 94 47 95 49 96 42 97
REMARK SMILES IDX 43 98 44 99 45 100 46 101
REMARK H PARENT 3 6 81 14 8 32 70 51 36 62
REMARK Flexibility Score: inf
ROOT
ATOM      1  C   UNL A   1      37.276  33.003  30.161  1.00  0.00     0.023 C 
ENDROOT
BRANCH   1   2
ATOM      2  C   UNL A   1      37.757  33.904  31.294  1.00  0.00     0.116 C 
BRANCH   2   3
ATOM      3  N   UNL A   1      36.978  33.727  32.506  1.00  0.00    -0.352 N 
ATOM      4  O   UNL A   1      36.257  32.643  34.354  1.00  0.00    -0.269 OA
ATOM      5  C   UNL A   1      37.112  32.773  33.484  1.00  0.00     0.251 C 
ATOM      6  H   UNL A   1      36.255  34.379  32.646  1.00  0.00     0.163 HD
BRANCH   5   7
ATOM      7  C   UNL A   1      38.303  31.899  33.502  1.00  0.00     0.039 A 
ATOM      8  C   UNL A   1      39.513  32.368  34.020  1.00  0.00     0.016 A 
ATOM      9  C   UNL A   1      38.184  30.566  33.096  1.00  0.00     0.016 A 
ATOM     10  C   UNL A   1      40.609  31.510  34.103  1.00  0.00     0.027 A 
ATOM     11  C   UNL A   1      39.293  29.713  33.169  1.00  0.00     0.027 A 
ATOM     12  C   UNL A   1      40.510  30.188  33.668  1.00  0.00     0.049 A 
BRANCH  12  13
ATOM     13  N   UNL A   1      41.593  29.282  33.889  1.00  0.00    -0.280 N 
ATOM     14  H   UNL A   1      42.425  29.374  33.371  1.00  0.00     0.180 HD
BRANCH  13  15
ATOM     15  S   UNL A   1      41.445  28.045  35.049  1.00  0.00     0.258 S 
ATOM     16  O   UNL A   1      40.779  28.686  36.166  1.00  0.00    -0.202 OA
ATOM     17  O   UNL A   1      40.768  26.958  34.366  1.00  0.00    -0.202 OA
BRANCH  15  18
ATOM     18  C   UNL A   1      43.066  27.521  35.517  1.00  0.00     0.066 C 
ATOM     19  C   UNL A   1      43.179  26.249  35.961  1.00  0.00     0.026 C 
ATOM     20  C   UNL A   1      44.176  28.012  34.618  1.00  0.00     0.055 C 
ATOM     21  C   UNL A   1      43.489  25.255  34.892  1.00  0.00    -0.021 A 
ATOM     22  C   UNL A   1      44.260  27.137  33.360  1.00  0.00     0.041 C 
ATOM     23  C   UNL A   1      43.266  23.898  35.138  1.00  0.00     0.008 A 
ATOM     24  C   UNL A   1      43.993  25.672  33.643  1.00  0.00    -0.040 A 
ATOM     25  C   UNL A   1      43.495  22.958  34.132  1.00  0.00     0.001 A 
ATOM     26  C   UNL A   1      44.200  24.723  32.635  1.00  0.00     0.004 A 
ATOM     27  C   UNL A   1      43.946  23.372  32.879  1.00  0.00     0.000 A 
ENDBRANCH  15  18
ENDBRANCH  13  15
ENDBRANCH  12  13
ENDBRANCH   5   7
ENDBRANCH   2   3
ENDBRANCH   1   2
BRANCH   1  28
ATOM     28  C   UNL A   1      35.874  33.309  29.634  1.00  0.00     0.023 C 
BRANCH  28  29
ATOM     29  C   UNL A   1      34.785  32.328  30.053  1.00  0.00     0.116 C 
BRANCH  29  30
ATOM     30  N   UNL A   1      34.133  31.682  28.924  1.00  0.00    -0.352 N 
ATOM     31  C   UNL A   1      34.624  30.729  28.063  1.00  0.00     0.251 C 
ATOM     32  H   UNL A   1      33.206  31.969  28.751  1.00  0.00     0.163 HD
ATOM     33  O   UNL A   1      33.964  30.386  27.087  1.00  0.00    -0.269 OA
BRANCH  31  34
ATOM     34  C   UNL A   1      35.965  30.148  28.299  1.00  0.00     0.039 A 
ATOM     35  C   UNL A   1      36.939  30.270  27.305  1.00  0.00     0.014 A 
ATOM     36  C   UNL A   1      36.268  29.517  29.508  1.00  0.00     0.014 A 
ATOM     37  C   UNL A   1      38.242  29.835  27.558  1.00  0.00     0.010 A 
ATOM     38  C   UNL A   1      37.582  29.150  29.784  1.00  0.00     0.010 A 
ATOM     39  C   UNL A   1      38.585  29.312  28.815  1.00  0.00    -0.014 A 
BRANCH  39  40
ATOM     40  C   UNL A   1      39.986  28.948  29.147  1.00  0.00     0.031 A 
ATOM     41  C   UNL A   1      40.897  29.957  29.789  1.00  0.00     0.074 A 
ATOM     42  C   UNL A   1      40.462  27.736  28.795  1.00  0.00     0.049 A 
ATOM     43  N   UNL A   1      42.172  29.861  30.066  1.00  0.00    -0.248 NA
ATOM     44  C   UNL A   1      40.303  31.257  30.140  1.00  0.00     0.031 C 
ATOM     45  C   UNL A   1      39.695  26.690  28.115  1.00  0.00     0.029 A 
ATOM     46  N   UNL A   1      41.711  27.187  28.944  1.00  0.00    -0.354 N 
ATOM     47  C   UNL A   1      42.538  31.091  30.600  1.00  0.00     0.074 A 
ATOM     48  C   UNL A   1      41.360  31.932  30.567  1.00  0.00     0.031 C 
ATOM     49  C   UNL A   1      40.484  25.620  27.925  1.00  0.00     0.029 A 
ATOM     50  C   UNL A   1      41.820  25.915  28.435  1.00  0.00     0.049 A 
ATOM     51  H   UNL A   1      42.458  27.659  29.376  1.00  0.00     0.167 HD
ATOM     52  C   UNL A   1      43.740  31.478  31.091  1.00  0.00     0.037 A 
ATOM     53  C   UNL A   1      42.877  25.082  28.378  1.00  0.00     0.037 A 
ATOM     54  C   UNL A   1      44.899  30.628  31.154  1.00  0.00     0.049 A 
ATOM     55  C   UNL A   1      44.193  25.523  28.953  1.00  0.00     0.074 A 
ATOM     56  C   UNL A   1      46.142  30.907  31.693  1.00  0.00     0.029 A 
ATOM     57  N   UNL A   1      44.957  29.331  30.666  1.00  0.00    -0.354 N 
ATOM     58  N   UNL A   1      44.505  26.670  29.509  1.00  0.00    -0.248 NA
ATOM     59  C   UNL A   1      45.300  24.557  28.904  1.00  0.00     0.031 C 
ATOM     60  C   UNL A   1      46.962  29.788  31.504  1.00  0.00     0.029 A 
ATOM     61  C   UNL A   1      46.217  28.799  30.881  1.00  0.00     0.049 A 
ATOM     62  H   UNL A   1      44.211  28.857  30.230  1.00  0.00     0.167 HD
ATOM     63  C   UNL A   1      45.836  26.555  29.894  1.00  0.00     0.074 A 
ATOM     64  C   UNL A   1      46.267  25.225  29.518  1.00  0.00     0.031 C 
ATOM     65  C   UNL A   1      46.628  27.470  30.506  1.00  0.00     0.037 A 
BRANCH  52  66
ATOM     66  C   UNL A   1      43.853  32.885  31.606  1.00  0.00     0.058 A 
ATOM     67  C   UNL A   1      43.805  33.170  32.980  1.00  0.00     0.135 A 
ATOM     68  C   UNL A   1      44.029  33.960  30.720  1.00  0.00     0.135 A 
ATOM     69  F   UNL A   1      43.623  32.182  33.870  1.00  0.00    -0.206 F 
ATOM     70  C   UNL A   1      43.890  34.474  33.455  1.00  0.00     0.059 A 
ATOM     71  C   UNL A   1      44.143  35.270  31.175  1.00  0.00     0.059 A 
ATOM     72  F   UNL A   1      44.082  33.743  29.397  1.00  0.00    -0.206 F 
ATOM     73  C   UNL A   1      44.053  35.518  32.544  1.00  0.00     0.060 A 
BRANCH  73  74
ATOM     74  S   UNL A   1      44.150  37.208  33.174  1.00  0.00     0.124 S 
ATOM     75  O   UNL A   1      42.933  37.288  33.975  1.00  0.00    -0.237 OA
ATOM     76  O   UNL A   1      45.402  37.193  33.924  1.00  0.00    -0.237 OA
ATOM     77  O   UNL A   1      44.159  38.021  31.962  1.00  0.00    -0.744 OA
ENDBRANCH  73  74
ENDBRANCH  52  66
BRANCH  53  78
ATOM     78  C   UNL A   1      42.721  23.731  27.778  1.00  0.00     0.058 A 
ATOM     79  C   UNL A   1      42.786  23.551  26.389  1.00  0.00     0.135 A 
ATOM     80  C   UNL A   1      42.531  22.593  28.578  1.00  0.00     0.135 A 
ATOM     81  F   UNL A   1      42.960  24.610  25.583  1.00  0.00    -0.206 F 
ATOM     82  C   UNL A   1      42.658  22.293  25.810  1.00  0.00     0.059 A 
ATOM     83  C   UNL A   1      42.421  21.322  28.024  1.00  0.00     0.059 A 
ATOM     84  F   UNL A   1      42.480  22.712  29.914  1.00  0.00    -0.206 F 
ATOM     85  C   UNL A   1      42.478  21.183  26.637  1.00  0.00     0.060 A 
BRANCH  85  86
ATOM     86  S   UNL A   1      42.376  19.545  25.882  1.00  0.00     0.124 S 
ATOM     87  O   UNL A   1      42.653  18.679  27.022  1.00  0.00    -0.237 OA
ATOM     88  O   UNL A   1      41.006  19.522  25.381  1.00  0.00    -0.237 OA
ATOM     89  O   UNL A   1      43.410  19.586  24.853  1.00  0.00    -0.744 OA
ENDBRANCH  85  86
ENDBRANCH  53  78
BRANCH  65  90
ATOM     90  C   UNL A   1      48.032  27.054  30.839  1.00  0.00     0.058 A 
ATOM     91  C   UNL A   1      48.321  26.278  31.972  1.00  0.00     0.135 A 
ATOM     92  C   UNL A   1      49.094  27.391  29.984  1.00  0.00     0.135 A 
ATOM     93  F   UNL A   1      47.341  25.937  32.824  1.00  0.00    -0.206 F 
ATOM     94  C   UNL A   1      49.618  25.863  32.256  1.00  0.00     0.059 A 
ATOM     95  C   UNL A   1      50.395  26.969  30.237  1.00  0.00     0.059 A 
ATOM     96  F   UNL A   1      48.868  28.124  28.883  1.00  0.00    -0.206 F 
ATOM     97  C   UNL A   1      50.648  26.214  31.381  1.00  0.00     0.060 A 
BRANCH  97  98
ATOM     98  S   UNL A   1      52.322  25.637  31.737  1.00  0.00     0.124 S 
ATOM     99  O   UNL A   1      52.721  26.540  32.811  1.00  0.00    -0.237 OA
ATOM    100  O   UNL A   1      52.102  24.247  32.126  1.00  0.00    -0.237 OA
ATOM    101  O   UNL A   1      53.021  25.823  30.468  1.00  0.00    -0.744 OA
ENDBRANCH  97  98
ENDBRANCH  65  90
ENDBRANCH  39  40
ENDBRANCH  31  34
ENDBRANCH  29  30
ENDBRANCH  28  29
ENDBRANCH   1  28
TORSDOF 17
ENDMDL
MODEL 3
REMARK VINA RESULT:     -12.0      2.816      3.465
REMARK SMILES O=C(NCCCCNC(=O)c1ccc(-c2c3nc(c(-c4c(F)cc(S(=O)(=O)[O-])cc4F)c4ccc([nH]4)c(-c4c(F)cc(S(=O)(=O)[O-])cc4F)c4nc(c(-c5c(F)cc(S(=O)(=O)[O-])cc5F)c5ccc2[nH]5)C=C4)C=C3)cc1)c1ccc(NS(=O)(=O)C2=Cc3ccccc3CC2)cc1
REMARK SMILES IDX 5 1 4 2 3 3 1 4 2 5 77 7 78 8 96 9 79 10 95 11 80 12 81 13
REMARK SMILES IDX 82 15 83 16 84 17 85 18 86 19 94 20 87 21 93 22 88 23 92 24
REMARK SMILES IDX 89 25 91 26 90 27 6 28 7 29 8 30 9 31 10 33 11 34 12 35
REMARK SMILES IDX 76 36 13 37 75 38 14 39 15 40 16 41 69 42 17 43 74 44 68 45
REMARK SMILES IDX 70 46 18 47 73 48 67 49 66 50 19 52 53 53 32 54 52 55 33 56
REMARK SMILES IDX 36 57 51 58 71 59 34 60 35 61 50 63 72 64 37 65 20 66 21 67
REMARK SMILES IDX 30 68 22 69 23 70 29 71 31 72 24 73 25 74 26 75 27 76 28 77
REMARK SMILES IDX 54 78 55 79 64 80 56 81 57 82 63 83 65 84 58 85 59 86 60 87
REMARK SMILES IDX 61 88 62 89 38 90 39 91 48 92 40 93 41 94 47 95 49 96 42 97
REMARK SMILES IDX 43 98 44 99 45 100 46 101
REMARK H PARENT 3 6 81 14 8 32 70 51 36 62
REMARK Flexibility Score: inf
ROOT
ATOM      1  C   UNL A   1      37.642  21.974  25.079  1.00  0.00     0.023 C 
ENDROOT
BRANCH   1   2
ATOM      2  C   UNL A   1      36.349  21.208  24.815  1.00  0.00     0.116 C 
BRANCH   2   3
ATOM      3  N   UNL A   1      35.582  20.990  26.028  1.00  0.00    -0.352 N 
ATOM      4  O   UNL A   1      33.981  21.427  27.561  1.00  0.00    -0.269 OA
ATOM      5  C   UNL A   1      34.408  21.581  26.421  1.00  0.00     0.251 C 
ATOM      6  H   UNL A   1      35.955  20.327  26.653  1.00  0.00     0.163 HD
BRANCH   5   7
ATOM      7  C   UNL A   1      33.640  22.403  25.464  1.00  0.00     0.039 A 
ATOM      8  C   UNL A   1      33.716  23.797  25.514  1.00  0.00     0.016 A 
ATOM      9  C   UNL A   1      32.920  21.778  24.442  1.00  0.00     0.016 A 
ATOM     10  C   UNL A   1      33.049  24.562  24.558  1.00  0.00     0.027 A 
ATOM     11  C   UNL A   1      32.239  22.551  23.494  1.00  0.00     0.027 A 
ATOM     12  C   UNL A   1      32.299  23.947  23.556  1.00  0.00     0.049 A 
BRANCH  12  13
ATOM     13  N   UNL A   1      31.738  24.733  22.501  1.00  0.00    -0.280 N 
ATOM     14  H   UNL A   1      30.790  24.627  22.260  1.00  0.00     0.180 HD
BRANCH  13  15
ATOM     15  S   UNL A   1      32.709  25.852  21.665  1.00  0.00     0.258 S 
ATOM     16  O   UNL A   1      34.050  25.590  22.150  1.00  0.00    -0.202 OA
ATOM     17  O   UNL A   1      32.423  25.632  20.258  1.00  0.00    -0.202 OA
BRANCH  15  18
ATOM     18  C   UNL A   1      32.197  27.482  22.116  1.00  0.00     0.066 C 
ATOM     19  C   UNL A   1      31.273  27.568  23.099  1.00  0.00     0.026 C 
ATOM     20  C   UNL A   1      33.305  28.508  22.154  1.00  0.00     0.055 C 
ATOM     21  C   UNL A   1      31.849  27.691  24.470  1.00  0.00    -0.021 A 
ATOM     22  C   UNL A   1      34.084  28.392  23.472  1.00  0.00     0.041 C 
ATOM     23  C   UNL A   1      31.041  27.415  25.576  1.00  0.00     0.008 A 
ATOM     24  C   UNL A   1      33.194  28.071  24.656  1.00  0.00    -0.040 A 
ATOM     25  C   UNL A   1      31.578  27.469  26.864  1.00  0.00     0.001 A 
ATOM     26  C   UNL A   1      33.726  28.101  25.950  1.00  0.00     0.004 A 
ATOM     27  C   UNL A   1      32.920  27.796  27.048  1.00  0.00     0.000 A 
ENDBRANCH  15  18
ENDBRANCH  13  15
ENDBRANCH  12  13
ENDBRANCH   5   7
ENDBRANCH   2   3
ENDBRANCH   1   2
BRANCH   1  28
ATOM     28  C   UNL A   1      37.478  23.478  25.294  1.00  0.00     0.023 C 
BRANCH  28  29
ATOM     29  C   UNL A   1      38.352  24.085  26.387  1.00  0.00     0.116 C 
BRANCH  29  30
ATOM     30  N   UNL A   1      39.774  23.872  26.166  1.00  0.00    -0.352 N 
ATOM     31  C   UNL A   1      40.845  24.603  26.623  1.00  0.00     0.251 C 
ATOM     32  H   UNL A   1      40.003  23.093  25.608  1.00  0.00     0.163 HD
ATOM     33  O   UNL A   1      41.979  24.340  26.231  1.00  0.00    -0.269 OA
BRANCH  31  34
ATOM     34  C   UNL A   1      40.621  25.728  27.558  1.00  0.00     0.039 A 
ATOM     35  C   UNL A   1      39.622  25.613  28.528  1.00  0.00     0.014 A 
ATOM     36  C   UNL A   1      41.416  26.876  27.498  1.00  0.00     0.014 A 
ATOM     37  C   UNL A   1      39.478  26.612  29.493  1.00  0.00     0.010 A 
ATOM     38  C   UNL A   1      41.318  27.836  28.501  1.00  0.00     0.010 A 
ATOM     39  C   UNL A   1      40.353  27.711  29.514  1.00  0.00    -0.014 A 
BRANCH  39  40
ATOM     40  C   UNL A   1      40.293  28.729  30.594  1.00  0.00     0.031 A 
ATOM     41  C   UNL A   1      41.182  28.603  31.801  1.00  0.00     0.074 A 
ATOM     42  C   UNL A   1      39.381  29.719  30.529  1.00  0.00     0.049 A 
ATOM     43  N   UNL A   1      41.209  29.332  32.886  1.00  0.00    -0.248 NA
ATOM     44  C   UNL A   1      42.149  27.493  31.798  1.00  0.00     0.031 C 
ATOM     45  C   UNL A   1      38.422  29.917  29.439  1.00  0.00     0.029 A 
ATOM     46  N   UNL A   1      39.098  30.736  31.406  1.00  0.00    -0.354 N 
ATOM     47  C   UNL A   1      42.174  28.758  33.704  1.00  0.00     0.074 A 
ATOM     48  C   UNL A   1      42.679  27.594  33.008  1.00  0.00     0.031 C 
ATOM     49  C   UNL A   1      37.672  30.998  29.703  1.00  0.00     0.029 A 
ATOM     50  C   UNL A   1      38.070  31.551  30.995  1.00  0.00     0.049 A 
ATOM     51  H   UNL A   1      39.586  30.870  32.250  1.00  0.00     0.167 HD
ATOM     52  C   UNL A   1      42.615  29.174  34.917  1.00  0.00     0.037 A 
ATOM     53  C   UNL A   1      37.506  32.618  31.592  1.00  0.00     0.037 A 
ATOM     54  C   UNL A   1      42.136  30.352  35.590  1.00  0.00     0.049 A 
ATOM     55  C   UNL A   1      38.029  33.077  32.925  1.00  0.00     0.074 A 
ATOM     56  C   UNL A   1      42.565  30.892  36.789  1.00  0.00     0.029 A 
ATOM     57  N   UNL A   1      41.122  31.174  35.121  1.00  0.00    -0.354 N 
ATOM     58  N   UNL A   1      38.985  32.556  33.657  1.00  0.00    -0.248 NA
ATOM     59  C   UNL A   1      37.406  34.273  33.510  1.00  0.00     0.031 C 
ATOM     60  C   UNL A   1      41.791  32.026  37.061  1.00  0.00     0.029 A 
ATOM     61  C   UNL A   1      40.904  32.213  36.012  1.00  0.00     0.049 A 
ATOM     62  H   UNL A   1      40.630  31.040  34.278  1.00  0.00     0.167 HD
ATOM     63  C   UNL A   1      39.092  33.373  34.777  1.00  0.00     0.074 A 
ATOM     64  C   UNL A   1      38.112  34.427  34.621  1.00  0.00     0.031 C 
ATOM     65  C   UNL A   1      39.929  33.259  35.838  1.00  0.00     0.037 A 
BRANCH  52  66
ATOM     66  C   UNL A   1      43.677  28.348  35.585  1.00  0.00     0.058 A 
ATOM     67  C   UNL A   1      43.353  27.340  36.507  1.00  0.00     0.135 A 
ATOM     68  C   UNL A   1      45.035  28.552  35.288  1.00  0.00     0.135 A 
ATOM     69  F   UNL A   1      42.072  27.113  36.838  1.00  0.00    -0.206 F 
ATOM     70  C   UNL A   1      44.338  26.589  37.139  1.00  0.00     0.059 A 
ATOM     71  C   UNL A   1      46.036  27.795  35.889  1.00  0.00     0.059 A 
ATOM     72  F   UNL A   1      45.400  29.502  34.413  1.00  0.00    -0.206 F 
ATOM     73  C   UNL A   1      45.677  26.828  36.828  1.00  0.00     0.060 A 
BRANCH  73  74
ATOM     74  S   UNL A   1      46.946  25.854  37.666  1.00  0.00     0.124 S 
ATOM     75  O   UNL A   1      47.779  25.438  36.542  1.00  0.00    -0.237 OA
ATOM     76  O   UNL A   1      47.544  26.829  38.572  1.00  0.00    -0.237 OA
ATOM     77  O   UNL A   1      46.184  24.789  38.311  1.00  0.00    -0.744 OA
ENDBRANCH  73  74
ENDBRANCH  52  66
BRANCH  53  78
ATOM     78  C   UNL A   1      36.399  33.344  30.917  1.00  0.00     0.058 A 
ATOM     79  C   UNL A   1      35.078  33.225  31.373  1.00  0.00     0.135 A 
ATOM     80  C   UNL A   1      36.640  34.188  29.821  1.00  0.00     0.135 A 
ATOM     81  F   UNL A   1      34.798  32.425  32.413  1.00  0.00    -0.206 F 
ATOM     82  C   UNL A   1      34.032  33.909  30.763  1.00  0.00     0.059 A 
ATOM     83  C   UNL A   1      35.614  34.898  29.208  1.00  0.00     0.059 A 
ATOM     84  F   UNL A   1      37.890  34.348  29.359  1.00  0.00    -0.206 F 
ATOM     85  C   UNL A   1      34.310  34.746  29.681  1.00  0.00     0.060 A 
BRANCH  85  86
ATOM     86  S   UNL A   1      32.956  35.679  28.934  1.00  0.00     0.124 S 
ATOM     87  O   UNL A   1      32.384  34.690  28.029  1.00  0.00    -0.237 OA
ATOM     88  O   UNL A   1      32.144  36.027  30.096  1.00  0.00    -0.237 OA
ATOM     89  O   UNL A   1      33.635  36.803  28.297  1.00  0.00    -0.744 OA
ENDBRANCH  85  86
ENDBRANCH  53  78
BRANCH  65  90
ATOM     90  C   UNL A   1      39.846  34.319  36.899  1.00  0.00     0.058 A 
ATOM     91  C   UNL A   1      40.544  35.531  36.783  1.00  0.00     0.135 A 
ATOM     92  C   UNL A   1      39.017  34.140  38.017  1.00  0.00     0.135 A 
ATOM     93  F   UNL A   1      41.357  35.745  35.736  1.00  0.00    -0.206 F 
ATOM     94  C   UNL A   1      40.435  36.525  37.750  1.00  0.00     0.059 A 
ATOM     95  C   UNL A   1      38.876  35.130  38.985  1.00  0.00     0.059 A 
ATOM     96  F   UNL A   1      38.321  33.003  38.169  1.00  0.00    -0.206 F 
ATOM     97  C   UNL A   1      39.597  36.315  38.847  1.00  0.00     0.060 A 
BRANCH  97  98
ATOM     98  S   UNL A   1      39.432  37.627  40.076  1.00  0.00     0.124 S 
ATOM     99  O   UNL A   1      40.719  38.304  39.958  1.00  0.00    -0.237 OA
ATOM    100  O   UNL A   1      38.276  38.374  39.588  1.00  0.00    -0.237 OA
ATOM    101  O   UNL A   1      39.218  36.898  41.323  1.00  0.00    -0.744 OA
ENDBRANCH  97  98
ENDBRANCH  65  90
ENDBRANCH  39  40
ENDBRANCH  31  34
ENDBRANCH  29  30
ENDBRANCH  28  29
ENDBRANCH   1  28
TORSDOF 17
ENDMDL
