MODEL 1
REMARK VINA RESULT:     -11.8      0.000      0.000
REMARK SMILES COc1ccc(C(=O)Nc2cc(C(=O)NCCCCNC(=O)c3ccc(-c4c5nc(c(-c6c(F)cc(S(=O)(=O)[O-])cc6F)c6ccc([nH]6)c(-c6c(F)cc(S(=O)(=O)[O-])cc6F)c6nc(c(-c7c(F)cc(S(=O)(=O)[O-])cc7F)c7ccc4[nH]7)C=C6)C=C5)cc3)c(Cl)cc2Cl)cc1Cl
REMARK SMILES IDX 17 1 16 2 15 3 13 4 14 5 12 7 10 8 11 9 92 10 91 11 93 12
REMARK SMILES IDX 89 13 90 14 9 15 7 16 8 17 6 19 3 20 4 21 95 22 5 23 94 24
REMARK SMILES IDX 96 25 2 26 1 27 18 28 19 29 20 30 21 31 22 33 23 34 24 35
REMARK SMILES IDX 88 36 25 37 87 38 26 39 27 40 28 41 81 42 29 43 86 44 80 45
REMARK SMILES IDX 82 46 30 47 85 48 79 49 78 50 31 52 65 53 44 54 64 55 45 56
REMARK SMILES IDX 48 57 63 58 83 59 46 60 47 61 62 63 84 64 49 65 32 66 33 67
REMARK SMILES IDX 42 68 34 69 35 70 41 71 43 72 36 73 37 74 38 75 39 76 40 77
REMARK SMILES IDX 66 78 67 79 76 80 68 81 69 82 75 83 77 84 70 85 71 86 72 87
REMARK SMILES IDX 73 88 74 89 50 90 51 91 60 92 52 93 53 94 59 95 61 96 54 97
REMARK SMILES IDX 55 98 56 99 57 100 58 101
REMARK H PARENT 15 6 9 18 20 32 82 51 48 62
REMARK Flexibility Score: inf
ROOT
ATOM      1  C   UNL A   1      33.731  28.954  24.618  1.00  0.00     0.023 C 
ENDROOT
BRANCH   1   2
ATOM      2  C   UNL A   1      33.823  28.211  23.288  1.00  0.00     0.116 C 
BRANCH   2   3
ATOM      3  N   UNL A   1      32.641  28.312  22.449  1.00  0.00    -0.352 N 
ATOM      4  C   UNL A   1      31.434  27.656  22.523  1.00  0.00     0.252 C 
ATOM      5  O   UNL A   1      30.537  27.956  21.736  1.00  0.00    -0.269 OA
ATOM      6  H   UNL A   1      32.717  28.953  21.706  1.00  0.00     0.163 HD
BRANCH   4   7
ATOM      7  C   UNL A   1      31.199  26.510  23.435  1.00  0.00     0.060 A 
ATOM      8  C   UNL A   1      31.048  24.067  23.580  1.00  0.00     0.061 A 
ATOM      9  C   UNL A   1      31.205  25.235  22.825  1.00  0.00     0.043 A 
ATOM     10  C   UNL A   1      30.819  24.193  24.960  1.00  0.00     0.066 A 
ATOM     11  C   UNL A   1      30.748  25.449  25.563  1.00  0.00     0.044 A 
ATOM     12  Cl  UNL A   1      30.638  22.797  25.967  1.00  0.00    -0.082 Cl
ATOM     13  C   UNL A   1      30.901  26.610  24.797  1.00  0.00     0.055 A 
ATOM     14  Cl  UNL A   1      30.575  28.103  25.598  1.00  0.00    -0.083 Cl
BRANCH   8  15
ATOM     15  N   UNL A   1      31.068  22.769  23.022  1.00  0.00    -0.321 N 
ATOM     16  C   UNL A   1      32.059  21.841  22.803  1.00  0.00     0.255 C 
ATOM     17  O   UNL A   1      31.836  20.915  22.021  1.00  0.00    -0.269 OA
ATOM     18  H   UNL A   1      30.180  22.463  22.727  1.00  0.00     0.170 HD
BRANCH  16  19
ATOM     19  C   UNL A   1      33.339  21.835  23.556  1.00  0.00     0.041 A 
ATOM     20  C   UNL A   1      35.752  21.778  25.035  1.00  0.00     0.137 A 
ATOM     21  C   UNL A   1      34.626  21.040  25.440  1.00  0.00     0.049 A 
ATOM     22  C   UNL A   1      35.640  22.576  23.891  1.00  0.00     0.083 A 
ATOM     23  C   UNL A   1      33.436  21.056  24.709  1.00  0.00     0.018 A 
ATOM     24  C   UNL A   1      34.420  22.644  23.202  1.00  0.00     0.038 A 
ATOM     25  Cl  UNL A   1      36.916  23.491  23.165  1.00  0.00    -0.080 Cl
BRANCH  20  26
ATOM     26  O   UNL A   1      36.807  21.573  25.877  1.00  0.00    -0.495 OA
ATOM     27  C   UNL A   1      38.075  21.200  25.362  1.00  0.00     0.278 C 
ENDBRANCH  20  26
ENDBRANCH  16  19
ENDBRANCH   8  15
ENDBRANCH   4   7
ENDBRANCH   2   3
ENDBRANCH   1   2
BRANCH   1  28
ATOM     28  C   UNL A   1      34.217  28.213  25.864  1.00  0.00     0.023 C 
BRANCH  28  29
ATOM     29  C   UNL A   1      33.501  28.513  27.179  1.00  0.00     0.116 C 
BRANCH  29  30
ATOM     30  N   UNL A   1      33.543  29.912  27.579  1.00  0.00    -0.352 N 
ATOM     31  C   UNL A   1      34.592  30.646  28.090  1.00  0.00     0.251 C 
ATOM     32  H   UNL A   1      32.700  30.406  27.468  1.00  0.00     0.163 HD
ATOM     33  O   UNL A   1      34.418  31.819  28.412  1.00  0.00    -0.269 OA
BRANCH  31  34
ATOM     34  C   UNL A   1      35.912  30.010  28.301  1.00  0.00     0.039 A 
ATOM     35  C   UNL A   1      36.836  30.008  27.252  1.00  0.00     0.014 A 
ATOM     36  C   UNL A   1      36.258  29.462  29.538  1.00  0.00     0.014 A 
ATOM     37  C   UNL A   1      38.141  29.557  27.476  1.00  0.00     0.010 A 
ATOM     38  C   UNL A   1      37.576  29.084  29.779  1.00  0.00     0.010 A 
ATOM     39  C   UNL A   1      38.537  29.145  28.758  1.00  0.00    -0.014 A 
BRANCH  39  40
ATOM     40  C   UNL A   1      39.950  28.798  29.071  1.00  0.00     0.031 A 
ATOM     41  C   UNL A   1      40.871  29.839  29.644  1.00  0.00     0.074 A 
ATOM     42  C   UNL A   1      40.431  27.581  28.743  1.00  0.00     0.049 A 
ATOM     43  N   UNL A   1      42.164  29.786  29.835  1.00  0.00    -0.248 NA
ATOM     44  C   UNL A   1      40.261  31.125  30.019  1.00  0.00     0.031 C 
ATOM     45  C   UNL A   1      39.654  26.495  28.140  1.00  0.00     0.029 A 
ATOM     46  N   UNL A   1      41.698  27.059  28.847  1.00  0.00    -0.354 N 
ATOM     47  C   UNL A   1      42.527  31.036  30.324  1.00  0.00     0.074 A 
ATOM     48  C   UNL A   1      41.324  31.839  30.359  1.00  0.00     0.031 C 
ATOM     49  C   UNL A   1      40.456  25.436  27.939  1.00  0.00     0.029 A 
ATOM     50  C   UNL A   1      41.812  25.777  28.358  1.00  0.00     0.049 A 
ATOM     51  H   UNL A   1      42.454  27.556  29.237  1.00  0.00     0.167 HD
ATOM     52  C   UNL A   1      43.747  31.468  30.723  1.00  0.00     0.037 A 
ATOM     53  C   UNL A   1      42.888  24.974  28.245  1.00  0.00     0.037 A 
ATOM     54  C   UNL A   1      44.934  30.653  30.721  1.00  0.00     0.049 A 
ATOM     55  C   UNL A   1      44.230  25.470  28.712  1.00  0.00     0.074 A 
ATOM     56  C   UNL A   1      46.204  30.983  31.160  1.00  0.00     0.029 A 
ATOM     57  N   UNL A   1      44.995  29.345  30.265  1.00  0.00    -0.354 N 
ATOM     58  N   UNL A   1      44.545  26.641  29.213  1.00  0.00    -0.248 NA
ATOM     59  C   UNL A   1      45.360  24.538  28.605  1.00  0.00     0.031 C 
ATOM     60  C   UNL A   1      47.042  29.883  30.940  1.00  0.00     0.029 A 
ATOM     61  C   UNL A   1      46.283  28.855  30.404  1.00  0.00     0.049 A 
ATOM     62  H   UNL A   1      44.235  28.838  29.897  1.00  0.00     0.167 HD
ATOM     63  C   UNL A   1      45.902  26.574  29.510  1.00  0.00     0.074 A 
ATOM     64  C   UNL A   1      46.347  25.246  29.136  1.00  0.00     0.031 C 
ATOM     65  C   UNL A   1      46.706  27.524  30.046  1.00  0.00     0.037 A 
BRANCH  52  66
ATOM     66  C   UNL A   1      43.856  32.891  31.201  1.00  0.00     0.058 A 
ATOM     67  C   UNL A   1      44.151  33.942  30.319  1.00  0.00     0.135 A 
ATOM     68  C   UNL A   1      43.642  33.210  32.551  1.00  0.00     0.135 A 
ATOM     69  F   UNL A   1      44.380  33.691  29.019  1.00  0.00    -0.206 F 
ATOM     70  C   UNL A   1      44.265  35.255  30.763  1.00  0.00     0.059 A 
ATOM     71  C   UNL A   1      43.723  34.520  33.014  1.00  0.00     0.059 A 
ATOM     72  F   UNL A   1      43.355  32.243  33.437  1.00  0.00    -0.206 F 
ATOM     73  C   UNL A   1      44.052  35.533  32.115  1.00  0.00     0.060 A 
BRANCH  73  74
ATOM     74  S   UNL A   1      44.208  37.241  32.678  1.00  0.00     0.124 S 
ATOM     75  O   UNL A   1      43.962  37.977  31.441  1.00  0.00    -0.237 OA
ATOM     76  O   UNL A   1      43.161  37.336  33.690  1.00  0.00    -0.237 OA
ATOM     77  O   UNL A   1      45.575  37.308  33.186  1.00  0.00    -0.744 OA
ENDBRANCH  73  74
ENDBRANCH  52  66
BRANCH  53  78
ATOM     78  C   UNL A   1      42.737  23.605  27.682  1.00  0.00     0.058 A 
ATOM     79  C   UNL A   1      42.874  23.376  26.306  1.00  0.00     0.135 A 
ATOM     80  C   UNL A   1      42.469  22.501  28.505  1.00  0.00     0.135 A 
ATOM     81  F   UNL A   1      43.125  24.401  25.477  1.00  0.00    -0.206 F 
ATOM     82  C   UNL A   1      42.736  22.103  25.760  1.00  0.00     0.059 A 
ATOM     83  C   UNL A   1      42.349  21.214  27.987  1.00  0.00     0.059 A 
ATOM     84  F   UNL A   1      42.345  22.664  29.832  1.00  0.00    -0.206 F 
ATOM     85  C   UNL A   1      42.475  21.028  26.610  1.00  0.00     0.060 A 
BRANCH  85  86
ATOM     86  S   UNL A   1      42.350  19.372  25.900  1.00  0.00     0.124 S 
ATOM     87  O   UNL A   1      40.912  19.247  25.697  1.00  0.00    -0.237 OA
ATOM     88  O   UNL A   1      43.158  19.494  24.691  1.00  0.00    -0.237 OA
ATOM     89  O   UNL A   1      42.919  18.518  26.940  1.00  0.00    -0.744 OA
ENDBRANCH  85  86
ENDBRANCH  53  78
BRANCH  65  90
ATOM     90  C   UNL A   1      48.138  27.155  30.311  1.00  0.00     0.058 A 
ATOM     91  C   UNL A   1      49.156  27.434  29.388  1.00  0.00     0.135 A 
ATOM     92  C   UNL A   1      48.503  26.577  31.538  1.00  0.00     0.135 A 
ATOM     93  F   UNL A   1      48.858  27.980  28.198  1.00  0.00    -0.206 F 
ATOM     94  C   UNL A   1      50.487  27.138  29.665  1.00  0.00     0.059 A 
ATOM     95  C   UNL A   1      49.830  26.294  31.846  1.00  0.00     0.059 A 
ATOM     96  F   UNL A   1      47.567  26.299  32.459  1.00  0.00    -0.206 F 
ATOM     97  C   UNL A   1      50.814  26.570  30.898  1.00  0.00     0.060 A 
BRANCH  97  98
ATOM     98  S   UNL A   1      52.550  26.235  31.267  1.00  0.00     0.124 S 
ATOM     99  O   UNL A   1      52.467  24.924  31.901  1.00  0.00    -0.237 OA
ATOM    100  O   UNL A   1      53.162  26.262  29.942  1.00  0.00    -0.237 OA
ATOM    101  O   UNL A   1      52.929  27.336  32.147  1.00  0.00    -0.744 OA
ENDBRANCH  97  98
ENDBRANCH  65  90
ENDBRANCH  39  40
ENDBRANCH  31  34
ENDBRANCH  29  30
ENDBRANCH  28  29
ENDBRANCH   1  28
TORSDOF 17
ENDMDL
MODEL 2
REMARK VINA RESULT:     -11.7      2.688      4.412
REMARK SMILES COc1ccc(C(=O)Nc2cc(C(=O)NCCCCNC(=O)c3ccc(-c4c5nc(c(-c6c(F)cc(S(=O)(=O)[O-])cc6F)c6ccc([nH]6)c(-c6c(F)cc(S(=O)(=O)[O-])cc6F)c6nc(c(-c7c(F)cc(S(=O)(=O)[O-])cc7F)c7ccc4[nH]7)C=C6)C=C5)cc3)c(Cl)cc2Cl)cc1Cl
REMARK SMILES IDX 17 1 16 2 15 3 13 4 14 5 12 7 10 8 11 9 92 10 91 11 93 12
REMARK SMILES IDX 89 13 90 14 9 15 7 16 8 17 6 19 3 20 4 21 95 22 5 23 94 24
REMARK SMILES IDX 96 25 2 26 1 27 18 28 19 29 20 30 21 31 22 33 23 34 24 35
REMARK SMILES IDX 88 36 25 37 87 38 26 39 27 40 28 41 81 42 29 43 86 44 80 45
REMARK SMILES IDX 82 46 30 47 85 48 79 49 78 50 31 52 65 53 44 54 64 55 45 56
REMARK SMILES IDX 48 57 63 58 83 59 46 60 47 61 62 63 84 64 49 65 32 66 33 67
REMARK SMILES IDX 42 68 34 69 35 70 41 71 43 72 36 73 37 74 38 75 39 76 40 77
REMARK SMILES IDX 66 78 67 79 76 80 68 81 69 82 75 83 77 84 70 85 71 86 72 87
REMARK SMILES IDX 73 88 74 89 50 90 51 91 60 92 52 93 53 94 59 95 61 96 54 97
REMARK SMILES IDX 55 98 56 99 57 100 58 101
REMARK H PARENT 15 6 9 18 20 32 82 51 48 62
REMARK Flexibility Score: inf
ROOT
ATOM      1  C   UNL A   1      32.592  27.968  27.510  1.00  0.00     0.023 C 
ENDROOT
BRANCH   1   2
ATOM      2  C   UNL A   1      32.013  27.083  26.410  1.00  0.00     0.116 C 
BRANCH   2   3
ATOM      3  N   UNL A   1      31.337  25.885  26.880  1.00  0.00    -0.352 N 
ATOM      4  C   UNL A   1      31.689  24.560  26.770  1.00  0.00     0.252 C 
ATOM      5  O   UNL A   1      30.992  23.706  27.315  1.00  0.00    -0.269 OA
ATOM      6  H   UNL A   1      30.490  26.049  27.354  1.00  0.00     0.163 HD
BRANCH   4   7
ATOM      7  C   UNL A   1      32.811  24.096  25.918  1.00  0.00     0.060 A 
ATOM      8  C   UNL A   1      33.816  24.231  23.685  1.00  0.00     0.061 A 
ATOM      9  C   UNL A   1      32.789  24.551  24.580  1.00  0.00     0.043 A 
ATOM     10  C   UNL A   1      34.847  23.387  24.131  1.00  0.00     0.066 A 
ATOM     11  C   UNL A   1      34.847  22.880  25.432  1.00  0.00     0.044 A 
ATOM     12  Cl  UNL A   1      36.166  22.962  23.094  1.00  0.00    -0.082 Cl
ATOM     13  C   UNL A   1      33.811  23.203  26.315  1.00  0.00     0.055 A 
ATOM     14  Cl  UNL A   1      33.791  22.351  27.815  1.00  0.00    -0.083 Cl
BRANCH   8  15
ATOM     15  N   UNL A   1      33.852  24.677  22.346  1.00  0.00    -0.321 N 
ATOM     16  C   UNL A   1      33.106  25.577  21.621  1.00  0.00     0.255 C 
ATOM     17  O   UNL A   1      33.170  25.539  20.391  1.00  0.00    -0.269 OA
ATOM     18  H   UNL A   1      34.566  24.252  21.817  1.00  0.00     0.170 HD
BRANCH  16  19
ATOM     19  C   UNL A   1      32.323  26.669  22.253  1.00  0.00     0.041 A 
ATOM     20  C   UNL A   1      30.885  28.792  23.452  1.00  0.00     0.137 A 
ATOM     21  C   UNL A   1      32.238  28.932  23.098  1.00  0.00     0.049 A 
ATOM     22  C   UNL A   1      30.268  27.555  23.228  1.00  0.00     0.083 A 
ATOM     23  C   UNL A   1      32.950  27.891  22.495  1.00  0.00     0.018 A 
ATOM     24  C   UNL A   1      31.009  26.492  22.691  1.00  0.00     0.038 A 
ATOM     25  Cl  UNL A   1      28.601  27.189  23.503  1.00  0.00    -0.080 Cl
BRANCH  20  26
ATOM     26  O   UNL A   1      30.390  29.949  23.982  1.00  0.00    -0.495 OA
ATOM     27  C   UNL A   1      29.240  30.561  23.422  1.00  0.00     0.278 C 
ENDBRANCH  20  26
ENDBRANCH  16  19
ENDBRANCH   8  15
ENDBRANCH   4   7
ENDBRANCH   2   3
ENDBRANCH   1   2
BRANCH   1  28
ATOM     28  C   UNL A   1      33.399  29.189  27.067  1.00  0.00     0.023 C 
BRANCH  28  29
ATOM     29  C   UNL A   1      34.821  29.320  27.607  1.00  0.00     0.116 C 
BRANCH  29  30
ATOM     30  N   UNL A   1      34.970  30.300  28.674  1.00  0.00    -0.352 N 
ATOM     31  C   UNL A   1      36.089  30.633  29.406  1.00  0.00     0.251 C 
ATOM     32  H   UNL A   1      34.153  30.797  28.905  1.00  0.00     0.163 HD
ATOM     33  O   UNL A   1      36.004  31.467  30.306  1.00  0.00    -0.269 OA
BRANCH  31  34
ATOM     34  C   UNL A   1      37.378  29.953  29.148  1.00  0.00     0.039 A 
ATOM     35  C   UNL A   1      37.835  29.848  27.831  1.00  0.00     0.014 A 
ATOM     36  C   UNL A   1      38.156  29.463  30.199  1.00  0.00     0.014 A 
ATOM     37  C   UNL A   1      39.118  29.353  27.578  1.00  0.00     0.010 A 
ATOM     38  C   UNL A   1      39.460  29.041  29.952  1.00  0.00     0.010 A 
ATOM     39  C   UNL A   1      39.963  29.000  28.641  1.00  0.00    -0.014 A 
BRANCH  39  40
ATOM     40  C   UNL A   1      41.382  28.609  28.422  1.00  0.00     0.031 A 
ATOM     41  C   UNL A   1      42.458  29.659  28.412  1.00  0.00     0.074 A 
ATOM     42  C   UNL A   1      41.688  27.328  28.128  1.00  0.00     0.049 A 
ATOM     43  N   UNL A   1      43.720  29.549  28.084  1.00  0.00    -0.248 NA
ATOM     44  C   UNL A   1      42.053  31.023  28.789  1.00  0.00     0.031 C 
ATOM     45  C   UNL A   1      40.732  26.221  28.060  1.00  0.00     0.029 A 
ATOM     46  N   UNL A   1      42.890  26.745  27.805  1.00  0.00    -0.354 N 
ATOM     47  C   UNL A   1      44.252  30.829  28.185  1.00  0.00     0.074 A 
ATOM     48  C   UNL A   1      43.166  31.707  28.564  1.00  0.00     0.031 C 
ATOM     49  C   UNL A   1      41.383  25.094  27.730  1.00  0.00     0.029 A 
ATOM     50  C   UNL A   1      42.794  25.402  27.520  1.00  0.00     0.049 A 
ATOM     51  H   UNL A   1      43.739  27.241  27.781  1.00  0.00     0.167 HD
ATOM     52  C   UNL A   1      45.530  31.234  27.996  1.00  0.00     0.037 A 
ATOM     53  C   UNL A   1      43.733  24.521  27.119  1.00  0.00     0.037 A 
ATOM     54  C   UNL A   1      46.615  30.350  27.655  1.00  0.00     0.049 A 
ATOM     55  C   UNL A   1      45.151  24.989  26.935  1.00  0.00     0.074 A 
ATOM     56  C   UNL A   1      47.956  30.655  27.499  1.00  0.00     0.029 A 
ATOM     57  N   UNL A   1      46.485  28.989  27.425  1.00  0.00    -0.354 N 
ATOM     58  N   UNL A   1      45.644  26.197  27.078  1.00  0.00    -0.248 NA
ATOM     59  C   UNL A   1      46.141  23.979  26.539  1.00  0.00     0.031 C 
ATOM     60  C   UNL A   1      48.633  29.483  27.144  1.00  0.00     0.029 A 
ATOM     61  C   UNL A   1      47.720  28.440  27.120  1.00  0.00     0.049 A 
ATOM     62  H   UNL A   1      45.640  28.485  27.472  1.00  0.00     0.167 HD
ATOM     63  C   UNL A   1      47.006  26.084  26.822  1.00  0.00     0.074 A 
ATOM     64  C   UNL A   1      47.260  24.690  26.518  1.00  0.00     0.031 C 
ATOM     65  C   UNL A   1      47.960  27.046  26.840  1.00  0.00     0.037 A 
BRANCH  52  66
ATOM     66  C   UNL A   1      45.826  32.699  28.161  1.00  0.00     0.058 A 
ATOM     67  C   UNL A   1      45.725  33.595  27.085  1.00  0.00     0.135 A 
ATOM     68  C   UNL A   1      46.192  33.219  29.413  1.00  0.00     0.135 A 
ATOM     69  F   UNL A   1      45.392  33.149  25.862  1.00  0.00    -0.206 F 
ATOM     70  C   UNL A   1      46.010  34.948  27.234  1.00  0.00     0.059 A 
ATOM     71  C   UNL A   1      46.456  34.573  29.592  1.00  0.00     0.059 A 
ATOM     72  F   UNL A   1      46.303  32.407  30.476  1.00  0.00    -0.206 F 
ATOM     73  C   UNL A   1      46.379  35.427  28.493  1.00  0.00     0.060 A 
BRANCH  73  74
ATOM     74  S   UNL A   1      46.752  37.184  28.670  1.00  0.00     0.124 S 
ATOM     75  O   UNL A   1      48.205  37.188  28.532  1.00  0.00    -0.237 OA
ATOM     76  O   UNL A   1      46.009  37.777  27.563  1.00  0.00    -0.237 OA
ATOM     77  O   UNL A   1      46.247  37.505  30.002  1.00  0.00    -0.744 OA
ENDBRANCH  73  74
ENDBRANCH  52  66
BRANCH  53  78
ATOM     78  C   UNL A   1      43.366  23.098  26.887  1.00  0.00     0.058 A 
ATOM     79  C   UNL A   1      43.374  22.558  25.593  1.00  0.00     0.135 A 
ATOM     80  C   UNL A   1      43.015  22.249  27.947  1.00  0.00     0.135 A 
ATOM     81  F   UNL A   1      43.697  23.332  24.545  1.00  0.00    -0.206 F 
ATOM     82  C   UNL A   1      43.033  21.230  25.353  1.00  0.00     0.059 A 
ATOM     83  C   UNL A   1      42.692  20.912  27.737  1.00  0.00     0.059 A 
ATOM     84  F   UNL A   1      43.008  22.713  29.206  1.00  0.00    -0.206 F 
ATOM     85  C   UNL A   1      42.695  20.414  26.433  1.00  0.00     0.060 A 
BRANCH  85  86
ATOM     86  S   UNL A   1      42.306  18.678  26.120  1.00  0.00     0.124 S 
ATOM     87  O   UNL A   1      42.658  18.064  27.395  1.00  0.00    -0.237 OA
ATOM     88  O   UNL A   1      40.881  18.734  25.810  1.00  0.00    -0.237 OA
ATOM     89  O   UNL A   1      43.171  18.339  24.993  1.00  0.00    -0.744 OA
ENDBRANCH  85  86
ENDBRANCH  53  78
BRANCH  65  90
ATOM     90  C   UNL A   1      49.377  26.626  26.573  1.00  0.00     0.058 A 
ATOM     91  C   UNL A   1      50.197  26.105  27.585  1.00  0.00     0.135 A 
ATOM     92  C   UNL A   1      49.898  26.683  25.270  1.00  0.00     0.135 A 
ATOM     93  F   UNL A   1      49.749  26.036  28.849  1.00  0.00    -0.206 F 
ATOM     94  C   UNL A   1      51.491  25.669  27.318  1.00  0.00     0.059 A 
ATOM     95  C   UNL A   1      51.180  26.231  24.975  1.00  0.00     0.059 A 
ATOM     96  F   UNL A   1      49.150  27.165  24.264  1.00  0.00    -0.206 F 
ATOM     97  C   UNL A   1      51.972  25.733  26.008  1.00  0.00     0.060 A 
BRANCH  97  98
ATOM     98  S   UNL A   1      53.635  25.119  25.663  1.00  0.00     0.124 S 
ATOM     99  O   UNL A   1      54.319  25.402  26.920  1.00  0.00    -0.237 OA
ATOM    100  O   UNL A   1      53.394  23.707  25.377  1.00  0.00    -0.237 OA
ATOM    101  O   UNL A   1      54.062  25.919  24.520  1.00  0.00    -0.744 OA
ENDBRANCH  97  98
ENDBRANCH  65  90
ENDBRANCH  39  40
ENDBRANCH  31  34
ENDBRANCH  29  30
ENDBRANCH  28  29
ENDBRANCH   1  28
TORSDOF 17
ENDMDL
MODEL 3
REMARK VINA RESULT:     -11.6      2.615      3.404
REMARK SMILES COc1ccc(C(=O)Nc2cc(C(=O)NCCCCNC(=O)c3ccc(-c4c5nc(c(-c6c(F)cc(S(=O)(=O)[O-])cc6F)c6ccc([nH]6)c(-c6c(F)cc(S(=O)(=O)[O-])cc6F)c6nc(c(-c7c(F)cc(S(=O)(=O)[O-])cc7F)c7ccc4[nH]7)C=C6)C=C5)cc3)c(Cl)cc2Cl)cc1Cl
REMARK SMILES IDX 17 1 16 2 15 3 13 4 14 5 12 7 10 8 11 9 92 10 91 11 93 12
REMARK SMILES IDX 89 13 90 14 9 15 7 16 8 17 6 19 3 20 4 21 95 22 5 23 94 24
REMARK SMILES IDX 96 25 2 26 1 27 18 28 19 29 20 30 21 31 22 33 23 34 24 35
REMARK SMILES IDX 88 36 25 37 87 38 26 39 27 40 28 41 81 42 29 43 86 44 80 45
REMARK SMILES IDX 82 46 30 47 85 48 79 49 78 50 31 52 65 53 44 54 64 55 45 56
REMARK SMILES IDX 48 57 63 58 83 59 46 60 47 61 62 63 84 64 49 65 32 66 33 67
REMARK SMILES IDX 42 68 34 69 35 70 41 71 43 72 36 73 37 74 38 75 39 76 40 77
REMARK SMILES IDX 66 78 67 79 76 80 68 81 69 82 75 83 77 84 70 85 71 86 72 87
REMARK SMILES IDX 73 88 74 89 50 90 51 91 60 92 52 93 53 94 59 95 61 96 54 97
REMARK SMILES IDX 55 98 56 99 57 100 58 101
REMARK H PARENT 15 6 9 18 20 32 82 51 48 62
REMARK Flexibility Score: inf
ROOT
ATOM      1  C   UNL A   1      33.330  28.220  26.057  1.00  0.00     0.023 C 
ENDROOT
BRANCH   1   2
ATOM      2  C   UNL A   1      32.866  26.831  26.487  1.00  0.00     0.116 C 
BRANCH   2   3
ATOM      3  N   UNL A   1      31.429  26.686  26.640  1.00  0.00    -0.352 N 
ATOM      4  C   UNL A   1      30.572  25.724  26.158  1.00  0.00     0.252 C 
ATOM      5  O   UNL A   1      29.384  25.762  26.477  1.00  0.00    -0.269 OA
ATOM      6  H   UNL A   1      30.997  27.392  27.175  1.00  0.00     0.163 HD
BRANCH   4   7
ATOM      7  C   UNL A   1      30.989  24.703  25.167  1.00  0.00     0.060 A 
ATOM      8  C   UNL A   1      31.573  22.342  24.851  1.00  0.00     0.061 A 
ATOM      9  C   UNL A   1      31.227  23.410  25.686  1.00  0.00     0.043 A 
ATOM     10  C   UNL A   1      31.743  22.599  23.480  1.00  0.00     0.066 A 
ATOM     11  C   UNL A   1      31.573  23.885  22.965  1.00  0.00     0.044 A 
ATOM     12  Cl  UNL A   1      32.149  21.328  22.377  1.00  0.00    -0.082 Cl
ATOM     13  C   UNL A   1      31.232  24.945  23.812  1.00  0.00     0.055 A 
ATOM     14  Cl  UNL A   1      31.265  26.522  23.113  1.00  0.00    -0.083 Cl
BRANCH   8  15
ATOM     15  N   UNL A   1      31.799  21.028  25.317  1.00  0.00    -0.321 N 
ATOM     16  C   UNL A   1      32.920  20.242  25.444  1.00  0.00     0.255 C 
ATOM     17  O   UNL A   1      32.774  19.028  25.597  1.00  0.00    -0.269 OA
ATOM     18  H   UNL A   1      30.976  20.579  25.616  1.00  0.00     0.170 HD
BRANCH  16  19
ATOM     19  C   UNL A   1      34.293  20.803  25.528  1.00  0.00     0.041 A 
ATOM     20  C   UNL A   1      36.884  21.927  25.719  1.00  0.00     0.137 A 
ATOM     21  C   UNL A   1      35.747  22.628  26.158  1.00  0.00     0.049 A 
ATOM     22  C   UNL A   1      36.700  20.663  25.148  1.00  0.00     0.083 A 
ATOM     23  C   UNL A   1      34.467  22.073  26.076  1.00  0.00     0.018 A 
ATOM     24  C   UNL A   1      35.406  20.143  25.002  1.00  0.00     0.038 A 
ATOM     25  Cl  UNL A   1      37.955  19.594  24.625  1.00  0.00    -0.080 Cl
BRANCH  20  26
ATOM     26  O   UNL A   1      38.024  22.646  25.938  1.00  0.00    -0.495 OA
ATOM     27  C   UNL A   1      37.963  24.051  26.125  1.00  0.00     0.278 C 
ENDBRANCH  20  26
ENDBRANCH  16  19
ENDBRANCH   8  15
ENDBRANCH   4   7
ENDBRANCH   2   3
ENDBRANCH   1   2
BRANCH   1  28
ATOM     28  C   UNL A   1      33.554  29.252  27.163  1.00  0.00     0.023 C 
BRANCH  28  29
ATOM     29  C   UNL A   1      34.991  29.477  27.628  1.00  0.00     0.116 C 
BRANCH  29  30
ATOM     30  N   UNL A   1      35.123  30.412  28.737  1.00  0.00    -0.352 N 
ATOM     31  C   UNL A   1      36.225  30.699  29.513  1.00  0.00     0.251 C 
ATOM     32  H   UNL A   1      34.307  30.912  28.964  1.00  0.00     0.163 HD
ATOM     33  O   UNL A   1      36.127  31.498  30.442  1.00  0.00    -0.269 OA
BRANCH  31  34
ATOM     34  C   UNL A   1      37.511  30.009  29.264  1.00  0.00     0.039 A 
ATOM     35  C   UNL A   1      37.952  29.857  27.946  1.00  0.00     0.014 A 
ATOM     36  C   UNL A   1      38.302  29.557  30.323  1.00  0.00     0.014 A 
ATOM     37  C   UNL A   1      39.232  29.352  27.696  1.00  0.00     0.010 A 
ATOM     38  C   UNL A   1      39.602  29.126  30.075  1.00  0.00     0.010 A 
ATOM     39  C   UNL A   1      40.090  29.037  28.761  1.00  0.00    -0.014 A 
BRANCH  39  40
ATOM     40  C   UNL A   1      41.506  28.638  28.540  1.00  0.00     0.031 A 
ATOM     41  C   UNL A   1      42.591  29.679  28.546  1.00  0.00     0.074 A 
ATOM     42  C   UNL A   1      41.803  27.359  28.228  1.00  0.00     0.049 A 
ATOM     43  N   UNL A   1      43.852  29.563  28.219  1.00  0.00    -0.248 NA
ATOM     44  C   UNL A   1      42.196  31.041  28.941  1.00  0.00     0.031 C 
ATOM     45  C   UNL A   1      40.838  26.260  28.143  1.00  0.00     0.029 A 
ATOM     46  N   UNL A   1      43.000  26.770  27.899  1.00  0.00    -0.354 N 
ATOM     47  C   UNL A   1      44.394  30.838  28.338  1.00  0.00     0.074 A 
ATOM     48  C   UNL A   1      43.314  31.719  28.728  1.00  0.00     0.031 C 
ATOM     49  C   UNL A   1      41.480  25.132  27.799  1.00  0.00     0.029 A 
ATOM     50  C   UNL A   1      42.895  25.432  27.596  1.00  0.00     0.049 A 
ATOM     51  H   UNL A   1      43.854  27.260  27.884  1.00  0.00     0.167 HD
ATOM     52  C   UNL A   1      45.676  31.234  28.158  1.00  0.00     0.037 A 
ATOM     53  C   UNL A   1      43.827  24.549  27.185  1.00  0.00     0.037 A 
ATOM     54  C   UNL A   1      46.755  30.347  27.807  1.00  0.00     0.049 A 
ATOM     55  C   UNL A   1      45.249  25.009  27.010  1.00  0.00     0.074 A 
ATOM     56  C   UNL A   1      48.098  30.643  27.657  1.00  0.00     0.029 A 
ATOM     57  N   UNL A   1      46.614  28.990  27.558  1.00  0.00    -0.354 N 
ATOM     58  N   UNL A   1      45.752  26.211  27.171  1.00  0.00    -0.248 NA
ATOM     59  C   UNL A   1      46.232  23.996  26.602  1.00  0.00     0.031 C 
ATOM     60  C   UNL A   1      48.766  29.470  27.287  1.00  0.00     0.029 A 
ATOM     61  C   UNL A   1      47.845  28.435  27.248  1.00  0.00     0.049 A 
ATOM     62  H   UNL A   1      45.765  28.493  27.596  1.00  0.00     0.167 HD
ATOM     63  C   UNL A   1      47.113  26.090  26.916  1.00  0.00     0.074 A 
ATOM     64  C   UNL A   1      47.357  24.698  26.593  1.00  0.00     0.031 C 
ATOM     65  C   UNL A   1      48.075  27.044  26.949  1.00  0.00     0.037 A 
BRANCH  52  66
ATOM     66  C   UNL A   1      45.984  32.695  28.343  1.00  0.00     0.058 A 
ATOM     67  C   UNL A   1      46.350  33.217  29.594  1.00  0.00     0.135 A 
ATOM     68  C   UNL A   1      45.934  33.580  27.254  1.00  0.00     0.135 A 
ATOM     69  F   UNL A   1      46.399  32.417  30.672  1.00  0.00    -0.206 F 
ATOM     70  C   UNL A   1      46.622  34.569  29.768  1.00  0.00     0.059 A 
ATOM     71  C   UNL A   1      46.229  34.933  27.398  1.00  0.00     0.059 A 
ATOM     72  F   UNL A   1      45.591  33.135  26.035  1.00  0.00    -0.206 F 
ATOM     73  C   UNL A   1      46.555  35.421  28.663  1.00  0.00     0.060 A 
BRANCH  73  74
ATOM     74  S   UNL A   1      46.906  37.175  28.905  1.00  0.00     0.124 S 
ATOM     75  O   UNL A   1      46.066  37.783  27.877  1.00  0.00    -0.237 OA
ATOM     76  O   UNL A   1      46.480  37.394  30.283  1.00  0.00    -0.237 OA
ATOM     77  O   UNL A   1      48.345  37.268  28.674  1.00  0.00    -0.744 OA
ENDBRANCH  73  74
ENDBRANCH  52  66
BRANCH  53  78
ATOM     78  C   UNL A   1      43.449  23.133  26.932  1.00  0.00     0.058 A 
ATOM     79  C   UNL A   1      43.396  22.628  25.625  1.00  0.00     0.135 A 
ATOM     80  C   UNL A   1      43.149  22.256  27.985  1.00  0.00     0.135 A 
ATOM     81  F   UNL A   1      43.669  23.429  24.585  1.00  0.00    -0.206 F 
ATOM     82  C   UNL A   1      43.044  21.306  25.367  1.00  0.00     0.059 A 
ATOM     83  C   UNL A   1      42.816  20.924  27.755  1.00  0.00     0.059 A 
ATOM     84  F   UNL A   1      43.201  22.686  29.255  1.00  0.00    -0.206 F 
ATOM     85  C   UNL A   1      42.757  20.461  26.440  1.00  0.00     0.060 A 
BRANCH  85  86
ATOM     86  S   UNL A   1      42.353  18.734  26.099  1.00  0.00     0.124 S 
ATOM     87  O   UNL A   1      43.263  18.430  25.002  1.00  0.00    -0.237 OA
ATOM     88  O   UNL A   1      42.653  18.091  27.375  1.00  0.00    -0.237 OA
ATOM     89  O   UNL A   1      40.935  18.784  25.751  1.00  0.00    -0.744 OA
ENDBRANCH  85  86
ENDBRANCH  53  78
BRANCH  65  90
ATOM     90  C   UNL A   1      49.489  26.616  26.679  1.00  0.00     0.058 A 
ATOM     91  C   UNL A   1      50.366  26.265  27.716  1.00  0.00     0.135 A 
ATOM     92  C   UNL A   1      49.950  26.491  25.359  1.00  0.00     0.135 A 
ATOM     93  F   UNL A   1      49.976  26.375  28.997  1.00  0.00    -0.206 F 
ATOM     94  C   UNL A   1      51.657  25.819  27.454  1.00  0.00     0.059 A 
ATOM     95  C   UNL A   1      51.229  26.024  25.072  1.00  0.00     0.059 A 
ATOM     96  F   UNL A   1      49.146  26.805  24.330  1.00  0.00    -0.206 F 
ATOM     97  C   UNL A   1      52.079  25.699  26.128  1.00  0.00     0.060 A 
BRANCH  97  98
ATOM     98  S   UNL A   1      53.739  25.073  25.797  1.00  0.00     0.124 S 
ATOM     99  O   UNL A   1      53.459  23.704  25.376  1.00  0.00    -0.237 OA
ATOM    100  O   UNL A   1      54.212  25.974  24.750  1.00  0.00    -0.237 OA
ATOM    101  O   UNL A   1      54.416  25.208  27.083  1.00  0.00    -0.744 OA
ENDBRANCH  97  98
ENDBRANCH  65  90
ENDBRANCH  39  40
ENDBRANCH  31  34
ENDBRANCH  29  30
ENDBRANCH  28  29
ENDBRANCH   1  28
TORSDOF 17
ENDMDL
