MODEL 1
REMARK VINA RESULT:      -9.1      0.000      0.000
REMARK SMILES CC(C)(O)CC[NH2+]CC(=O)NCCCCNC(=O)c1ccc(-c2c3nc(c(-c4c(F)cc(S(=O)(=O)[O-])cc4F)c4ccc([nH]4)c(-c4c(F)cc(S(=O)(=O)[O-])cc4F)c4nc(c(-c5c(F)cc(S(=O)(=O)[O-])cc5F)c5ccc2[nH]5)C=C4)C=C3)cc1
REMARK SMILES IDX 12 1 11 2 9 3 10 4 8 6 7 7 6 10 5 11 2 12 1 13 3 14 4 15
REMARK SMILES IDX 13 17 14 18 15 19 16 20 17 21 18 23 19 24 20 25 84 26 21 27
REMARK SMILES IDX 83 28 22 29 23 30 24 31 77 32 25 33 82 34 76 35 78 36 26 37
REMARK SMILES IDX 81 38 75 39 74 40 27 42 61 43 40 44 60 45 41 46 44 47 59 48
REMARK SMILES IDX 79 49 42 50 43 51 58 53 80 54 45 55 28 56 29 57 38 58 30 59
REMARK SMILES IDX 31 60 37 61 39 62 32 63 33 64 34 65 35 66 36 67 62 68 63 69
REMARK SMILES IDX 72 70 64 71 65 72 71 73 73 74 66 75 67 76 68 77 69 78 70 79
REMARK SMILES IDX 46 80 47 81 56 82 48 83 49 84 55 85 57 86 50 87 51 88 52 89
REMARK SMILES IDX 53 90 54 91
REMARK H PARENT 11 5 7 8 7 9 4 16 16 22 78 41 44 52
REMARK Flexibility Score: inf
ROOT
ATOM      1  C   UNL A   1      33.512  35.646  29.054  1.00  0.00     0.116 C 
ENDROOT
BRANCH   1   2
ATOM      2  N   UNL A   1      32.624  36.175  30.077  1.00  0.00    -0.351 N 
ATOM      3  C   UNL A   1      32.683  36.063  31.440  1.00  0.00     0.275 C 
ATOM      4  O   UNL A   1      31.723  36.478  32.097  1.00  0.00    -0.269 OA
ATOM      5  H   UNL A   1      31.862  36.696  29.737  1.00  0.00     0.163 HD
BRANCH   3   6
ATOM      6  C   UNL A   1      33.896  35.427  32.146  1.00  0.00     0.361 C 
BRANCH   6   7
ATOM      7  N   UNL A   1      33.796  33.943  32.217  1.00  0.00    -0.338 N 
ATOM      8  H   UNL A   1      33.334  33.674  33.085  1.00  0.00     0.346 HD
ATOM      9  H   UNL A   1      33.254  33.602  31.423  1.00  0.00     0.346 HD
BRANCH   7  10
ATOM     10  C   UNL A   1      35.132  33.359  32.176  1.00  0.00     0.263 C 
BRANCH  10  11
ATOM     11  C   UNL A   1      36.316  34.225  31.740  1.00  0.00     0.096 C 
BRANCH  11  12
ATOM     12  C   UNL A   1      37.589  33.479  31.277  1.00  0.00     0.064 C 
ATOM     13  C   UNL A   1      37.614  33.266  29.765  1.00  0.00     0.042 C 
ATOM     14  C   UNL A   1      37.683  32.134  32.007  1.00  0.00     0.042 C 
BRANCH  12  15
ATOM     15  O   UNL A   1      38.750  34.225  31.649  1.00  0.00    -0.390 OA
ATOM     16  H   UNL A   1      39.532  33.840  31.223  1.00  0.00     0.211 HD
ENDBRANCH  12  15
ENDBRANCH  11  12
ENDBRANCH  10  11
ENDBRANCH   7  10
ENDBRANCH   6   7
ENDBRANCH   3   6
ENDBRANCH   1   2
BRANCH   1  17
ATOM     17  C   UNL A   1      33.094  34.238  28.606  1.00  0.00     0.023 C 
BRANCH  17  18
ATOM     18  C   UNL A   1      34.210  33.345  28.094  1.00  0.00     0.023 C 
BRANCH  18  19
ATOM     19  C   UNL A   1      34.482  32.129  28.953  1.00  0.00     0.116 C 
BRANCH  19  20
ATOM     20  N   UNL A   1      34.018  30.881  28.359  1.00  0.00    -0.352 N 
ATOM     21  C   UNL A   1      34.756  29.770  28.018  1.00  0.00     0.251 C 
ATOM     22  H   UNL A   1      33.051  30.825  28.179  1.00  0.00     0.163 HD
ATOM     23  O   UNL A   1      34.235  28.828  27.436  1.00  0.00    -0.269 OA
BRANCH  21  24
ATOM     24  C   UNL A   1      36.199  29.762  28.329  1.00  0.00     0.039 A 
ATOM     25  C   UNL A   1      36.621  29.328  29.587  1.00  0.00     0.014 A 
ATOM     26  C   UNL A   1      37.130  30.091  27.341  1.00  0.00     0.014 A 
ATOM     27  C   UNL A   1      37.983  29.145  29.825  1.00  0.00     0.010 A 
ATOM     28  C   UNL A   1      38.472  29.806  27.544  1.00  0.00     0.010 A 
ATOM     29  C   UNL A   1      38.913  29.339  28.791  1.00  0.00    -0.014 A 
BRANCH  29  30
ATOM     30  C   UNL A   1      40.362  29.091  28.988  1.00  0.00     0.031 A 
ATOM     31  C   UNL A   1      40.937  27.750  28.622  1.00  0.00     0.074 A 
ATOM     32  C   UNL A   1      41.133  30.031  29.570  1.00  0.00     0.049 A 
ATOM     33  N   UNL A   1      42.144  27.287  28.818  1.00  0.00    -0.248 NA
ATOM     34  C   UNL A   1      40.018  26.785  27.993  1.00  0.00     0.031 C 
ATOM     35  C   UNL A   1      40.672  31.342  30.032  1.00  0.00     0.029 A 
ATOM     36  N   UNL A   1      42.468  30.020  29.886  1.00  0.00    -0.354 N 
ATOM     37  C   UNL A   1      42.119  25.974  28.363  1.00  0.00     0.074 A 
ATOM     38  C   UNL A   1      40.766  25.694  27.940  1.00  0.00     0.031 C 
ATOM     39  C   UNL A   1      41.711  32.018  30.550  1.00  0.00     0.029 A 
ATOM     40  C   UNL A   1      42.902  31.178  30.486  1.00  0.00     0.049 A 
ATOM     41  H   UNL A   1      43.058  29.254  29.702  1.00  0.00     0.167 HD
ATOM     42  C   UNL A   1      43.142  25.090  28.273  1.00  0.00     0.037 A 
ATOM     43  C   UNL A   1      44.125  31.520  30.935  1.00  0.00     0.037 A 
ATOM     44  C   UNL A   1      44.495  25.395  28.648  1.00  0.00     0.049 A 
ATOM     45  C   UNL A   1      45.258  30.542  30.778  1.00  0.00     0.074 A 
ATOM     46  C   UNL A   1      45.620  24.598  28.538  1.00  0.00     0.029 A 
ATOM     47  N   UNL A   1      44.909  26.602  29.195  1.00  0.00    -0.354 N 
ATOM     48  N   UNL A   1      45.232  29.324  30.293  1.00  0.00    -0.248 NA
ATOM     49  C   UNL A   1      46.587  30.986  31.222  1.00  0.00     0.031 C 
ATOM     50  C   UNL A   1      46.711  25.315  29.041  1.00  0.00     0.029 A 
ATOM     51  C   UNL A   1      46.271  26.571  29.432  1.00  0.00     0.049 A 
ATOM     52  H   UNL A   1      44.319  27.367  29.385  1.00  0.00     0.167 HD
ATOM     53  C   UNL A   1      46.541  28.863  30.351  1.00  0.00     0.074 A 
ATOM     54  C   UNL A   1      47.337  29.938  30.908  1.00  0.00     0.031 C 
ATOM     55  C   UNL A   1      47.041  27.660  29.979  1.00  0.00     0.037 A 
BRANCH  42  56
ATOM     56  C   UNL A   1      42.827  23.725  27.730  1.00  0.00     0.058 A 
ATOM     57  C   UNL A   1      42.584  22.635  28.582  1.00  0.00     0.135 A 
ATOM     58  C   UNL A   1      42.767  23.501  26.346  1.00  0.00     0.135 A 
ATOM     59  F   UNL A   1      42.649  22.790  29.914  1.00  0.00    -0.206 F 
ATOM     60  C   UNL A   1      42.332  21.363  28.081  1.00  0.00     0.059 A 
ATOM     61  C   UNL A   1      42.487  22.242  25.823  1.00  0.00     0.059 A 
ATOM     62  F   UNL A   1      42.993  24.507  25.487  1.00  0.00    -0.206 F 
ATOM     63  C   UNL A   1      42.290  21.175  26.700  1.00  0.00     0.060 A 
BRANCH  63  64
ATOM     64  S   UNL A   1      41.970  19.517  26.063  1.00  0.00     0.124 S 
ATOM     65  O   UNL A   1      42.333  18.691  27.211  1.00  0.00    -0.237 OA
ATOM     66  O   UNL A   1      40.546  19.570  25.747  1.00  0.00    -0.237 OA
ATOM     67  O   UNL A   1      42.860  19.417  24.911  1.00  0.00    -0.744 OA
ENDBRANCH  63  64
ENDBRANCH  42  56
BRANCH  43  68
ATOM     68  C   UNL A   1      44.348  32.862  31.535  1.00  0.00     0.058 A 
ATOM     69  C   UNL A   1      44.694  33.960  30.734  1.00  0.00     0.135 A 
ATOM     70  C   UNL A   1      44.193  33.080  32.912  1.00  0.00     0.135 A 
ATOM     71  F   UNL A   1      44.857  33.800  29.411  1.00  0.00    -0.206 F 
ATOM     72  C   UNL A   1      44.893  35.225  31.277  1.00  0.00     0.059 A 
ATOM     73  C   UNL A   1      44.366  34.341  33.476  1.00  0.00     0.059 A 
ATOM     74  F   UNL A   1      43.843  32.066  33.719  1.00  0.00    -0.206 F 
ATOM     75  C   UNL A   1      44.724  35.406  32.651  1.00  0.00     0.060 A 
BRANCH  75  76
ATOM     76  S   UNL A   1      44.928  37.064  33.338  1.00  0.00     0.124 S 
ATOM     77  O   UNL A   1      45.526  37.776  32.215  1.00  0.00    -0.237 OA
ATOM     78  O   UNL A   1      43.555  37.431  33.671  1.00  0.00    -0.237 OA
ATOM     79  O   UNL A   1      45.803  36.844  34.486  1.00  0.00    -0.744 OA
ENDBRANCH  75  76
ENDBRANCH  43  68
BRANCH  55  80
ATOM     80  C   UNL A   1      48.520  27.451  30.134  1.00  0.00     0.058 A 
ATOM     81  C   UNL A   1      49.061  26.874  31.293  1.00  0.00     0.135 A 
ATOM     82  C   UNL A   1      49.397  27.776  29.087  1.00  0.00     0.135 A 
ATOM     83  F   UNL A   1      48.264  26.550  32.323  1.00  0.00    -0.206 F 
ATOM     84  C   UNL A   1      50.427  26.643  31.416  1.00  0.00     0.059 A 
ATOM     85  C   UNL A   1      50.763  27.532  29.179  1.00  0.00     0.059 A 
ATOM     86  F   UNL A   1      48.925  28.320  27.955  1.00  0.00    -0.206 F 
ATOM     87  C   UNL A   1      51.269  26.975  30.353  1.00  0.00     0.060 A 
BRANCH  87  88
ATOM     88  S   UNL A   1      53.035  26.633  30.508  1.00  0.00     0.124 S 
ATOM     89  O   UNL A   1      53.037  25.524  31.455  1.00  0.00    -0.237 OA
ATOM     90  O   UNL A   1      53.413  26.299  29.138  1.00  0.00    -0.237 OA
ATOM     91  O   UNL A   1      53.580  27.891  31.012  1.00  0.00    -0.744 OA
ENDBRANCH  87  88
ENDBRANCH  55  80
ENDBRANCH  29  30
ENDBRANCH  21  24
ENDBRANCH  19  20
ENDBRANCH  18  19
ENDBRANCH  17  18
ENDBRANCH   1  17
TORSDOF 19
ENDMDL
MODEL 2
REMARK VINA RESULT:      -9.0      0.753      8.693
REMARK SMILES CC(C)(O)CC[NH2+]CC(=O)NCCCCNC(=O)c1ccc(-c2c3nc(c(-c4c(F)cc(S(=O)(=O)[O-])cc4F)c4ccc([nH]4)c(-c4c(F)cc(S(=O)(=O)[O-])cc4F)c4nc(c(-c5c(F)cc(S(=O)(=O)[O-])cc5F)c5ccc2[nH]5)C=C4)C=C3)cc1
REMARK SMILES IDX 12 1 11 2 9 3 10 4 8 6 7 7 6 10 5 11 2 12 1 13 3 14 4 15
REMARK SMILES IDX 13 17 14 18 15 19 16 20 17 21 18 23 19 24 20 25 84 26 21 27
REMARK SMILES IDX 83 28 22 29 23 30 24 31 77 32 25 33 82 34 76 35 78 36 26 37
REMARK SMILES IDX 81 38 75 39 74 40 27 42 61 43 40 44 60 45 41 46 44 47 59 48
REMARK SMILES IDX 79 49 42 50 43 51 58 53 80 54 45 55 28 56 29 57 38 58 30 59
REMARK SMILES IDX 31 60 37 61 39 62 32 63 33 64 34 65 35 66 36 67 62 68 63 69
REMARK SMILES IDX 72 70 64 71 65 72 71 73 73 74 66 75 67 76 68 77 69 78 70 79
REMARK SMILES IDX 46 80 47 81 56 82 48 83 49 84 55 85 57 86 50 87 51 88 52 89
REMARK SMILES IDX 53 90 54 91
REMARK H PARENT 11 5 7 8 7 9 4 16 16 22 78 41 44 52
REMARK Flexibility Score: inf
ROOT
ATOM      1  C   UNL A   1      33.314  35.996  29.191  1.00  0.00     0.116 C 
ENDROOT
BRANCH   1   2
ATOM      2  N   UNL A   1      32.608  36.596  30.313  1.00  0.00    -0.351 N 
ATOM      3  C   UNL A   1      32.785  36.427  31.659  1.00  0.00     0.275 C 
ATOM      4  O   UNL A   1      31.958  36.936  32.421  1.00  0.00    -0.269 OA
ATOM      5  H   UNL A   1      31.891  37.222  30.065  1.00  0.00     0.163 HD
BRANCH   3   6
ATOM      6  C   UNL A   1      33.969  35.617  32.222  1.00  0.00     0.361 C 
BRANCH   6   7
ATOM      7  N   UNL A   1      33.602  34.201  32.505  1.00  0.00    -0.338 N 
ATOM      8  H   UNL A   1      33.366  34.102  33.493  1.00  0.00     0.346 HD
ATOM      9  H   UNL A   1      32.797  33.939  31.935  1.00  0.00     0.346 HD
BRANCH   7  10
ATOM     10  C   UNL A   1      34.726  33.329  32.185  1.00  0.00     0.263 C 
BRANCH  10  11
ATOM     11  C   UNL A   1      35.585  32.766  33.319  1.00  0.00     0.096 C 
BRANCH  11  12
ATOM     12  C   UNL A   1      37.106  33.034  33.238  1.00  0.00     0.064 C 
ATOM     13  C   UNL A   1      37.439  34.172  32.275  1.00  0.00     0.042 C 
ATOM     14  C   UNL A   1      37.827  31.750  32.812  1.00  0.00     0.042 C 
BRANCH  12  15
ATOM     15  O   UNL A   1      37.609  33.373  34.532  1.00  0.00    -0.390 OA
ATOM     16  H   UNL A   1      37.739  32.564  35.050  1.00  0.00     0.211 HD
ENDBRANCH  12  15
ENDBRANCH  11  12
ENDBRANCH  10  11
ENDBRANCH   7  10
ENDBRANCH   6   7
ENDBRANCH   3   6
ENDBRANCH   1   2
BRANCH   1  17
ATOM     17  C   UNL A   1      32.924  34.525  28.990  1.00  0.00     0.023 C 
BRANCH  17  18
ATOM     18  C   UNL A   1      33.791  33.734  28.026  1.00  0.00     0.023 C 
BRANCH  18  19
ATOM     19  C   UNL A   1      34.444  32.510  28.631  1.00  0.00     0.116 C 
BRANCH  19  20
ATOM     20  N   UNL A   1      33.865  31.254  28.173  1.00  0.00    -0.352 N 
ATOM     21  C   UNL A   1      34.492  30.044  27.977  1.00  0.00     0.251 C 
ATOM     22  H   UNL A   1      32.899  31.272  27.978  1.00  0.00     0.163 HD
ATOM     23  O   UNL A   1      33.887  29.097  27.494  1.00  0.00    -0.269 OA
BRANCH  21  24
ATOM     24  C   UNL A   1      35.924  29.931  28.321  1.00  0.00     0.039 A 
ATOM     25  C   UNL A   1      36.284  29.515  29.603  1.00  0.00     0.014 A 
ATOM     26  C   UNL A   1      36.897  30.143  27.342  1.00  0.00     0.014 A 
ATOM     27  C   UNL A   1      37.622  29.231  29.878  1.00  0.00     0.010 A 
ATOM     28  C   UNL A   1      38.207  29.758  27.585  1.00  0.00     0.010 A 
ATOM     29  C   UNL A   1      38.584  29.307  28.858  1.00  0.00    -0.014 A 
BRANCH  29  30
ATOM     30  C   UNL A   1      40.004  28.950  29.097  1.00  0.00     0.031 A 
ATOM     31  C   UNL A   1      40.942  29.987  29.650  1.00  0.00     0.074 A 
ATOM     32  C   UNL A   1      40.461  27.734  28.738  1.00  0.00     0.049 A 
ATOM     33  N   UNL A   1      42.236  29.921  29.826  1.00  0.00    -0.248 NA
ATOM     34  C   UNL A   1      40.353  31.288  30.011  1.00  0.00     0.031 C 
ATOM     35  C   UNL A   1      39.660  26.670  28.127  1.00  0.00     0.029 A 
ATOM     36  N   UNL A   1      41.719  27.192  28.823  1.00  0.00    -0.354 N 
ATOM     37  C   UNL A   1      42.615  31.175  30.290  1.00  0.00     0.074 A 
ATOM     38  C   UNL A   1      41.429  32.000  30.309  1.00  0.00     0.031 C 
ATOM     39  C   UNL A   1      40.441  25.597  27.915  1.00  0.00     0.029 A 
ATOM     40  C   UNL A   1      41.800  25.907  28.344  1.00  0.00     0.049 A 
ATOM     41  H   UNL A   1      42.491  27.680  29.192  1.00  0.00     0.167 HD
ATOM     42  C   UNL A   1      43.838  31.592  30.696  1.00  0.00     0.037 A 
ATOM     43  C   UNL A   1      42.855  25.073  28.261  1.00  0.00     0.037 A 
ATOM     44  C   UNL A   1      45.001  30.750  30.722  1.00  0.00     0.049 A 
ATOM     45  C   UNL A   1      44.194  25.541  28.766  1.00  0.00     0.074 A 
ATOM     46  C   UNL A   1      46.273  31.050  31.175  1.00  0.00     0.029 A 
ATOM     47  N   UNL A   1      45.030  29.432  30.286  1.00  0.00    -0.354 N 
ATOM     48  N   UNL A   1      44.524  26.711  29.255  1.00  0.00    -0.248 NA
ATOM     49  C   UNL A   1      45.299  24.574  28.715  1.00  0.00     0.031 C 
ATOM     50  C   UNL A   1      47.078  29.920  30.991  1.00  0.00     0.029 A 
ATOM     51  C   UNL A   1      46.298  28.906  30.456  1.00  0.00     0.049 A 
ATOM     52  H   UNL A   1      44.261  28.945  29.912  1.00  0.00     0.167 HD
ATOM     53  C   UNL A   1      45.869  26.617  29.592  1.00  0.00     0.074 A 
ATOM     54  C   UNL A   1      46.287  25.269  29.261  1.00  0.00     0.031 C 
ATOM     55  C   UNL A   1      46.685  27.557  30.126  1.00  0.00     0.037 A 
BRANCH  42  56
ATOM     56  C   UNL A   1      43.960  33.017  31.161  1.00  0.00     0.058 A 
ATOM     57  C   UNL A   1      44.183  34.067  30.256  1.00  0.00     0.135 A 
ATOM     58  C   UNL A   1      43.853  33.336  32.523  1.00  0.00     0.135 A 
ATOM     59  F   UNL A   1      44.313  33.814  28.945  1.00  0.00    -0.206 F 
ATOM     60  C   UNL A   1      44.336  35.379  30.689  1.00  0.00     0.059 A 
ATOM     61  C   UNL A   1      43.974  34.647  32.976  1.00  0.00     0.059 A 
ATOM     62  F   UNL A   1      43.643  32.370  33.432  1.00  0.00    -0.206 F 
ATOM     63  C   UNL A   1      44.234  35.659  32.052  1.00  0.00     0.060 A 
BRANCH  63  64
ATOM     64  S   UNL A   1      44.443  37.365  32.601  1.00  0.00     0.124 S 
ATOM     65  O   UNL A   1      43.807  38.100  31.511  1.00  0.00    -0.237 OA
ATOM     66  O   UNL A   1      43.728  37.377  33.874  1.00  0.00    -0.237 OA
ATOM     67  O   UNL A   1      45.891  37.516  32.699  1.00  0.00    -0.744 OA
ENDBRANCH  63  64
ENDBRANCH  42  56
BRANCH  43  68
ATOM     68  C   UNL A   1      42.677  23.702  27.714  1.00  0.00     0.058 A 
ATOM     69  C   UNL A   1      42.691  23.472  26.331  1.00  0.00     0.135 A 
ATOM     70  C   UNL A   1      42.517  22.595  28.560  1.00  0.00     0.135 A 
ATOM     71  F   UNL A   1      42.838  24.501  25.482  1.00  0.00    -0.206 F 
ATOM     72  C   UNL A   1      42.539  22.194  25.802  1.00  0.00     0.059 A 
ATOM     73  C   UNL A   1      42.384  21.304  28.056  1.00  0.00     0.059 A 
ATOM     74  F   UNL A   1      42.516  22.760  29.892  1.00  0.00    -0.206 F 
ATOM     75  C   UNL A   1      42.388  21.115  26.675  1.00  0.00     0.060 A 
BRANCH  75  76
ATOM     76  S   UNL A   1      42.250  19.452  25.982  1.00  0.00     0.124 S 
ATOM     77  O   UNL A   1      42.634  18.627  27.120  1.00  0.00    -0.237 OA
ATOM     78  O   UNL A   1      40.844  19.395  25.595  1.00  0.00    -0.237 OA
ATOM     79  O   UNL A   1      43.195  19.476  24.869  1.00  0.00    -0.744 OA
ENDBRANCH  75  76
ENDBRANCH  43  68
BRANCH  55  80
ATOM     80  C   UNL A   1      48.104  27.156  30.413  1.00  0.00     0.058 A 
ATOM     81  C   UNL A   1      49.109  27.275  29.442  1.00  0.00     0.135 A 
ATOM     82  C   UNL A   1      48.470  26.705  31.690  1.00  0.00     0.135 A 
ATOM     83  F   UNL A   1      48.808  27.698  28.204  1.00  0.00    -0.206 F 
ATOM     84  C   UNL A   1      50.430  26.943  29.724  1.00  0.00     0.059 A 
ATOM     85  C   UNL A   1      49.788  26.389  32.001  1.00  0.00     0.059 A 
ATOM     86  F   UNL A   1      47.545  26.584  32.655  1.00  0.00    -0.206 F 
ATOM     87  C   UNL A   1      50.759  26.502  31.007  1.00  0.00     0.060 A 
BRANCH  87  88
ATOM     88  S   UNL A   1      52.484  26.112  31.373  1.00  0.00     0.124 S 
ATOM     89  O   UNL A   1      53.085  26.169  30.045  1.00  0.00    -0.237 OA
ATOM     90  O   UNL A   1      52.862  27.184  32.288  1.00  0.00    -0.237 OA
ATOM     91  O   UNL A   1      52.409  24.782  31.972  1.00  0.00    -0.744 OA
ENDBRANCH  87  88
ENDBRANCH  55  80
ENDBRANCH  29  30
ENDBRANCH  21  24
ENDBRANCH  19  20
ENDBRANCH  18  19
ENDBRANCH  17  18
ENDBRANCH   1  17
TORSDOF 19
ENDMDL
MODEL 3
REMARK VINA RESULT:      -9.0      2.900      8.803
REMARK SMILES CC(C)(O)CC[NH2+]CC(=O)NCCCCNC(=O)c1ccc(-c2c3nc(c(-c4c(F)cc(S(=O)(=O)[O-])cc4F)c4ccc([nH]4)c(-c4c(F)cc(S(=O)(=O)[O-])cc4F)c4nc(c(-c5c(F)cc(S(=O)(=O)[O-])cc5F)c5ccc2[nH]5)C=C4)C=C3)cc1
REMARK SMILES IDX 12 1 11 2 9 3 10 4 8 6 7 7 6 10 5 11 2 12 1 13 3 14 4 15
REMARK SMILES IDX 13 17 14 18 15 19 16 20 17 21 18 23 19 24 20 25 84 26 21 27
REMARK SMILES IDX 83 28 22 29 23 30 24 31 77 32 25 33 82 34 76 35 78 36 26 37
REMARK SMILES IDX 81 38 75 39 74 40 27 42 61 43 40 44 60 45 41 46 44 47 59 48
REMARK SMILES IDX 79 49 42 50 43 51 58 53 80 54 45 55 28 56 29 57 38 58 30 59
REMARK SMILES IDX 31 60 37 61 39 62 32 63 33 64 34 65 35 66 36 67 62 68 63 69
REMARK SMILES IDX 72 70 64 71 65 72 71 73 73 74 66 75 67 76 68 77 69 78 70 79
REMARK SMILES IDX 46 80 47 81 56 82 48 83 49 84 55 85 57 86 50 87 51 88 52 89
REMARK SMILES IDX 53 90 54 91
REMARK H PARENT 11 5 7 8 7 9 4 16 16 22 78 41 44 52
REMARK Flexibility Score: inf
ROOT
ATOM      1  C   UNL A   1      33.274  36.349  28.831  1.00  0.00     0.116 C 
ENDROOT
BRANCH   1   2
ATOM      2  N   UNL A   1      32.578  36.634  30.076  1.00  0.00    -0.351 N 
ATOM      3  C   UNL A   1      32.707  36.060  31.311  1.00  0.00     0.275 C 
ATOM      4  O   UNL A   1      31.893  36.375  32.185  1.00  0.00    -0.269 OA
ATOM      5  H   UNL A   1      31.910  37.355  30.022  1.00  0.00     0.163 HD
BRANCH   3   6
ATOM      6  C   UNL A   1      33.819  35.038  31.613  1.00  0.00     0.361 C 
BRANCH   6   7
ATOM      7  N   UNL A   1      34.662  35.444  32.772  1.00  0.00    -0.338 N 
ATOM      8  H   UNL A   1      34.538  36.441  32.950  1.00  0.00     0.346 HD
ATOM      9  H   UNL A   1      34.383  34.913  33.597  1.00  0.00     0.346 HD
BRANCH   7  10
ATOM     10  C   UNL A   1      36.065  35.174  32.476  1.00  0.00     0.263 C 
BRANCH  10  11
ATOM     11  C   UNL A   1      36.914  34.416  33.499  1.00  0.00     0.096 C 
BRANCH  11  12
ATOM     12  C   UNL A   1      36.303  33.123  34.087  1.00  0.00     0.064 C 
ATOM     13  C   UNL A   1      37.267  32.408  35.032  1.00  0.00     0.042 C 
ATOM     14  C   UNL A   1      35.889  32.190  32.943  1.00  0.00     0.042 C 
BRANCH  12  15
ATOM     15  O   UNL A   1      35.110  33.436  34.809  1.00  0.00    -0.390 OA
ATOM     16  H   UNL A   1      34.503  33.928  34.233  1.00  0.00     0.211 HD
ENDBRANCH  12  15
ENDBRANCH  11  12
ENDBRANCH  10  11
ENDBRANCH   7  10
ENDBRANCH   6   7
ENDBRANCH   3   6
ENDBRANCH   1   2
BRANCH   1  17
ATOM     17  C   UNL A   1      33.297  34.845  28.521  1.00  0.00     0.023 C 
BRANCH  17  18
ATOM     18  C   UNL A   1      34.639  34.276  28.094  1.00  0.00     0.023 C 
BRANCH  18  19
ATOM     19  C   UNL A   1      34.875  32.843  28.519  1.00  0.00     0.116 C 
BRANCH  19  20
ATOM     20  N   UNL A   1      34.100  31.873  27.755  1.00  0.00    -0.352 N 
ATOM     21  C   UNL A   1      34.428  30.573  27.443  1.00  0.00     0.251 C 
ATOM     22  H   UNL A   1      33.230  32.188  27.419  1.00  0.00     0.163 HD
ATOM     23  O   UNL A   1      33.712  29.908  26.707  1.00  0.00    -0.269 OA
BRANCH  21  24
ATOM     24  C   UNL A   1      35.687  30.017  27.978  1.00  0.00     0.039 A 
ATOM     25  C   UNL A   1      36.860  30.153  27.234  1.00  0.00     0.014 A 
ATOM     26  C   UNL A   1      35.716  29.453  29.255  1.00  0.00     0.014 A 
ATOM     27  C   UNL A   1      38.079  29.796  27.810  1.00  0.00     0.010 A 
ATOM     28  C   UNL A   1      36.936  29.201  29.864  1.00  0.00     0.010 A 
ATOM     29  C   UNL A   1      38.129  29.360  29.144  1.00  0.00    -0.014 A 
BRANCH  29  30
ATOM     30  C   UNL A   1      39.414  29.034  29.811  1.00  0.00     0.031 A 
ATOM     31  C   UNL A   1      39.857  29.849  30.994  1.00  0.00     0.074 A 
ATOM     32  C   UNL A   1      40.211  28.074  29.302  1.00  0.00     0.049 A 
ATOM     33  N   UNL A   1      40.989  29.808  31.648  1.00  0.00    -0.248 NA
ATOM     34  C   UNL A   1      38.921  30.878  31.479  1.00  0.00     0.031 C 
ATOM     35  C   UNL A   1      39.919  27.266  28.115  1.00  0.00     0.029 A 
ATOM     36  N   UNL A   1      41.440  27.625  29.712  1.00  0.00    -0.354 N 
ATOM     37  C   UNL A   1      40.909  30.819  32.598  1.00  0.00     0.074 A 
ATOM     38  C   UNL A   1      39.649  31.496  32.396  1.00  0.00     0.031 C 
ATOM     39  C   UNL A   1      40.929  26.404  27.909  1.00  0.00     0.029 A 
ATOM     40  C   UNL A   1      41.952  26.620  28.926  1.00  0.00     0.049 A 
ATOM     41  H   UNL A   1      41.912  27.989  30.496  1.00  0.00     0.167 HD
ATOM     42  C   UNL A   1      41.793  31.134  33.575  1.00  0.00     0.037 A 
ATOM     43  C   UNL A   1      43.117  25.950  29.017  1.00  0.00     0.037 A 
ATOM     44  C   UNL A   1      43.020  30.422  33.801  1.00  0.00     0.049 A 
ATOM     45  C   UNL A   1      44.062  26.282  30.141  1.00  0.00     0.074 A 
ATOM     46  C   UNL A   1      43.957  30.614  34.800  1.00  0.00     0.029 A 
ATOM     47  N   UNL A   1      43.476  29.368  33.020  1.00  0.00    -0.354 N 
ATOM     48  N   UNL A   1      43.946  27.204  31.067  1.00  0.00    -0.248 NA
ATOM     49  C   UNL A   1      45.289  25.480  30.238  1.00  0.00     0.031 C 
ATOM     50  C   UNL A   1      44.992  29.691  34.609  1.00  0.00     0.029 A 
ATOM     51  C   UNL A   1      44.681  28.902  33.512  1.00  0.00     0.049 A 
ATOM     52  H   UNL A   1      43.008  29.006  32.233  1.00  0.00     0.167 HD
ATOM     53  C   UNL A   1      45.073  27.079  31.871  1.00  0.00     0.074 A 
ATOM     54  C   UNL A   1      45.852  25.984  31.328  1.00  0.00     0.031 C 
ATOM     55  C   UNL A   1      45.432  27.803  32.958  1.00  0.00     0.037 A 
BRANCH  42  56
ATOM     56  C   UNL A   1      41.443  32.285  34.476  1.00  0.00     0.058 A 
ATOM     57  C   UNL A   1      40.889  32.077  35.749  1.00  0.00     0.135 A 
ATOM     58  C   UNL A   1      41.663  33.609  34.065  1.00  0.00     0.135 A 
ATOM     59  F   UNL A   1      40.640  30.832  36.183  1.00  0.00    -0.206 F 
ATOM     60  C   UNL A   1      40.528  33.142  36.568  1.00  0.00     0.059 A 
ATOM     61  C   UNL A   1      41.336  34.689  34.879  1.00  0.00     0.059 A 
ATOM     62  F   UNL A   1      42.188  33.864  32.855  1.00  0.00    -0.206 F 
ATOM     63  C   UNL A   1      40.751  34.445  36.122  1.00  0.00     0.060 A 
BRANCH  63  64
ATOM     64  S   UNL A   1      40.271  35.817  37.191  1.00  0.00     0.124 S 
ATOM     65  O   UNL A   1      39.874  36.823  36.210  1.00  0.00    -0.237 OA
ATOM     66  O   UNL A   1      39.186  35.239  37.978  1.00  0.00    -0.237 OA
ATOM     67  O   UNL A   1      41.491  36.112  37.935  1.00  0.00    -0.744 OA
ENDBRANCH  63  64
ENDBRANCH  42  56
BRANCH  43  68
ATOM     68  C   UNL A   1      43.434  24.875  28.041  1.00  0.00     0.058 A 
ATOM     69  C   UNL A   1      44.143  25.157  26.865  1.00  0.00     0.135 A 
ATOM     70  C   UNL A   1      43.060  23.543  28.275  1.00  0.00     0.135 A 
ATOM     71  F   UNL A   1      44.520  26.417  26.595  1.00  0.00    -0.206 F 
ATOM     72  C   UNL A   1      44.460  24.161  25.946  1.00  0.00     0.059 A 
ATOM     73  C   UNL A   1      43.383  22.526  27.382  1.00  0.00     0.059 A 
ATOM     74  F   UNL A   1      42.396  23.218  29.396  1.00  0.00    -0.206 F 
ATOM     75  C   UNL A   1      44.076  22.847  26.215  1.00  0.00     0.060 A 
BRANCH  75  76
ATOM     76  S   UNL A   1      44.542  21.551  25.046  1.00  0.00     0.124 S 
ATOM     77  O   UNL A   1      45.912  21.266  25.454  1.00  0.00    -0.237 OA
ATOM     78  O   UNL A   1      43.560  20.510  25.331  1.00  0.00    -0.237 OA
ATOM     79  O   UNL A   1      44.391  22.203  23.749  1.00  0.00    -0.744 OA
ENDBRANCH  75  76
ENDBRANCH  43  68
BRANCH  55  80
ATOM     80  C   UNL A   1      46.708  27.419  33.651  1.00  0.00     0.058 A 
ATOM     81  C   UNL A   1      47.937  27.991  33.292  1.00  0.00     0.135 A 
ATOM     82  C   UNL A   1      46.688  26.514  34.724  1.00  0.00     0.135 A 
ATOM     83  F   UNL A   1      48.008  28.858  32.270  1.00  0.00    -0.206 F 
ATOM     84  C   UNL A   1      49.110  27.665  33.964  1.00  0.00     0.059 A 
ATOM     85  C   UNL A   1      47.844  26.191  35.424  1.00  0.00     0.059 A 
ATOM     86  F   UNL A   1      45.534  25.949  35.110  1.00  0.00    -0.206 F 
ATOM     87  C   UNL A   1      49.053  26.764  35.030  1.00  0.00     0.060 A 
BRANCH  87  88
ATOM     88  S   UNL A   1      50.575  26.378  35.921  1.00  0.00     0.124 S 
ATOM     89  O   UNL A   1      50.474  24.930  36.060  1.00  0.00    -0.237 OA
ATOM     90  O   UNL A   1      51.606  26.857  35.005  1.00  0.00    -0.237 OA
ATOM     91  O   UNL A   1      50.444  27.140  37.160  1.00  0.00    -0.744 OA
ENDBRANCH  87  88
ENDBRANCH  55  80
ENDBRANCH  29  30
ENDBRANCH  21  24
ENDBRANCH  19  20
ENDBRANCH  18  19
ENDBRANCH  17  18
ENDBRANCH   1  17
TORSDOF 19
ENDMDL
