MODEL 1
REMARK VINA RESULT:     -12.3      0.000      0.000
REMARK SMILES O=C(NCCCCNC(=O)[C@H](Cc1ccccc1Cl)S[C@H]1CC(=O)N(c2ccc(Cl)cc2)C1=O)c1ccc(-c2c3nc(c(-c4c(F)cc(S(=O)(=O)[O-])cc4F)c4ccc([nH]4)c(-c4c(F)cc(S(=O)(=O)[O-])cc4F)c4nc(c(-c5c(F)cc(S(=O)(=O)[O-])cc5F)c5ccc2[nH]5)C=C4)C=C3)cc1
REMARK SMILES IDX 5 1 4 2 3 3 1 4 2 5 35 7 36 8 100 9 37 10 99 11 38 12 39 13
REMARK SMILES IDX 40 14 93 15 41 16 98 17 92 18 94 19 42 20 97 21 91 22 90 23
REMARK SMILES IDX 43 25 77 26 56 27 76 28 57 29 60 30 75 31 95 32 58 33 59 34
REMARK SMILES IDX 74 36 96 37 61 38 44 39 45 40 54 41 46 42 47 43 53 44 55 45
REMARK SMILES IDX 48 46 49 47 50 48 51 49 52 50 78 51 79 52 88 53 80 54 81 55
REMARK SMILES IDX 87 56 89 57 82 58 83 59 84 60 85 61 86 62 62 63 63 64 72 65
REMARK SMILES IDX 64 66 65 67 71 68 73 69 66 70 67 71 68 72 69 73 70 74 6 75
REMARK SMILES IDX 7 76 8 77 9 78 10 80 11 81 20 82 21 83 22 84 33 85 23 86
REMARK SMILES IDX 25 87 34 88 24 89 26 90 27 91 32 92 28 93 31 94 29 95 30 96
REMARK SMILES IDX 12 97 13 98 14 99 18 100 15 101 17 102 19 103 16 104
REMARK H PARENT 3 6 94 24 60 35 8 79
REMARK Flexibility Score: inf
ROOT
ATOM      1  C   UNL A   1      34.071  28.784  26.894  1.00  0.00     0.023 C 
ENDROOT
BRANCH   1   2
ATOM      2  C   UNL A   1      35.390  29.341  27.402  1.00  0.00     0.116 C 
BRANCH   2   3
ATOM      3  N   UNL A   1      35.307  29.897  28.746  1.00  0.00    -0.352 N 
ATOM      4  O   UNL A   1      36.102  30.375  30.812  1.00  0.00    -0.269 OA
ATOM      5  C   UNL A   1      36.317  29.975  29.679  1.00  0.00     0.251 C 
ATOM      6  H   UNL A   1      34.431  30.256  29.017  1.00  0.00     0.163 HD
BRANCH   5   7
ATOM      7  C   UNL A   1      37.657  29.512  29.269  1.00  0.00     0.039 A 
ATOM      8  C   UNL A   1      38.513  28.957  30.222  1.00  0.00     0.014 A 
ATOM      9  C   UNL A   1      38.089  29.749  27.964  1.00  0.00     0.014 A 
ATOM     10  C   UNL A   1      39.850  28.772  29.907  1.00  0.00     0.010 A 
ATOM     11  C   UNL A   1      39.415  29.475  27.625  1.00  0.00     0.010 A 
ATOM     12  C   UNL A   1      40.310  29.014  28.602  1.00  0.00    -0.014 A 
BRANCH  12  13
ATOM     13  C   UNL A   1      41.719  28.697  28.270  1.00  0.00     0.031 A 
ATOM     14  C   UNL A   1      42.789  29.750  28.316  1.00  0.00     0.074 A 
ATOM     15  C   UNL A   1      42.019  27.423  27.955  1.00  0.00     0.049 A 
ATOM     16  N   UNL A   1      44.063  29.636  28.042  1.00  0.00    -0.248 NA
ATOM     17  C   UNL A   1      42.382  31.107  28.715  1.00  0.00     0.031 C 
ATOM     18  C   UNL A   1      41.048  26.326  27.877  1.00  0.00     0.029 A 
ATOM     19  N   UNL A   1      43.216  26.826  27.662  1.00  0.00    -0.354 N 
ATOM     20  C   UNL A   1      44.608  30.902  28.211  1.00  0.00     0.074 A 
ATOM     21  C   UNL A   1      43.521  31.779  28.599  1.00  0.00     0.031 C 
ATOM     22  C   UNL A   1      41.695  25.184  27.609  1.00  0.00     0.029 A 
ATOM     23  C   UNL A   1      43.110  25.477  27.424  1.00  0.00     0.049 A 
ATOM     24  H   UNL A   1      44.069  27.316  27.627  1.00  0.00     0.167 HD
ATOM     25  C   UNL A   1      45.896  31.293  28.058  1.00  0.00     0.037 A 
ATOM     26  C   UNL A   1      44.043  24.578  27.070  1.00  0.00     0.037 A 
ATOM     27  C   UNL A   1      46.967  30.403  27.683  1.00  0.00     0.049 A 
ATOM     28  C   UNL A   1      45.458  25.040  26.895  1.00  0.00     0.074 A 
ATOM     29  C   UNL A   1      48.310  30.693  27.511  1.00  0.00     0.029 A 
ATOM     30  N   UNL A   1      46.818  29.047  27.427  1.00  0.00    -0.354 N 
ATOM     31  N   UNL A   1      45.953  26.243  27.057  1.00  0.00    -0.248 NA
ATOM     32  C   UNL A   1      46.438  24.029  26.482  1.00  0.00     0.031 C 
ATOM     33  C   UNL A   1      48.965  29.520  27.119  1.00  0.00     0.029 A 
ATOM     34  C   UNL A   1      48.040  28.490  27.086  1.00  0.00     0.049 A 
ATOM     35  H   UNL A   1      45.968  28.553  27.479  1.00  0.00     0.167 HD
ATOM     36  C   UNL A   1      47.308  26.136  26.769  1.00  0.00     0.074 A 
ATOM     37  C   UNL A   1      47.555  24.744  26.447  1.00  0.00     0.031 C 
ATOM     38  C   UNL A   1      48.259  27.101  26.765  1.00  0.00     0.037 A 
BRANCH  25  39
ATOM     39  C   UNL A   1      46.221  32.746  28.276  1.00  0.00     0.058 A 
ATOM     40  C   UNL A   1      46.120  33.688  27.240  1.00  0.00     0.135 A 
ATOM     41  C   UNL A   1      46.596  33.210  29.548  1.00  0.00     0.135 A 
ATOM     42  F   UNL A   1      45.781  33.297  26.002  1.00  0.00    -0.206 F 
ATOM     43  C   UNL A   1      46.398  35.035  27.452  1.00  0.00     0.059 A 
ATOM     44  C   UNL A   1      46.858  34.557  29.787  1.00  0.00     0.059 A 
ATOM     45  F   UNL A   1      46.708  32.352  30.574  1.00  0.00    -0.206 F 
ATOM     46  C   UNL A   1      46.769  35.460  28.729  1.00  0.00     0.060 A 
BRANCH  46  47
ATOM     47  S   UNL A   1      47.126  37.211  28.989  1.00  0.00     0.124 S 
ATOM     48  O   UNL A   1      46.343  37.491  30.189  1.00  0.00    -0.237 OA
ATOM     49  O   UNL A   1      48.575  37.214  29.164  1.00  0.00    -0.237 OA
ATOM     50  O   UNL A   1      46.646  37.843  27.764  1.00  0.00    -0.744 OA
ENDBRANCH  46  47
ENDBRANCH  25  39
BRANCH  26  51
ATOM     51  C   UNL A   1      43.653  23.163  26.845  1.00  0.00     0.058 A 
ATOM     52  C   UNL A   1      43.311  22.328  27.916  1.00  0.00     0.135 A 
ATOM     53  C   UNL A   1      43.565  22.636  25.546  1.00  0.00     0.135 A 
ATOM     54  F   UNL A   1      43.377  22.791  29.175  1.00  0.00    -0.206 F 
ATOM     55  C   UNL A   1      42.905  21.014  27.712  1.00  0.00     0.059 A 
ATOM     56  C   UNL A   1      43.137  21.333  25.315  1.00  0.00     0.059 A 
ATOM     57  F   UNL A   1      43.858  23.404  24.486  1.00  0.00    -0.206 F 
ATOM     58  C   UNL A   1      42.819  20.527  26.407  1.00  0.00     0.060 A 
BRANCH  58  59
ATOM     59  S   UNL A   1      42.234  18.839  26.144  1.00  0.00     0.124 S 
ATOM     60  O   UNL A   1      42.415  18.258  27.470  1.00  0.00    -0.237 OA
ATOM     61  O   UNL A   1      40.854  19.051  25.721  1.00  0.00    -0.237 OA
ATOM     62  O   UNL A   1      43.129  18.336  25.105  1.00  0.00    -0.744 OA
ENDBRANCH  58  59
ENDBRANCH  26  51
BRANCH  38  63
ATOM     63  C   UNL A   1      49.653  26.672  26.417  1.00  0.00     0.058 A 
ATOM     64  C   UNL A   1      50.513  26.124  27.381  1.00  0.00     0.135 A 
ATOM     65  C   UNL A   1      50.128  26.795  25.102  1.00  0.00     0.135 A 
ATOM     66  F   UNL A   1      50.108  25.998  28.654  1.00  0.00    -0.206 F 
ATOM     67  C   UNL A   1      51.807  25.733  27.059  1.00  0.00     0.059 A 
ATOM     68  C   UNL A   1      51.411  26.390  24.752  1.00  0.00     0.059 A 
ATOM     69  F   UNL A   1      49.340  27.308  24.144  1.00  0.00    -0.206 F 
ATOM     70  C   UNL A   1      52.248  25.874  25.741  1.00  0.00     0.060 A 
BRANCH  70  71
ATOM     71  S   UNL A   1      53.924  25.347  25.327  1.00  0.00     0.124 S 
ATOM     72  O   UNL A   1      53.787  23.893  25.345  1.00  0.00    -0.237 OA
ATOM     73  O   UNL A   1      54.128  25.947  24.013  1.00  0.00    -0.237 OA
ATOM     74  O   UNL A   1      54.732  25.915  26.401  1.00  0.00    -0.744 OA
ENDBRANCH  70  71
ENDBRANCH  38  63
ENDBRANCH  12  13
ENDBRANCH   5   7
ENDBRANCH   2   3
ENDBRANCH   1   2
BRANCH   1  75
ATOM     75  C   UNL A   1      34.101  28.388  25.422  1.00  0.00     0.023 C 
BRANCH  75  76
ATOM     76  C   UNL A   1      33.184  27.213  25.090  1.00  0.00     0.116 C 
BRANCH  76  77
ATOM     77  N   UNL A   1      32.205  27.021  26.130  1.00  0.00    -0.355 N 
ATOM     78  C   UNL A   1      30.973  26.441  26.051  1.00  0.00     0.233 C 
ATOM     79  H   UNL A   1      32.460  27.353  27.021  1.00  0.00     0.163 HD
ATOM     80  O   UNL A   1      30.269  26.471  27.066  1.00  0.00    -0.274 OA
BRANCH  78  81
ATOM     81  C   UNL A   1      30.478  25.729  24.776  1.00  0.00     0.141 C 
BRANCH  81  82
ATOM     82  S   UNL A   1      30.443  23.879  25.173  1.00  0.00    -0.134 SA
BRANCH  82  83
ATOM     83  C   UNL A   1      31.907  23.073  24.447  1.00  0.00     0.147 C 
ATOM     84  C   UNL A   1      32.401  23.578  23.110  1.00  0.00     0.125 C 
ATOM     85  C   UNL A   1      33.132  23.001  25.312  1.00  0.00     0.247 C 
ATOM     86  C   UNL A   1      33.876  23.318  23.171  1.00  0.00     0.235 C 
ATOM     87  N   UNL A   1      34.235  23.053  24.476  1.00  0.00    -0.250 N 
ATOM     88  O   UNL A   1      33.105  22.919  26.532  1.00  0.00    -0.273 OA
ATOM     89  O   UNL A   1      34.583  23.364  22.174  1.00  0.00    -0.274 OA
BRANCH  87  90
ATOM     90  C   UNL A   1      35.577  22.900  24.924  1.00  0.00     0.052 A 
ATOM     91  C   UNL A   1      36.283  23.970  25.499  1.00  0.00     0.028 A 
ATOM     92  C   UNL A   1      36.229  21.661  24.832  1.00  0.00     0.028 A 
ATOM     93  C   UNL A   1      37.571  23.791  26.018  1.00  0.00     0.022 A 
ATOM     94  C   UNL A   1      37.528  21.487  25.322  1.00  0.00     0.022 A 
ATOM     95  C   UNL A   1      38.187  22.549  25.930  1.00  0.00     0.041 A 
ATOM     96  Cl  UNL A   1      39.763  22.321  26.576  1.00  0.00    -0.084 Cl
ENDBRANCH  87  90
ENDBRANCH  82  83
ENDBRANCH  81  82
BRANCH  81  97
ATOM     97  C   UNL A   1      29.324  26.374  23.980  1.00  0.00     0.061 C 
BRANCH  97  98
ATOM     98  C   UNL A   1      29.392  27.699  23.231  1.00  0.00    -0.028 A 
ATOM     99  C   UNL A   1      30.546  28.195  22.610  1.00  0.00     0.005 A 
ATOM    100  C   UNL A   1      28.229  28.499  23.138  1.00  0.00     0.044 A 
ATOM    101  C   UNL A   1      30.579  29.482  22.056  1.00  0.00     0.000 A 
ATOM    102  C   UNL A   1      28.255  29.774  22.564  1.00  0.00     0.021 A 
ATOM    103  Cl  UNL A   1      26.691  27.948  23.707  1.00  0.00    -0.084 Cl
ATOM    104  C   UNL A   1      29.441  30.278  22.049  1.00  0.00     0.002 A 
ENDBRANCH  97  98
ENDBRANCH  81  97
ENDBRANCH  78  81
ENDBRANCH  76  77
ENDBRANCH  75  76
ENDBRANCH   1  75
TORSDOF 19
ENDMDL
MODEL 2
REMARK VINA RESULT:     -12.1      2.804      9.576
REMARK SMILES O=C(NCCCCNC(=O)[C@H](Cc1ccccc1Cl)S[C@H]1CC(=O)N(c2ccc(Cl)cc2)C1=O)c1ccc(-c2c3nc(c(-c4c(F)cc(S(=O)(=O)[O-])cc4F)c4ccc([nH]4)c(-c4c(F)cc(S(=O)(=O)[O-])cc4F)c4nc(c(-c5c(F)cc(S(=O)(=O)[O-])cc5F)c5ccc2[nH]5)C=C4)C=C3)cc1
REMARK SMILES IDX 5 1 4 2 3 3 1 4 2 5 35 7 36 8 100 9 37 10 99 11 38 12 39 13
REMARK SMILES IDX 40 14 93 15 41 16 98 17 92 18 94 19 42 20 97 21 91 22 90 23
REMARK SMILES IDX 43 25 77 26 56 27 76 28 57 29 60 30 75 31 95 32 58 33 59 34
REMARK SMILES IDX 74 36 96 37 61 38 44 39 45 40 54 41 46 42 47 43 53 44 55 45
REMARK SMILES IDX 48 46 49 47 50 48 51 49 52 50 78 51 79 52 88 53 80 54 81 55
REMARK SMILES IDX 87 56 89 57 82 58 83 59 84 60 85 61 86 62 62 63 63 64 72 65
REMARK SMILES IDX 64 66 65 67 71 68 73 69 66 70 67 71 68 72 69 73 70 74 6 75
REMARK SMILES IDX 7 76 8 77 9 78 10 80 11 81 20 82 21 83 22 84 33 85 23 86
REMARK SMILES IDX 25 87 34 88 24 89 26 90 27 91 32 92 28 93 31 94 29 95 30 96
REMARK SMILES IDX 12 97 13 98 14 99 18 100 15 101 17 102 19 103 16 104
REMARK H PARENT 3 6 94 24 60 35 8 79
REMARK Flexibility Score: inf
ROOT
ATOM      1  C   UNL A   1      33.857  28.129  25.335  1.00  0.00     0.023 C 
ENDROOT
BRANCH   1   2
ATOM      2  C   UNL A   1      33.991  28.188  26.847  1.00  0.00     0.116 C 
BRANCH   2   3
ATOM      3  N   UNL A   1      33.688  29.498  27.407  1.00  0.00    -0.352 N 
ATOM      4  O   UNL A   1      34.141  31.355  28.621  1.00  0.00    -0.269 OA
ATOM      5  C   UNL A   1      34.538  30.317  28.117  1.00  0.00     0.251 C 
ATOM      6  H   UNL A   1      32.775  29.835  27.261  1.00  0.00     0.163 HD
BRANCH   5   7
ATOM      7  C   UNL A   1      35.934  29.867  28.283  1.00  0.00     0.039 A 
ATOM      8  C   UNL A   1      36.355  29.376  29.519  1.00  0.00     0.014 A 
ATOM      9  C   UNL A   1      36.838  30.055  27.236  1.00  0.00     0.014 A 
ATOM     10  C   UNL A   1      37.710  29.208  29.757  1.00  0.00     0.010 A 
ATOM     11  C   UNL A   1      38.192  29.796  27.452  1.00  0.00     0.010 A 
ATOM     12  C   UNL A   1      38.640  29.400  28.721  1.00  0.00    -0.014 A 
BRANCH  12  13
ATOM     13  C   UNL A   1      40.068  29.101  28.978  1.00  0.00     0.031 A 
ATOM     14  C   UNL A   1      40.665  27.769  28.622  1.00  0.00     0.074 A 
ATOM     15  C   UNL A   1      40.828  30.075  29.513  1.00  0.00     0.049 A 
ATOM     16  N   UNL A   1      41.892  27.350  28.794  1.00  0.00    -0.248 NA
ATOM     17  C   UNL A   1      39.775  26.778  27.997  1.00  0.00     0.031 C 
ATOM     18  C   UNL A   1      40.339  31.404  29.900  1.00  0.00     0.029 A 
ATOM     19  N   UNL A   1      42.163  30.116  29.808  1.00  0.00    -0.354 N 
ATOM     20  C   UNL A   1      41.920  26.043  28.324  1.00  0.00     0.074 A 
ATOM     21  C   UNL A   1      40.580  25.730  27.871  1.00  0.00     0.031 C 
ATOM     22  C   UNL A   1      41.370  32.143  30.331  1.00  0.00     0.029 A 
ATOM     23  C   UNL A   1      42.574  31.323  30.322  1.00  0.00     0.049 A 
ATOM     24  H   UNL A   1      42.772  29.355  29.665  1.00  0.00     0.167 HD
ATOM     25  C   UNL A   1      42.970  25.187  28.275  1.00  0.00     0.037 A 
ATOM     26  C   UNL A   1      43.780  31.719  30.761  1.00  0.00     0.037 A 
ATOM     27  C   UNL A   1      44.300  25.521  28.720  1.00  0.00     0.049 A 
ATOM     28  C   UNL A   1      44.920  30.748  30.708  1.00  0.00     0.074 A 
ATOM     29  C   UNL A   1      45.438  24.732  28.705  1.00  0.00     0.029 A 
ATOM     30  N   UNL A   1      44.673  26.745  29.256  1.00  0.00    -0.354 N 
ATOM     31  N   UNL A   1      44.927  29.515  30.261  1.00  0.00    -0.248 NA
ATOM     32  C   UNL A   1      46.212  31.216  31.222  1.00  0.00     0.031 C 
ATOM     33  C   UNL A   1      46.490  25.469  29.263  1.00  0.00     0.029 A 
ATOM     34  C   UNL A   1      46.019  26.730  29.588  1.00  0.00     0.049 A 
ATOM     35  H   UNL A   1      44.070  27.513  29.384  1.00  0.00     0.167 HD
ATOM     36  C   UNL A   1      46.226  29.057  30.438  1.00  0.00     0.074 A 
ATOM     37  C   UNL A   1      46.980  30.155  31.009  1.00  0.00     0.031 C 
ATOM     38  C   UNL A   1      46.745  27.837  30.160  1.00  0.00     0.037 A 
BRANCH  25  39
ATOM     39  C   UNL A   1      42.724  23.802  27.740  1.00  0.00     0.058 A 
ATOM     40  C   UNL A   1      42.493  22.712  28.593  1.00  0.00     0.135 A 
ATOM     41  C   UNL A   1      42.676  23.570  26.355  1.00  0.00     0.135 A 
ATOM     42  F   UNL A   1      42.542  22.874  29.925  1.00  0.00    -0.206 F 
ATOM     43  C   UNL A   1      42.241  21.438  28.095  1.00  0.00     0.059 A 
ATOM     44  C   UNL A   1      42.406  22.307  25.834  1.00  0.00     0.059 A 
ATOM     45  F   UNL A   1      42.891  24.577  25.495  1.00  0.00    -0.206 F 
ATOM     46  C   UNL A   1      42.203  21.244  26.713  1.00  0.00     0.060 A 
BRANCH  46  47
ATOM     47  S   UNL A   1      41.875  19.585  26.079  1.00  0.00     0.124 S 
ATOM     48  O   UNL A   1      40.449  19.666  25.780  1.00  0.00    -0.237 OA
ATOM     49  O   UNL A   1      42.761  19.511  24.921  1.00  0.00    -0.237 OA
ATOM     50  O   UNL A   1      42.236  18.717  27.195  1.00  0.00    -0.744 OA
ENDBRANCH  46  47
ENDBRANCH  25  39
BRANCH  26  51
ATOM     51  C   UNL A   1      43.950  33.091  31.301  1.00  0.00     0.058 A 
ATOM     52  C   UNL A   1      44.341  34.152  30.473  1.00  0.00     0.135 A 
ATOM     53  C   UNL A   1      43.675  33.377  32.648  1.00  0.00     0.135 A 
ATOM     54  F   UNL A   1      44.612  33.926  29.177  1.00  0.00    -0.206 F 
ATOM     55  C   UNL A   1      44.465  35.447  30.961  1.00  0.00     0.059 A 
ATOM     56  C   UNL A   1      43.766  34.669  33.154  1.00  0.00     0.059 A 
ATOM     57  F   UNL A   1      43.274  32.400  33.476  1.00  0.00    -0.206 F 
ATOM     58  C   UNL A   1      44.172  35.696  32.303  1.00  0.00     0.060 A 
BRANCH  58  59
ATOM     59  S   UNL A   1      44.276  37.391  32.918  1.00  0.00     0.124 S 
ATOM     60  O   UNL A   1      43.183  37.418  33.883  1.00  0.00    -0.237 OA
ATOM     61  O   UNL A   1      45.624  37.436  33.476  1.00  0.00    -0.237 OA
ATOM     62  O   UNL A   1      44.079  38.193  31.714  1.00  0.00    -0.744 OA
ENDBRANCH  58  59
ENDBRANCH  26  51
BRANCH  38  63
ATOM     63  C   UNL A   1      48.203  27.641  30.456  1.00  0.00     0.058 A 
ATOM     64  C   UNL A   1      49.190  27.945  29.507  1.00  0.00     0.135 A 
ATOM     65  C   UNL A   1      48.616  27.161  31.709  1.00  0.00     0.135 A 
ATOM     66  F   UNL A   1      48.843  28.396  28.291  1.00  0.00    -0.206 F 
ATOM     67  C   UNL A   1      50.540  27.757  29.780  1.00  0.00     0.059 A 
ATOM     68  C   UNL A   1      49.962  26.987  32.012  1.00  0.00     0.059 A 
ATOM     69  F   UNL A   1      47.708  26.862  32.651  1.00  0.00    -0.206 F 
ATOM     70  C   UNL A   1      50.915  27.274  31.036  1.00  0.00     0.060 A 
BRANCH  70  71
ATOM     71  S   UNL A   1      52.671  27.050  31.389  1.00  0.00     0.124 S 
ATOM     72  O   UNL A   1      52.818  27.802  32.632  1.00  0.00    -0.237 OA
ATOM     73  O   UNL A   1      52.787  25.601  31.508  1.00  0.00    -0.237 OA
ATOM     74  O   UNL A   1      53.327  27.631  30.222  1.00  0.00    -0.744 OA
ENDBRANCH  70  71
ENDBRANCH  38  63
ENDBRANCH  12  13
ENDBRANCH   5   7
ENDBRANCH   2   3
ENDBRANCH   1   2
BRANCH   1  75
ATOM     75  C   UNL A   1      33.702  26.714  24.790  1.00  0.00     0.023 C 
BRANCH  75  76
ATOM     76  C   UNL A   1      34.203  25.636  25.749  1.00  0.00     0.116 C 
BRANCH  76  77
ATOM     77  N   UNL A   1      35.191  24.803  25.109  1.00  0.00    -0.355 N 
ATOM     78  C   UNL A   1      35.149  23.465  24.854  1.00  0.00     0.233 C 
ATOM     79  H   UNL A   1      36.009  25.265  24.815  1.00  0.00     0.163 HD
ATOM     80  O   UNL A   1      36.163  22.950  24.371  1.00  0.00    -0.274 OA
BRANCH  78  81
ATOM     81  C   UNL A   1      33.885  22.618  25.105  1.00  0.00     0.141 C 
BRANCH  81  82
ATOM     82  S   UNL A   1      32.784  22.834  23.580  1.00  0.00    -0.134 SA
BRANCH  82  83
ATOM     83  C   UNL A   1      31.242  23.677  24.058  1.00  0.00     0.147 C 
ATOM     84  C   UNL A   1      31.022  23.970  25.525  1.00  0.00     0.125 C 
ATOM     85  C   UNL A   1      30.935  24.967  23.354  1.00  0.00     0.247 C 
ATOM     86  C   UNL A   1      30.190  25.218  25.503  1.00  0.00     0.235 C 
ATOM     87  N   UNL A   1      30.235  25.769  24.240  1.00  0.00    -0.250 N 
ATOM     88  O   UNL A   1      31.272  25.217  22.205  1.00  0.00    -0.273 OA
ATOM     89  O   UNL A   1      29.602  25.621  26.497  1.00  0.00    -0.274 OA
BRANCH  87  90
ATOM     90  C   UNL A   1      29.675  27.030  23.894  1.00  0.00     0.052 A 
ATOM     91  C   UNL A   1      30.465  28.192  23.841  1.00  0.00     0.028 A 
ATOM     92  C   UNL A   1      28.317  27.149  23.565  1.00  0.00     0.028 A 
ATOM     93  C   UNL A   1      29.929  29.412  23.416  1.00  0.00     0.022 A 
ATOM     94  C   UNL A   1      27.770  28.374  23.168  1.00  0.00     0.022 A 
ATOM     95  C   UNL A   1      28.584  29.498  23.079  1.00  0.00     0.041 A 
ATOM     96  Cl  UNL A   1      27.923  30.992  22.544  1.00  0.00    -0.084 Cl
ENDBRANCH  87  90
ENDBRANCH  82  83
ENDBRANCH  81  82
BRANCH  81  97
ATOM     97  C   UNL A   1      34.052  21.226  25.751  1.00  0.00     0.061 C 
BRANCH  97  98
ATOM     98  C   UNL A   1      33.819  19.891  25.057  1.00  0.00    -0.028 A 
ATOM     99  C   UNL A   1      32.555  19.393  24.711  1.00  0.00     0.005 A 
ATOM    100  C   UNL A   1      34.931  19.083  24.724  1.00  0.00     0.044 A 
ATOM    101  C   UNL A   1      32.399  18.097  24.198  1.00  0.00     0.000 A 
ATOM    102  C   UNL A   1      34.777  17.799  24.190  1.00  0.00     0.021 A 
ATOM    103  Cl  UNL A   1      36.558  19.633  24.935  1.00  0.00    -0.084 Cl
ATOM    104  C   UNL A   1      33.506  17.294  23.955  1.00  0.00     0.002 A 
ENDBRANCH  97  98
ENDBRANCH  81  97
ENDBRANCH  78  81
ENDBRANCH  76  77
ENDBRANCH  75  76
ENDBRANCH   1  75
TORSDOF 19
ENDMDL
MODEL 3
REMARK VINA RESULT:     -11.7      1.623      2.158
REMARK SMILES O=C(NCCCCNC(=O)[C@H](Cc1ccccc1Cl)S[C@H]1CC(=O)N(c2ccc(Cl)cc2)C1=O)c1ccc(-c2c3nc(c(-c4c(F)cc(S(=O)(=O)[O-])cc4F)c4ccc([nH]4)c(-c4c(F)cc(S(=O)(=O)[O-])cc4F)c4nc(c(-c5c(F)cc(S(=O)(=O)[O-])cc5F)c5ccc2[nH]5)C=C4)C=C3)cc1
REMARK SMILES IDX 5 1 4 2 3 3 1 4 2 5 35 7 36 8 100 9 37 10 99 11 38 12 39 13
REMARK SMILES IDX 40 14 93 15 41 16 98 17 92 18 94 19 42 20 97 21 91 22 90 23
REMARK SMILES IDX 43 25 77 26 56 27 76 28 57 29 60 30 75 31 95 32 58 33 59 34
REMARK SMILES IDX 74 36 96 37 61 38 44 39 45 40 54 41 46 42 47 43 53 44 55 45
REMARK SMILES IDX 48 46 49 47 50 48 51 49 52 50 78 51 79 52 88 53 80 54 81 55
REMARK SMILES IDX 87 56 89 57 82 58 83 59 84 60 85 61 86 62 62 63 63 64 72 65
REMARK SMILES IDX 64 66 65 67 71 68 73 69 66 70 67 71 68 72 69 73 70 74 6 75
REMARK SMILES IDX 7 76 8 77 9 78 10 80 11 81 20 82 21 83 22 84 33 85 23 86
REMARK SMILES IDX 25 87 34 88 24 89 26 90 27 91 32 92 28 93 31 94 29 95 30 96
REMARK SMILES IDX 12 97 13 98 14 99 18 100 15 101 17 102 19 103 16 104
REMARK H PARENT 3 6 94 24 60 35 8 79
REMARK Flexibility Score: inf
ROOT
ATOM      1  C   UNL A   1      35.174  30.362  27.302  1.00  0.00     0.023 C 
ENDROOT
BRANCH   1   2
ATOM      2  C   UNL A   1      35.745  29.644  28.513  1.00  0.00     0.116 C 
BRANCH   2   3
ATOM      3  N   UNL A   1      35.540  30.363  29.763  1.00  0.00    -0.352 N 
ATOM      4  O   UNL A   1      36.205  31.282  31.723  1.00  0.00    -0.269 OA
ATOM      5  C   UNL A   1      36.506  30.770  30.657  1.00  0.00     0.251 C 
ATOM      6  H   UNL A   1      34.609  30.581  29.995  1.00  0.00     0.163 HD
BRANCH   5   7
ATOM      7  C   UNL A   1      37.915  30.522  30.296  1.00  0.00     0.039 A 
ATOM      8  C   UNL A   1      38.353  30.810  29.002  1.00  0.00     0.014 A 
ATOM      9  C   UNL A   1      38.753  29.891  31.216  1.00  0.00     0.014 A 
ATOM     10  C   UNL A   1      39.585  30.335  28.581  1.00  0.00     0.010 A 
ATOM     11  C   UNL A   1      40.029  29.496  30.815  1.00  0.00     0.010 A 
ATOM     12  C   UNL A   1      40.442  29.688  29.488  1.00  0.00    -0.014 A 
BRANCH  12  13
ATOM     13  C   UNL A   1      41.797  29.295  29.036  1.00  0.00     0.031 A 
ATOM     14  C   UNL A   1      42.942  30.267  29.061  1.00  0.00     0.074 A 
ATOM     15  C   UNL A   1      41.980  28.025  28.629  1.00  0.00     0.049 A 
ATOM     16  N   UNL A   1      44.182  30.080  28.688  1.00  0.00    -0.248 NA
ATOM     17  C   UNL A   1      42.666  31.621  29.564  1.00  0.00     0.031 C 
ATOM     18  C   UNL A   1      40.927  27.005  28.563  1.00  0.00     0.029 A 
ATOM     19  N   UNL A   1      43.105  27.365  28.216  1.00  0.00    -0.354 N 
ATOM     20  C   UNL A   1      44.829  31.294  28.885  1.00  0.00     0.074 A 
ATOM     21  C   UNL A   1      43.840  32.218  29.401  1.00  0.00     0.031 C 
ATOM     22  C   UNL A   1      41.467  25.839  28.185  1.00  0.00     0.029 A 
ATOM     23  C   UNL A   1      42.883  26.043  27.912  1.00  0.00     0.049 A 
ATOM     24  H   UNL A   1      43.988  27.795  28.145  1.00  0.00     0.167 HD
ATOM     25  C   UNL A   1      46.129  31.602  28.660  1.00  0.00     0.037 A 
ATOM     26  C   UNL A   1      43.721  25.104  27.440  1.00  0.00     0.037 A 
ATOM     27  C   UNL A   1      47.102  30.664  28.158  1.00  0.00     0.049 A 
ATOM     28  C   UNL A   1      45.150  25.477  27.187  1.00  0.00     0.074 A 
ATOM     29  C   UNL A   1      48.448  30.870  27.903  1.00  0.00     0.029 A 
ATOM     30  N   UNL A   1      46.836  29.340  27.839  1.00  0.00    -0.354 N 
ATOM     31  N   UNL A   1      45.743  26.631  27.378  1.00  0.00    -0.248 NA
ATOM     32  C   UNL A   1      46.022  24.427  26.647  1.00  0.00     0.031 C 
ATOM     33  C   UNL A   1      48.986  29.680  27.399  1.00  0.00     0.029 A 
ATOM     34  C   UNL A   1      47.987  28.720  27.377  1.00  0.00     0.049 A 
ATOM     35  H   UNL A   1      45.958  28.903  27.926  1.00  0.00     0.167 HD
ATOM     36  C   UNL A   1      47.063  26.447  26.985  1.00  0.00     0.074 A 
ATOM     37  C   UNL A   1      47.184  25.063  26.569  1.00  0.00     0.031 C 
ATOM     38  C   UNL A   1      48.080  27.342  26.965  1.00  0.00     0.037 A 
BRANCH  25  39
ATOM     39  C   UNL A   1      46.575  33.013  28.933  1.00  0.00     0.058 A 
ATOM     40  C   UNL A   1      46.510  34.011  27.949  1.00  0.00     0.135 A 
ATOM     41  C   UNL A   1      47.031  33.382  30.210  1.00  0.00     0.135 A 
ATOM     42  F   UNL A   1      46.096  33.710  26.707  1.00  0.00    -0.206 F 
ATOM     43  C   UNL A   1      46.900  35.321  28.212  1.00  0.00     0.059 A 
ATOM     44  C   UNL A   1      47.407  34.691  30.502  1.00  0.00     0.059 A 
ATOM     45  F   UNL A   1      47.113  32.467  31.188  1.00  0.00    -0.206 F 
ATOM     46  C   UNL A   1      47.351  35.651  29.492  1.00  0.00     0.060 A 
BRANCH  46  47
ATOM     47  S   UNL A   1      47.853  37.354  29.821  1.00  0.00     0.124 S 
ATOM     48  O   UNL A   1      49.026  37.481  28.962  1.00  0.00    -0.237 OA
ATOM     49  O   UNL A   1      46.678  38.114  29.406  1.00  0.00    -0.237 OA
ATOM     50  O   UNL A   1      48.122  37.358  31.256  1.00  0.00    -0.744 OA
ENDBRANCH  46  47
ENDBRANCH  25  39
BRANCH  26  51
ATOM     51  C   UNL A   1      43.212  23.737  27.166  1.00  0.00     0.058 A 
ATOM     52  C   UNL A   1      43.043  22.807  28.201  1.00  0.00     0.135 A 
ATOM     53  C   UNL A   1      42.837  23.352  25.869  1.00  0.00     0.135 A 
ATOM     54  F   UNL A   1      43.386  23.133  29.458  1.00  0.00    -0.206 F 
ATOM     55  C   UNL A   1      42.530  21.538  27.960  1.00  0.00     0.059 A 
ATOM     56  C   UNL A   1      42.297  22.098  25.608  1.00  0.00     0.059 A 
ATOM     57  F   UNL A   1      42.957  24.215  24.849  1.00  0.00    -0.206 F 
ATOM     58  C   UNL A   1      42.157  21.194  26.660  1.00  0.00     0.060 A 
BRANCH  58  59
ATOM     59  S   UNL A   1      41.436  19.566  26.363  1.00  0.00     0.124 S 
ATOM     60  O   UNL A   1      41.660  18.909  27.646  1.00  0.00    -0.237 OA
ATOM     61  O   UNL A   1      40.049  19.893  26.046  1.00  0.00    -0.237 OA
ATOM     62  O   UNL A   1      42.221  19.054  25.243  1.00  0.00    -0.744 OA
ENDBRANCH  58  59
ENDBRANCH  26  51
BRANCH  38  63
ATOM     63  C   UNL A   1      49.411  26.839  26.491  1.00  0.00     0.058 A 
ATOM     64  C   UNL A   1      50.295  26.180  27.358  1.00  0.00     0.135 A 
ATOM     65  C   UNL A   1      49.798  27.003  25.152  1.00  0.00     0.135 A 
ATOM     66  F   UNL A   1      49.974  26.009  28.650  1.00  0.00    -0.206 F 
ATOM     67  C   UNL A   1      51.532  25.720  26.920  1.00  0.00     0.059 A 
ATOM     68  C   UNL A   1      51.020  26.531  24.686  1.00  0.00     0.059 A 
ATOM     69  F   UNL A   1      48.983  27.623  24.284  1.00  0.00    -0.206 F 
ATOM     70  C   UNL A   1      51.886  25.904  25.581  1.00  0.00     0.060 A 
BRANCH  70  71
ATOM     71  S   UNL A   1      53.486  25.288  25.016  1.00  0.00     0.124 S 
ATOM     72  O   UNL A   1      53.361  23.859  25.287  1.00  0.00    -0.237 OA
ATOM     73  O   UNL A   1      53.490  25.667  23.607  1.00  0.00    -0.237 OA
ATOM     74  O   UNL A   1      54.440  26.006  25.855  1.00  0.00    -0.744 OA
ENDBRANCH  70  71
ENDBRANCH  38  63
ENDBRANCH  12  13
ENDBRANCH   5   7
ENDBRANCH   2   3
ENDBRANCH   1   2
BRANCH   1  75
ATOM     75  C   UNL A   1      33.972  31.242  27.624  1.00  0.00     0.023 C 
BRANCH  75  76
ATOM     76  C   UNL A   1      32.721  30.878  26.826  1.00  0.00     0.116 C 
BRANCH  76  77
ATOM     77  N   UNL A   1      32.045  29.753  27.422  1.00  0.00    -0.355 N 
ATOM     78  C   UNL A   1      31.887  28.489  26.933  1.00  0.00     0.233 C 
ATOM     79  H   UNL A   1      31.641  29.918  28.305  1.00  0.00     0.163 HD
ATOM     80  O   UNL A   1      31.186  27.714  27.590  1.00  0.00    -0.274 OA
BRANCH  78  81
ATOM     81  C   UNL A   1      32.585  28.013  25.643  1.00  0.00     0.141 C 
BRANCH  81  82
ATOM     82  S   UNL A   1      33.480  26.403  26.081  1.00  0.00    -0.134 SA
BRANCH  82  83
ATOM     83  C   UNL A   1      33.067  25.124  24.850  1.00  0.00     0.147 C 
ATOM     84  C   UNL A   1      33.796  25.158  23.526  1.00  0.00     0.125 C 
ATOM     85  C   UNL A   1      33.156  23.698  25.307  1.00  0.00     0.247 C 
ATOM     86  C   UNL A   1      33.836  23.714  23.123  1.00  0.00     0.235 C 
ATOM     87  N   UNL A   1      33.517  22.931  24.212  1.00  0.00    -0.250 N 
ATOM     88  O   UNL A   1      32.945  23.332  26.456  1.00  0.00    -0.273 OA
ATOM     89  O   UNL A   1      34.127  23.368  21.986  1.00  0.00    -0.274 OA
BRANCH  87  90
ATOM     90  C   UNL A   1      33.594  21.511  24.230  1.00  0.00     0.052 A 
ATOM     91  C   UNL A   1      34.726  20.845  24.731  1.00  0.00     0.028 A 
ATOM     92  C   UNL A   1      32.525  20.726  23.772  1.00  0.00     0.028 A 
ATOM     93  C   UNL A   1      34.761  19.450  24.828  1.00  0.00     0.022 A 
ATOM     94  C   UNL A   1      32.569  19.330  23.838  1.00  0.00     0.022 A 
ATOM     95  C   UNL A   1      33.681  18.697  24.383  1.00  0.00     0.041 A 
ATOM     96  Cl  UNL A   1      33.713  16.983  24.510  1.00  0.00    -0.084 Cl
ENDBRANCH  87  90
ENDBRANCH  82  83
ENDBRANCH  81  82
BRANCH  81  97
ATOM     97  C   UNL A   1      31.821  28.138  24.309  1.00  0.00     0.061 C 
BRANCH  97  98
ATOM     98  C   UNL A   1      30.345  27.824  24.098  1.00  0.00    -0.028 A 
ATOM     99  C   UNL A   1      29.744  26.603  24.430  1.00  0.00     0.005 A 
ATOM    100  C   UNL A   1      29.504  28.812  23.534  1.00  0.00     0.044 A 
ATOM    101  C   UNL A   1      28.413  26.329  24.086  1.00  0.00     0.000 A 
ATOM    102  C   UNL A   1      28.169  28.548  23.212  1.00  0.00     0.021 A 
ATOM    103  Cl  UNL A   1      30.061  30.421  23.226  1.00  0.00    -0.084 Cl
ATOM    104  C   UNL A   1      27.631  27.293  23.461  1.00  0.00     0.002 A 
ENDBRANCH  97  98
ENDBRANCH  81  97
ENDBRANCH  78  81
ENDBRANCH  76  77
ENDBRANCH  75  76
ENDBRANCH   1  75
TORSDOF 19
ENDMDL
