MODEL 1
REMARK VINA RESULT:     -10.6      0.000      0.000
REMARK SMILES COC(=O)[C@@H]1[C@@H](NC(=O)COCC(=O)NCCCCNC(=O)c2ccc(-c3c4nc(c(-c5c(F)cc(S(=O)(=O)[O-])cc5F)c5ccc([nH]5)c(-c5c(F)cc(S(=O)(=O)[O-])cc5F)c5nc(c(-c6c(F)cc(S(=O)(=O)[O-])cc6F)c6ccc3[nH]6)C=C5)C=C4)cc2)CCN1C(C)=O
REMARK SMILES IDX 16 1 15 2 13 3 14 4 12 6 11 7 10 8 8 9 7 10 9 12 6 13 5 14
REMARK SMILES IDX 91 15 89 16 90 17 3 18 4 19 2 20 1 21 92 22 93 23 94 24
REMARK SMILES IDX 17 25 18 26 19 27 20 28 21 29 22 31 23 32 24 33 88 34 25 35
REMARK SMILES IDX 87 36 26 37 27 38 28 39 81 40 29 41 86 42 80 43 82 44 30 45
REMARK SMILES IDX 85 46 79 47 78 48 31 50 65 51 44 52 64 53 45 54 48 55 63 56
REMARK SMILES IDX 83 57 46 58 47 59 62 61 84 62 49 63 32 64 33 65 42 66 34 67
REMARK SMILES IDX 35 68 41 69 43 70 36 71 37 72 38 73 39 74 40 75 66 76 67 77
REMARK SMILES IDX 76 78 68 79 69 80 75 81 77 82 70 83 71 84 72 85 73 86 74 87
REMARK SMILES IDX 50 88 51 89 60 90 52 91 53 92 59 93 61 94 54 95 55 96 56 97
REMARK SMILES IDX 57 98 58 99
REMARK H PARENT 15 5 7 11 20 30 82 49 48 60
REMARK Flexibility Score: inf
ROOT
ATOM      1  C   UNL A   1      35.062  20.695  24.944  1.00  0.00     0.116 C 
ENDROOT
BRANCH   1   2
ATOM      2  N   UNL A   1      34.176  19.587  25.246  1.00  0.00    -0.354 N 
ATOM      3  C   UNL A   1      32.814  19.530  25.181  1.00  0.00     0.246 C 
ATOM      4  O   UNL A   1      32.250  18.479  25.489  1.00  0.00    -0.272 OA
ATOM      5  H   UNL A   1      34.619  18.758  25.540  1.00  0.00     0.163 HD
BRANCH   3   6
ATOM      6  C   UNL A   1      32.026  20.721  24.638  1.00  0.00     0.260 C 
BRANCH   6   7
ATOM      7  O   UNL A   1      31.372  21.511  25.624  1.00  0.00    -0.362 OA
BRANCH   7   8
ATOM      8  C   UNL A   1      31.601  22.903  25.477  1.00  0.00     0.260 C 
BRANCH   8   9
ATOM      9  C   UNL A   1      30.950  23.723  26.583  1.00  0.00     0.246 C 
ATOM     10  N   UNL A   1      30.920  25.081  26.548  1.00  0.00    -0.349 N 
ATOM     11  H   UNL A   1      30.179  25.449  27.082  1.00  0.00     0.163 HD
ATOM     12  O   UNL A   1      30.372  23.172  27.524  1.00  0.00    -0.272 OA
BRANCH  10  13
ATOM     13  C   UNL A   1      31.720  26.132  25.910  1.00  0.00     0.118 C 
ATOM     14  C   UNL A   1      31.610  26.523  24.414  1.00  0.00     0.217 C 
ATOM     15  N   UNL A   1      33.007  26.854  24.038  1.00  0.00    -0.327 N 
ATOM     16  C   UNL A   1      33.205  25.790  26.087  1.00  0.00     0.049 C 
ATOM     17  C   UNL A   1      33.906  26.765  25.165  1.00  0.00     0.122 C 
BRANCH  14  18
ATOM     18  C   UNL A   1      30.750  27.792  24.241  1.00  0.00     0.330 C 
ATOM     19  O   UNL A   1      30.991  28.889  24.732  1.00  0.00    -0.250 OA
BRANCH  18  20
ATOM     20  O   UNL A   1      29.669  27.553  23.446  1.00  0.00    -0.467 OA
ATOM     21  C   UNL A   1      28.886  26.427  23.850  1.00  0.00     0.282 C 
ENDBRANCH  18  20
ENDBRANCH  14  18
BRANCH  15  22
ATOM     22  C   UNL A   1      33.351  27.102  22.727  1.00  0.00     0.220 C 
ATOM     23  C   UNL A   1      33.969  28.446  22.432  1.00  0.00     0.114 C 
ATOM     24  O   UNL A   1      33.088  26.309  21.824  1.00  0.00    -0.275 OA
ENDBRANCH  15  22
ENDBRANCH  10  13
ENDBRANCH   8   9
ENDBRANCH   7   8
ENDBRANCH   6   7
ENDBRANCH   3   6
ENDBRANCH   1   2
BRANCH   1  25
ATOM     25  C   UNL A   1      35.406  21.528  26.179  1.00  0.00     0.023 C 
BRANCH  25  26
ATOM     26  C   UNL A   1      35.554  23.028  25.919  1.00  0.00     0.023 C 
BRANCH  26  27
ATOM     27  C   UNL A   1      36.973  23.507  25.639  1.00  0.00     0.116 C 
BRANCH  27  28
ATOM     28  N   UNL A   1      37.994  22.556  26.049  1.00  0.00    -0.352 N 
ATOM     29  C   UNL A   1      39.207  22.825  26.644  1.00  0.00     0.251 C 
ATOM     30  H   UNL A   1      37.794  21.607  25.883  1.00  0.00     0.163 HD
ATOM     31  O   UNL A   1      40.024  21.931  26.840  1.00  0.00    -0.269 OA
BRANCH  29  32
ATOM     32  C   UNL A   1      39.529  24.224  27.006  1.00  0.00     0.039 A 
ATOM     33  C   UNL A   1      39.334  24.649  28.322  1.00  0.00     0.014 A 
ATOM     34  C   UNL A   1      40.095  25.082  26.060  1.00  0.00     0.014 A 
ATOM     35  C   UNL A   1      39.785  25.914  28.713  1.00  0.00     0.010 A 
ATOM     36  C   UNL A   1      40.601  26.313  26.467  1.00  0.00     0.010 A 
ATOM     37  C   UNL A   1      40.461  26.739  27.799  1.00  0.00    -0.014 A 
BRANCH  37  38
ATOM     38  C   UNL A   1      41.039  28.051  28.194  1.00  0.00     0.031 A 
ATOM     39  C   UNL A   1      42.529  28.249  28.134  1.00  0.00     0.074 A 
ATOM     40  C   UNL A   1      40.248  29.011  28.715  1.00  0.00     0.049 A 
ATOM     41  N   UNL A   1      43.254  29.222  28.621  1.00  0.00    -0.248 NA
ATOM     42  C   UNL A   1      43.310  27.194  27.466  1.00  0.00     0.031 C 
ATOM     43  C   UNL A   1      38.793  28.928  28.863  1.00  0.00     0.029 A 
ATOM     44  N   UNL A   1      40.562  30.239  29.248  1.00  0.00    -0.354 N 
ATOM     45  C   UNL A   1      44.574  28.876  28.359  1.00  0.00     0.074 A 
ATOM     46  C   UNL A   1      44.553  27.594  27.689  1.00  0.00     0.031 C 
ATOM     47  C   UNL A   1      38.345  30.051  29.451  1.00  0.00     0.029 A 
ATOM     48  C   UNL A   1      39.479  30.914  29.761  1.00  0.00     0.049 A 
ATOM     49  H   UNL A   1      41.478  30.601  29.261  1.00  0.00     0.167 HD
ATOM     50  C   UNL A   1      45.701  29.572  28.641  1.00  0.00     0.037 A 
ATOM     51  C   UNL A   1      39.411  32.082  30.431  1.00  0.00     0.037 A 
ATOM     52  C   UNL A   1      45.712  30.874  29.253  1.00  0.00     0.049 A 
ATOM     53  C   UNL A   1      40.677  32.853  30.700  1.00  0.00     0.074 A 
ATOM     54  C   UNL A   1      46.800  31.690  29.511  1.00  0.00     0.029 A 
ATOM     55  N   UNL A   1      44.587  31.555  29.689  1.00  0.00    -0.354 N 
ATOM     56  N   UNL A   1      41.913  32.534  30.400  1.00  0.00    -0.248 NA
ATOM     57  C   UNL A   1      40.543  34.142  31.396  1.00  0.00     0.031 C 
ATOM     58  C   UNL A   1      46.334  32.854  30.130  1.00  0.00     0.029 A 
ATOM     59  C   UNL A   1      44.953  32.778  30.221  1.00  0.00     0.049 A 
ATOM     60  H   UNL A   1      43.663  31.217  29.628  1.00  0.00     0.167 HD
ATOM     61  C   UNL A   1      42.696  33.597  30.838  1.00  0.00     0.074 A 
ATOM     62  C   UNL A   1      41.798  34.569  31.423  1.00  0.00     0.031 C 
ATOM     63  C   UNL A   1      44.041  33.752  30.760  1.00  0.00     0.037 A 
BRANCH  50  64
ATOM     64  C   UNL A   1      47.022  28.950  28.285  1.00  0.00     0.058 A 
ATOM     65  C   UNL A   1      47.718  28.134  29.188  1.00  0.00     0.135 A 
ATOM     66  C   UNL A   1      47.561  29.119  26.999  1.00  0.00     0.135 A 
ATOM     67  F   UNL A   1      47.253  27.955  30.435  1.00  0.00    -0.206 F 
ATOM     68  C   UNL A   1      48.912  27.515  28.834  1.00  0.00     0.059 A 
ATOM     69  C   UNL A   1      48.741  28.489  26.615  1.00  0.00     0.059 A 
ATOM     70  F   UNL A   1      46.935  29.893  26.098  1.00  0.00    -0.206 F 
ATOM     71  C   UNL A   1      49.413  27.695  27.543  1.00  0.00     0.060 A 
BRANCH  71  72
ATOM     72  S   UNL A   1      50.946  26.856  27.089  1.00  0.00     0.124 S 
ATOM     73  O   UNL A   1      51.433  26.416  28.392  1.00  0.00    -0.237 OA
ATOM     74  O   UNL A   1      50.474  25.800  26.200  1.00  0.00    -0.237 OA
ATOM     75  O   UNL A   1      51.731  27.908  26.448  1.00  0.00    -0.744 OA
ENDBRANCH  71  72
ENDBRANCH  50  64
BRANCH  51  76
ATOM     76  C   UNL A   1      38.100  32.603  30.902  1.00  0.00     0.058 A 
ATOM     77  C   UNL A   1      37.278  33.362  30.056  1.00  0.00     0.135 A 
ATOM     78  C   UNL A   1      37.651  32.374  32.213  1.00  0.00     0.135 A 
ATOM     79  F   UNL A   1      37.666  33.614  28.796  1.00  0.00    -0.206 F 
ATOM     80  C   UNL A   1      36.074  33.902  30.497  1.00  0.00     0.059 A 
ATOM     81  C   UNL A   1      36.439  32.882  32.670  1.00  0.00     0.059 A 
ATOM     82  F   UNL A   1      38.391  31.639  33.058  1.00  0.00    -0.206 F 
ATOM     83  C   UNL A   1      35.665  33.660  31.810  1.00  0.00     0.060 A 
BRANCH  83  84
ATOM     84  S   UNL A   1      34.094  34.351  32.372  1.00  0.00     0.124 S 
ATOM     85  O   UNL A   1      33.446  34.673  31.105  1.00  0.00    -0.237 OA
ATOM     86  O   UNL A   1      33.516  33.239  33.119  1.00  0.00    -0.237 OA
ATOM     87  O   UNL A   1      34.504  35.494  33.182  1.00  0.00    -0.744 OA
ENDBRANCH  83  84
ENDBRANCH  51  76
BRANCH  63  88
ATOM     88  C   UNL A   1      44.630  35.041  31.256  1.00  0.00     0.058 A 
ATOM     89  C   UNL A   1      44.728  36.173  30.433  1.00  0.00     0.135 A 
ATOM     90  C   UNL A   1      45.002  35.172  32.604  1.00  0.00     0.135 A 
ATOM     91  F   UNL A   1      44.392  36.096  29.136  1.00  0.00    -0.206 F 
ATOM     92  C   UNL A   1      45.175  37.393  30.931  1.00  0.00     0.059 A 
ATOM     93  C   UNL A   1      45.431  36.387  33.128  1.00  0.00     0.059 A 
ATOM     94  F   UNL A   1      44.918  34.119  33.433  1.00  0.00    -0.206 F 
ATOM     95  C   UNL A   1      45.516  37.492  32.282  1.00  0.00     0.060 A 
BRANCH  95  96
ATOM     96  S   UNL A   1      46.018  39.099  32.935  1.00  0.00     0.124 S 
ATOM     97  O   UNL A   1      47.454  38.912  33.105  1.00  0.00    -0.237 OA
ATOM     98  O   UNL A   1      45.619  40.009  31.865  1.00  0.00    -0.237 OA
ATOM     99  O   UNL A   1      45.248  39.219  34.169  1.00  0.00    -0.744 OA
ENDBRANCH  95  96
ENDBRANCH  63  88
ENDBRANCH  37  38
ENDBRANCH  29  32
ENDBRANCH  27  28
ENDBRANCH  26  27
ENDBRANCH  25  26
ENDBRANCH   1  25
TORSDOF 21
ENDMDL
MODEL 2
REMARK VINA RESULT:     -10.5      2.809      9.216
REMARK SMILES COC(=O)[C@@H]1[C@@H](NC(=O)COCC(=O)NCCCCNC(=O)c2ccc(-c3c4nc(c(-c5c(F)cc(S(=O)(=O)[O-])cc5F)c5ccc([nH]5)c(-c5c(F)cc(S(=O)(=O)[O-])cc5F)c5nc(c(-c6c(F)cc(S(=O)(=O)[O-])cc6F)c6ccc3[nH]6)C=C5)C=C4)cc2)CCN1C(C)=O
REMARK SMILES IDX 16 1 15 2 13 3 14 4 12 6 11 7 10 8 8 9 7 10 9 12 6 13 5 14
REMARK SMILES IDX 91 15 89 16 90 17 3 18 4 19 2 20 1 21 92 22 93 23 94 24
REMARK SMILES IDX 17 25 18 26 19 27 20 28 21 29 22 31 23 32 24 33 88 34 25 35
REMARK SMILES IDX 87 36 26 37 27 38 28 39 81 40 29 41 86 42 80 43 82 44 30 45
REMARK SMILES IDX 85 46 79 47 78 48 31 50 65 51 44 52 64 53 45 54 48 55 63 56
REMARK SMILES IDX 83 57 46 58 47 59 62 61 84 62 49 63 32 64 33 65 42 66 34 67
REMARK SMILES IDX 35 68 41 69 43 70 36 71 37 72 38 73 39 74 40 75 66 76 67 77
REMARK SMILES IDX 76 78 68 79 69 80 75 81 77 82 70 83 71 84 72 85 73 86 74 87
REMARK SMILES IDX 50 88 51 89 60 90 52 91 53 92 59 93 61 94 54 95 55 96 56 97
REMARK SMILES IDX 57 98 58 99
REMARK H PARENT 15 5 7 11 20 30 82 49 48 60
REMARK Flexibility Score: inf
ROOT
ATOM      1  C   UNL A   1      31.231  29.607  25.063  1.00  0.00     0.116 C 
ENDROOT
BRANCH   1   2
ATOM      2  N   UNL A   1      30.786  29.602  23.682  1.00  0.00    -0.354 N 
ATOM      3  C   UNL A   1      30.158  28.614  22.983  1.00  0.00     0.246 C 
ATOM      4  O   UNL A   1      29.868  28.816  21.803  1.00  0.00    -0.272 OA
ATOM      5  H   UNL A   1      30.963  30.429  23.178  1.00  0.00     0.163 HD
BRANCH   3   6
ATOM      6  C   UNL A   1      29.739  27.327  23.690  1.00  0.00     0.260 C 
BRANCH   6   7
ATOM      7  O   UNL A   1      30.700  26.795  24.594  1.00  0.00    -0.362 OA
BRANCH   7   8
ATOM      8  C   UNL A   1      30.658  25.381  24.698  1.00  0.00     0.260 C 
BRANCH   8   9
ATOM      9  C   UNL A   1      30.436  24.906  26.128  1.00  0.00     0.246 C 
ATOM     10  N   UNL A   1      31.346  24.134  26.778  1.00  0.00    -0.349 N 
ATOM     11  H   UNL A   1      31.273  24.219  27.756  1.00  0.00     0.163 HD
ATOM     12  O   UNL A   1      29.442  25.260  26.766  1.00  0.00    -0.272 OA
BRANCH  10  13
ATOM     13  C   UNL A   1      32.410  23.206  26.379  1.00  0.00     0.118 C 
ATOM     14  C   UNL A   1      32.241  22.094  25.313  1.00  0.00     0.217 C 
ATOM     15  N   UNL A   1      33.070  20.981  25.837  1.00  0.00    -0.327 N 
ATOM     16  C   UNL A   1      32.886  22.445  27.623  1.00  0.00     0.049 C 
ATOM     17  C   UNL A   1      33.755  21.344  27.056  1.00  0.00     0.122 C 
BRANCH  14  18
ATOM     18  C   UNL A   1      32.833  22.539  23.958  1.00  0.00     0.330 C 
ATOM     19  O   UNL A   1      32.387  22.245  22.855  1.00  0.00    -0.250 OA
BRANCH  18  20
ATOM     20  O   UNL A   1      33.928  23.332  24.133  1.00  0.00    -0.467 OA
ATOM     21  C   UNL A   1      34.032  24.398  23.186  1.00  0.00     0.282 C 
ENDBRANCH  18  20
ENDBRANCH  14  18
BRANCH  15  22
ATOM     22  C   UNL A   1      33.053  19.739  25.241  1.00  0.00     0.220 C 
ATOM     23  C   UNL A   1      34.350  19.259  24.639  1.00  0.00     0.114 C 
ATOM     24  O   UNL A   1      32.016  19.089  25.121  1.00  0.00    -0.275 OA
ENDBRANCH  15  22
ENDBRANCH  10  13
ENDBRANCH   8   9
ENDBRANCH   7   8
ENDBRANCH   6   7
ENDBRANCH   3   6
ENDBRANCH   1   2
BRANCH   1  25
ATOM     25  C   UNL A   1      32.753  29.654  25.193  1.00  0.00     0.023 C 
BRANCH  25  26
ATOM     26  C   UNL A   1      33.374  28.451  25.905  1.00  0.00     0.023 C 
BRANCH  26  27
ATOM     27  C   UNL A   1      33.757  28.680  27.362  1.00  0.00     0.116 C 
BRANCH  27  28
ATOM     28  N   UNL A   1      33.669  30.073  27.769  1.00  0.00    -0.352 N 
ATOM     29  C   UNL A   1      34.643  30.839  28.373  1.00  0.00     0.251 C 
ATOM     30  H   UNL A   1      32.813  30.523  27.591  1.00  0.00     0.163 HD
ATOM     31  O   UNL A   1      34.397  31.975  28.764  1.00  0.00    -0.269 OA
BRANCH  29  32
ATOM     32  C   UNL A   1      35.984  30.250  28.583  1.00  0.00     0.039 A 
ATOM     33  C   UNL A   1      36.912  30.277  27.539  1.00  0.00     0.014 A 
ATOM     34  C   UNL A   1      36.343  29.746  29.836  1.00  0.00     0.014 A 
ATOM     35  C   UNL A   1      38.229  29.872  27.775  1.00  0.00     0.010 A 
ATOM     36  C   UNL A   1      37.669  29.407  30.085  1.00  0.00     0.010 A 
ATOM     37  C   UNL A   1      38.629  29.476  29.061  1.00  0.00    -0.014 A 
BRANCH  37  38
ATOM     38  C   UNL A   1      40.039  29.127  29.379  1.00  0.00     0.031 A 
ATOM     39  C   UNL A   1      40.955  30.186  29.931  1.00  0.00     0.074 A 
ATOM     40  C   UNL A   1      40.525  27.909  29.065  1.00  0.00     0.049 A 
ATOM     41  N   UNL A   1      42.253  30.161  30.081  1.00  0.00    -0.248 NA
ATOM     42  C   UNL A   1      40.328  31.456  30.338  1.00  0.00     0.031 C 
ATOM     43  C   UNL A   1      39.751  26.807  28.489  1.00  0.00     0.029 A 
ATOM     44  N   UNL A   1      41.800  27.403  29.154  1.00  0.00    -0.354 N 
ATOM     45  C   UNL A   1      42.603  31.419  30.554  1.00  0.00     0.074 A 
ATOM     46  C   UNL A   1      41.385  32.193  30.647  1.00  0.00     0.031 C 
ATOM     47  C   UNL A   1      40.566  25.760  28.274  1.00  0.00     0.029 A 
ATOM     48  C   UNL A   1      41.926  26.127  28.653  1.00  0.00     0.049 A 
ATOM     49  H   UNL A   1      42.553  27.906  29.541  1.00  0.00     0.167 HD
ATOM     50  C   UNL A   1      43.830  31.883  30.892  1.00  0.00     0.037 A 
ATOM     51  C   UNL A   1      43.018  25.353  28.491  1.00  0.00     0.037 A 
ATOM     52  C   UNL A   1      45.029  31.090  30.855  1.00  0.00     0.049 A 
ATOM     53  C   UNL A   1      44.365  25.881  28.909  1.00  0.00     0.074 A 
ATOM     54  C   UNL A   1      46.307  31.450  31.248  1.00  0.00     0.029 A 
ATOM     55  N   UNL A   1      45.100  29.779  30.412  1.00  0.00    -0.354 N 
ATOM     56  N   UNL A   1      44.670  27.058  29.401  1.00  0.00    -0.248 NA
ATOM     57  C   UNL A   1      45.517  24.980  28.751  1.00  0.00     0.031 C 
ATOM     58  C   UNL A   1      47.156  30.364  31.017  1.00  0.00     0.029 A 
ATOM     59  C   UNL A   1      46.400  29.316  30.515  1.00  0.00     0.049 A 
ATOM     60  H   UNL A   1      44.337  29.255  30.074  1.00  0.00     0.167 HD
ATOM     61  C   UNL A   1      46.039  27.024  29.645  1.00  0.00     0.074 A 
ATOM     62  C   UNL A   1      46.506  25.713  29.247  1.00  0.00     0.031 C 
ATOM     63  C   UNL A   1      46.837  27.993  30.155  1.00  0.00     0.037 A 
BRANCH  50  64
ATOM     64  C   UNL A   1      43.944  33.312  31.343  1.00  0.00     0.058 A 
ATOM     65  C   UNL A   1      43.944  33.657  32.703  1.00  0.00     0.135 A 
ATOM     66  C   UNL A   1      44.126  34.340  30.403  1.00  0.00     0.135 A 
ATOM     67  F   UNL A   1      43.757  32.713  33.639  1.00  0.00    -0.206 F 
ATOM     68  C   UNL A   1      44.107  34.974  33.117  1.00  0.00     0.059 A 
ATOM     69  C   UNL A   1      44.315  35.662  30.796  1.00  0.00     0.059 A 
ATOM     70  F   UNL A   1      44.131  34.063  29.089  1.00  0.00    -0.206 F 
ATOM     71  C   UNL A   1      44.296  35.969  32.155  1.00  0.00     0.060 A 
BRANCH  71  72
ATOM     72  S   UNL A   1      44.540  37.669  32.712  1.00  0.00     0.124 S 
ATOM     73  O   UNL A   1      45.498  37.484  33.797  1.00  0.00    -0.237 OA
ATOM     74  O   UNL A   1      45.060  38.319  31.514  1.00  0.00    -0.237 OA
ATOM     75  O   UNL A   1      43.202  38.088  33.119  1.00  0.00    -0.744 OA
ENDBRANCH  71  72
ENDBRANCH  50  64
BRANCH  51  76
ATOM     76  C   UNL A   1      42.893  23.992  27.904  1.00  0.00     0.058 A 
ATOM     77  C   UNL A   1      42.853  23.806  26.514  1.00  0.00     0.135 A 
ATOM     78  C   UNL A   1      42.789  22.852  28.717  1.00  0.00     0.135 A 
ATOM     79  F   UNL A   1      42.943  24.866  25.694  1.00  0.00    -0.206 F 
ATOM     80  C   UNL A   1      42.682  22.546  25.949  1.00  0.00     0.059 A 
ATOM     81  C   UNL A   1      42.643  21.578  28.176  1.00  0.00     0.059 A 
ATOM     82  F   UNL A   1      42.840  22.972  30.053  1.00  0.00    -0.206 F 
ATOM     83  C   UNL A   1      42.573  21.437  26.790  1.00  0.00     0.060 A 
BRANCH  83  84
ATOM     84  S   UNL A   1      42.368  19.802  26.050  1.00  0.00     0.124 S 
ATOM     85  O   UNL A   1      43.452  19.784  25.075  1.00  0.00    -0.237 OA
ATOM     86  O   UNL A   1      42.529  18.919  27.200  1.00  0.00    -0.237 OA
ATOM     87  O   UNL A   1      41.018  19.855  25.496  1.00  0.00    -0.744 OA
ENDBRANCH  83  84
ENDBRANCH  51  76
BRANCH  63  88
ATOM     88  C   UNL A   1      48.286  27.667  30.379  1.00  0.00     0.058 A 
ATOM     89  C   UNL A   1      48.711  26.913  31.482  1.00  0.00     0.135 A 
ATOM     90  C   UNL A   1      49.244  28.026  29.417  1.00  0.00     0.135 A 
ATOM     91  F   UNL A   1      47.833  26.553  32.432  1.00  0.00    -0.206 F 
ATOM     92  C   UNL A   1      50.039  26.524  31.625  1.00  0.00     0.059 A 
ATOM     93  C   UNL A   1      50.573  27.630  29.529  1.00  0.00     0.059 A 
ATOM     94  F   UNL A   1      48.885  28.741  28.339  1.00  0.00    -0.206 F 
ATOM     95  C   UNL A   1      50.961  26.880  30.638  1.00  0.00     0.060 A 
BRANCH  95  96
ATOM     96  S   UNL A   1      52.664  26.302  30.793  1.00  0.00     0.124 S 
ATOM     97  O   UNL A   1      53.277  27.390  31.546  1.00  0.00    -0.237 OA
ATOM     98  O   UNL A   1      52.503  25.043  31.515  1.00  0.00    -0.237 OA
ATOM     99  O   UNL A   1      53.105  26.169  29.408  1.00  0.00    -0.744 OA
ENDBRANCH  95  96
ENDBRANCH  63  88
ENDBRANCH  37  38
ENDBRANCH  29  32
ENDBRANCH  27  28
ENDBRANCH  26  27
ENDBRANCH  25  26
ENDBRANCH   1  25
TORSDOF 21
ENDMDL
MODEL 3
REMARK VINA RESULT:     -10.3      3.268      9.688
REMARK SMILES COC(=O)[C@@H]1[C@@H](NC(=O)COCC(=O)NCCCCNC(=O)c2ccc(-c3c4nc(c(-c5c(F)cc(S(=O)(=O)[O-])cc5F)c5ccc([nH]5)c(-c5c(F)cc(S(=O)(=O)[O-])cc5F)c5nc(c(-c6c(F)cc(S(=O)(=O)[O-])cc6F)c6ccc3[nH]6)C=C5)C=C4)cc2)CCN1C(C)=O
REMARK SMILES IDX 16 1 15 2 13 3 14 4 12 6 11 7 10 8 8 9 7 10 9 12 6 13 5 14
REMARK SMILES IDX 91 15 89 16 90 17 3 18 4 19 2 20 1 21 92 22 93 23 94 24
REMARK SMILES IDX 17 25 18 26 19 27 20 28 21 29 22 31 23 32 24 33 88 34 25 35
REMARK SMILES IDX 87 36 26 37 27 38 28 39 81 40 29 41 86 42 80 43 82 44 30 45
REMARK SMILES IDX 85 46 79 47 78 48 31 50 65 51 44 52 64 53 45 54 48 55 63 56
REMARK SMILES IDX 83 57 46 58 47 59 62 61 84 62 49 63 32 64 33 65 42 66 34 67
REMARK SMILES IDX 35 68 41 69 43 70 36 71 37 72 38 73 39 74 40 75 66 76 67 77
REMARK SMILES IDX 76 78 68 79 69 80 75 81 77 82 70 83 71 84 72 85 73 86 74 87
REMARK SMILES IDX 50 88 51 89 60 90 52 91 53 92 59 93 61 94 54 95 55 96 56 97
REMARK SMILES IDX 57 98 58 99
REMARK H PARENT 15 5 7 11 20 30 82 49 48 60
REMARK Flexibility Score: inf
ROOT
ATOM      1  C   UNL A   1      32.480  29.625  25.455  1.00  0.00     0.116 C 
ENDROOT
BRANCH   1   2
ATOM      2  N   UNL A   1      31.562  28.502  25.503  1.00  0.00    -0.354 N 
ATOM      3  C   UNL A   1      31.449  27.445  24.649  1.00  0.00     0.246 C 
ATOM      4  O   UNL A   1      30.588  26.593  24.872  1.00  0.00    -0.272 OA
ATOM      5  H   UNL A   1      30.931  28.504  26.259  1.00  0.00     0.163 HD
BRANCH   3   6
ATOM      6  C   UNL A   1      32.443  27.282  23.500  1.00  0.00     0.260 C 
BRANCH   6   7
ATOM      7  O   UNL A   1      31.875  27.351  22.197  1.00  0.00    -0.362 OA
BRANCH   7   8
ATOM      8  C   UNL A   1      31.416  26.099  21.714  1.00  0.00     0.260 C 
BRANCH   8   9
ATOM      9  C   UNL A   1      32.546  25.229  21.179  1.00  0.00     0.246 C 
ATOM     10  N   UNL A   1      32.933  24.088  21.806  1.00  0.00    -0.349 N 
ATOM     11  H   UNL A   1      33.374  23.458  21.192  1.00  0.00     0.163 HD
ATOM     12  O   UNL A   1      33.109  25.505  20.117  1.00  0.00    -0.272 OA
BRANCH  10  13
ATOM     13  C   UNL A   1      32.857  23.566  23.175  1.00  0.00     0.118 C 
ATOM     14  C   UNL A   1      34.076  23.051  23.981  1.00  0.00     0.217 C 
ATOM     15  N   UNL A   1      33.524  21.919  24.764  1.00  0.00    -0.327 N 
ATOM     16  C   UNL A   1      31.885  22.378  23.192  1.00  0.00     0.049 C 
ATOM     17  C   UNL A   1      32.104  21.759  24.555  1.00  0.00     0.122 C 
BRANCH  14  18
ATOM     18  C   UNL A   1      34.573  24.126  24.971  1.00  0.00     0.330 C 
ATOM     19  O   UNL A   1      33.873  24.731  25.776  1.00  0.00    -0.250 OA
BRANCH  18  20
ATOM     20  O   UNL A   1      35.917  24.322  24.856  1.00  0.00    -0.467 OA
ATOM     21  C   UNL A   1      36.677  23.801  25.950  1.00  0.00     0.282 C 
ENDBRANCH  18  20
ENDBRANCH  14  18
BRANCH  15  22
ATOM     22  C   UNL A   1      34.346  21.092  25.497  1.00  0.00     0.220 C 
ATOM     23  C   UNL A   1      34.910  19.890  24.780  1.00  0.00     0.114 C 
ATOM     24  O   UNL A   1      34.542  21.266  26.698  1.00  0.00    -0.275 OA
ENDBRANCH  15  22
ENDBRANCH  10  13
ENDBRANCH   8   9
ENDBRANCH   7   8
ENDBRANCH   6   7
ENDBRANCH   3   6
ENDBRANCH   1   2
BRANCH   1  25
ATOM     25  C   UNL A   1      33.759  29.376  26.253  1.00  0.00     0.023 C 
BRANCH  25  26
ATOM     26  C   UNL A   1      34.051  30.415  27.338  1.00  0.00     0.023 C 
BRANCH  26  27
ATOM     27  C   UNL A   1      35.295  30.153  28.177  1.00  0.00     0.116 C 
BRANCH  27  28
ATOM     28  N   UNL A   1      35.380  30.994  29.360  1.00  0.00    -0.352 N 
ATOM     29  C   UNL A   1      36.450  31.142  30.215  1.00  0.00     0.251 C 
ATOM     30  H   UNL A   1      34.577  31.521  29.576  1.00  0.00     0.163 HD
ATOM     31  O   UNL A   1      36.348  31.806  31.242  1.00  0.00    -0.269 OA
BRANCH  29  32
ATOM     32  C   UNL A   1      37.719  30.450  29.896  1.00  0.00     0.039 A 
ATOM     33  C   UNL A   1      38.133  30.366  28.564  1.00  0.00     0.014 A 
ATOM     34  C   UNL A   1      38.529  29.958  30.922  1.00  0.00     0.014 A 
ATOM     35  C   UNL A   1      39.402  29.860  28.266  1.00  0.00     0.010 A 
ATOM     36  C   UNL A   1      39.816  29.516  30.628  1.00  0.00     0.010 A 
ATOM     37  C   UNL A   1      40.271  29.472  29.300  1.00  0.00    -0.014 A 
BRANCH  37  38
ATOM     38  C   UNL A   1      41.661  29.017  29.035  1.00  0.00     0.031 A 
ATOM     39  C   UNL A   1      42.779  30.024  29.028  1.00  0.00     0.074 A 
ATOM     40  C   UNL A   1      41.901  27.737  28.686  1.00  0.00     0.049 A 
ATOM     41  N   UNL A   1      44.014  29.887  28.622  1.00  0.00    -0.248 NA
ATOM     42  C   UNL A   1      42.453  31.376  29.513  1.00  0.00     0.031 C 
ATOM     43  C   UNL A   1      40.899  26.670  28.617  1.00  0.00     0.029 A 
ATOM     44  N   UNL A   1      43.064  27.119  28.290  1.00  0.00    -0.354 N 
ATOM     45  C   UNL A   1      44.598  31.140  28.759  1.00  0.00     0.074 A 
ATOM     46  C   UNL A   1      43.578  32.031  29.265  1.00  0.00     0.031 C 
ATOM     47  C   UNL A   1      41.488  25.537  28.200  1.00  0.00     0.029 A 
ATOM     48  C   UNL A   1      42.897  25.801  27.931  1.00  0.00     0.049 A 
ATOM     49  H   UNL A   1      43.935  27.577  28.266  1.00  0.00     0.167 HD
ATOM     50  C   UNL A   1      45.874  31.510  28.497  1.00  0.00     0.037 A 
ATOM     51  C   UNL A   1      43.773  24.915  27.415  1.00  0.00     0.037 A 
ATOM     52  C   UNL A   1      46.900  30.605  28.051  1.00  0.00     0.049 A 
ATOM     53  C   UNL A   1      45.196  25.343  27.167  1.00  0.00     0.074 A 
ATOM     54  C   UNL A   1      48.240  30.871  27.829  1.00  0.00     0.029 A 
ATOM     55  N   UNL A   1      46.706  29.262  27.771  1.00  0.00    -0.354 N 
ATOM     56  N   UNL A   1      45.743  26.521  27.350  1.00  0.00    -0.248 NA
ATOM     57  C   UNL A   1      46.121  24.327  26.645  1.00  0.00     0.031 C 
ATOM     58  C   UNL A   1      48.851  29.694  27.388  1.00  0.00     0.029 A 
ATOM     59  C   UNL A   1      47.899  28.686  27.372  1.00  0.00     0.049 A 
ATOM     60  H   UNL A   1      45.845  28.788  27.845  1.00  0.00     0.167 HD
ATOM     61  C   UNL A   1      47.082  26.376  27.000  1.00  0.00     0.074 A 
ATOM     62  C   UNL A   1      47.264  24.999  26.595  1.00  0.00     0.031 C 
ATOM     63  C   UNL A   1      48.071  27.303  27.014  1.00  0.00     0.037 A 
BRANCH  50  64
ATOM     64  C   UNL A   1      46.244  32.952  28.693  1.00  0.00     0.058 A 
ATOM     65  C   UNL A   1      46.755  33.422  29.912  1.00  0.00     0.135 A 
ATOM     66  C   UNL A   1      46.153  33.860  27.625  1.00  0.00     0.135 A 
ATOM     67  F   UNL A   1      46.846  32.598  30.968  1.00  0.00    -0.206 F 
ATOM     68  C   UNL A   1      47.149  34.746  30.072  1.00  0.00     0.059 A 
ATOM     69  C   UNL A   1      46.565  35.183  27.755  1.00  0.00     0.059 A 
ATOM     70  F   UNL A   1      45.668  33.461  26.438  1.00  0.00    -0.206 F 
ATOM     71  C   UNL A   1      47.054  35.618  28.985  1.00  0.00     0.060 A 
BRANCH  71  72
ATOM     72  S   UNL A   1      47.604  37.324  29.199  1.00  0.00     0.124 S 
ATOM     73  O   UNL A   1      48.904  37.296  28.538  1.00  0.00    -0.237 OA
ATOM     74  O   UNL A   1      46.561  38.078  28.512  1.00  0.00    -0.237 OA
ATOM     75  O   UNL A   1      47.641  37.489  30.650  1.00  0.00    -0.744 OA
ENDBRANCH  71  72
ENDBRANCH  50  64
BRANCH  51  76
ATOM     76  C   UNL A   1      43.339  23.529  27.093  1.00  0.00     0.058 A 
ATOM     77  C   UNL A   1      43.126  22.585  28.108  1.00  0.00     0.135 A 
ATOM     78  C   UNL A   1      43.150  23.113  25.765  1.00  0.00     0.135 A 
ATOM     79  F   UNL A   1      43.300  22.932  29.393  1.00  0.00    -0.206 F 
ATOM     80  C   UNL A   1      42.772  21.270  27.821  1.00  0.00     0.059 A 
ATOM     81  C   UNL A   1      42.771  21.812  25.453  1.00  0.00     0.059 A 
ATOM     82  F   UNL A   1      43.323  23.983  24.757  1.00  0.00    -0.206 F 
ATOM     83  C   UNL A   1      42.602  20.892  26.488  1.00  0.00     0.060 A 
BRANCH  83  84
ATOM     84  S   UNL A   1      42.127  19.187  26.122  1.00  0.00     0.124 S 
ATOM     85  O   UNL A   1      42.978  18.886  24.977  1.00  0.00    -0.237 OA
ATOM     86  O   UNL A   1      42.462  18.499  27.364  1.00  0.00    -0.237 OA
ATOM     87  O   UNL A   1      40.699  19.293  25.839  1.00  0.00    -0.744 OA
ENDBRANCH  83  84
ENDBRANCH  51  76
BRANCH  63  88
ATOM     88  C   UNL A   1      49.457  26.858  26.647  1.00  0.00     0.058 A 
ATOM     89  C   UNL A   1      50.335  26.317  27.596  1.00  0.00     0.135 A 
ATOM     90  C   UNL A   1      49.868  26.878  25.303  1.00  0.00     0.135 A 
ATOM     91  F   UNL A   1      49.990  26.282  28.893  1.00  0.00    -0.206 F 
ATOM     92  C   UNL A   1      51.577  25.808  27.227  1.00  0.00     0.059 A 
ATOM     93  C   UNL A   1      51.096  26.356  24.910  1.00  0.00     0.059 A 
ATOM     94  F   UNL A   1      49.060  27.379  24.356  1.00  0.00    -0.206 F 
ATOM     95  C   UNL A   1      51.944  25.825  25.880  1.00  0.00     0.060 A 
BRANCH  95  96
ATOM     96  S   UNL A   1      53.523  25.090  25.403  1.00  0.00     0.124 S 
ATOM     97  O   UNL A   1      54.346  25.375  26.572  1.00  0.00    -0.237 OA
ATOM     98  O   UNL A   1      53.168  23.688  25.203  1.00  0.00    -0.237 OA
ATOM     99  O   UNL A   1      53.882  25.816  24.188  1.00  0.00    -0.744 OA
ENDBRANCH  95  96
ENDBRANCH  63  88
ENDBRANCH  37  38
ENDBRANCH  29  32
ENDBRANCH  27  28
ENDBRANCH  26  27
ENDBRANCH  25  26
ENDBRANCH   1  25
TORSDOF 21
ENDMDL
