MODEL 1
REMARK VINA RESULT:     -13.3      0.000      0.000
REMARK SMILES O=C(NCCCCNC(=O)c1nccnc1C(=O)Nc1n[nH]c2ncccc12)c1ccc(-c2c3nc(c(-c4c(F)cc(S(=O)(=O)[O-])cc4F)c4ccc([nH]4)c(-c4c(F)cc(S(=O)(=O)[O-])cc4F)c4nc(c(-c5c(F)cc(S(=O)(=O)[O-])cc5F)c5ccc2[nH]5)C=C4)C=C3)cc1
REMARK SMILES IDX 5 1 4 2 3 3 1 4 2 5 29 7 30 8 94 9 31 10 93 11 32 12 33 13
REMARK SMILES IDX 34 14 87 15 35 16 92 17 86 18 88 19 36 20 91 21 85 22 84 23
REMARK SMILES IDX 37 25 71 26 50 27 70 28 51 29 54 30 69 31 89 32 52 33 53 34
REMARK SMILES IDX 68 36 90 37 55 38 38 39 39 40 48 41 40 42 41 43 47 44 49 45
REMARK SMILES IDX 42 46 43 47 44 48 45 49 46 50 72 51 73 52 82 53 74 54 75 55
REMARK SMILES IDX 81 56 83 57 76 58 77 59 78 60 79 61 80 62 56 63 57 64 66 65
REMARK SMILES IDX 58 66 59 67 65 68 67 69 60 70 61 71 62 72 63 73 64 74 6 75
REMARK SMILES IDX 7 76 8 77 9 78 10 80 11 81 12 82 16 83 13 84 15 85 14 86
REMARK SMILES IDX 17 87 18 88 19 89 20 91 21 92 28 93 22 94 23 95 27 96 24 98
REMARK SMILES IDX 26 99 25 100
REMARK H PARENT 3 6 88 24 54 35 8 79 19 90 22 97
REMARK Flexibility Score: inf
ROOT
ATOM      1  C   UNL A   1      32.358  27.693  27.445  1.00  0.00     0.023 C 
ENDROOT
BRANCH   1   2
ATOM      2  C   UNL A   1      33.621  28.535  27.326  1.00  0.00     0.116 C 
BRANCH   2   3
ATOM      3  N   UNL A   1      33.532  29.908  27.805  1.00  0.00    -0.352 N 
ATOM      4  O   UNL A   1      34.424  31.902  28.420  1.00  0.00    -0.269 OA
ATOM      5  C   UNL A   1      34.585  30.713  28.176  1.00  0.00     0.251 C 
ATOM      6  H   UNL A   1      32.630  30.298  27.870  1.00  0.00     0.163 HD
BRANCH   5   7
ATOM      7  C   UNL A   1      35.880  30.047  28.403  1.00  0.00     0.039 A 
ATOM      8  C   UNL A   1      36.250  29.633  29.684  1.00  0.00     0.014 A 
ATOM      9  C   UNL A   1      36.807  30.091  27.361  1.00  0.00     0.014 A 
ATOM     10  C   UNL A   1      37.594  29.446  29.968  1.00  0.00     0.010 A 
ATOM     11  C   UNL A   1      38.137  29.781  27.625  1.00  0.00     0.010 A 
ATOM     12  C   UNL A   1      38.547  29.496  28.938  1.00  0.00    -0.014 A 
BRANCH  12  13
ATOM     13  C   UNL A   1      39.963  29.163  29.210  1.00  0.00     0.031 A 
ATOM     14  C   UNL A   1      40.937  30.215  29.656  1.00  0.00     0.074 A 
ATOM     15  C   UNL A   1      40.372  27.905  28.966  1.00  0.00     0.049 A 
ATOM     16  N   UNL A   1      42.237  30.137  29.767  1.00  0.00    -0.248 NA
ATOM     17  C   UNL A   1      40.381  31.532  30.005  1.00  0.00     0.031 C 
ATOM     18  C   UNL A   1      39.501  26.810  28.529  1.00  0.00     0.029 A 
ATOM     19  N   UNL A   1      41.617  27.338  29.018  1.00  0.00    -0.354 N 
ATOM     20  C   UNL A   1      42.664  31.400  30.164  1.00  0.00     0.074 A 
ATOM     21  C   UNL A   1      41.481  32.231  30.252  1.00  0.00     0.031 C 
ATOM     22  C   UNL A   1      40.235  25.705  28.355  1.00  0.00     0.029 A 
ATOM     23  C   UNL A   1      41.635  26.038  28.575  1.00  0.00     0.049 A 
ATOM     24  H   UNL A   1      42.417  27.814  29.339  1.00  0.00     0.167 HD
ATOM     25  C   UNL A   1      43.928  31.817  30.420  1.00  0.00     0.037 A 
ATOM     26  C   UNL A   1      42.667  25.217  28.308  1.00  0.00     0.037 A 
ATOM     27  C   UNL A   1      45.085  30.962  30.306  1.00  0.00     0.049 A 
ATOM     28  C   UNL A   1      44.059  25.711  28.541  1.00  0.00     0.074 A 
ATOM     29  C   UNL A   1      46.407  31.264  30.577  1.00  0.00     0.029 A 
ATOM     30  N   UNL A   1      45.060  29.646  29.862  1.00  0.00    -0.354 N 
ATOM     31  N   UNL A   1      44.450  26.897  28.945  1.00  0.00    -0.248 NA
ATOM     32  C   UNL A   1      45.152  24.765  28.292  1.00  0.00     0.031 C 
ATOM     33  C   UNL A   1      47.188  30.161  30.219  1.00  0.00     0.029 A 
ATOM     34  C   UNL A   1      46.347  29.135  29.816  1.00  0.00     0.049 A 
ATOM     35  H   UNL A   1      44.247  29.148  29.616  1.00  0.00     0.167 HD
ATOM     36  C   UNL A   1      45.834  26.831  29.032  1.00  0.00     0.074 A 
ATOM     37  C   UNL A   1      46.210  25.489  28.631  1.00  0.00     0.031 C 
ATOM     38  C   UNL A   1      46.707  27.791  29.424  1.00  0.00     0.037 A 
BRANCH  25  39
ATOM     39  C   UNL A   1      44.128  33.266  30.788  1.00  0.00     0.058 A 
ATOM     40  C   UNL A   1      44.149  33.708  32.121  1.00  0.00     0.135 A 
ATOM     41  C   UNL A   1      44.304  34.235  29.783  1.00  0.00     0.135 A 
ATOM     42  F   UNL A   1      43.986  32.834  33.127  1.00  0.00    -0.206 F 
ATOM     43  C   UNL A   1      44.269  35.058  32.440  1.00  0.00     0.059 A 
ATOM     44  C   UNL A   1      44.465  35.585  30.081  1.00  0.00     0.059 A 
ATOM     45  F   UNL A   1      44.306  33.875  28.489  1.00  0.00    -0.206 F 
ATOM     46  C   UNL A   1      44.417  35.990  31.412  1.00  0.00     0.060 A 
BRANCH  46  47
ATOM     47  S   UNL A   1      44.512  37.741  31.841  1.00  0.00     0.124 S 
ATOM     48  O   UNL A   1      43.958  38.363  30.642  1.00  0.00    -0.237 OA
ATOM     49  O   UNL A   1      43.677  37.814  33.035  1.00  0.00    -0.237 OA
ATOM     50  O   UNL A   1      45.937  37.963  32.060  1.00  0.00    -0.744 OA
ENDBRANCH  46  47
ENDBRANCH  25  39
BRANCH  26  51
ATOM     51  C   UNL A   1      42.378  23.863  27.770  1.00  0.00     0.058 A 
ATOM     52  C   UNL A   1      42.264  23.644  26.392  1.00  0.00     0.135 A 
ATOM     53  C   UNL A   1      42.326  22.745  28.621  1.00  0.00     0.135 A 
ATOM     54  F   UNL A   1      42.312  24.679  25.541  1.00  0.00    -0.206 F 
ATOM     55  C   UNL A   1      42.115  22.363  25.872  1.00  0.00     0.059 A 
ATOM     56  C   UNL A   1      42.209  21.453  28.123  1.00  0.00     0.059 A 
ATOM     57  F   UNL A   1      42.460  22.903  29.948  1.00  0.00    -0.206 F 
ATOM     58  C   UNL A   1      42.104  21.273  26.746  1.00  0.00     0.060 A 
BRANCH  58  59
ATOM     59  S   UNL A   1      42.008  19.610  26.048  1.00  0.00     0.124 S 
ATOM     60  O   UNL A   1      42.898  19.722  24.900  1.00  0.00    -0.237 OA
ATOM     61  O   UNL A   1      42.491  18.790  27.155  1.00  0.00    -0.237 OA
ATOM     62  O   UNL A   1      40.591  19.456  25.736  1.00  0.00    -0.744 OA
ENDBRANCH  58  59
ENDBRANCH  26  51
BRANCH  38  63
ATOM     63  C   UNL A   1      48.161  27.422  29.509  1.00  0.00     0.058 A 
ATOM     64  C   UNL A   1      49.068  27.706  28.478  1.00  0.00     0.135 A 
ATOM     65  C   UNL A   1      48.670  26.874  30.699  1.00  0.00     0.135 A 
ATOM     66  F   UNL A   1      48.634  28.212  27.313  1.00  0.00    -0.206 F 
ATOM     67  C   UNL A   1      50.431  27.468  28.627  1.00  0.00     0.059 A 
ATOM     68  C   UNL A   1      50.031  26.660  30.882  1.00  0.00     0.059 A 
ATOM     69  F   UNL A   1      47.844  26.584  31.717  1.00  0.00    -0.206 F 
ATOM     70  C   UNL A   1      50.905  26.962  29.840  1.00  0.00     0.060 A 
BRANCH  70  71
ATOM     71  S   UNL A   1      52.684  26.754  30.055  1.00  0.00     0.124 S 
ATOM     72  O   UNL A   1      53.104  28.110  30.391  1.00  0.00    -0.237 OA
ATOM     73  O   UNL A   1      52.751  25.781  31.142  1.00  0.00    -0.237 OA
ATOM     74  O   UNL A   1      53.131  26.263  28.755  1.00  0.00    -0.744 OA
ENDBRANCH  70  71
ENDBRANCH  38  63
ENDBRANCH  12  13
ENDBRANCH   5   7
ENDBRANCH   2   3
ENDBRANCH   1   2
BRANCH   1  75
ATOM     75  C   UNL A   1      31.923  26.562  26.231  1.00  0.00     0.023 C 
BRANCH  75  76
ATOM     76  C   UNL A   1      30.129  26.248  24.996  1.00  0.00     0.116 C 
BRANCH  76  77
ATOM     77  N   UNL A   1      29.561  27.005  23.689  1.00  0.00    -0.351 N 
ATOM     78  C   UNL A   1      30.217  27.819  22.784  1.00  0.00     0.272 C 
ATOM     79  H   UNL A   1      28.604  26.864  23.507  1.00  0.00     0.163 HD
ATOM     80  O   UNL A   1      29.621  28.450  21.921  1.00  0.00    -0.267 OA
BRANCH  78  81
ATOM     81  C   UNL A   1      31.685  27.866  22.880  1.00  0.00     0.159 A 
ATOM     82  N   UNL A   1      32.128  28.911  23.658  1.00  0.00    -0.247 NA
ATOM     83  C   UNL A   1      32.540  27.059  22.140  1.00  0.00     0.159 A 
ATOM     84  C   UNL A   1      33.455  29.118  23.671  1.00  0.00     0.132 A 
ATOM     85  N   UNL A   1      33.893  27.299  22.168  1.00  0.00    -0.247 NA
ATOM     86  C   UNL A   1      34.318  28.331  22.938  1.00  0.00     0.132 A 
BRANCH  83  87
ATOM     87  C   UNL A   1      32.158  25.861  21.327  1.00  0.00     0.277 C 
ATOM     88  O   UNL A   1      31.441  26.051  20.339  1.00  0.00    -0.267 OA
ATOM     89  N   UNL A   1      32.580  24.574  21.577  1.00  0.00    -0.303 N 
ATOM     90  H   UNL A   1      32.385  23.926  20.863  1.00  0.00     0.172 HD
BRANCH  89  91
ATOM     91  C   UNL A   1      33.228  24.057  22.667  1.00  0.00     0.164 A 
ATOM     92  N   UNL A   1      34.568  24.152  22.709  1.00  0.00    -0.155 NA
ATOM     93  C   UNL A   1      32.654  23.536  23.843  1.00  0.00     0.063 A 
ATOM     94  N   UNL A   1      34.986  24.066  24.007  1.00  0.00    -0.259 N 
ATOM     95  C   UNL A   1      34.015  23.715  24.902  1.00  0.00     0.157 A 
ATOM     96  C   UNL A   1      31.095  23.004  24.548  1.00  0.00     0.017 A 
ATOM     97  H   UNL A   1      35.916  24.242  24.277  1.00  0.00     0.192 HD
ATOM     98  N   UNL A   1      33.925  23.551  26.627  1.00  0.00    -0.237 NA
ATOM     99  C   UNL A   1      30.922  22.769  26.306  1.00  0.00     0.021 A 
ATOM    100  C   UNL A   1      32.351  23.017  27.293  1.00  0.00     0.113 A 
ENDBRANCH  89  91
ENDBRANCH  83  87
ENDBRANCH  78  81
ENDBRANCH  76  77
ENDBRANCH  75  76
ENDBRANCH   1  75
TORSDOF 16
ENDMDL
MODEL 2
REMARK VINA RESULT:     -13.2      2.797      3.813
REMARK SMILES O=C(NCCCCNC(=O)c1nccnc1C(=O)Nc1n[nH]c2ncccc12)c1ccc(-c2c3nc(c(-c4c(F)cc(S(=O)(=O)[O-])cc4F)c4ccc([nH]4)c(-c4c(F)cc(S(=O)(=O)[O-])cc4F)c4nc(c(-c5c(F)cc(S(=O)(=O)[O-])cc5F)c5ccc2[nH]5)C=C4)C=C3)cc1
REMARK SMILES IDX 5 1 4 2 3 3 1 4 2 5 29 7 30 8 94 9 31 10 93 11 32 12 33 13
REMARK SMILES IDX 34 14 87 15 35 16 92 17 86 18 88 19 36 20 91 21 85 22 84 23
REMARK SMILES IDX 37 25 71 26 50 27 70 28 51 29 54 30 69 31 89 32 52 33 53 34
REMARK SMILES IDX 68 36 90 37 55 38 38 39 39 40 48 41 40 42 41 43 47 44 49 45
REMARK SMILES IDX 42 46 43 47 44 48 45 49 46 50 72 51 73 52 82 53 74 54 75 55
REMARK SMILES IDX 81 56 83 57 76 58 77 59 78 60 79 61 80 62 56 63 57 64 66 65
REMARK SMILES IDX 58 66 59 67 65 68 67 69 60 70 61 71 62 72 63 73 64 74 6 75
REMARK SMILES IDX 7 76 8 77 9 78 10 80 11 81 12 82 16 83 13 84 15 85 14 86
REMARK SMILES IDX 17 87 18 88 19 89 20 91 21 92 28 93 22 94 23 95 27 96 24 98
REMARK SMILES IDX 26 99 25 100
REMARK H PARENT 3 6 88 24 54 35 8 79 19 90 22 97
REMARK Flexibility Score: inf
ROOT
ATOM      1  C   UNL A   1      33.816  28.937  26.940  1.00  0.00     0.023 C 
ENDROOT
BRANCH   1   2
ATOM      2  C   UNL A   1      35.150  29.320  27.566  1.00  0.00     0.116 C 
BRANCH   2   3
ATOM      3  N   UNL A   1      35.093  30.222  28.709  1.00  0.00    -0.352 N 
ATOM      4  O   UNL A   1      36.032  31.557  30.285  1.00  0.00    -0.269 OA
ATOM      5  C   UNL A   1      36.165  30.683  29.438  1.00  0.00     0.251 C 
ATOM      6  H   UNL A   1      34.201  30.531  28.987  1.00  0.00     0.163 HD
BRANCH   5   7
ATOM      7  C   UNL A   1      37.446  29.976  29.253  1.00  0.00     0.039 A 
ATOM      8  C   UNL A   1      38.168  29.516  30.356  1.00  0.00     0.014 A 
ATOM      9  C   UNL A   1      38.019  30.025  27.982  1.00  0.00     0.014 A 
ATOM     10  C   UNL A   1      39.529  29.285  30.219  1.00  0.00     0.010 A 
ATOM     11  C   UNL A   1      39.356  29.673  27.828  1.00  0.00     0.010 A 
ATOM     12  C   UNL A   1      40.131  29.340  28.952  1.00  0.00    -0.014 A 
BRANCH  12  13
ATOM     13  C   UNL A   1      41.551  28.962  28.779  1.00  0.00     0.031 A 
ATOM     14  C   UNL A   1      42.640  29.995  28.812  1.00  0.00     0.074 A 
ATOM     15  C   UNL A   1      41.831  27.674  28.509  1.00  0.00     0.049 A 
ATOM     16  N   UNL A   1      43.904  29.866  28.506  1.00  0.00    -0.248 NA
ATOM     17  C   UNL A   1      42.256  31.354  29.225  1.00  0.00     0.031 C 
ATOM     18  C   UNL A   1      40.841  26.593  28.455  1.00  0.00     0.029 A 
ATOM     19  N   UNL A   1      43.014  27.057  28.200  1.00  0.00    -0.354 N 
ATOM     20  C   UNL A   1      44.464  31.131  28.653  1.00  0.00     0.074 A 
ATOM     21  C   UNL A   1      43.391  32.017  29.055  1.00  0.00     0.031 C 
ATOM     22  C   UNL A   1      41.456  25.449  28.136  1.00  0.00     0.029 A 
ATOM     23  C   UNL A   1      42.859  25.733  27.871  1.00  0.00     0.049 A 
ATOM     24  H   UNL A   1      43.884  27.516  28.213  1.00  0.00     0.167 HD
ATOM     25  C   UNL A   1      45.752  31.506  28.459  1.00  0.00     0.037 A 
ATOM     26  C   UNL A   1      43.731  24.852  27.347  1.00  0.00     0.037 A 
ATOM     27  C   UNL A   1      46.791  30.596  28.044  1.00  0.00     0.049 A 
ATOM     28  C   UNL A   1      45.135  25.296  27.086  1.00  0.00     0.074 A 
ATOM     29  C   UNL A   1      48.137  30.855  27.854  1.00  0.00     0.029 A 
ATOM     30  N   UNL A   1      46.595  29.257  27.728  1.00  0.00    -0.354 N 
ATOM     31  N   UNL A   1      45.661  26.487  27.256  1.00  0.00    -0.248 NA
ATOM     32  C   UNL A   1      46.067  24.290  26.570  1.00  0.00     0.031 C 
ATOM     33  C   UNL A   1      48.736  29.699  27.346  1.00  0.00     0.029 A 
ATOM     34  C   UNL A   1      47.787  28.688  27.309  1.00  0.00     0.049 A 
ATOM     35  H   UNL A   1      45.735  28.782  27.792  1.00  0.00     0.167 HD
ATOM     36  C   UNL A   1      46.997  26.364  26.900  1.00  0.00     0.074 A 
ATOM     37  C   UNL A   1      47.194  24.986  26.498  1.00  0.00     0.031 C 
ATOM     38  C   UNL A   1      47.971  27.308  26.921  1.00  0.00     0.037 A 
BRANCH  25  39
ATOM     39  C   UNL A   1      46.092  32.966  28.637  1.00  0.00     0.058 A 
ATOM     40  C   UNL A   1      46.512  33.495  29.869  1.00  0.00     0.135 A 
ATOM     41  C   UNL A   1      45.997  33.853  27.551  1.00  0.00     0.135 A 
ATOM     42  F   UNL A   1      46.623  32.701  30.946  1.00  0.00    -0.206 F 
ATOM     43  C   UNL A   1      46.758  34.856  30.032  1.00  0.00     0.059 A 
ATOM     44  C   UNL A   1      46.277  35.210  27.682  1.00  0.00     0.059 A 
ATOM     45  F   UNL A   1      45.613  33.406  26.344  1.00  0.00    -0.206 F 
ATOM     46  C   UNL A   1      46.629  35.707  28.934  1.00  0.00     0.060 A 
BRANCH  46  47
ATOM     47  S   UNL A   1      46.895  37.476  29.176  1.00  0.00     0.124 S 
ATOM     48  O   UNL A   1      48.014  37.726  28.273  1.00  0.00    -0.237 OA
ATOM     49  O   UNL A   1      45.613  38.042  28.767  1.00  0.00    -0.237 OA
ATOM     50  O   UNL A   1      47.201  37.585  30.598  1.00  0.00    -0.744 OA
ENDBRANCH  46  47
ENDBRANCH  25  39
BRANCH  26  51
ATOM     51  C   UNL A   1      43.255  23.481  27.030  1.00  0.00     0.058 A 
ATOM     52  C   UNL A   1      43.032  23.083  25.706  1.00  0.00     0.135 A 
ATOM     53  C   UNL A   1      43.123  22.511  28.040  1.00  0.00     0.135 A 
ATOM     54  F   UNL A   1      43.149  23.973  24.709  1.00  0.00    -0.206 F 
ATOM     55  C   UNL A   1      42.704  21.770  25.389  1.00  0.00     0.059 A 
ATOM     56  C   UNL A   1      42.827  21.186  27.745  1.00  0.00     0.059 A 
ATOM     57  F   UNL A   1      43.355  22.838  29.321  1.00  0.00    -0.206 F 
ATOM     58  C   UNL A   1      42.618  20.826  26.415  1.00  0.00     0.060 A 
BRANCH  58  59
ATOM     59  S   UNL A   1      42.287  19.106  25.978  1.00  0.00     0.124 S 
ATOM     60  O   UNL A   1      43.175  18.917  24.837  1.00  0.00    -0.237 OA
ATOM     61  O   UNL A   1      42.662  18.405  27.202  1.00  0.00    -0.237 OA
ATOM     62  O   UNL A   1      40.860  19.103  25.675  1.00  0.00    -0.744 OA
ENDBRANCH  58  59
ENDBRANCH  26  51
BRANCH  38  63
ATOM     63  C   UNL A   1      49.366  26.880  26.562  1.00  0.00     0.058 A 
ATOM     64  C   UNL A   1      50.212  26.237  27.478  1.00  0.00     0.135 A 
ATOM     65  C   UNL A   1      49.816  27.021  25.238  1.00  0.00     0.135 A 
ATOM     66  F   UNL A   1      49.839  26.093  28.759  1.00  0.00    -0.206 F 
ATOM     67  C   UNL A   1      51.452  25.739  27.091  1.00  0.00     0.059 A 
ATOM     68  C   UNL A   1      51.037  26.501  24.822  1.00  0.00     0.059 A 
ATOM     69  F   UNL A   1      49.046  27.629  24.323  1.00  0.00    -0.206 F 
ATOM     70  C   UNL A   1      51.848  25.859  25.756  1.00  0.00     0.060 A 
BRANCH  70  71
ATOM     71  S   UNL A   1      53.413  25.121  25.247  1.00  0.00     0.124 S 
ATOM     72  O   UNL A   1      54.342  25.701  26.210  1.00  0.00    -0.237 OA
ATOM     73  O   UNL A   1      53.145  23.693  25.403  1.00  0.00    -0.237 OA
ATOM     74  O   UNL A   1      53.574  25.575  23.869  1.00  0.00    -0.744 OA
ENDBRANCH  70  71
ENDBRANCH  38  63
ENDBRANCH  12  13
ENDBRANCH   5   7
ENDBRANCH   2   3
ENDBRANCH   1   2
BRANCH   1  75
ATOM     75  C   UNL A   1      33.740  28.157  25.413  1.00  0.00     0.023 C 
BRANCH  75  76
ATOM     76  C   UNL A   1      34.013  26.081  24.735  1.00  0.00     0.116 C 
BRANCH  76  77
ATOM     77  N   UNL A   1      33.376  25.243  23.512  1.00  0.00    -0.351 N 
ATOM     78  C   UNL A   1      33.788  24.050  22.948  1.00  0.00     0.272 C 
ATOM     79  H   UNL A   1      32.570  25.641  23.108  1.00  0.00     0.163 HD
ATOM     80  O   UNL A   1      33.291  23.607  21.921  1.00  0.00    -0.267 OA
BRANCH  78  81
ATOM     81  C   UNL A   1      34.836  23.306  23.666  1.00  0.00     0.159 A 
ATOM     82  N   UNL A   1      36.041  23.324  23.002  1.00  0.00    -0.247 NA
ATOM     83  C   UNL A   1      34.606  22.531  24.795  1.00  0.00     0.159 A 
ATOM     84  C   UNL A   1      37.007  22.542  23.509  1.00  0.00     0.132 A 
ATOM     85  N   UNL A   1      35.612  21.735  25.287  1.00  0.00    -0.247 NA
ATOM     86  C   UNL A   1      36.796  21.760  24.626  1.00  0.00     0.132 A 
BRANCH  83  87
ATOM     87  C   UNL A   1      33.357  22.502  25.621  1.00  0.00     0.277 C 
ATOM     88  O   UNL A   1      33.305  23.255  26.599  1.00  0.00    -0.267 OA
ATOM     89  N   UNL A   1      32.251  21.728  25.346  1.00  0.00    -0.303 N 
ATOM     90  H   UNL A   1      31.451  21.942  25.878  1.00  0.00     0.172 HD
BRANCH  89  91
ATOM     91  C   UNL A   1      32.093  20.707  24.448  1.00  0.00     0.164 A 
ATOM     92  N   UNL A   1      31.734  21.021  23.191  1.00  0.00    -0.155 NA
ATOM     93  C   UNL A   1      32.385  19.343  24.635  1.00  0.00     0.063 A 
ATOM     94  N   UNL A   1      32.103  20.010  22.350  1.00  0.00    -0.259 N 
ATOM     95  C   UNL A   1      32.546  18.877  22.973  1.00  0.00     0.157 A 
ATOM     96  C   UNL A   1      32.792  18.136  25.896  1.00  0.00     0.017 A 
ATOM     97  H   UNL A   1      32.054  20.091  21.370  1.00  0.00     0.192 HD
ATOM     98  N   UNL A   1      33.215  17.363  22.453  1.00  0.00    -0.237 NA
ATOM     99  C   UNL A   1      33.446  16.539  25.453  1.00  0.00     0.021 A 
ATOM    100  C   UNL A   1      33.608  16.185  23.742  1.00  0.00     0.113 A 
ENDBRANCH  89  91
ENDBRANCH  83  87
ENDBRANCH  78  81
ENDBRANCH  76  77
ENDBRANCH  75  76
ENDBRANCH   1  75
TORSDOF 16
ENDMDL
MODEL 3
REMARK VINA RESULT:     -13.1      1.446      2.806
REMARK SMILES O=C(NCCCCNC(=O)c1nccnc1C(=O)Nc1n[nH]c2ncccc12)c1ccc(-c2c3nc(c(-c4c(F)cc(S(=O)(=O)[O-])cc4F)c4ccc([nH]4)c(-c4c(F)cc(S(=O)(=O)[O-])cc4F)c4nc(c(-c5c(F)cc(S(=O)(=O)[O-])cc5F)c5ccc2[nH]5)C=C4)C=C3)cc1
REMARK SMILES IDX 5 1 4 2 3 3 1 4 2 5 29 7 30 8 94 9 31 10 93 11 32 12 33 13
REMARK SMILES IDX 34 14 87 15 35 16 92 17 86 18 88 19 36 20 91 21 85 22 84 23
REMARK SMILES IDX 37 25 71 26 50 27 70 28 51 29 54 30 69 31 89 32 52 33 53 34
REMARK SMILES IDX 68 36 90 37 55 38 38 39 39 40 48 41 40 42 41 43 47 44 49 45
REMARK SMILES IDX 42 46 43 47 44 48 45 49 46 50 72 51 73 52 82 53 74 54 75 55
REMARK SMILES IDX 81 56 83 57 76 58 77 59 78 60 79 61 80 62 56 63 57 64 66 65
REMARK SMILES IDX 58 66 59 67 65 68 67 69 60 70 61 71 62 72 63 73 64 74 6 75
REMARK SMILES IDX 7 76 8 77 9 78 10 80 11 81 12 82 16 83 13 84 15 85 14 86
REMARK SMILES IDX 17 87 18 88 19 89 20 91 21 92 28 93 22 94 23 95 27 96 24 98
REMARK SMILES IDX 26 99 25 100
REMARK H PARENT 3 6 88 24 54 35 8 79 19 90 22 97
REMARK Flexibility Score: inf
ROOT
ATOM      1  C   UNL A   1      33.125  28.608  25.996  1.00  0.00     0.023 C 
ENDROOT
BRANCH   1   2
ATOM      2  C   UNL A   1      34.236  28.844  27.011  1.00  0.00     0.116 C 
BRANCH   2   3
ATOM      3  N   UNL A   1      34.048  29.959  27.929  1.00  0.00    -0.352 N 
ATOM      4  O   UNL A   1      34.799  31.634  29.263  1.00  0.00    -0.269 OA
ATOM      5  C   UNL A   1      35.035  30.610  28.634  1.00  0.00     0.251 C 
ATOM      6  H   UNL A   1      33.126  30.279  28.057  1.00  0.00     0.163 HD
BRANCH   5   7
ATOM      7  C   UNL A   1      36.346  29.940  28.713  1.00  0.00     0.039 A 
ATOM      8  C   UNL A   1      36.815  29.441  29.930  1.00  0.00     0.014 A 
ATOM      9  C   UNL A   1      37.188  30.064  27.608  1.00  0.00     0.014 A 
ATOM     10  C   UNL A   1      38.178  29.245  30.095  1.00  0.00     0.010 A 
ATOM     11  C   UNL A   1      38.535  29.747  27.745  1.00  0.00     0.010 A 
ATOM     12  C   UNL A   1      39.047  29.375  28.999  1.00  0.00    -0.014 A 
BRANCH  12  13
ATOM     13  C   UNL A   1      40.482  29.035  29.137  1.00  0.00     0.031 A 
ATOM     14  C   UNL A   1      41.500  30.084  29.476  1.00  0.00     0.074 A 
ATOM     15  C   UNL A   1      40.857  27.771  28.867  1.00  0.00     0.049 A 
ATOM     16  N   UNL A   1      42.804  29.998  29.461  1.00  0.00    -0.248 NA
ATOM     17  C   UNL A   1      40.988  31.408  29.864  1.00  0.00     0.031 C 
ATOM     18  C   UNL A   1      39.941  26.678  28.527  1.00  0.00     0.029 A 
ATOM     19  N   UNL A   1      42.098  27.197  28.804  1.00  0.00    -0.354 N 
ATOM     20  C   UNL A   1      43.274  31.262  29.802  1.00  0.00     0.074 A 
ATOM     21  C   UNL A   1      42.110  32.101  29.996  1.00  0.00     0.031 C 
ATOM     22  C   UNL A   1      40.649  25.567  28.294  1.00  0.00     0.029 A 
ATOM     23  C   UNL A   1      42.066  25.893  28.374  1.00  0.00     0.049 A 
ATOM     24  H   UNL A   1      42.928  27.670  29.041  1.00  0.00     0.167 HD
ATOM     25  C   UNL A   1      44.560  31.673  29.931  1.00  0.00     0.037 A 
ATOM     26  C   UNL A   1      43.062  25.062  28.017  1.00  0.00     0.037 A 
ATOM     27  C   UNL A   1      45.695  30.809  29.715  1.00  0.00     0.049 A 
ATOM     28  C   UNL A   1      44.473  25.549  28.110  1.00  0.00     0.074 A 
ATOM     29  C   UNL A   1      47.039  31.105  29.853  1.00  0.00     0.029 A 
ATOM     30  N   UNL A   1      45.620  29.489  29.288  1.00  0.00    -0.354 N 
ATOM     31  N   UNL A   1      44.908  26.736  28.462  1.00  0.00    -0.248 NA
ATOM     32  C   UNL A   1      45.531  24.593  27.766  1.00  0.00     0.031 C 
ATOM     33  C   UNL A   1      47.776  29.993  29.433  1.00  0.00     0.029 A 
ATOM     34  C   UNL A   1      46.894  28.969  29.123  1.00  0.00     0.049 A 
ATOM     35  H   UNL A   1      44.784  28.994  29.127  1.00  0.00     0.167 HD
ATOM     36  C   UNL A   1      46.294  26.661  28.415  1.00  0.00     0.074 A 
ATOM     37  C   UNL A   1      46.622  25.313  27.993  1.00  0.00     0.031 C 
ATOM     38  C   UNL A   1      47.206  27.619  28.711  1.00  0.00     0.037 A 
BRANCH  25  39
ATOM     39  C   UNL A   1      44.803  33.124  30.263  1.00  0.00     0.058 A 
ATOM     40  C   UNL A   1      44.916  33.585  31.586  1.00  0.00     0.135 A 
ATOM     41  C   UNL A   1      44.926  34.076  29.234  1.00  0.00     0.135 A 
ATOM     42  F   UNL A   1      44.807  32.727  32.613  1.00  0.00    -0.206 F 
ATOM     43  C   UNL A   1      45.075  34.937  31.876  1.00  0.00     0.059 A 
ATOM     44  C   UNL A   1      45.125  35.427  29.501  1.00  0.00     0.059 A 
ATOM     45  F   UNL A   1      44.839  33.697  27.949  1.00  0.00    -0.206 F 
ATOM     46  C   UNL A   1      45.169  35.852  30.826  1.00  0.00     0.060 A 
BRANCH  46  47
ATOM     47  S   UNL A   1      45.315  37.607  31.221  1.00  0.00     0.124 S 
ATOM     48  O   UNL A   1      44.638  37.670  32.513  1.00  0.00    -0.237 OA
ATOM     49  O   UNL A   1      46.761  37.799  31.255  1.00  0.00    -0.237 OA
ATOM     50  O   UNL A   1      44.622  38.266  30.119  1.00  0.00    -0.744 OA
ENDBRANCH  46  47
ENDBRANCH  25  39
BRANCH  26  51
ATOM     51  C   UNL A   1      42.715  23.705  27.523  1.00  0.00     0.058 A 
ATOM     52  C   UNL A   1      42.715  23.414  26.154  1.00  0.00     0.135 A 
ATOM     53  C   UNL A   1      42.489  22.647  28.421  1.00  0.00     0.135 A 
ATOM     54  F   UNL A   1      42.930  24.391  25.260  1.00  0.00    -0.206 F 
ATOM     55  C   UNL A   1      42.511  22.120  25.687  1.00  0.00     0.059 A 
ATOM     56  C   UNL A   1      42.314  21.340  27.981  1.00  0.00     0.059 A 
ATOM     57  F   UNL A   1      42.508  22.872  29.744  1.00  0.00    -0.206 F 
ATOM     58  C   UNL A   1      42.326  21.088  26.610  1.00  0.00     0.060 A 
BRANCH  58  59
ATOM     59  S   UNL A   1      42.160  19.399  25.993  1.00  0.00     0.124 S 
ATOM     60  O   UNL A   1      42.951  19.455  24.770  1.00  0.00    -0.237 OA
ATOM     61  O   UNL A   1      42.729  18.620  27.088  1.00  0.00    -0.237 OA
ATOM     62  O   UNL A   1      40.720  19.248  25.808  1.00  0.00    -0.744 OA
ENDBRANCH  58  59
ENDBRANCH  26  51
BRANCH  38  63
ATOM     63  C   UNL A   1      48.659  27.241  28.659  1.00  0.00     0.058 A 
ATOM     64  C   UNL A   1      49.418  27.342  27.484  1.00  0.00     0.135 A 
ATOM     65  C   UNL A   1      49.325  26.878  29.843  1.00  0.00     0.135 A 
ATOM     66  F   UNL A   1      48.830  27.666  26.323  1.00  0.00    -0.206 F 
ATOM     67  C   UNL A   1      50.790  27.105  27.486  1.00  0.00     0.059 A 
ATOM     68  C   UNL A   1      50.699  26.670  29.874  1.00  0.00     0.059 A 
ATOM     69  F   UNL A   1      48.644  26.768  30.994  1.00  0.00    -0.206 F 
ATOM     70  C   UNL A   1      51.424  26.788  28.690  1.00  0.00     0.060 A 
BRANCH  70  71
ATOM     71  S   UNL A   1      53.217  26.583  28.697  1.00  0.00     0.124 S 
ATOM     72  O   UNL A   1      53.416  25.682  27.566  1.00  0.00    -0.237 OA
ATOM     73  O   UNL A   1      53.684  27.953  28.507  1.00  0.00    -0.237 OA
ATOM     74  O   UNL A   1      53.491  26.010  30.011  1.00  0.00    -0.744 OA
ENDBRANCH  70  71
ENDBRANCH  38  63
ENDBRANCH  12  13
ENDBRANCH   5   7
ENDBRANCH   2   3
ENDBRANCH   1   2
BRANCH   1  75
ATOM     75  C   UNL A   1      31.998  27.329  26.191  1.00  0.00     0.023 C 
BRANCH  75  76
ATOM     76  C   UNL A   1      32.179  25.154  26.474  1.00  0.00     0.116 C 
BRANCH  76  77
ATOM     77  N   UNL A   1      31.096  23.958  26.436  1.00  0.00    -0.351 N 
ATOM     78  C   UNL A   1      31.243  22.644  26.031  1.00  0.00     0.272 C 
ATOM     79  H   UNL A   1      30.195  24.200  26.752  1.00  0.00     0.163 HD
ATOM     80  O   UNL A   1      30.289  21.886  25.915  1.00  0.00    -0.267 OA
BRANCH  78  81
ATOM     81  C   UNL A   1      32.617  22.180  25.779  1.00  0.00     0.159 A 
ATOM     82  N   UNL A   1      33.365  22.106  26.932  1.00  0.00    -0.247 NA
ATOM     83  C   UNL A   1      33.158  21.998  24.513  1.00  0.00     0.159 A 
ATOM     84  C   UNL A   1      34.672  21.841  26.772  1.00  0.00     0.132 A 
ATOM     85  N   UNL A   1      34.500  21.735  24.381  1.00  0.00    -0.247 NA
ATOM     86  C   UNL A   1      35.228  21.663  25.522  1.00  0.00     0.132 A 
BRANCH  83  87
ATOM     87  C   UNL A   1      32.412  21.989  23.215  1.00  0.00     0.277 C 
ATOM     88  O   UNL A   1      32.110  20.889  22.741  1.00  0.00    -0.267 OA
ATOM     89  N   UNL A   1      32.005  23.115  22.535  1.00  0.00    -0.303 N 
ATOM     90  H   UNL A   1      31.383  22.950  21.790  1.00  0.00     0.172 HD
BRANCH  89  91
ATOM     91  C   UNL A   1      32.334  24.430  22.733  1.00  0.00     0.164 A 
ATOM     92  N   UNL A   1      33.597  24.811  22.476  1.00  0.00    -0.155 NA
ATOM     93  C   UNL A   1      31.471  25.493  23.059  1.00  0.00     0.063 A 
ATOM     94  N   UNL A   1      33.623  26.156  22.239  1.00  0.00    -0.259 N 
ATOM     95  C   UNL A   1      32.453  26.809  22.505  1.00  0.00     0.157 A 
ATOM     96  C   UNL A   1      29.803  25.852  23.609  1.00  0.00     0.017 A 
ATOM     97  H   UNL A   1      34.424  26.620  21.903  1.00  0.00     0.192 HD
ATOM     98  N   UNL A   1      31.873  28.434  22.313  1.00  0.00    -0.237 NA
ATOM     99  C   UNL A   1      29.139  27.501  23.490  1.00  0.00     0.021 A 
ATOM    100  C   UNL A   1      30.204  28.753  22.875  1.00  0.00     0.113 A 
ENDBRANCH  89  91
ENDBRANCH  83  87
ENDBRANCH  78  81
ENDBRANCH  76  77
ENDBRANCH  75  76
ENDBRANCH   1  75
TORSDOF 16
ENDMDL
