MODEL 1
REMARK VINA RESULT:     -11.5      0.000      0.000
REMARK SMILES O=C(C[C@H]1CN(S(=O)(=O)c2cc(F)cc(F)c2)CCO1)NCCCCNC(=O)c1ccc(-c2c3nc(c(-c4c(F)cc(S(=O)(=O)[O-])cc4F)c4ccc([nH]4)c(-c4c(F)cc(S(=O)(=O)[O-])cc4F)c4nc(c(-c5c(F)cc(S(=O)(=O)[O-])cc5F)c5ccc2[nH]5)C=C4)C=C3)cc1
REMARK SMILES IDX 23 1 22 2 21 3 1 4 2 5 3 7 4 8 5 9 20 10 6 11 19 12 18 13
REMARK SMILES IDX 7 14 8 15 9 16 10 17 11 18 17 19 12 20 15 21 13 22 14 23
REMARK SMILES IDX 16 24 24 25 25 26 26 27 27 28 28 30 29 31 30 32 94 33 31 34
REMARK SMILES IDX 93 35 32 36 33 37 34 38 87 39 35 40 92 41 86 42 88 43 36 44
REMARK SMILES IDX 91 45 85 46 84 47 37 49 71 50 50 51 70 52 51 53 54 54 69 55
REMARK SMILES IDX 89 56 52 57 53 58 68 60 90 61 55 62 38 63 39 64 48 65 40 66
REMARK SMILES IDX 41 67 47 68 49 69 42 70 43 71 44 72 45 73 46 74 72 75 73 76
REMARK SMILES IDX 82 77 74 78 75 79 81 80 83 81 76 82 77 83 78 84 79 85 80 86
REMARK SMILES IDX 56 87 57 88 66 89 58 90 59 91 65 92 67 93 60 94 61 95 62 96
REMARK SMILES IDX 63 97 64 98
REMARK H PARENT 21 6 26 29 88 48 54 59
REMARK Flexibility Score: inf
ROOT
ATOM      1  C   UNL A   1      31.792  29.338  25.536  1.00  0.00     0.023 C 
ENDROOT
BRANCH   1   2
ATOM      2  C   UNL A   1      31.041  29.071  24.231  1.00  0.00     0.116 C 
BRANCH   2   3
ATOM      3  N   UNL A   1      31.451  27.817  23.629  1.00  0.00    -0.356 N 
ATOM      4  O   UNL A   1      29.338  26.917  23.520  1.00  0.00    -0.275 OA
ATOM      5  C   UNL A   1      30.550  26.801  23.383  1.00  0.00     0.222 C 
ATOM      6  H   UNL A   1      32.397  27.688  23.389  1.00  0.00     0.163 HD
BRANCH   5   7
ATOM      7  C   UNL A   1      31.203  25.491  23.009  1.00  0.00     0.133 C 
BRANCH   7   8
ATOM      8  C   UNL A   1      30.755  24.313  23.875  1.00  0.00     0.142 C 
ATOM      9  C   UNL A   1      31.635  23.046  23.752  1.00  0.00     0.135 C 
ATOM     10  O   UNL A   1      30.603  24.692  25.258  1.00  0.00    -0.375 OA
ATOM     11  N   UNL A   1      32.941  23.119  24.475  1.00  0.00    -0.193 NA
ATOM     12  C   UNL A   1      31.850  24.817  25.956  1.00  0.00     0.177 C 
ATOM     13  C   UNL A   1      32.663  23.518  25.901  1.00  0.00     0.131 C 
BRANCH  11  14
ATOM     14  S   UNL A   1      34.327  23.865  23.823  1.00  0.00     0.243 S 
ATOM     15  O   UNL A   1      34.324  23.685  22.386  1.00  0.00    -0.207 OA
ATOM     16  O   UNL A   1      34.362  25.202  24.371  1.00  0.00    -0.207 OA
BRANCH  14  17
ATOM     17  C   UNL A   1      35.764  23.018  24.439  1.00  0.00     0.088 A 
ATOM     18  C   UNL A   1      36.777  23.700  25.114  1.00  0.00     0.061 A 
ATOM     19  C   UNL A   1      35.793  21.619  24.395  1.00  0.00     0.061 A 
ATOM     20  C   UNL A   1      37.842  22.994  25.666  1.00  0.00     0.127 A 
ATOM     21  C   UNL A   1      36.847  20.934  24.997  1.00  0.00     0.127 A 
ATOM     22  F   UNL A   1      38.819  23.674  26.279  1.00  0.00    -0.207 F 
ATOM     23  C   UNL A   1      37.887  21.610  25.619  1.00  0.00     0.078 A 
ATOM     24  F   UNL A   1      36.838  19.595  25.001  1.00  0.00    -0.207 F 
ENDBRANCH  14  17
ENDBRANCH  11  14
ENDBRANCH   7   8
ENDBRANCH   5   7
ENDBRANCH   2   3
ENDBRANCH   1   2
BRANCH   1  25
ATOM     25  C   UNL A   1      32.873  28.311  25.895  1.00  0.00     0.023 C 
BRANCH  25  26
ATOM     26  C   UNL A   1      33.598  28.549  27.217  1.00  0.00     0.116 C 
BRANCH  26  27
ATOM     27  N   UNL A   1      33.492  29.919  27.687  1.00  0.00    -0.352 N 
ATOM     28  C   UNL A   1      34.437  30.705  28.302  1.00  0.00     0.251 C 
ATOM     29  H   UNL A   1      32.617  30.346  27.545  1.00  0.00     0.163 HD
ATOM     30  O   UNL A   1      34.119  31.811  28.730  1.00  0.00    -0.269 OA
BRANCH  28  31
ATOM     31  C   UNL A   1      35.821  30.211  28.481  1.00  0.00     0.039 A 
ATOM     32  C   UNL A   1      36.692  30.252  27.388  1.00  0.00     0.014 A 
ATOM     33  C   UNL A   1      36.261  29.705  29.708  1.00  0.00     0.014 A 
ATOM     34  C   UNL A   1      38.022  29.851  27.544  1.00  0.00     0.010 A 
ATOM     35  C   UNL A   1      37.601  29.358  29.875  1.00  0.00     0.010 A 
ATOM     36  C   UNL A   1      38.495  29.435  28.797  1.00  0.00    -0.014 A 
BRANCH  36  37
ATOM     37  C   UNL A   1      39.927  29.097  29.003  1.00  0.00     0.031 A 
ATOM     38  C   UNL A   1      40.886  30.131  29.521  1.00  0.00     0.074 A 
ATOM     39  C   UNL A   1      40.375  27.873  28.663  1.00  0.00     0.049 A 
ATOM     40  N   UNL A   1      42.182  30.047  29.683  1.00  0.00    -0.248 NA
ATOM     41  C   UNL A   1      40.318  31.440  29.882  1.00  0.00     0.031 C 
ATOM     42  C   UNL A   1      39.552  26.792  28.115  1.00  0.00     0.029 A 
ATOM     43  N   UNL A   1      41.636  27.332  28.719  1.00  0.00    -0.354 N 
ATOM     44  C   UNL A   1      42.587  31.292  30.148  1.00  0.00     0.074 A 
ATOM     45  C   UNL A   1      41.405  32.125  30.207  1.00  0.00     0.031 C 
ATOM     46  C   UNL A   1      40.324  25.713  27.907  1.00  0.00     0.029 A 
ATOM     47  C   UNL A   1      41.701  26.033  28.274  1.00  0.00     0.049 A 
ATOM     48  H   UNL A   1      42.420  27.829  29.048  1.00  0.00     0.167 HD
ATOM     49  C   UNL A   1      43.829  31.698  30.506  1.00  0.00     0.037 A 
ATOM     50  C   UNL A   1      42.750  25.195  28.168  1.00  0.00     0.037 A 
ATOM     51  C   UNL A   1      44.998  30.858  30.479  1.00  0.00     0.049 A 
ATOM     52  C   UNL A   1      44.114  25.662  28.586  1.00  0.00     0.074 A 
ATOM     53  C   UNL A   1      46.289  31.166  30.871  1.00  0.00     0.029 A 
ATOM     54  N   UNL A   1      45.018  29.542  30.039  1.00  0.00    -0.354 N 
ATOM     55  N   UNL A   1      44.474  26.834  29.053  1.00  0.00    -0.248 NA
ATOM     56  C   UNL A   1      45.216  24.696  28.465  1.00  0.00     0.031 C 
ATOM     57  C   UNL A   1      47.096  30.045  30.645  1.00  0.00     0.029 A 
ATOM     58  C   UNL A   1      46.299  29.029  30.140  1.00  0.00     0.049 A 
ATOM     59  H   UNL A   1      44.235  29.048  29.704  1.00  0.00     0.167 HD
ATOM     60  C   UNL A   1      45.839  26.742  29.296  1.00  0.00     0.074 A 
ATOM     61  C   UNL A   1      46.240  25.398  28.933  1.00  0.00     0.031 C 
ATOM     62  C   UNL A   1      46.683  27.688  29.777  1.00  0.00     0.037 A 
BRANCH  49  63
ATOM     63  C   UNL A   1      43.985  33.119  30.966  1.00  0.00     0.058 A 
ATOM     64  C   UNL A   1      44.299  34.137  30.051  1.00  0.00     0.135 A 
ATOM     65  C   UNL A   1      43.851  33.470  32.318  1.00  0.00     0.135 A 
ATOM     66  F   UNL A   1      44.437  33.853  28.747  1.00  0.00    -0.206 F 
ATOM     67  C   UNL A   1      44.468  35.457  30.458  1.00  0.00     0.059 A 
ATOM     68  C   UNL A   1      43.993  34.786  32.745  1.00  0.00     0.059 A 
ATOM     69  F   UNL A   1      43.536  32.537  33.231  1.00  0.00    -0.206 F 
ATOM     70  C   UNL A   1      44.298  35.773  31.806  1.00  0.00     0.060 A 
BRANCH  70  71
ATOM     71  S   UNL A   1      44.470  37.479  32.372  1.00  0.00     0.124 S 
ATOM     72  O   UNL A   1      44.205  38.220  31.142  1.00  0.00    -0.237 OA
ATOM     73  O   UNL A   1      43.442  37.574  33.403  1.00  0.00    -0.237 OA
ATOM     74  O   UNL A   1      45.846  37.539  32.856  1.00  0.00    -0.744 OA
ENDBRANCH  70  71
ENDBRANCH  49  63
BRANCH  50  75
ATOM     75  C   UNL A   1      42.536  23.813  27.668  1.00  0.00     0.058 A 
ATOM     76  C   UNL A   1      42.418  22.728  28.550  1.00  0.00     0.135 A 
ATOM     77  C   UNL A   1      42.488  23.550  26.292  1.00  0.00     0.135 A 
ATOM     78  F   UNL A   1      42.474  22.930  29.876  1.00  0.00    -0.206 F 
ATOM     79  C   UNL A   1      42.278  21.424  28.087  1.00  0.00     0.059 A 
ATOM     80  C   UNL A   1      42.330  22.258  25.805  1.00  0.00     0.059 A 
ATOM     81  F   UNL A   1      42.588  24.559  25.413  1.00  0.00    -0.206 F 
ATOM     82  C   UNL A   1      42.232  21.199  26.711  1.00  0.00     0.060 A 
BRANCH  82  83
ATOM     83  S   UNL A   1      42.105  19.517  26.065  1.00  0.00     0.124 S 
ATOM     84  O   UNL A   1      43.009  19.572  24.922  1.00  0.00    -0.237 OA
ATOM     85  O   UNL A   1      42.558  18.719  27.201  1.00  0.00    -0.237 OA
ATOM     86  O   UNL A   1      40.687  19.388  25.746  1.00  0.00    -0.744 OA
ENDBRANCH  82  83
ENDBRANCH  50  75
BRANCH  62  87
ATOM     87  C   UNL A   1      48.122  27.302  29.957  1.00  0.00     0.058 A 
ATOM     88  C   UNL A   1      48.544  26.645  31.123  1.00  0.00     0.135 A 
ATOM     89  C   UNL A   1      49.094  27.643  29.004  1.00  0.00     0.135 A 
ATOM     90  F   UNL A   1      47.650  26.305  32.067  1.00  0.00    -0.206 F 
ATOM     91  C   UNL A   1      49.883  26.343  31.346  1.00  0.00     0.059 A 
ATOM     92  C   UNL A   1      50.437  27.335  29.198  1.00  0.00     0.059 A 
ATOM     93  F   UNL A   1      48.739  28.266  27.870  1.00  0.00    -0.206 F 
ATOM     94  C   UNL A   1      50.822  26.687  30.374  1.00  0.00     0.060 A 
BRANCH  94  95
ATOM     95  S   UNL A   1      52.574  26.336  30.634  1.00  0.00     0.124 S 
ATOM     96  O   UNL A   1      52.513  25.203  31.552  1.00  0.00    -0.237 OA
ATOM     97  O   UNL A   1      53.037  26.032  29.284  1.00  0.00    -0.237 OA
ATOM     98  O   UNL A   1      53.089  27.577  31.202  1.00  0.00    -0.744 OA
ENDBRANCH  94  95
ENDBRANCH  62  87
ENDBRANCH  36  37
ENDBRANCH  28  31
ENDBRANCH  26  27
ENDBRANCH  25  26
ENDBRANCH   1  25
TORSDOF 17
ENDMDL
MODEL 2
REMARK VINA RESULT:     -11.5      5.096     10.666
REMARK SMILES O=C(C[C@H]1CN(S(=O)(=O)c2cc(F)cc(F)c2)CCO1)NCCCCNC(=O)c1ccc(-c2c3nc(c(-c4c(F)cc(S(=O)(=O)[O-])cc4F)c4ccc([nH]4)c(-c4c(F)cc(S(=O)(=O)[O-])cc4F)c4nc(c(-c5c(F)cc(S(=O)(=O)[O-])cc5F)c5ccc2[nH]5)C=C4)C=C3)cc1
REMARK SMILES IDX 23 1 22 2 21 3 1 4 2 5 3 7 4 8 5 9 20 10 6 11 19 12 18 13
REMARK SMILES IDX 7 14 8 15 9 16 10 17 11 18 17 19 12 20 15 21 13 22 14 23
REMARK SMILES IDX 16 24 24 25 25 26 26 27 27 28 28 30 29 31 30 32 94 33 31 34
REMARK SMILES IDX 93 35 32 36 33 37 34 38 87 39 35 40 92 41 86 42 88 43 36 44
REMARK SMILES IDX 91 45 85 46 84 47 37 49 71 50 50 51 70 52 51 53 54 54 69 55
REMARK SMILES IDX 89 56 52 57 53 58 68 60 90 61 55 62 38 63 39 64 48 65 40 66
REMARK SMILES IDX 41 67 47 68 49 69 42 70 43 71 44 72 45 73 46 74 72 75 73 76
REMARK SMILES IDX 82 77 74 78 75 79 81 80 83 81 76 82 77 83 78 84 79 85 80 86
REMARK SMILES IDX 56 87 57 88 66 89 58 90 59 91 65 92 67 93 60 94 61 95 62 96
REMARK SMILES IDX 63 97 64 98
REMARK H PARENT 21 6 26 29 88 48 54 59
REMARK Flexibility Score: inf
ROOT
ATOM      1  C   UNL A   1      37.704  21.797  25.443  1.00  0.00     0.023 C 
ENDROOT
BRANCH   1   2
ATOM      2  C   UNL A   1      36.538  20.892  25.043  1.00  0.00     0.116 C 
BRANCH   2   3
ATOM      3  N   UNL A   1      35.261  21.493  25.377  1.00  0.00    -0.356 N 
ATOM      4  O   UNL A   1      33.983  19.721  24.658  1.00  0.00    -0.275 OA
ATOM      5  C   UNL A   1      34.066  20.866  25.086  1.00  0.00     0.222 C 
ATOM      6  H   UNL A   1      35.246  22.369  25.824  1.00  0.00     0.163 HD
BRANCH   5   7
ATOM      7  C   UNL A   1      32.858  21.757  25.260  1.00  0.00     0.133 C 
BRANCH   7   8
ATOM      8  C   UNL A   1      32.261  22.245  23.940  1.00  0.00     0.142 C 
ATOM      9  C   UNL A   1      31.273  23.430  24.073  1.00  0.00     0.135 C 
ATOM     10  O   UNL A   1      33.282  22.544  22.967  1.00  0.00    -0.375 OA
ATOM     11  N   UNL A   1      31.918  24.758  24.307  1.00  0.00    -0.193 NA
ATOM     12  C   UNL A   1      33.948  23.793  23.204  1.00  0.00     0.177 C 
ATOM     13  C   UNL A   1      32.960  24.965  23.238  1.00  0.00     0.131 C 
BRANCH  11  14
ATOM     14  S   UNL A   1      32.413  25.296  25.846  1.00  0.00     0.243 S 
ATOM     15  O   UNL A   1      31.341  25.066  26.790  1.00  0.00    -0.207 OA
ATOM     16  O   UNL A   1      33.710  24.702  26.085  1.00  0.00    -0.207 OA
BRANCH  14  17
ATOM     17  C   UNL A   1      32.659  27.056  25.773  1.00  0.00     0.088 A 
ATOM     18  C   UNL A   1      31.629  27.920  25.397  1.00  0.00     0.061 A 
ATOM     19  C   UNL A   1      33.854  27.591  26.269  1.00  0.00     0.061 A 
ATOM     20  C   UNL A   1      31.827  29.296  25.441  1.00  0.00     0.127 A 
ATOM     21  C   UNL A   1      34.007  28.974  26.348  1.00  0.00     0.127 A 
ATOM     22  F   UNL A   1      30.835  30.104  25.042  1.00  0.00    -0.207 F 
ATOM     23  C   UNL A   1      33.008  29.837  25.919  1.00  0.00     0.078 A 
ATOM     24  F   UNL A   1      35.129  29.478  26.877  1.00  0.00    -0.207 F 
ENDBRANCH  14  17
ENDBRANCH  11  14
ENDBRANCH   7   8
ENDBRANCH   5   7
ENDBRANCH   2   3
ENDBRANCH   1   2
BRANCH   1  25
ATOM     25  C   UNL A   1      37.372  23.290  25.547  1.00  0.00     0.023 C 
BRANCH  25  26
ATOM     26  C   UNL A   1      38.284  24.108  26.458  1.00  0.00     0.116 C 
BRANCH  26  27
ATOM     27  N   UNL A   1      39.695  23.863  26.221  1.00  0.00    -0.352 N 
ATOM     28  C   UNL A   1      40.790  24.546  26.695  1.00  0.00     0.251 C 
ATOM     29  H   UNL A   1      39.897  23.098  25.637  1.00  0.00     0.163 HD
ATOM     30  O   UNL A   1      41.910  24.252  26.288  1.00  0.00    -0.269 OA
BRANCH  28  31
ATOM     31  C   UNL A   1      40.621  25.654  27.662  1.00  0.00     0.039 A 
ATOM     32  C   UNL A   1      39.609  25.554  28.622  1.00  0.00     0.014 A 
ATOM     33  C   UNL A   1      41.440  26.786  27.625  1.00  0.00     0.014 A 
ATOM     34  C   UNL A   1      39.465  26.555  29.587  1.00  0.00     0.010 A 
ATOM     35  C   UNL A   1      41.331  27.755  28.621  1.00  0.00     0.010 A 
ATOM     36  C   UNL A   1      40.347  27.645  29.616  1.00  0.00    -0.014 A 
BRANCH  36  37
ATOM     37  C   UNL A   1      40.270  28.668  30.690  1.00  0.00     0.031 A 
ATOM     38  C   UNL A   1      41.160  28.571  31.897  1.00  0.00     0.074 A 
ATOM     39  C   UNL A   1      39.352  29.650  30.606  1.00  0.00     0.049 A 
ATOM     40  N   UNL A   1      41.175  29.318  32.972  1.00  0.00    -0.248 NA
ATOM     41  C   UNL A   1      42.145  27.478  31.909  1.00  0.00     0.031 C 
ATOM     42  C   UNL A   1      38.406  29.832  29.503  1.00  0.00     0.029 A 
ATOM     43  N   UNL A   1      39.057  30.677  31.467  1.00  0.00    -0.354 N 
ATOM     44  C   UNL A   1      42.155  28.778  33.795  1.00  0.00     0.074 A 
ATOM     45  C   UNL A   1      42.688  27.619  33.110  1.00  0.00     0.031 C 
ATOM     46  C   UNL A   1      37.652  30.917  29.744  1.00  0.00     0.029 A 
ATOM     47  C   UNL A   1      38.036  31.489  31.031  1.00  0.00     0.049 A 
ATOM     48  H   UNL A   1      39.532  30.820  32.318  1.00  0.00     0.167 HD
ATOM     49  C   UNL A   1      42.583  29.217  35.003  1.00  0.00     0.037 A 
ATOM     50  C   UNL A   1      37.470  32.568  31.604  1.00  0.00     0.037 A 
ATOM     51  C   UNL A   1      42.077  30.390  35.666  1.00  0.00     0.049 A 
ATOM     52  C   UNL A   1      37.971  33.047  32.937  1.00  0.00     0.074 A 
ATOM     53  C   UNL A   1      42.483  30.942  36.869  1.00  0.00     0.029 A 
ATOM     54  N   UNL A   1      41.055  31.195  35.183  1.00  0.00    -0.354 N 
ATOM     55  N   UNL A   1      38.921  32.540  33.687  1.00  0.00    -0.248 NA
ATOM     56  C   UNL A   1      37.326  34.240  33.503  1.00  0.00     0.031 C 
ATOM     57  C   UNL A   1      41.691  32.067  37.125  1.00  0.00     0.029 A 
ATOM     58  C   UNL A   1      40.811  32.232  36.067  1.00  0.00     0.049 A 
ATOM     59  H   UNL A   1      40.575  31.049  34.336  1.00  0.00     0.167 HD
ATOM     60  C   UNL A   1      38.999  33.363  34.805  1.00  0.00     0.074 A 
ATOM     61  C   UNL A   1      38.007  34.403  34.630  1.00  0.00     0.031 C 
ATOM     62  C   UNL A   1      39.821  33.262  35.878  1.00  0.00     0.037 A 
BRANCH  49  63
ATOM     63  C   UNL A   1      43.662  28.424  35.684  1.00  0.00     0.058 A 
ATOM     64  C   UNL A   1      43.335  27.420  36.609  1.00  0.00     0.135 A 
ATOM     65  C   UNL A   1      45.021  28.677  35.442  1.00  0.00     0.135 A 
ATOM     66  F   UNL A   1      42.050  27.138  36.874  1.00  0.00    -0.206 F 
ATOM     67  C   UNL A   1      44.318  26.686  37.266  1.00  0.00     0.059 A 
ATOM     68  C   UNL A   1      46.020  27.942  36.071  1.00  0.00     0.059 A 
ATOM     69  F   UNL A   1      45.386  29.617  34.556  1.00  0.00    -0.206 F 
ATOM     70  C   UNL A   1      45.657  26.945  36.979  1.00  0.00     0.060 A 
BRANCH  70  71
ATOM     71  S   UNL A   1      46.965  25.993  37.782  1.00  0.00     0.124 S 
ATOM     72  O   UNL A   1      46.358  24.666  37.846  1.00  0.00    -0.237 OA
ATOM     73  O   UNL A   1      48.076  26.135  36.847  1.00  0.00    -0.237 OA
ATOM     74  O   UNL A   1      47.137  26.666  39.065  1.00  0.00    -0.744 OA
ENDBRANCH  70  71
ENDBRANCH  49  63
BRANCH  50  75
ATOM     75  C   UNL A   1      36.380  33.286  30.896  1.00  0.00     0.058 A 
ATOM     76  C   UNL A   1      36.644  34.100  29.785  1.00  0.00     0.135 A 
ATOM     77  C   UNL A   1      35.056  33.201  31.350  1.00  0.00     0.135 A 
ATOM     78  F   UNL A   1      37.900  34.225  29.325  1.00  0.00    -0.206 F 
ATOM     79  C   UNL A   1      35.636  34.823  29.155  1.00  0.00     0.059 A 
ATOM     80  C   UNL A   1      34.029  33.899  30.725  1.00  0.00     0.059 A 
ATOM     81  F   UNL A   1      34.757  32.427  32.404  1.00  0.00    -0.206 F 
ATOM     82  C   UNL A   1      34.330  34.713  29.631  1.00  0.00     0.060 A 
BRANCH  82  83
ATOM     83  S   UNL A   1      33.000  35.674  28.877  1.00  0.00     0.124 S 
ATOM     84  O   UNL A   1      32.336  34.666  28.058  1.00  0.00    -0.237 OA
ATOM     85  O   UNL A   1      32.259  36.141  30.045  1.00  0.00    -0.237 OA
ATOM     86  O   UNL A   1      33.715  36.715  28.143  1.00  0.00    -0.744 OA
ENDBRANCH  82  83
ENDBRANCH  50  75
BRANCH  62  87
ATOM     87  C   UNL A   1      39.697  34.313  36.943  1.00  0.00     0.058 A 
ATOM     88  C   UNL A   1      40.379  35.533  36.823  1.00  0.00     0.135 A 
ATOM     89  C   UNL A   1      38.957  34.083  38.113  1.00  0.00     0.135 A 
ATOM     90  F   UNL A   1      41.107  35.795  35.725  1.00  0.00    -0.206 F 
ATOM     91  C   UNL A   1      40.340  36.492  37.830  1.00  0.00     0.059 A 
ATOM     92  C   UNL A   1      38.889  35.035  39.125  1.00  0.00     0.059 A 
ATOM     93  F   UNL A   1      38.281  32.934  38.270  1.00  0.00    -0.206 F 
ATOM     94  C   UNL A   1      39.586  36.236  38.976  1.00  0.00     0.060 A 
BRANCH  94  95
ATOM     95  S   UNL A   1      39.528  37.443  40.317  1.00  0.00     0.124 S 
ATOM     96  O   UNL A   1      39.018  36.634  41.419  1.00  0.00    -0.237 OA
ATOM     97  O   UNL A   1      40.923  37.856  40.427  1.00  0.00    -0.237 OA
ATOM     98  O   UNL A   1      38.615  38.465  39.814  1.00  0.00    -0.744 OA
ENDBRANCH  94  95
ENDBRANCH  62  87
ENDBRANCH  36  37
ENDBRANCH  28  31
ENDBRANCH  26  27
ENDBRANCH  25  26
ENDBRANCH   1  25
TORSDOF 17
ENDMDL
MODEL 3
REMARK VINA RESULT:     -11.3      0.941      1.835
REMARK SMILES O=C(C[C@H]1CN(S(=O)(=O)c2cc(F)cc(F)c2)CCO1)NCCCCNC(=O)c1ccc(-c2c3nc(c(-c4c(F)cc(S(=O)(=O)[O-])cc4F)c4ccc([nH]4)c(-c4c(F)cc(S(=O)(=O)[O-])cc4F)c4nc(c(-c5c(F)cc(S(=O)(=O)[O-])cc5F)c5ccc2[nH]5)C=C4)C=C3)cc1
REMARK SMILES IDX 23 1 22 2 21 3 1 4 2 5 3 7 4 8 5 9 20 10 6 11 19 12 18 13
REMARK SMILES IDX 7 14 8 15 9 16 10 17 11 18 17 19 12 20 15 21 13 22 14 23
REMARK SMILES IDX 16 24 24 25 25 26 26 27 27 28 28 30 29 31 30 32 94 33 31 34
REMARK SMILES IDX 93 35 32 36 33 37 34 38 87 39 35 40 92 41 86 42 88 43 36 44
REMARK SMILES IDX 91 45 85 46 84 47 37 49 71 50 50 51 70 52 51 53 54 54 69 55
REMARK SMILES IDX 89 56 52 57 53 58 68 60 90 61 55 62 38 63 39 64 48 65 40 66
REMARK SMILES IDX 41 67 47 68 49 69 42 70 43 71 44 72 45 73 46 74 72 75 73 76
REMARK SMILES IDX 82 77 74 78 75 79 81 80 83 81 76 82 77 83 78 84 79 85 80 86
REMARK SMILES IDX 56 87 57 88 66 89 58 90 59 91 65 92 67 93 60 94 61 95 62 96
REMARK SMILES IDX 63 97 64 98
REMARK H PARENT 21 6 26 29 88 48 54 59
REMARK Flexibility Score: inf
ROOT
ATOM      1  C   UNL A   1      31.406  28.615  25.898  1.00  0.00     0.023 C 
ENDROOT
BRANCH   1   2
ATOM      2  C   UNL A   1      31.604  28.159  24.451  1.00  0.00     0.116 C 
BRANCH   2   3
ATOM      3  N   UNL A   1      32.499  27.021  24.371  1.00  0.00    -0.356 N 
ATOM      4  O   UNL A   1      33.587  27.723  22.471  1.00  0.00    -0.275 OA
ATOM      5  C   UNL A   1      33.386  26.868  23.324  1.00  0.00     0.222 C 
ATOM      6  H   UNL A   1      32.473  26.340  25.081  1.00  0.00     0.163 HD
BRANCH   5   7
ATOM      7  C   UNL A   1      34.032  25.503  23.274  1.00  0.00     0.133 C 
BRANCH   7   8
ATOM      8  C   UNL A   1      33.321  24.523  22.339  1.00  0.00     0.142 C 
ATOM      9  C   UNL A   1      33.587  23.028  22.643  1.00  0.00     0.135 C 
ATOM     10  O   UNL A   1      31.904  24.781  22.268  1.00  0.00    -0.375 OA
ATOM     11  N   UNL A   1      32.844  22.488  23.822  1.00  0.00    -0.193 NA
ATOM     12  C   UNL A   1      31.181  24.314  23.415  1.00  0.00     0.177 C 
ATOM     13  C   UNL A   1      31.383  22.811  23.641  1.00  0.00     0.131 C 
BRANCH  11  14
ATOM     14  S   UNL A   1      33.383  22.672  25.428  1.00  0.00     0.243 S 
ATOM     15  O   UNL A   1      33.201  24.052  25.827  1.00  0.00    -0.207 OA
ATOM     16  O   UNL A   1      32.746  21.622  26.191  1.00  0.00    -0.207 OA
BRANCH  14  17
ATOM     17  C   UNL A   1      35.132  22.355  25.474  1.00  0.00     0.088 A 
ATOM     18  C   UNL A   1      35.659  21.127  25.071  1.00  0.00     0.061 A 
ATOM     19  C   UNL A   1      36.003  23.414  25.756  1.00  0.00     0.061 A 
ATOM     20  C   UNL A   1      37.038  20.943  25.030  1.00  0.00     0.127 A 
ATOM     21  C   UNL A   1      37.379  23.216  25.662  1.00  0.00     0.127 A 
ATOM     22  F   UNL A   1      37.520  19.745  24.673  1.00  0.00    -0.207 F 
ATOM     23  C   UNL A   1      37.909  21.981  25.318  1.00  0.00     0.078 A 
ATOM     24  F   UNL A   1      38.203  24.249  25.877  1.00  0.00    -0.207 F 
ENDBRANCH  14  17
ENDBRANCH  11  14
ENDBRANCH   7   8
ENDBRANCH   5   7
ENDBRANCH   2   3
ENDBRANCH   1   2
BRANCH   1  25
ATOM     25  C   UNL A   1      32.244  27.869  26.943  1.00  0.00     0.023 C 
BRANCH  25  26
ATOM     26  C   UNL A   1      33.597  28.493  27.273  1.00  0.00     0.116 C 
BRANCH  26  27
ATOM     27  N   UNL A   1      33.500  29.882  27.685  1.00  0.00    -0.352 N 
ATOM     28  C   UNL A   1      34.450  30.687  28.266  1.00  0.00     0.251 C 
ATOM     29  H   UNL A   1      32.628  30.308  27.525  1.00  0.00     0.163 HD
ATOM     30  O   UNL A   1      34.140  31.812  28.648  1.00  0.00    -0.269 OA
BRANCH  28  31
ATOM     31  C   UNL A   1      35.832  30.192  28.467  1.00  0.00     0.039 A 
ATOM     32  C   UNL A   1      36.716  30.225  27.385  1.00  0.00     0.014 A 
ATOM     33  C   UNL A   1      36.254  29.692  29.702  1.00  0.00     0.014 A 
ATOM     34  C   UNL A   1      38.043  29.823  27.559  1.00  0.00     0.010 A 
ATOM     35  C   UNL A   1      37.592  29.344  29.888  1.00  0.00     0.010 A 
ATOM     36  C   UNL A   1      38.500  29.413  28.821  1.00  0.00    -0.014 A 
BRANCH  36  37
ATOM     37  C   UNL A   1      39.928  29.075  29.047  1.00  0.00     0.031 A 
ATOM     38  C   UNL A   1      40.875  30.102  29.601  1.00  0.00     0.074 A 
ATOM     39  C   UNL A   1      40.386  27.858  28.694  1.00  0.00     0.049 A 
ATOM     40  N   UNL A   1      42.168  30.017  29.785  1.00  0.00    -0.248 NA
ATOM     41  C   UNL A   1      40.298  31.402  29.976  1.00  0.00     0.031 C 
ATOM     42  C   UNL A   1      39.575  26.786  28.112  1.00  0.00     0.029 A 
ATOM     43  N   UNL A   1      41.646  27.319  28.764  1.00  0.00    -0.354 N 
ATOM     44  C   UNL A   1      42.562  31.254  30.280  1.00  0.00     0.074 A 
ATOM     45  C   UNL A   1      41.377  32.084  30.333  1.00  0.00     0.031 C 
ATOM     46  C   UNL A   1      40.353  25.712  27.899  1.00  0.00     0.029 A 
ATOM     47  C   UNL A   1      41.722  26.028  28.297  1.00  0.00     0.049 A 
ATOM     48  H   UNL A   1      42.423  27.811  29.115  1.00  0.00     0.167 HD
ATOM     49  C   UNL A   1      43.796  31.657  30.668  1.00  0.00     0.037 A 
ATOM     50  C   UNL A   1      42.775  25.194  28.195  1.00  0.00     0.037 A 
ATOM     51  C   UNL A   1      44.967  30.819  30.648  1.00  0.00     0.049 A 
ATOM     52  C   UNL A   1      44.131  25.656  28.647  1.00  0.00     0.074 A 
ATOM     53  C   UNL A   1      46.250  31.123  31.069  1.00  0.00     0.029 A 
ATOM     54  N   UNL A   1      44.999  29.512  30.185  1.00  0.00    -0.354 N 
ATOM     55  N   UNL A   1      44.479  26.820  29.140  1.00  0.00    -0.248 NA
ATOM     56  C   UNL A   1      45.236  24.695  28.529  1.00  0.00     0.031 C 
ATOM     57  C   UNL A   1      47.063  30.007  30.838  1.00  0.00     0.029 A 
ATOM     58  C   UNL A   1      46.279  28.999  30.300  1.00  0.00     0.049 A 
ATOM     59  H   UNL A   1      44.223  29.022  29.827  1.00  0.00     0.167 HD
ATOM     60  C   UNL A   1      45.840  26.726  29.407  1.00  0.00     0.074 A 
ATOM     61  C   UNL A   1      46.250  25.390  29.028  1.00  0.00     0.031 C 
ATOM     62  C   UNL A   1      46.672  27.665  29.921  1.00  0.00     0.037 A 
BRANCH  49  63
ATOM     63  C   UNL A   1      43.941  33.069  31.157  1.00  0.00     0.058 A 
ATOM     64  C   UNL A   1      43.764  33.378  32.515  1.00  0.00     0.135 A 
ATOM     65  C   UNL A   1      44.227  34.124  30.275  1.00  0.00     0.135 A 
ATOM     66  F   UNL A   1      43.490  32.406  33.398  1.00  0.00    -0.206 F 
ATOM     67  C   UNL A   1      43.873  34.683  32.986  1.00  0.00     0.059 A 
ATOM     68  C   UNL A   1      44.362  35.432  30.727  1.00  0.00     0.059 A 
ATOM     69  F   UNL A   1      44.419  33.879  28.969  1.00  0.00    -0.206 F 
ATOM     70  C   UNL A   1      44.187  35.700  32.086  1.00  0.00     0.060 A 
BRANCH  70  71
ATOM     71  S   UNL A   1      44.375  37.402  32.661  1.00  0.00     0.124 S 
ATOM     72  O   UNL A   1      45.617  37.314  33.423  1.00  0.00    -0.237 OA
ATOM     73  O   UNL A   1      44.452  38.149  31.410  1.00  0.00    -0.237 OA
ATOM     74  O   UNL A   1      43.169  37.629  33.450  1.00  0.00    -0.744 OA
ENDBRANCH  70  71
ENDBRANCH  49  63
BRANCH  50  75
ATOM     75  C   UNL A   1      42.573  23.821  27.667  1.00  0.00     0.058 A 
ATOM     76  C   UNL A   1      42.358  22.733  28.526  1.00  0.00     0.135 A 
ATOM     77  C   UNL A   1      42.636  23.569  26.289  1.00  0.00     0.135 A 
ATOM     78  F   UNL A   1      42.307  22.924  29.854  1.00  0.00    -0.206 F 
ATOM     79  C   UNL A   1      42.229  21.436  28.041  1.00  0.00     0.059 A 
ATOM     80  C   UNL A   1      42.491  22.284  25.779  1.00  0.00     0.059 A 
ATOM     81  F   UNL A   1      42.832  24.581  25.431  1.00  0.00    -0.206 F 
ATOM     82  C   UNL A   1      42.294  21.222  26.664  1.00  0.00     0.060 A 
BRANCH  82  83
ATOM     83  S   UNL A   1      42.185  19.548  25.995  1.00  0.00     0.124 S 
ATOM     84  O   UNL A   1      42.648  18.749  27.124  1.00  0.00    -0.237 OA
ATOM     85  O   UNL A   1      40.765  19.438  25.674  1.00  0.00    -0.237 OA
ATOM     86  O   UNL A   1      43.078  19.590  24.841  1.00  0.00    -0.744 OA
ENDBRANCH  82  83
ENDBRANCH  50  75
BRANCH  62  87
ATOM     87  C   UNL A   1      48.109  27.280  30.120  1.00  0.00     0.058 A 
ATOM     88  C   UNL A   1      48.526  26.679  31.318  1.00  0.00     0.135 A 
ATOM     89  C   UNL A   1      49.083  27.565  29.152  1.00  0.00     0.135 A 
ATOM     90  F   UNL A   1      47.630  26.393  32.277  1.00  0.00    -0.206 F 
ATOM     91  C   UNL A   1      49.863  26.380  31.556  1.00  0.00     0.059 A 
ATOM     92  C   UNL A   1      50.424  27.258  29.361  1.00  0.00     0.059 A 
ATOM     93  F   UNL A   1      48.732  28.132  27.987  1.00  0.00    -0.206 F 
ATOM     94  C   UNL A   1      50.805  26.668  30.568  1.00  0.00     0.060 A 
BRANCH  94  95
ATOM     95  S   UNL A   1      52.554  26.318  30.847  1.00  0.00     0.124 S 
ATOM     96  O   UNL A   1      53.019  27.579  31.415  1.00  0.00    -0.237 OA
ATOM     97  O   UNL A   1      52.504  25.188  31.769  1.00  0.00    -0.237 OA
ATOM     98  O   UNL A   1      53.055  26.008  29.511  1.00  0.00    -0.744 OA
ENDBRANCH  94  95
ENDBRANCH  62  87
ENDBRANCH  36  37
ENDBRANCH  28  31
ENDBRANCH  26  27
ENDBRANCH  25  26
ENDBRANCH   1  25
TORSDOF 17
ENDMDL
