MODEL 1
REMARK VINA RESULT:     -12.3      0.000      0.000
REMARK SMILES COc1cc(NC(=O)c2ccc([N+](=O)[O-])cc2)c(C(=O)NCCCCNC(=O)c2ccc(-c3c4nc(c(-c5c(F)cc(S(=O)(=O)[O-])cc5F)c5ccc([nH]5)c(-c5c(F)cc(S(=O)(=O)[O-])cc5F)c5nc(c(-c6c(F)cc(S(=O)(=O)[O-])cc6F)c6ccc3[nH]6)C=C5)C=C4)cc2)cc1OC
REMARK SMILES IDX 23 1 22 2 21 3 19 4 20 5 18 7 3 8 4 9 96 10 5 11 95 12 2 13
REMARK SMILES IDX 1 14 97 15 98 16 6 17 7 18 8 20 9 21 10 22 17 23 11 24 16 25
REMARK SMILES IDX 12 26 13 27 14 28 15 29 24 30 25 31 26 32 27 33 28 35 29 36
REMARK SMILES IDX 30 37 94 38 31 39 93 40 32 41 33 42 34 43 87 44 35 45 92 46
REMARK SMILES IDX 86 47 88 48 36 49 91 50 85 51 84 52 37 54 71 55 50 56 70 57
REMARK SMILES IDX 51 58 54 59 69 60 89 61 52 62 53 63 68 65 90 66 55 67 38 68
REMARK SMILES IDX 39 69 48 70 40 71 41 72 47 73 49 74 42 75 43 76 44 77 45 78
REMARK SMILES IDX 46 79 72 80 73 81 82 82 74 83 75 84 81 85 83 86 76 87 77 88
REMARK SMILES IDX 78 89 79 90 80 91 56 92 57 93 66 94 58 95 59 96 65 97 67 98
REMARK SMILES IDX 60 99 61 100 62 101 63 102 64 103
REMARK H PARENT 21 6 6 19 26 34 88 53 54 64
REMARK Flexibility Score: inf
ROOT
ATOM      1  C   UNL A   1      38.393  21.845  26.151  1.00  0.00     0.023 C 
ENDROOT
BRANCH   1   2
ATOM      2  C   UNL A   1      37.605  23.095  25.746  1.00  0.00     0.116 C 
BRANCH   2   3
ATOM      3  N   UNL A   1      37.412  23.131  24.310  1.00  0.00    -0.352 N 
ATOM      4  C   UNL A   1      36.345  22.848  23.496  1.00  0.00     0.253 C 
ATOM      5  O   UNL A   1      36.548  22.960  22.284  1.00  0.00    -0.269 OA
ATOM      6  H   UNL A   1      38.215  23.418  23.816  1.00  0.00     0.163 HD
BRANCH   4   7
ATOM      7  C   UNL A   1      34.970  22.464  23.972  1.00  0.00     0.067 A 
ATOM      8  C   UNL A   1      32.418  21.788  24.970  1.00  0.00     0.162 A 
ATOM      9  C   UNL A   1      32.583  22.864  24.086  1.00  0.00     0.077 A 
ATOM     10  C   UNL A   1      33.503  20.984  25.282  1.00  0.00     0.161 A 
ATOM     11  C   UNL A   1      33.846  23.251  23.607  1.00  0.00     0.058 A 
ATOM     12  C   UNL A   1      34.750  21.315  24.747  1.00  0.00     0.066 A 
BRANCH   8  13
ATOM     13  O   UNL A   1      31.157  21.489  25.407  1.00  0.00    -0.493 OA
ATOM     14  C   UNL A   1      30.646  22.516  26.262  1.00  0.00     0.278 C 
ENDBRANCH   8  13
BRANCH  10  15
ATOM     15  O   UNL A   1      33.525  19.840  26.030  1.00  0.00    -0.493 OA
ATOM     16  C   UNL A   1      32.899  18.686  25.490  1.00  0.00     0.278 C 
ENDBRANCH  10  15
BRANCH  11  17
ATOM     17  N   UNL A   1      34.026  24.354  22.725  1.00  0.00    -0.321 N 
ATOM     18  C   UNL A   1      33.652  25.676  22.734  1.00  0.00     0.255 C 
ATOM     19  H   UNL A   1      34.540  24.113  21.921  1.00  0.00     0.170 HD
ATOM     20  O   UNL A   1      33.761  26.382  21.735  1.00  0.00    -0.269 OA
BRANCH  18  21
ATOM     21  C   UNL A   1      33.130  26.309  23.950  1.00  0.00     0.040 A 
ATOM     22  C   UNL A   1      34.018  26.574  25.000  1.00  0.00     0.021 A 
ATOM     23  C   UNL A   1      31.782  26.677  24.028  1.00  0.00     0.021 A 
ATOM     24  C   UNL A   1      33.577  27.309  26.101  1.00  0.00     0.086 A 
ATOM     25  C   UNL A   1      31.337  27.414  25.125  1.00  0.00     0.086 A 
ATOM     26  C   UNL A   1      32.246  27.751  26.142  1.00  0.00     0.269 A 
BRANCH  26  27
ATOM     27  N   UNL A   1      31.811  28.626  27.235  1.00  0.00     0.062 N 
ATOM     28  O   UNL A   1      32.195  29.803  27.220  1.00  0.00    -0.258 OA
ATOM     29  O   UNL A   1      31.063  28.137  28.094  1.00  0.00    -0.258 OA
ENDBRANCH  26  27
ENDBRANCH  18  21
ENDBRANCH  11  17
ENDBRANCH   4   7
ENDBRANCH   2   3
ENDBRANCH   1   2
BRANCH   1  30
ATOM     30  C   UNL A   1      39.800  22.127  26.675  1.00  0.00     0.023 C 
BRANCH  30  31
ATOM     31  C   UNL A   1      40.107  23.601  26.906  1.00  0.00     0.116 C 
BRANCH  31  32
ATOM     32  N   UNL A   1      40.991  24.170  25.900  1.00  0.00    -0.352 N 
ATOM     33  C   UNL A   1      41.684  25.356  25.953  1.00  0.00     0.251 C 
ATOM     34  H   UNL A   1      41.108  23.640  25.079  1.00  0.00     0.163 HD
ATOM     35  O   UNL A   1      42.315  25.748  24.976  1.00  0.00    -0.269 OA
BRANCH  33  36
ATOM     36  C   UNL A   1      41.616  26.170  27.182  1.00  0.00     0.039 A 
ATOM     37  C   UNL A   1      42.331  27.369  27.234  1.00  0.00     0.014 A 
ATOM     38  C   UNL A   1      40.807  25.779  28.252  1.00  0.00     0.014 A 
ATOM     39  C   UNL A   1      42.182  28.210  28.337  1.00  0.00     0.010 A 
ATOM     40  C   UNL A   1      40.608  26.649  29.318  1.00  0.00     0.010 A 
ATOM     41  C   UNL A   1      41.290  27.873  29.369  1.00  0.00    -0.014 A 
BRANCH  41  42
ATOM     42  C   UNL A   1      41.053  28.793  30.508  1.00  0.00     0.031 A 
ATOM     43  C   UNL A   1      41.873  28.666  31.761  1.00  0.00     0.074 A 
ATOM     44  C   UNL A   1      40.050  29.690  30.439  1.00  0.00     0.049 A 
ATOM     45  N   UNL A   1      41.769  29.325  32.886  1.00  0.00    -0.248 NA
ATOM     46  C   UNL A   1      42.933  27.644  31.761  1.00  0.00     0.031 C 
ATOM     47  C   UNL A   1      39.150  29.869  29.297  1.00  0.00     0.029 A 
ATOM     48  N   UNL A   1      39.610  30.614  31.354  1.00  0.00    -0.354 N 
ATOM     49  C   UNL A   1      42.732  28.787  33.731  1.00  0.00     0.074 A 
ATOM     50  C   UNL A   1      43.380  27.716  33.006  1.00  0.00     0.031 C 
ATOM     51  C   UNL A   1      38.282  30.856  29.571  1.00  0.00     0.029 A 
ATOM     52  C   UNL A   1      38.540  31.358  30.917  1.00  0.00     0.049 A 
ATOM     53  H   UNL A   1      40.022  30.732  32.240  1.00  0.00     0.167 HD
ATOM     54  C   UNL A   1      43.060  29.166  34.988  1.00  0.00     0.037 A 
ATOM     55  C   UNL A   1      37.843  32.331  31.533  1.00  0.00     0.037 A 
ATOM     56  C   UNL A   1      42.434  30.256  35.689  1.00  0.00     0.049 A 
ATOM     57  C   UNL A   1      38.239  32.749  32.923  1.00  0.00     0.074 A 
ATOM     58  C   UNL A   1      42.743  30.767  36.938  1.00  0.00     0.029 A 
ATOM     59  N   UNL A   1      41.373  31.006  35.203  1.00  0.00    -0.354 N 
ATOM     60  N   UNL A   1      39.197  32.274  33.683  1.00  0.00    -0.248 NA
ATOM     61  C   UNL A   1      37.466  33.837  33.536  1.00  0.00     0.031 C 
ATOM     62  C   UNL A   1      41.844  31.801  37.222  1.00  0.00     0.029 A 
ATOM     63  C   UNL A   1      41.004  31.963  36.133  1.00  0.00     0.049 A 
ATOM     64  H   UNL A   1      40.946  30.877  34.326  1.00  0.00     0.167 HD
ATOM     65  C   UNL A   1      39.159  33.022  34.854  1.00  0.00     0.074 A 
ATOM     66  C   UNL A   1      38.089  33.987  34.698  1.00  0.00     0.031 C 
ATOM     67  C   UNL A   1      39.939  32.920  35.958  1.00  0.00     0.037 A 
BRANCH  54  68
ATOM     68  C   UNL A   1      44.150  28.400  35.684  1.00  0.00     0.058 A 
ATOM     69  C   UNL A   1      45.502  28.753  35.545  1.00  0.00     0.135 A 
ATOM     70  C   UNL A   1      43.838  27.320  36.524  1.00  0.00     0.135 A 
ATOM     71  F   UNL A   1      45.857  29.767  34.741  1.00  0.00    -0.206 F 
ATOM     72  C   UNL A   1      46.508  28.043  36.191  1.00  0.00     0.059 A 
ATOM     73  C   UNL A   1      44.827  26.612  37.202  1.00  0.00     0.059 A 
ATOM     74  F   UNL A   1      42.561  26.940  36.692  1.00  0.00    -0.206 F 
ATOM     75  C   UNL A   1      46.162  26.972  37.017  1.00  0.00     0.060 A 
BRANCH  75  76
ATOM     76  S   UNL A   1      47.479  26.063  37.852  1.00  0.00     0.124 S 
ATOM     77  O   UNL A   1      48.558  26.156  36.874  1.00  0.00    -0.237 OA
ATOM     78  O   UNL A   1      47.665  26.836  39.076  1.00  0.00    -0.237 OA
ATOM     79  O   UNL A   1      46.910  24.732  38.034  1.00  0.00    -0.744 OA
ENDBRANCH  75  76
ENDBRANCH  54  68
BRANCH  55  80
ATOM     80  C   UNL A   1      36.721  33.003  30.824  1.00  0.00     0.058 A 
ATOM     81  C   UNL A   1      35.392  32.770  31.203  1.00  0.00     0.135 A 
ATOM     82  C   UNL A   1      36.955  33.902  29.773  1.00  0.00     0.135 A 
ATOM     83  F   UNL A   1      35.118  31.913  32.199  1.00  0.00    -0.206 F 
ATOM     84  C   UNL A   1      34.329  33.395  30.559  1.00  0.00     0.059 A 
ATOM     85  C   UNL A   1      35.910  34.558  29.129  1.00  0.00     0.059 A 
ATOM     86  F   UNL A   1      38.210  34.172  29.385  1.00  0.00    -0.206 F 
ATOM     87  C   UNL A   1      34.599  34.291  29.523  1.00  0.00     0.060 A 
BRANCH  87  88
ATOM     88  S   UNL A   1      33.218  35.141  28.731  1.00  0.00     0.124 S 
ATOM     89  O   UNL A   1      32.650  34.078  27.910  1.00  0.00    -0.237 OA
ATOM     90  O   UNL A   1      32.417  35.560  29.877  1.00  0.00    -0.237 OA
ATOM     91  O   UNL A   1      33.866  36.225  28.001  1.00  0.00    -0.744 OA
ENDBRANCH  87  88
ENDBRANCH  55  80
BRANCH  67  92
ATOM     92  C   UNL A   1      39.691  33.896  37.073  1.00  0.00     0.058 A 
ATOM     93  C   UNL A   1      38.930  33.547  38.199  1.00  0.00     0.135 A 
ATOM     94  C   UNL A   1      40.267  35.175  37.039  1.00  0.00     0.135 A 
ATOM     95  F   UNL A   1      38.352  32.337  38.277  1.00  0.00    -0.206 F 
ATOM     96  C   UNL A   1      38.734  34.441  39.247  1.00  0.00     0.059 A 
ATOM     97  C   UNL A   1      40.105  36.077  38.086  1.00  0.00     0.059 A 
ATOM     98  F   UNL A   1      41.011  35.553  35.988  1.00  0.00    -0.206 F 
ATOM     99  C   UNL A   1      39.326  35.704  39.181  1.00  0.00     0.060 A 
BRANCH  99 100
ATOM    100  S   UNL A   1      39.097  36.842  40.563  1.00  0.00     0.124 S 
ATOM    101  O   UNL A   1      40.460  36.967  41.069  1.00  0.00    -0.237 OA
ATOM    102  O   UNL A   1      38.553  38.028  39.906  1.00  0.00    -0.237 OA
ATOM    103  O   UNL A   1      38.164  36.134  41.435  1.00  0.00    -0.744 OA
ENDBRANCH  99 100
ENDBRANCH  67  92
ENDBRANCH  41  42
ENDBRANCH  33  36
ENDBRANCH  31  32
ENDBRANCH  30  31
ENDBRANCH   1  30
TORSDOF 19
ENDMDL
MODEL 2
REMARK VINA RESULT:     -11.9      5.079      6.966
REMARK SMILES COc1cc(NC(=O)c2ccc([N+](=O)[O-])cc2)c(C(=O)NCCCCNC(=O)c2ccc(-c3c4nc(c(-c5c(F)cc(S(=O)(=O)[O-])cc5F)c5ccc([nH]5)c(-c5c(F)cc(S(=O)(=O)[O-])cc5F)c5nc(c(-c6c(F)cc(S(=O)(=O)[O-])cc6F)c6ccc3[nH]6)C=C5)C=C4)cc2)cc1OC
REMARK SMILES IDX 23 1 22 2 21 3 19 4 20 5 18 7 3 8 4 9 96 10 5 11 95 12 2 13
REMARK SMILES IDX 1 14 97 15 98 16 6 17 7 18 8 20 9 21 10 22 17 23 11 24 16 25
REMARK SMILES IDX 12 26 13 27 14 28 15 29 24 30 25 31 26 32 27 33 28 35 29 36
REMARK SMILES IDX 30 37 94 38 31 39 93 40 32 41 33 42 34 43 87 44 35 45 92 46
REMARK SMILES IDX 86 47 88 48 36 49 91 50 85 51 84 52 37 54 71 55 50 56 70 57
REMARK SMILES IDX 51 58 54 59 69 60 89 61 52 62 53 63 68 65 90 66 55 67 38 68
REMARK SMILES IDX 39 69 48 70 40 71 41 72 47 73 49 74 42 75 43 76 44 77 45 78
REMARK SMILES IDX 46 79 72 80 73 81 82 82 74 83 75 84 81 85 83 86 76 87 77 88
REMARK SMILES IDX 78 89 79 90 80 91 56 92 57 93 66 94 58 95 59 96 65 97 67 98
REMARK SMILES IDX 60 99 61 100 62 101 63 102 64 103
REMARK H PARENT 21 6 6 19 26 34 88 53 54 64
REMARK Flexibility Score: inf
ROOT
ATOM      1  C   UNL A   1      34.576  23.042  24.469  1.00  0.00     0.023 C 
ENDROOT
BRANCH   1   2
ATOM      2  C   UNL A   1      33.699  24.257  24.792  1.00  0.00     0.116 C 
BRANCH   2   3
ATOM      3  N   UNL A   1      33.332  24.955  23.577  1.00  0.00    -0.352 N 
ATOM      4  C   UNL A   1      32.869  26.221  23.321  1.00  0.00     0.253 C 
ATOM      5  O   UNL A   1      32.624  26.477  22.139  1.00  0.00    -0.269 OA
ATOM      6  H   UNL A   1      33.437  24.407  22.765  1.00  0.00     0.163 HD
BRANCH   4   7
ATOM      7  C   UNL A   1      32.687  27.301  24.353  1.00  0.00     0.067 A 
ATOM      8  C   UNL A   1      32.369  29.404  26.208  1.00  0.00     0.162 A 
ATOM      9  C   UNL A   1      31.259  28.693  25.730  1.00  0.00     0.077 A 
ATOM     10  C   UNL A   1      33.647  29.010  25.843  1.00  0.00     0.161 A 
ATOM     11  C   UNL A   1      31.382  27.670  24.775  1.00  0.00     0.058 A 
ATOM     12  C   UNL A   1      33.782  27.942  24.953  1.00  0.00     0.066 A 
BRANCH   8  13
ATOM     13  O   UNL A   1      32.162  30.401  27.121  1.00  0.00    -0.493 OA
ATOM     14  C   UNL A   1      31.431  31.489  26.548  1.00  0.00     0.278 C 
ENDBRANCH   8  13
BRANCH  10  15
ATOM     15  O   UNL A   1      34.845  29.501  26.280  1.00  0.00    -0.493 OA
ATOM     16  C   UNL A   1      35.168  29.329  27.652  1.00  0.00     0.278 C 
ENDBRANCH  10  15
BRANCH  11  17
ATOM     17  N   UNL A   1      30.260  26.954  24.269  1.00  0.00    -0.321 N 
ATOM     18  C   UNL A   1      29.081  27.305  23.655  1.00  0.00     0.255 C 
ATOM     19  H   UNL A   1      30.350  25.982  24.387  1.00  0.00     0.170 HD
ATOM     20  O   UNL A   1      28.173  26.493  23.498  1.00  0.00    -0.269 OA
BRANCH  18  21
ATOM     21  C   UNL A   1      28.870  28.660  23.135  1.00  0.00     0.040 A 
ATOM     22  C   UNL A   1      27.704  29.343  23.503  1.00  0.00     0.021 A 
ATOM     23  C   UNL A   1      29.842  29.263  22.328  1.00  0.00     0.021 A 
ATOM     24  C   UNL A   1      27.553  30.683  23.145  1.00  0.00     0.086 A 
ATOM     25  C   UNL A   1      29.697  30.603  21.971  1.00  0.00     0.086 A 
ATOM     26  C   UNL A   1      28.566  31.314  22.407  1.00  0.00     0.269 A 
BRANCH  26  27
ATOM     27  N   UNL A   1      28.471  32.751  22.135  1.00  0.00     0.062 N 
ATOM     28  O   UNL A   1      29.179  33.514  22.806  1.00  0.00    -0.258 OA
ATOM     29  O   UNL A   1      27.704  33.111  21.229  1.00  0.00    -0.258 OA
ENDBRANCH  26  27
ENDBRANCH  18  21
ENDBRANCH  11  17
ENDBRANCH   4   7
ENDBRANCH   2   3
ENDBRANCH   1   2
BRANCH   1  30
ATOM     30  C   UNL A   1      36.075  23.336  24.437  1.00  0.00     0.023 C 
BRANCH  30  31
ATOM     31  C   UNL A   1      36.718  23.505  25.807  1.00  0.00     0.116 C 
BRANCH  31  32
ATOM     32  N   UNL A   1      37.735  22.504  26.094  1.00  0.00    -0.352 N 
ATOM     33  C   UNL A   1      38.999  22.699  26.598  1.00  0.00     0.251 C 
ATOM     34  H   UNL A   1      37.488  21.571  25.902  1.00  0.00     0.163 HD
ATOM     35  O   UNL A   1      39.780  21.757  26.692  1.00  0.00    -0.269 OA
BRANCH  33  36
ATOM     36  C   UNL A   1      39.414  24.063  26.978  1.00  0.00     0.039 A 
ATOM     37  C   UNL A   1      39.399  24.418  28.330  1.00  0.00     0.014 A 
ATOM     38  C   UNL A   1      39.869  24.965  26.012  1.00  0.00     0.014 A 
ATOM     39  C   UNL A   1      39.904  25.659  28.718  1.00  0.00     0.010 A 
ATOM     40  C   UNL A   1      40.433  26.172  26.409  1.00  0.00     0.010 A 
ATOM     41  C   UNL A   1      40.459  26.529  27.765  1.00  0.00    -0.014 A 
BRANCH  41  42
ATOM     42  C   UNL A   1      41.078  27.815  28.168  1.00  0.00     0.031 A 
ATOM     43  C   UNL A   1      42.564  28.005  28.046  1.00  0.00     0.074 A 
ATOM     44  C   UNL A   1      40.310  28.780  28.711  1.00  0.00     0.049 A 
ATOM     45  N   UNL A   1      43.297  29.025  28.410  1.00  0.00    -0.248 NA
ATOM     46  C   UNL A   1      43.330  26.892  27.464  1.00  0.00     0.031 C 
ATOM     47  C   UNL A   1      38.865  28.690  28.931  1.00  0.00     0.029 A 
ATOM     48  N   UNL A   1      40.639  30.025  29.188  1.00  0.00    -0.354 N 
ATOM     49  C   UNL A   1      44.609  28.671  28.121  1.00  0.00     0.074 A 
ATOM     50  C   UNL A   1      44.577  27.323  27.594  1.00  0.00     0.031 C 
ATOM     51  C   UNL A   1      38.430  29.837  29.478  1.00  0.00     0.029 A 
ATOM     52  C   UNL A   1      39.566  30.730  29.679  1.00  0.00     0.049 A 
ATOM     53  H   UNL A   1      41.558  30.378  29.180  1.00  0.00     0.167 HD
ATOM     54  C   UNL A   1      45.735  29.408  28.262  1.00  0.00     0.037 A 
ATOM     55  C   UNL A   1      39.506  31.957  30.230  1.00  0.00     0.037 A 
ATOM     56  C   UNL A   1      45.755  30.761  28.753  1.00  0.00     0.049 A 
ATOM     57  C   UNL A   1      40.768  32.766  30.358  1.00  0.00     0.074 A 
ATOM     58  C   UNL A   1      46.834  31.620  28.866  1.00  0.00     0.029 A 
ATOM     59  N   UNL A   1      44.644  31.452  29.213  1.00  0.00    -0.354 N 
ATOM     60  N   UNL A   1      41.992  32.440  30.017  1.00  0.00    -0.248 NA
ATOM     61  C   UNL A   1      40.641  34.109  30.938  1.00  0.00     0.031 C 
ATOM     62  C   UNL A   1      46.382  32.818  29.429  1.00  0.00     0.029 A 
ATOM     63  C   UNL A   1      45.014  32.721  29.627  1.00  0.00     0.049 A 
ATOM     64  H   UNL A   1      43.727  31.094  29.242  1.00  0.00     0.167 HD
ATOM     65  C   UNL A   1      42.777  33.547  30.317  1.00  0.00     0.074 A 
ATOM     66  C   UNL A   1      41.888  34.554  30.859  1.00  0.00     0.031 C 
ATOM     67  C   UNL A   1      44.113  33.714  30.158  1.00  0.00     0.037 A 
BRANCH  54  68
ATOM     68  C   UNL A   1      47.039  28.770  27.872  1.00  0.00     0.058 A 
ATOM     69  C   UNL A   1      47.841  28.100  28.810  1.00  0.00     0.135 A 
ATOM     70  C   UNL A   1      47.479  28.803  26.539  1.00  0.00     0.135 A 
ATOM     71  F   UNL A   1      47.476  28.053  30.101  1.00  0.00    -0.206 F 
ATOM     72  C   UNL A   1      49.047  27.511  28.446  1.00  0.00     0.059 A 
ATOM     73  C   UNL A   1      48.669  28.196  26.148  1.00  0.00     0.059 A 
ATOM     74  F   UNL A   1      46.751  29.431  25.602  1.00  0.00    -0.206 F 
ATOM     75  C   UNL A   1      49.454  27.565  27.112  1.00  0.00     0.060 A 
BRANCH  75  76
ATOM     76  S   UNL A   1      51.019  26.792  26.654  1.00  0.00     0.124 S 
ATOM     77  O   UNL A   1      51.982  27.750  27.188  1.00  0.00    -0.237 OA
ATOM     78  O   UNL A   1      50.951  25.510  27.350  1.00  0.00    -0.237 OA
ATOM     79  O   UNL A   1      50.949  26.716  25.199  1.00  0.00    -0.744 OA
ENDBRANCH  75  76
ENDBRANCH  54  68
BRANCH  55  80
ATOM     80  C   UNL A   1      38.197  32.508  30.672  1.00  0.00     0.058 A 
ATOM     81  C   UNL A   1      37.775  32.377  32.002  1.00  0.00     0.135 A 
ATOM     82  C   UNL A   1      37.355  33.192  29.781  1.00  0.00     0.135 A 
ATOM     83  F   UNL A   1      38.544  31.726  32.888  1.00  0.00    -0.206 F 
ATOM     84  C   UNL A   1      36.559  32.894  32.436  1.00  0.00     0.059 A 
ATOM     85  C   UNL A   1      36.145  33.738  30.196  1.00  0.00     0.059 A 
ATOM     86  F   UNL A   1      37.722  33.358  28.501  1.00  0.00    -0.206 F 
ATOM     87  C   UNL A   1      35.751  33.577  31.525  1.00  0.00     0.060 A 
BRANCH  87  88
ATOM     88  S   UNL A   1      34.201  34.294  32.110  1.00  0.00     0.124 S 
ATOM     89  O   UNL A   1      33.476  34.487  30.860  1.00  0.00    -0.237 OA
ATOM     90  O   UNL A   1      33.691  33.247  32.989  1.00  0.00    -0.237 OA
ATOM     91  O   UNL A   1      34.630  35.514  32.786  1.00  0.00    -0.744 OA
ENDBRANCH  87  88
ENDBRANCH  55  80
BRANCH  67  92
ATOM     92  C   UNL A   1      44.694  35.046  30.542  1.00  0.00     0.058 A 
ATOM     93  C   UNL A   1      45.220  35.277  31.823  1.00  0.00     0.135 A 
ATOM     94  C   UNL A   1      44.774  36.084  29.601  1.00  0.00     0.135 A 
ATOM     95  F   UNL A   1      45.161  34.319  32.761  1.00  0.00    -0.206 F 
ATOM     96  C   UNL A   1      45.790  36.499  32.162  1.00  0.00     0.059 A 
ATOM     97  C   UNL A   1      45.363  37.306  29.910  1.00  0.00     0.059 A 
ATOM     98  F   UNL A   1      44.295  35.909  28.360  1.00  0.00    -0.206 F 
ATOM     99  C   UNL A   1      45.858  37.508  31.198  1.00  0.00     0.060 A 
BRANCH  99 100
ATOM    100  S   UNL A   1      46.635  39.076  31.638  1.00  0.00     0.124 S 
ATOM    101  O   UNL A   1      47.603  39.237  30.558  1.00  0.00    -0.237 OA
ATOM    102  O   UNL A   1      45.505  40.002  31.620  1.00  0.00    -0.237 OA
ATOM    103  O   UNL A   1      47.202  38.817  32.958  1.00  0.00    -0.744 OA
ENDBRANCH  99 100
ENDBRANCH  67  92
ENDBRANCH  41  42
ENDBRANCH  33  36
ENDBRANCH  31  32
ENDBRANCH  30  31
ENDBRANCH   1  30
TORSDOF 19
ENDMDL
MODEL 3
REMARK VINA RESULT:     -11.9      4.675     10.109
REMARK SMILES COc1cc(NC(=O)c2ccc([N+](=O)[O-])cc2)c(C(=O)NCCCCNC(=O)c2ccc(-c3c4nc(c(-c5c(F)cc(S(=O)(=O)[O-])cc5F)c5ccc([nH]5)c(-c5c(F)cc(S(=O)(=O)[O-])cc5F)c5nc(c(-c6c(F)cc(S(=O)(=O)[O-])cc6F)c6ccc3[nH]6)C=C5)C=C4)cc2)cc1OC
REMARK SMILES IDX 23 1 22 2 21 3 19 4 20 5 18 7 3 8 4 9 96 10 5 11 95 12 2 13
REMARK SMILES IDX 1 14 97 15 98 16 6 17 7 18 8 20 9 21 10 22 17 23 11 24 16 25
REMARK SMILES IDX 12 26 13 27 14 28 15 29 24 30 25 31 26 32 27 33 28 35 29 36
REMARK SMILES IDX 30 37 94 38 31 39 93 40 32 41 33 42 34 43 87 44 35 45 92 46
REMARK SMILES IDX 86 47 88 48 36 49 91 50 85 51 84 52 37 54 71 55 50 56 70 57
REMARK SMILES IDX 51 58 54 59 69 60 89 61 52 62 53 63 68 65 90 66 55 67 38 68
REMARK SMILES IDX 39 69 48 70 40 71 41 72 47 73 49 74 42 75 43 76 44 77 45 78
REMARK SMILES IDX 46 79 72 80 73 81 82 82 74 83 75 84 81 85 83 86 76 87 77 88
REMARK SMILES IDX 78 89 79 90 80 91 56 92 57 93 66 94 58 95 59 96 65 97 67 98
REMARK SMILES IDX 60 99 61 100 62 101 63 102 64 103
REMARK H PARENT 21 6 6 19 26 34 88 53 54 64
REMARK Flexibility Score: inf
ROOT
ATOM      1  C   UNL A   1      32.778  28.094  24.590  1.00  0.00     0.023 C 
ENDROOT
BRANCH   1   2
ATOM      2  C   UNL A   1      31.557  27.749  25.448  1.00  0.00     0.116 C 
BRANCH   2   3
ATOM      3  N   UNL A   1      30.445  27.348  24.611  1.00  0.00    -0.352 N 
ATOM      4  C   UNL A   1      29.925  26.128  24.257  1.00  0.00     0.253 C 
ATOM      5  O   UNL A   1      28.966  26.156  23.480  1.00  0.00    -0.269 OA
ATOM      6  H   UNL A   1      29.962  28.108  24.212  1.00  0.00     0.163 HD
BRANCH   4   7
ATOM      7  C   UNL A   1      30.405  24.799  24.774  1.00  0.00     0.067 A 
ATOM      8  C   UNL A   1      31.208  22.260  25.707  1.00  0.00     0.162 A 
ATOM      9  C   UNL A   1      31.800  22.828  24.570  1.00  0.00     0.077 A 
ATOM     10  C   UNL A   1      30.288  22.992  26.441  1.00  0.00     0.161 A 
ATOM     11  C   UNL A   1      31.391  24.071  24.057  1.00  0.00     0.058 A 
ATOM     12  C   UNL A   1      29.933  24.262  25.981  1.00  0.00     0.066 A 
BRANCH   8  13
ATOM     13  O   UNL A   1      31.648  21.035  26.129  1.00  0.00    -0.493 OA
ATOM     14  C   UNL A   1      32.515  20.433  25.164  1.00  0.00     0.278 C 
ENDBRANCH   8  13
BRANCH  10  15
ATOM     15  O   UNL A   1      29.686  22.659  27.623  1.00  0.00    -0.493 OA
ATOM     16  C   UNL A   1      28.357  22.162  27.568  1.00  0.00     0.278 C 
ENDBRANCH  10  15
BRANCH  11  17
ATOM     17  N   UNL A   1      31.972  24.648  22.893  1.00  0.00    -0.321 N 
ATOM     18  C   UNL A   1      33.251  24.964  22.501  1.00  0.00     0.255 C 
ATOM     19  H   UNL A   1      31.301  24.872  22.209  1.00  0.00     0.170 HD
ATOM     20  O   UNL A   1      33.466  25.655  21.508  1.00  0.00    -0.269 OA
BRANCH  18  21
ATOM     21  C   UNL A   1      34.416  24.465  23.238  1.00  0.00     0.040 A 
ATOM     22  C   UNL A   1      34.675  24.986  24.512  1.00  0.00     0.021 A 
ATOM     23  C   UNL A   1      35.217  23.456  22.689  1.00  0.00     0.021 A 
ATOM     24  C   UNL A   1      35.685  24.421  25.292  1.00  0.00     0.086 A 
ATOM     25  C   UNL A   1      36.226  22.887  23.466  1.00  0.00     0.086 A 
ATOM     26  C   UNL A   1      36.434  23.354  24.774  1.00  0.00     0.269 A 
BRANCH  26  27
ATOM     27  N   UNL A   1      37.411  22.677  25.632  1.00  0.00     0.062 N 
ATOM     28  O   UNL A   1      38.254  23.375  26.211  1.00  0.00    -0.258 OA
ATOM     29  O   UNL A   1      37.316  21.445  25.744  1.00  0.00    -0.258 OA
ENDBRANCH  26  27
ENDBRANCH  18  21
ENDBRANCH  11  17
ENDBRANCH   4   7
ENDBRANCH   2   3
ENDBRANCH   1   2
BRANCH   1  30
ATOM     30  C   UNL A   1      34.005  28.538  25.385  1.00  0.00     0.023 C 
BRANCH  30  31
ATOM     31  C   UNL A   1      33.825  28.509  26.897  1.00  0.00     0.116 C 
BRANCH  31  32
ATOM     32  N   UNL A   1      33.628  29.828  27.479  1.00  0.00    -0.352 N 
ATOM     33  C   UNL A   1      34.521  30.575  28.208  1.00  0.00     0.251 C 
ATOM     34  H   UNL A   1      32.744  30.236  27.332  1.00  0.00     0.163 HD
ATOM     35  O   UNL A   1      34.170  31.635  28.718  1.00  0.00    -0.269 OA
BRANCH  33  36
ATOM     36  C   UNL A   1      35.889  30.061  28.408  1.00  0.00     0.039 A 
ATOM     37  C   UNL A   1      36.794  30.130  27.346  1.00  0.00     0.014 A 
ATOM     38  C   UNL A   1      36.291  29.565  29.651  1.00  0.00     0.014 A 
ATOM     39  C   UNL A   1      38.124  29.762  27.553  1.00  0.00     0.010 A 
ATOM     40  C   UNL A   1      37.630  29.265  29.873  1.00  0.00     0.010 A 
ATOM     41  C   UNL A   1      38.559  29.363  28.827  1.00  0.00    -0.014 A 
BRANCH  41  42
ATOM     42  C   UNL A   1      39.985  29.050  29.089  1.00  0.00     0.031 A 
ATOM     43  C   UNL A   1      40.892  30.101  29.667  1.00  0.00     0.074 A 
ATOM     44  C   UNL A   1      40.476  27.846  28.737  1.00  0.00     0.049 A 
ATOM     45  N   UNL A   1      42.177  30.043  29.899  1.00  0.00    -0.248 NA
ATOM     46  C   UNL A   1      40.279  31.396  30.001  1.00  0.00     0.031 C 
ATOM     47  C   UNL A   1      39.705  26.765  28.117  1.00  0.00     0.029 A 
ATOM     48  N   UNL A   1      41.745  27.330  28.839  1.00  0.00    -0.354 N 
ATOM     49  C   UNL A   1      42.531  31.295  30.387  1.00  0.00     0.074 A 
ATOM     50  C   UNL A   1      41.333  32.108  30.373  1.00  0.00     0.031 C 
ATOM     51  C   UNL A   1      40.511  25.709  27.916  1.00  0.00     0.029 A 
ATOM     52  C   UNL A   1      41.860  26.048  28.359  1.00  0.00     0.049 A 
ATOM     53  H   UNL A   1      42.500  27.833  29.219  1.00  0.00     0.167 HD
ATOM     54  C   UNL A   1      43.738  31.722  30.825  1.00  0.00     0.037 A 
ATOM     55  C   UNL A   1      42.932  25.237  28.283  1.00  0.00     0.037 A 
ATOM     56  C   UNL A   1      44.916  30.897  30.870  1.00  0.00     0.049 A 
ATOM     57  C   UNL A   1      44.259  25.726  28.795  1.00  0.00     0.074 A 
ATOM     58  C   UNL A   1      46.169  31.212  31.364  1.00  0.00     0.029 A 
ATOM     59  N   UNL A   1      44.987  29.593  30.402  1.00  0.00    -0.354 N 
ATOM     60  N   UNL A   1      44.560  26.892  29.316  1.00  0.00    -0.248 NA
ATOM     61  C   UNL A   1      45.389  24.791  28.717  1.00  0.00     0.031 C 
ATOM     62  C   UNL A   1      47.009  30.111  31.162  1.00  0.00     0.029 A 
ATOM     63  C   UNL A   1      46.267  29.095  30.581  1.00  0.00     0.049 A 
ATOM     64  H   UNL A   1      44.238  29.094  30.003  1.00  0.00     0.167 HD
ATOM     65  C   UNL A   1      45.908  26.821  29.651  1.00  0.00     0.074 A 
ATOM     66  C   UNL A   1      46.360  25.495  29.282  1.00  0.00     0.031 C 
ATOM     67  C   UNL A   1      46.698  27.769  30.213  1.00  0.00     0.037 A 
BRANCH  54  68
ATOM     68  C   UNL A   1      43.843  33.144  31.301  1.00  0.00     0.058 A 
ATOM     69  C   UNL A   1      43.566  33.498  32.632  1.00  0.00     0.135 A 
ATOM     70  C   UNL A   1      44.255  34.161  30.425  1.00  0.00     0.135 A 
ATOM     71  F   UNL A   1      43.153  32.568  33.507  1.00  0.00    -0.206 F 
ATOM     72  C   UNL A   1      43.665  34.815  33.069  1.00  0.00     0.059 A 
ATOM     73  C   UNL A   1      44.387  35.480  30.848  1.00  0.00     0.059 A 
ATOM     74  F   UNL A   1      44.531  33.877  29.142  1.00  0.00    -0.206 F 
ATOM     75  C   UNL A   1      44.075  35.800  32.169  1.00  0.00     0.060 A 
BRANCH  75  76
ATOM     76  S   UNL A   1      44.203  37.503  32.752  1.00  0.00     0.124 S 
ATOM     77  O   UNL A   1      43.295  37.486  33.895  1.00  0.00    -0.237 OA
ATOM     78  O   UNL A   1      45.622  37.619  33.073  1.00  0.00    -0.237 OA
ATOM     79  O   UNL A   1      43.756  38.289  31.607  1.00  0.00    -0.744 OA
ENDBRANCH  75  76
ENDBRANCH  54  68
BRANCH  55  80
ATOM     80  C   UNL A   1      42.786  23.864  27.730  1.00  0.00     0.058 A 
ATOM     81  C   UNL A   1      42.516  22.776  28.572  1.00  0.00     0.135 A 
ATOM     82  C   UNL A   1      42.892  23.617  26.352  1.00  0.00     0.135 A 
ATOM     83  F   UNL A   1      42.412  22.963  29.896  1.00  0.00    -0.206 F 
ATOM     84  C   UNL A   1      42.368  21.487  28.072  1.00  0.00     0.059 A 
ATOM     85  C   UNL A   1      42.723  22.340  25.826  1.00  0.00     0.059 A 
ATOM     86  F   UNL A   1      43.132  24.628  25.503  1.00  0.00    -0.206 F 
ATOM     87  C   UNL A   1      42.470  21.279  26.695  1.00  0.00     0.060 A 
BRANCH  87  88
ATOM     88  S   UNL A   1      42.219  19.611  26.050  1.00  0.00     0.124 S 
ATOM     89  O   UNL A   1      43.105  19.608  24.892  1.00  0.00    -0.237 OA
ATOM     90  O   UNL A   1      42.636  18.780  27.176  1.00  0.00    -0.237 OA
ATOM     91  O   UNL A   1      40.790  19.579  25.754  1.00  0.00    -0.744 OA
ENDBRANCH  87  88
ENDBRANCH  55  80
BRANCH  67  92
ATOM     92  C   UNL A   1      48.127  27.398  30.497  1.00  0.00     0.058 A 
ATOM     93  C   UNL A   1      48.501  26.782  31.701  1.00  0.00     0.135 A 
ATOM     94  C   UNL A   1      49.121  27.612  29.530  1.00  0.00     0.135 A 
ATOM     95  F   UNL A   1      47.588  26.561  32.661  1.00  0.00    -0.206 F 
ATOM     96  C   UNL A   1      49.818  26.406  31.944  1.00  0.00     0.059 A 
ATOM     97  C   UNL A   1      50.440  27.221  29.741  1.00  0.00     0.059 A 
ATOM     98  F   UNL A   1      48.812  28.188  28.358  1.00  0.00    -0.206 F 
ATOM     99  C   UNL A   1      50.781  26.629  30.957  1.00  0.00     0.060 A 
BRANCH  99 100
ATOM    100  S   UNL A   1      52.479  26.103  31.267  1.00  0.00     0.124 S 
ATOM    101  O   UNL A   1      53.012  26.017  29.912  1.00  0.00    -0.237 OA
ATOM    102  O   UNL A   1      53.001  27.194  32.086  1.00  0.00    -0.237 OA
ATOM    103  O   UNL A   1      52.318  24.830  31.963  1.00  0.00    -0.744 OA
ENDBRANCH  99 100
ENDBRANCH  67  92
ENDBRANCH  41  42
ENDBRANCH  33  36
ENDBRANCH  31  32
ENDBRANCH  30  31
ENDBRANCH   1  30
TORSDOF 19
ENDMDL
