MODEL 1
REMARK VINA RESULT:     -11.0      0.000      0.000
REMARK SMILES COc1ccc(C(=O)NCCCCNC(=O)c2ccc(-c3c4nc(c(-c5c(F)cc(S(=O)(=O)[O-])cc5F)c5ccc([nH]5)c(-c5c(F)cc(S(=O)(=O)[O-])cc5F)c5nc(c(-c6c(F)cc(S(=O)(=O)[O-])cc6F)c6ccc3[nH]6)C=C5)C=C4)cc2)cc1C(F)(F)F
REMARK SMILES IDX 12 1 11 2 10 3 9 4 7 5 8 6 6 8 3 9 4 10 84 11 5 12 83 13
REMARK SMILES IDX 2 14 1 15 85 16 86 17 87 18 88 19 13 20 14 21 15 22 16 24
REMARK SMILES IDX 17 25 18 26 82 27 19 28 81 29 20 30 21 31 22 32 75 33 23 34
REMARK SMILES IDX 80 35 74 36 76 37 24 38 79 39 73 40 72 41 25 43 59 44 38 45
REMARK SMILES IDX 58 46 39 47 42 48 57 49 77 50 40 51 41 52 56 54 78 55 43 56
REMARK SMILES IDX 26 57 27 58 36 59 28 60 29 61 35 62 37 63 30 64 31 65 32 66
REMARK SMILES IDX 33 67 34 68 60 69 61 70 70 71 62 72 63 73 69 74 71 75 64 76
REMARK SMILES IDX 65 77 66 78 67 79 68 80 44 81 45 82 54 83 46 84 47 85 53 86
REMARK SMILES IDX 55 87 48 88 49 89 50 90 51 91 52 92
REMARK H PARENT 9 7 14 23 76 42 42 53
REMARK Flexibility Score: inf
ROOT
ATOM      1  C   UNL A   1      33.399  28.397  25.698  1.00  0.00     0.023 C 
ENDROOT
BRANCH   1   2
ATOM      2  C   UNL A   1      31.965  28.388  25.163  1.00  0.00     0.023 C 
BRANCH   2   3
ATOM      3  C   UNL A   1      31.643  27.209  24.241  1.00  0.00     0.116 C 
BRANCH   3   4
ATOM      4  N   UNL A   1      32.463  27.246  23.045  1.00  0.00    -0.352 N 
ATOM      5  C   UNL A   1      33.304  26.322  22.479  1.00  0.00     0.251 C 
ATOM      6  O   UNL A   1      33.823  26.598  21.397  1.00  0.00    -0.269 OA
ATOM      7  H   UNL A   1      32.405  28.093  22.547  1.00  0.00     0.163 HD
BRANCH   5   8
ATOM      8  C   UNL A   1      33.577  24.986  23.082  1.00  0.00     0.040 A 
ATOM      9  C   UNL A   1      33.947  22.411  24.143  1.00  0.00     0.131 A 
ATOM     10  C   UNL A   1      33.067  22.609  23.078  1.00  0.00     0.048 A 
ATOM     11  C   UNL A   1      34.704  23.470  24.648  1.00  0.00     0.098 A 
ATOM     12  C   UNL A   1      32.873  23.892  22.561  1.00  0.00     0.017 A 
ATOM     13  C   UNL A   1      34.519  24.752  24.089  1.00  0.00     0.030 A 
BRANCH   9  14
ATOM     14  O   UNL A   1      34.113  21.135  24.605  1.00  0.00    -0.496 OA
ATOM     15  C   UNL A   1      32.949  20.692  25.303  1.00  0.00     0.278 C 
ENDBRANCH   9  14
BRANCH  11  16
ATOM     16  C   UNL A   1      35.648  23.301  25.809  1.00  0.00     0.419 C 
ATOM     17  F   UNL A   1      36.620  22.373  25.568  1.00  0.00    -0.166 F 
ATOM     18  F   UNL A   1      36.318  24.457  26.083  1.00  0.00    -0.166 F 
ATOM     19  F   UNL A   1      35.062  22.921  26.976  1.00  0.00    -0.166 F 
ENDBRANCH  11  16
ENDBRANCH   5   8
ENDBRANCH   3   4
ENDBRANCH   2   3
ENDBRANCH   1   2
BRANCH   1  20
ATOM     20  C   UNL A   1      33.522  28.559  27.210  1.00  0.00     0.116 C 
BRANCH  20  21
ATOM     21  N   UNL A   1      33.486  29.949  27.644  1.00  0.00    -0.352 N 
ATOM     22  C   UNL A   1      34.490  30.687  28.230  1.00  0.00     0.251 C 
ATOM     23  H   UNL A   1      32.633  30.420  27.502  1.00  0.00     0.163 HD
ATOM     24  O   UNL A   1      34.276  31.823  28.626  1.00  0.00    -0.269 OA
BRANCH  22  25
ATOM     25  C   UNL A   1      35.819  30.065  28.410  1.00  0.00     0.039 A 
ATOM     26  C   UNL A   1      36.716  30.073  27.340  1.00  0.00     0.014 A 
ATOM     27  C   UNL A   1      36.195  29.542  29.650  1.00  0.00     0.014 A 
ATOM     28  C   UNL A   1      38.025  29.633  27.537  1.00  0.00     0.010 A 
ATOM     29  C   UNL A   1      37.515  29.155  29.859  1.00  0.00     0.010 A 
ATOM     30  C   UNL A   1      38.446  29.215  28.810  1.00  0.00    -0.014 A 
BRANCH  30  31
ATOM     31  C   UNL A   1      39.865  28.882  29.087  1.00  0.00     0.031 A 
ATOM     32  C   UNL A   1      40.794  29.929  29.631  1.00  0.00     0.074 A 
ATOM     33  C   UNL A   1      40.336  27.664  28.749  1.00  0.00     0.049 A 
ATOM     34  N   UNL A   1      42.087  29.870  29.815  1.00  0.00    -0.248 NA
ATOM     35  C   UNL A   1      40.195  31.224  29.993  1.00  0.00     0.031 C 
ATOM     36  C   UNL A   1      39.540  26.577  28.172  1.00  0.00     0.029 A 
ATOM     37  N   UNL A   1      41.603  27.141  28.821  1.00  0.00    -0.354 N 
ATOM     38  C   UNL A   1      42.461  31.121  30.286  1.00  0.00     0.074 A 
ATOM     39  C   UNL A   1      41.263  31.931  30.336  1.00  0.00     0.031 C 
ATOM     40  C   UNL A   1      40.335  25.516  27.952  1.00  0.00     0.029 A 
ATOM     41  C   UNL A   1      41.701  25.859  28.333  1.00  0.00     0.049 A 
ATOM     42  H   UNL A   1      42.370  27.638  29.189  1.00  0.00     0.167 HD
ATOM     43  C   UNL A   1      43.691  31.550  30.655  1.00  0.00     0.037 A 
ATOM     44  C   UNL A   1      42.775  25.057  28.192  1.00  0.00     0.037 A 
ATOM     45  C   UNL A   1      44.871  30.726  30.645  1.00  0.00     0.049 A 
ATOM     46  C   UNL A   1      44.128  25.562  28.610  1.00  0.00     0.074 A 
ATOM     47  C   UNL A   1      46.143  31.041  31.093  1.00  0.00     0.029 A 
ATOM     48  N   UNL A   1      44.927  29.427  30.163  1.00  0.00    -0.354 N 
ATOM     49  N   UNL A   1      44.451  26.724  29.124  1.00  0.00    -0.248 NA
ATOM     50  C   UNL A   1      45.265  24.648  28.424  1.00  0.00     0.031 C 
ATOM     51  C   UNL A   1      46.978  29.946  30.844  1.00  0.00     0.029 A 
ATOM     52  C   UNL A   1      46.217  28.936  30.276  1.00  0.00     0.049 A 
ATOM     53  H   UNL A   1      44.163  28.928  29.794  1.00  0.00     0.167 HD
ATOM     54  C   UNL A   1      45.822  26.673  29.345  1.00  0.00     0.074 A 
ATOM     55  C   UNL A   1      46.268  25.362  28.919  1.00  0.00     0.031 C 
ATOM     56  C   UNL A   1      46.641  27.625  29.855  1.00  0.00     0.037 A 
BRANCH  43  57
ATOM     57  C   UNL A   1      43.833  32.975  31.106  1.00  0.00     0.058 A 
ATOM     58  C   UNL A   1      44.001  34.025  30.189  1.00  0.00     0.135 A 
ATOM     59  C   UNL A   1      43.735  33.302  32.469  1.00  0.00     0.135 A 
ATOM     60  F   UNL A   1      44.117  33.764  28.878  1.00  0.00    -0.206 F 
ATOM     61  C   UNL A   1      44.081  35.348  30.609  1.00  0.00     0.059 A 
ATOM     62  C   UNL A   1      43.789  34.621  32.908  1.00  0.00     0.059 A 
ATOM     63  F   UNL A   1      43.577  32.335  33.386  1.00  0.00    -0.206 F 
ATOM     64  C   UNL A   1      43.971  35.637  31.971  1.00  0.00     0.060 A 
BRANCH  64  65
ATOM     65  S   UNL A   1      44.047  37.362  32.497  1.00  0.00     0.124 S 
ATOM     66  O   UNL A   1      43.778  38.060  31.242  1.00  0.00    -0.237 OA
ATOM     67  O   UNL A   1      42.988  37.432  33.499  1.00  0.00    -0.237 OA
ATOM     68  O   UNL A   1      45.405  37.501  33.014  1.00  0.00    -0.744 OA
ENDBRANCH  64  65
ENDBRANCH  43  57
BRANCH  44  69
ATOM     69  C   UNL A   1      42.621  23.689  27.631  1.00  0.00     0.058 A 
ATOM     70  C   UNL A   1      42.428  22.586  28.477  1.00  0.00     0.135 A 
ATOM     71  C   UNL A   1      42.684  23.452  26.250  1.00  0.00     0.135 A 
ATOM     72  F   UNL A   1      42.367  22.763  29.805  1.00  0.00    -0.206 F 
ATOM     73  C   UNL A   1      42.328  21.293  27.976  1.00  0.00     0.059 A 
ATOM     74  C   UNL A   1      42.564  22.169  25.723  1.00  0.00     0.059 A 
ATOM     75  F   UNL A   1      42.852  24.476  25.398  1.00  0.00    -0.206 F 
ATOM     76  C   UNL A   1      42.403  21.094  26.596  1.00  0.00     0.060 A 
BRANCH  76  77
ATOM     77  S   UNL A   1      42.251  19.415  25.951  1.00  0.00     0.124 S 
ATOM     78  O   UNL A   1      43.069  19.490  24.746  1.00  0.00    -0.237 OA
ATOM     79  O   UNL A   1      42.793  18.612  27.043  1.00  0.00    -0.237 OA
ATOM     80  O   UNL A   1      40.815  19.270  25.733  1.00  0.00    -0.744 OA
ENDBRANCH  76  77
ENDBRANCH  44  69
BRANCH  56  81
ATOM     81  C   UNL A   1      48.093  27.277  30.009  1.00  0.00     0.058 A 
ATOM     82  C   UNL A   1      49.035  27.611  29.025  1.00  0.00     0.135 A 
ATOM     83  C   UNL A   1      48.554  26.648  31.176  1.00  0.00     0.135 A 
ATOM     84  F   UNL A   1      48.643  28.205  27.887  1.00  0.00    -0.206 F 
ATOM     85  C   UNL A   1      50.386  27.319  29.185  1.00  0.00     0.059 A 
ATOM     86  C   UNL A   1      49.903  26.367  31.368  1.00  0.00     0.059 A 
ATOM     87  F   UNL A   1      47.693  26.315  32.151  1.00  0.00    -0.206 F 
ATOM     88  C   UNL A   1      50.810  26.698  30.362  1.00  0.00     0.060 A 
BRANCH  88  89
ATOM     89  S   UNL A   1      52.570  26.360  30.579  1.00  0.00     0.124 S 
ATOM     90  O   UNL A   1      52.540  25.224  31.494  1.00  0.00    -0.237 OA
ATOM     91  O   UNL A   1      53.005  26.064  29.216  1.00  0.00    -0.237 OA
ATOM     92  O   UNL A   1      53.087  27.605  31.138  1.00  0.00    -0.744 OA
ENDBRANCH  88  89
ENDBRANCH  56  81
ENDBRANCH  30  31
ENDBRANCH  22  25
ENDBRANCH  20  21
ENDBRANCH   1  20
TORSDOF 16
ENDMDL
MODEL 2
REMARK VINA RESULT:     -10.8      1.301      2.021
REMARK SMILES COc1ccc(C(=O)NCCCCNC(=O)c2ccc(-c3c4nc(c(-c5c(F)cc(S(=O)(=O)[O-])cc5F)c5ccc([nH]5)c(-c5c(F)cc(S(=O)(=O)[O-])cc5F)c5nc(c(-c6c(F)cc(S(=O)(=O)[O-])cc6F)c6ccc3[nH]6)C=C5)C=C4)cc2)cc1C(F)(F)F
REMARK SMILES IDX 12 1 11 2 10 3 9 4 7 5 8 6 6 8 3 9 4 10 84 11 5 12 83 13
REMARK SMILES IDX 2 14 1 15 85 16 86 17 87 18 88 19 13 20 14 21 15 22 16 24
REMARK SMILES IDX 17 25 18 26 82 27 19 28 81 29 20 30 21 31 22 32 75 33 23 34
REMARK SMILES IDX 80 35 74 36 76 37 24 38 79 39 73 40 72 41 25 43 59 44 38 45
REMARK SMILES IDX 58 46 39 47 42 48 57 49 77 50 40 51 41 52 56 54 78 55 43 56
REMARK SMILES IDX 26 57 27 58 36 59 28 60 29 61 35 62 37 63 30 64 31 65 32 66
REMARK SMILES IDX 33 67 34 68 60 69 61 70 70 71 62 72 63 73 69 74 71 75 64 76
REMARK SMILES IDX 65 77 66 78 67 79 68 80 44 81 45 82 54 83 46 84 47 85 53 86
REMARK SMILES IDX 55 87 48 88 49 89 50 90 51 91 52 92
REMARK H PARENT 9 7 14 23 76 42 42 53
REMARK Flexibility Score: inf
ROOT
ATOM      1  C   UNL A   1      33.553  28.451  25.741  1.00  0.00     0.023 C 
ENDROOT
BRANCH   1   2
ATOM      2  C   UNL A   1      32.934  29.604  24.947  1.00  0.00     0.023 C 
BRANCH   2   3
ATOM      3  C   UNL A   1      31.408  29.681  25.032  1.00  0.00     0.116 C 
BRANCH   3   4
ATOM      4  N   UNL A   1      30.804  29.481  23.728  1.00  0.00    -0.352 N 
ATOM      5  C   UNL A   1      30.660  28.365  22.944  1.00  0.00     0.251 C 
ATOM      6  O   UNL A   1      30.023  28.473  21.896  1.00  0.00    -0.269 OA
ATOM      7  H   UNL A   1      30.428  30.300  23.332  1.00  0.00     0.163 HD
BRANCH   5   8
ATOM      8  C   UNL A   1      31.189  27.024  23.324  1.00  0.00     0.040 A 
ATOM      9  C   UNL A   1      32.256  24.486  23.883  1.00  0.00     0.131 A 
ATOM     10  C   UNL A   1      32.737  25.224  22.799  1.00  0.00     0.048 A 
ATOM     11  C   UNL A   1      31.294  25.023  24.740  1.00  0.00     0.098 A 
ATOM     12  C   UNL A   1      32.195  26.480  22.515  1.00  0.00     0.017 A 
ATOM     13  C   UNL A   1      30.785  26.307  24.454  1.00  0.00     0.030 A 
BRANCH   9  14
ATOM     14  O   UNL A   1      32.828  23.269  24.129  1.00  0.00    -0.496 OA
ATOM     15  C   UNL A   1      32.587  22.367  23.049  1.00  0.00     0.278 C 
ENDBRANCH   9  14
BRANCH  11  16
ATOM     16  C   UNL A   1      30.736  24.250  25.905  1.00  0.00     0.419 C 
ATOM     17  F   UNL A   1      29.633  24.841  26.452  1.00  0.00    -0.166 F 
ATOM     18  F   UNL A   1      30.326  23.004  25.530  1.00  0.00    -0.166 F 
ATOM     19  F   UNL A   1      31.600  24.065  26.939  1.00  0.00    -0.166 F 
ENDBRANCH  11  16
ENDBRANCH   5   8
ENDBRANCH   3   4
ENDBRANCH   2   3
ENDBRANCH   1   2
BRANCH   1  20
ATOM     20  C   UNL A   1      33.503  28.614  27.257  1.00  0.00     0.116 C 
BRANCH  20  21
ATOM     21  N   UNL A   1      33.466  30.005  27.686  1.00  0.00    -0.352 N 
ATOM     22  C   UNL A   1      34.470  30.746  28.269  1.00  0.00     0.251 C 
ATOM     23  H   UNL A   1      32.613  30.475  27.542  1.00  0.00     0.163 HD
ATOM     24  O   UNL A   1      34.254  31.883  28.661  1.00  0.00    -0.269 OA
BRANCH  22  25
ATOM     25  C   UNL A   1      35.799  30.125  28.453  1.00  0.00     0.039 A 
ATOM     26  C   UNL A   1      36.696  30.128  27.382  1.00  0.00     0.014 A 
ATOM     27  C   UNL A   1      36.175  29.609  29.695  1.00  0.00     0.014 A 
ATOM     28  C   UNL A   1      38.006  29.690  27.582  1.00  0.00     0.010 A 
ATOM     29  C   UNL A   1      37.495  29.223  29.905  1.00  0.00     0.010 A 
ATOM     30  C   UNL A   1      38.427  29.278  28.856  1.00  0.00    -0.014 A 
BRANCH  30  31
ATOM     31  C   UNL A   1      39.846  28.947  29.135  1.00  0.00     0.031 A 
ATOM     32  C   UNL A   1      40.772  29.996  29.682  1.00  0.00     0.074 A 
ATOM     33  C   UNL A   1      40.319  27.730  28.797  1.00  0.00     0.049 A 
ATOM     34  N   UNL A   1      42.065  29.938  29.867  1.00  0.00    -0.248 NA
ATOM     35  C   UNL A   1      40.170  31.289  30.043  1.00  0.00     0.031 C 
ATOM     36  C   UNL A   1      39.526  26.643  28.217  1.00  0.00     0.029 A 
ATOM     37  N   UNL A   1      41.586  27.209  28.870  1.00  0.00    -0.354 N 
ATOM     38  C   UNL A   1      42.436  31.190  30.340  1.00  0.00     0.074 A 
ATOM     39  C   UNL A   1      41.237  31.997  30.389  1.00  0.00     0.031 C 
ATOM     40  C   UNL A   1      40.322  25.584  27.997  1.00  0.00     0.029 A 
ATOM     41  C   UNL A   1      41.687  25.928  28.381  1.00  0.00     0.049 A 
ATOM     42  H   UNL A   1      42.353  27.707  29.239  1.00  0.00     0.167 HD
ATOM     43  C   UNL A   1      43.665  31.620  30.711  1.00  0.00     0.037 A 
ATOM     44  C   UNL A   1      42.762  25.128  28.240  1.00  0.00     0.037 A 
ATOM     45  C   UNL A   1      44.846  30.798  30.702  1.00  0.00     0.049 A 
ATOM     46  C   UNL A   1      44.114  25.635  28.660  1.00  0.00     0.074 A 
ATOM     47  C   UNL A   1      46.117  31.114  31.152  1.00  0.00     0.029 A 
ATOM     48  N   UNL A   1      44.905  29.500  30.218  1.00  0.00    -0.354 N 
ATOM     49  N   UNL A   1      44.435  26.797  29.176  1.00  0.00    -0.248 NA
ATOM     50  C   UNL A   1      45.253  24.723  28.475  1.00  0.00     0.031 C 
ATOM     51  C   UNL A   1      46.954  30.021  30.902  1.00  0.00     0.029 A 
ATOM     52  C   UNL A   1      46.196  29.011  30.332  1.00  0.00     0.049 A 
ATOM     53  H   UNL A   1      44.143  29.000  29.848  1.00  0.00     0.167 HD
ATOM     54  C   UNL A   1      45.806  26.747  29.398  1.00  0.00     0.074 A 
ATOM     55  C   UNL A   1      46.254  25.438  28.972  1.00  0.00     0.031 C 
ATOM     56  C   UNL A   1      46.622  27.701  29.911  1.00  0.00     0.037 A 
BRANCH  43  57
ATOM     57  C   UNL A   1      43.804  33.045  31.164  1.00  0.00     0.058 A 
ATOM     58  C   UNL A   1      43.716  33.398  32.520  1.00  0.00     0.135 A 
ATOM     59  C   UNL A   1      44.092  34.061  30.238  1.00  0.00     0.135 A 
ATOM     60  F   UNL A   1      43.426  32.468  33.442  1.00  0.00    -0.206 F 
ATOM     61  C   UNL A   1      43.895  34.712  32.940  1.00  0.00     0.059 A 
ATOM     62  C   UNL A   1      44.297  35.377  30.639  1.00  0.00     0.059 A 
ATOM     63  F   UNL A   1      44.183  33.776  28.929  1.00  0.00    -0.206 F 
ATOM     64  C   UNL A   1      44.188  35.694  31.992  1.00  0.00     0.060 A 
BRANCH  64  65
ATOM     65  S   UNL A   1      44.447  37.389  32.557  1.00  0.00     0.124 S 
ATOM     66  O   UNL A   1      43.262  37.604  33.382  1.00  0.00    -0.237 OA
ATOM     67  O   UNL A   1      45.711  37.289  33.280  1.00  0.00    -0.237 OA
ATOM     68  O   UNL A   1      44.497  38.157  31.317  1.00  0.00    -0.744 OA
ENDBRANCH  64  65
ENDBRANCH  43  57
BRANCH  44  69
ATOM     69  C   UNL A   1      42.611  23.760  27.677  1.00  0.00     0.058 A 
ATOM     70  C   UNL A   1      42.463  22.651  28.524  1.00  0.00     0.135 A 
ATOM     71  C   UNL A   1      42.634  23.531  26.294  1.00  0.00     0.135 A 
ATOM     72  F   UNL A   1      42.441  22.821  29.854  1.00  0.00    -0.206 F 
ATOM     73  C   UNL A   1      42.367  21.358  28.020  1.00  0.00     0.059 A 
ATOM     74  C   UNL A   1      42.517  22.249  25.764  1.00  0.00     0.059 A 
ATOM     75  F   UNL A   1      42.759  24.561  25.443  1.00  0.00    -0.206 F 
ATOM     76  C   UNL A   1      42.400  21.167  26.637  1.00  0.00     0.060 A 
BRANCH  76  77
ATOM     77  S   UNL A   1      42.253  19.488  25.989  1.00  0.00     0.124 S 
ATOM     78  O   UNL A   1      43.124  19.549  24.821  1.00  0.00    -0.237 OA
ATOM     79  O   UNL A   1      42.736  18.681  27.105  1.00  0.00    -0.237 OA
ATOM     80  O   UNL A   1      40.826  19.363  25.709  1.00  0.00    -0.744 OA
ENDBRANCH  76  77
ENDBRANCH  44  69
BRANCH  56  81
ATOM     81  C   UNL A   1      48.075  27.355  30.066  1.00  0.00     0.058 A 
ATOM     82  C   UNL A   1      48.999  27.594  29.039  1.00  0.00     0.135 A 
ATOM     83  C   UNL A   1      48.555  26.825  31.275  1.00  0.00     0.135 A 
ATOM     84  F   UNL A   1      48.588  28.090  27.862  1.00  0.00    -0.206 F 
ATOM     85  C   UNL A   1      50.351  27.306  29.198  1.00  0.00     0.059 A 
ATOM     86  C   UNL A   1      49.905  26.550  31.465  1.00  0.00     0.059 A 
ATOM     87  F   UNL A   1      47.711  26.585  32.291  1.00  0.00    -0.206 F 
ATOM     88  C   UNL A   1      50.794  26.785  30.416  1.00  0.00     0.060 A 
BRANCH  88  89
ATOM     89  S   UNL A   1      52.556  26.452  30.628  1.00  0.00     0.124 S 
ATOM     90  O   UNL A   1      53.010  27.677  31.278  1.00  0.00    -0.237 OA
ATOM     91  O   UNL A   1      52.552  25.254  31.464  1.00  0.00    -0.237 OA
ATOM     92  O   UNL A   1      53.029  26.252  29.262  1.00  0.00    -0.744 OA
ENDBRANCH  88  89
ENDBRANCH  56  81
ENDBRANCH  30  31
ENDBRANCH  22  25
ENDBRANCH  20  21
ENDBRANCH   1  20
TORSDOF 16
ENDMDL
MODEL 3
REMARK VINA RESULT:     -10.8      3.374      9.593
REMARK SMILES COc1ccc(C(=O)NCCCCNC(=O)c2ccc(-c3c4nc(c(-c5c(F)cc(S(=O)(=O)[O-])cc5F)c5ccc([nH]5)c(-c5c(F)cc(S(=O)(=O)[O-])cc5F)c5nc(c(-c6c(F)cc(S(=O)(=O)[O-])cc6F)c6ccc3[nH]6)C=C5)C=C4)cc2)cc1C(F)(F)F
REMARK SMILES IDX 12 1 11 2 10 3 9 4 7 5 8 6 6 8 3 9 4 10 84 11 5 12 83 13
REMARK SMILES IDX 2 14 1 15 85 16 86 17 87 18 88 19 13 20 14 21 15 22 16 24
REMARK SMILES IDX 17 25 18 26 82 27 19 28 81 29 20 30 21 31 22 32 75 33 23 34
REMARK SMILES IDX 80 35 74 36 76 37 24 38 79 39 73 40 72 41 25 43 59 44 38 45
REMARK SMILES IDX 58 46 39 47 42 48 57 49 77 50 40 51 41 52 56 54 78 55 43 56
REMARK SMILES IDX 26 57 27 58 36 59 28 60 29 61 35 62 37 63 30 64 31 65 32 66
REMARK SMILES IDX 33 67 34 68 60 69 61 70 70 71 62 72 63 73 69 74 71 75 64 76
REMARK SMILES IDX 65 77 66 78 67 79 68 80 44 81 45 82 54 83 46 84 47 85 53 86
REMARK SMILES IDX 55 87 48 88 49 89 50 90 51 91 52 92
REMARK H PARENT 9 7 14 23 76 42 42 53
REMARK Flexibility Score: inf
ROOT
ATOM      1  C   UNL A   1      35.951  23.548  26.083  1.00  0.00     0.023 C 
ENDROOT
BRANCH   1   2
ATOM      2  C   UNL A   1      34.705  24.349  25.698  1.00  0.00     0.023 C 
BRANCH   2   3
ATOM      3  C   UNL A   1      33.574  23.507  25.101  1.00  0.00     0.116 C 
BRANCH   3   4
ATOM      4  N   UNL A   1      32.488  23.348  26.049  1.00  0.00    -0.352 N 
ATOM      5  C   UNL A   1      31.492  24.199  26.456  1.00  0.00     0.251 C 
ATOM      6  O   UNL A   1      30.642  23.765  27.233  1.00  0.00    -0.269 OA
ATOM      7  H   UNL A   1      32.461  22.465  26.482  1.00  0.00     0.163 HD
BRANCH   5   8
ATOM      8  C   UNL A   1      31.361  25.601  25.964  1.00  0.00     0.040 A 
ATOM      9  C   UNL A   1      31.047  28.179  24.893  1.00  0.00     0.131 A 
ATOM     10  C   UNL A   1      30.350  27.102  24.342  1.00  0.00     0.048 A 
ATOM     11  C   UNL A   1      31.850  28.005  26.021  1.00  0.00     0.098 A 
ATOM     12  C   UNL A   1      30.519  25.819  24.867  1.00  0.00     0.017 A 
ATOM     13  C   UNL A   1      31.980  26.706  26.557  1.00  0.00     0.030 A 
BRANCH   9  14
ATOM     14  O   UNL A   1      30.838  29.418  24.354  1.00  0.00    -0.496 OA
ATOM     15  C   UNL A   1      29.972  29.339  23.221  1.00  0.00     0.278 C 
ENDBRANCH   9  14
BRANCH  11  16
ATOM     16  C   UNL A   1      32.633  29.137  26.632  1.00  0.00     0.419 C 
ATOM     17  F   UNL A   1      33.386  28.742  27.700  1.00  0.00    -0.166 F 
ATOM     18  F   UNL A   1      33.523  29.667  25.744  1.00  0.00    -0.166 F 
ATOM     19  F   UNL A   1      31.883  30.179  27.080  1.00  0.00    -0.166 F 
ENDBRANCH  11  16
ENDBRANCH   5   8
ENDBRANCH   3   4
ENDBRANCH   2   3
ENDBRANCH   1   2
BRANCH   1  20
ATOM     20  C   UNL A   1      37.134  23.699  25.131  1.00  0.00     0.116 C 
BRANCH  20  21
ATOM     21  N   UNL A   1      38.223  22.774  25.414  1.00  0.00    -0.352 N 
ATOM     22  C   UNL A   1      39.367  23.001  26.144  1.00  0.00     0.251 C 
ATOM     23  H   UNL A   1      38.128  21.872  25.032  1.00  0.00     0.163 HD
ATOM     24  O   UNL A   1      40.238  22.146  26.214  1.00  0.00    -0.269 OA
BRANCH  22  25
ATOM     25  C   UNL A   1      39.544  24.311  26.804  1.00  0.00     0.039 A 
ATOM     26  C   UNL A   1      39.024  24.493  28.087  1.00  0.00     0.014 A 
ATOM     27  C   UNL A   1      40.277  25.325  26.183  1.00  0.00     0.014 A 
ATOM     28  C   UNL A   1      39.315  25.665  28.787  1.00  0.00     0.010 A 
ATOM     29  C   UNL A   1      40.611  26.469  26.902  1.00  0.00     0.010 A 
ATOM     30  C   UNL A   1      40.148  26.641  28.217  1.00  0.00    -0.014 A 
BRANCH  30  31
ATOM     31  C   UNL A   1      40.595  27.827  28.988  1.00  0.00     0.031 A 
ATOM     32  C   UNL A   1      41.921  27.813  29.693  1.00  0.00     0.074 A 
ATOM     33  C   UNL A   1      39.757  28.873  29.134  1.00  0.00     0.049 A 
ATOM     34  N   UNL A   1      42.426  28.694  30.517  1.00  0.00    -0.248 NA
ATOM     35  C   UNL A   1      42.782  26.642  29.463  1.00  0.00     0.031 C 
ATOM     36  C   UNL A   1      38.425  28.984  28.534  1.00  0.00     0.029 A 
ATOM     37  N   UNL A   1      39.891  30.035  29.853  1.00  0.00    -0.354 N 
ATOM     38  C   UNL A   1      43.648  28.175  30.925  1.00  0.00     0.074 A 
ATOM     39  C   UNL A   1      43.798  26.889  30.278  1.00  0.00     0.031 C 
ATOM     40  C   UNL A   1      37.870  30.151  28.901  1.00  0.00     0.029 A 
ATOM     41  C   UNL A   1      38.787  30.853  29.793  1.00  0.00     0.049 A 
ATOM     42  H   UNL A   1      40.702  30.262  30.363  1.00  0.00     0.167 HD
ATOM     43  C   UNL A   1      44.565  28.728  31.753  1.00  0.00     0.037 A 
ATOM     44  C   UNL A   1      38.534  32.027  30.404  1.00  0.00     0.037 A 
ATOM     45  C   UNL A   1      44.428  30.028  32.357  1.00  0.00     0.049 A 
ATOM     46  C   UNL A   1      39.572  32.617  31.319  1.00  0.00     0.074 A 
ATOM     47  C   UNL A   1      45.347  30.716  33.131  1.00  0.00     0.029 A 
ATOM     48  N   UNL A   1      43.305  30.834  32.257  1.00  0.00    -0.354 N 
ATOM     49  N   UNL A   1      40.755  32.146  31.634  1.00  0.00    -0.248 NA
ATOM     50  C   UNL A   1      39.240  33.895  31.966  1.00  0.00     0.031 C 
ATOM     51  C   UNL A   1      44.763  31.922  33.534  1.00  0.00     0.029 A 
ATOM     52  C   UNL A   1      43.495  32.001  32.979  1.00  0.00     0.049 A 
ATOM     53  H   UNL A   1      42.492  30.611  31.749  1.00  0.00     0.167 HD
ATOM     54  C   UNL A   1      41.317  33.081  32.496  1.00  0.00     0.074 A 
ATOM     55  C   UNL A   1      40.350  34.149  32.646  1.00  0.00     0.031 C 
ATOM     56  C   UNL A   1      42.526  33.058  33.109  1.00  0.00     0.037 A 
BRANCH  43  57
ATOM     57  C   UNL A   1      45.804  27.938  32.057  1.00  0.00     0.058 A 
ATOM     58  C   UNL A   1      45.876  27.078  33.165  1.00  0.00     0.135 A 
ATOM     59  C   UNL A   1      46.912  27.993  31.196  1.00  0.00     0.135 A 
ATOM     60  F   UNL A   1      44.851  27.001  34.027  1.00  0.00    -0.206 F 
ATOM     61  C   UNL A   1      47.008  26.309  33.415  1.00  0.00     0.059 A 
ATOM     62  C   UNL A   1      48.046  27.216  31.414  1.00  0.00     0.059 A 
ATOM     63  F   UNL A   1      46.895  28.802  30.125  1.00  0.00    -0.206 F 
ATOM     64  C   UNL A   1      48.087  26.383  32.532  1.00  0.00     0.060 A 
BRANCH  64  65
ATOM     65  S   UNL A   1      49.538  25.358  32.853  1.00  0.00     0.124 S 
ATOM     66  O   UNL A   1      50.402  26.295  33.565  1.00  0.00    -0.237 OA
ATOM     67  O   UNL A   1      48.983  24.273  33.658  1.00  0.00    -0.237 OA
ATOM     68  O   UNL A   1      49.988  24.977  31.519  1.00  0.00    -0.744 OA
ENDBRANCH  64  65
ENDBRANCH  43  57
BRANCH  44  69
ATOM     69  C   UNL A   1      37.245  32.731  30.173  1.00  0.00     0.058 A 
ATOM     70  C   UNL A   1      37.119  33.674  29.142  1.00  0.00     0.135 A 
ATOM     71  C   UNL A   1      36.127  32.496  30.986  1.00  0.00     0.135 A 
ATOM     72  F   UNL A   1      38.164  33.936  28.343  1.00  0.00    -0.206 F 
ATOM     73  C   UNL A   1      35.938  34.377  28.938  1.00  0.00     0.059 A 
ATOM     74  C   UNL A   1      34.925  33.171  30.788  1.00  0.00     0.059 A 
ATOM     75  F   UNL A   1      36.192  31.593  31.977  1.00  0.00    -0.206 F 
ATOM     76  C   UNL A   1      34.846  34.122  29.771  1.00  0.00     0.060 A 
BRANCH  76  77
ATOM     77  S   UNL A   1      33.307  35.023  29.488  1.00  0.00     0.124 S 
ATOM     78  O   UNL A   1      32.677  34.208  28.457  1.00  0.00    -0.237 OA
ATOM     79  O   UNL A   1      32.679  34.986  30.805  1.00  0.00    -0.237 OA
ATOM     80  O   UNL A   1      33.767  36.341  29.061  1.00  0.00    -0.744 OA
ENDBRANCH  76  77
ENDBRANCH  44  69
BRANCH  56  81
ATOM     81  C   UNL A   1      42.883  34.233  33.973  1.00  0.00     0.058 A 
ATOM     82  C   UNL A   1      42.722  34.195  35.366  1.00  0.00     0.135 A 
ATOM     83  C   UNL A   1      43.442  35.389  33.406  1.00  0.00     0.135 A 
ATOM     84  F   UNL A   1      42.183  33.115  35.955  1.00  0.00    -0.206 F 
ATOM     85  C   UNL A   1      43.087  35.271  36.168  1.00  0.00     0.059 A 
ATOM     86  C   UNL A   1      43.836  36.468  34.190  1.00  0.00     0.059 A 
ATOM     87  F   UNL A   1      43.624  35.471  32.078  1.00  0.00    -0.206 F 
ATOM     88  C   UNL A   1      43.644  36.403  35.570  1.00  0.00     0.060 A 
BRANCH  88  89
ATOM     89  S   UNL A   1      44.153  37.778  36.623  1.00  0.00     0.124 S 
ATOM     90  O   UNL A   1      43.152  37.724  37.682  1.00  0.00    -0.237 OA
ATOM     91  O   UNL A   1      45.508  37.393  37.012  1.00  0.00    -0.237 OA
ATOM     92  O   UNL A   1      44.069  38.934  35.735  1.00  0.00    -0.744 OA
ENDBRANCH  88  89
ENDBRANCH  56  81
ENDBRANCH  30  31
ENDBRANCH  22  25
ENDBRANCH  20  21
ENDBRANCH   1  20
TORSDOF 16
ENDMDL
