MODEL 1
REMARK VINA RESULT:     -11.4      0.000      0.000
REMARK SMILES O=C(NCCCCNC(=O)[C@H]1C[C@H](O)CN1C(=O)CS[C@H]1CCS(=O)(=O)C1)c1ccc(-c2c3nc(c(-c4c(F)cc(S(=O)(=O)[O-])cc4F)c4ccc([nH]4)c(-c4c(F)cc(S(=O)(=O)[O-])cc4F)c4nc(c(-c5c(F)cc(S(=O)(=O)[O-])cc5F)c5ccc2[nH]5)C=C4)C=C3)cc1
REMARK SMILES IDX 6 1 5 2 4 3 3 4 1 5 2 6 28 8 29 9 93 10 30 11 92 12 31 13
REMARK SMILES IDX 32 14 33 15 86 16 34 17 91 18 85 19 87 20 35 21 90 22 84 23
REMARK SMILES IDX 83 24 36 26 70 27 49 28 69 29 50 30 53 31 68 32 88 33 51 34
REMARK SMILES IDX 52 35 67 37 89 38 54 39 37 40 38 41 47 42 39 43 40 44 46 45
REMARK SMILES IDX 48 46 41 47 42 48 43 49 44 50 45 51 71 52 72 53 81 54 73 55
REMARK SMILES IDX 74 56 80 57 82 58 75 59 76 60 77 61 78 62 79 63 55 64 56 65
REMARK SMILES IDX 65 66 57 67 58 68 64 69 66 70 59 71 60 72 61 73 62 74 63 75
REMARK SMILES IDX 7 76 8 77 9 78 10 80 11 81 12 82 16 83 13 84 15 85 17 86
REMARK SMILES IDX 18 87 19 88 20 89 21 90 22 91 27 92 23 93 24 94 25 95 26 96
REMARK SMILES IDX 14 97
REMARK H PARENT 3 7 87 25 53 36 8 79 14 98
REMARK Flexibility Score: inf
ROOT
ATOM      1  C   UNL A   1      38.714  23.240  26.311  1.00  0.00     0.023 C 
ENDROOT
BRANCH   1   2
ATOM      2  C   UNL A   1      39.870  22.391  26.837  1.00  0.00     0.023 C 
BRANCH   2   3
ATOM      3  C   UNL A   1      41.146  23.163  27.138  1.00  0.00     0.116 C 
BRANCH   3   4
ATOM      4  N   UNL A   1      41.614  23.959  26.013  1.00  0.00    -0.352 N 
ATOM      5  O   UNL A   1      42.110  25.864  24.900  1.00  0.00    -0.269 OA
ATOM      6  C   UNL A   1      41.843  25.316  25.965  1.00  0.00     0.251 C 
ATOM      7  H   UNL A   1      41.791  23.464  25.181  1.00  0.00     0.163 HD
BRANCH   6   8
ATOM      8  C   UNL A   1      41.725  26.105  27.210  1.00  0.00     0.039 A 
ATOM      9  C   UNL A   1      40.653  25.886  28.077  1.00  0.00     0.014 A 
ATOM     10  C   UNL A   1      42.659  27.109  27.485  1.00  0.00     0.014 A 
ATOM     11  C   UNL A   1      40.418  26.775  29.115  1.00  0.00     0.010 A 
ATOM     12  C   UNL A   1      42.479  27.934  28.600  1.00  0.00     0.010 A 
ATOM     13  C   UNL A   1      41.339  27.795  29.407  1.00  0.00    -0.014 A 
BRANCH  13  14
ATOM     14  C   UNL A   1      41.109  28.645  30.605  1.00  0.00     0.031 A 
ATOM     15  C   UNL A   1      41.971  28.531  31.833  1.00  0.00     0.074 A 
ATOM     16  C   UNL A   1      40.127  29.568  30.549  1.00  0.00     0.049 A 
ATOM     17  N   UNL A   1      41.910  29.222  32.944  1.00  0.00    -0.248 NA
ATOM     18  C   UNL A   1      43.031  27.512  31.822  1.00  0.00     0.031 C 
ATOM     19  C   UNL A   1      39.216  29.757  29.414  1.00  0.00     0.029 A 
ATOM     20  N   UNL A   1      39.740  30.530  31.444  1.00  0.00    -0.354 N 
ATOM     21  C   UNL A   1      42.917  28.724  33.763  1.00  0.00     0.074 A 
ATOM     22  C   UNL A   1      43.548  27.642  33.037  1.00  0.00     0.031 C 
ATOM     23  C   UNL A   1      38.414  30.802  29.660  1.00  0.00     0.029 A 
ATOM     24  C   UNL A   1      38.695  31.306  30.997  1.00  0.00     0.049 A 
ATOM     25  H   UNL A   1      40.167  30.655  32.322  1.00  0.00     0.167 HD
ATOM     26  C   UNL A   1      43.290  29.143  34.997  1.00  0.00     0.037 A 
ATOM     27  C   UNL A   1      38.017  32.297  31.604  1.00  0.00     0.037 A 
ATOM     28  C   UNL A   1      42.651  30.223  35.711  1.00  0.00     0.049 A 
ATOM     29  C   UNL A   1      38.423  32.710  32.989  1.00  0.00     0.074 A 
ATOM     30  C   UNL A   1      42.955  30.724  36.967  1.00  0.00     0.029 A 
ATOM     31  N   UNL A   1      41.579  30.967  35.238  1.00  0.00    -0.354 N 
ATOM     32  N   UNL A   1      39.393  32.241  33.736  1.00  0.00    -0.248 NA
ATOM     33  C   UNL A   1      37.646  33.787  33.614  1.00  0.00     0.031 C 
ATOM     34  C   UNL A   1      42.039  31.736  37.270  1.00  0.00     0.029 A 
ATOM     35  C   UNL A   1      41.200  31.909  36.182  1.00  0.00     0.049 A 
ATOM     36  H   UNL A   1      41.150  30.841  34.361  1.00  0.00     0.167 HD
ATOM     37  C   UNL A   1      39.356  32.980  34.912  1.00  0.00     0.074 A 
ATOM     38  C   UNL A   1      38.285  33.945  34.763  1.00  0.00     0.031 C 
ATOM     39  C   UNL A   1      40.134  32.868  36.018  1.00  0.00     0.037 A 
BRANCH  26  40
ATOM     40  C   UNL A   1      44.443  28.437  35.665  1.00  0.00     0.058 A 
ATOM     41  C   UNL A   1      45.768  28.872  35.500  1.00  0.00     0.135 A 
ATOM     42  C   UNL A   1      44.217  27.354  36.533  1.00  0.00     0.135 A 
ATOM     43  F   UNL A   1      46.047  29.893  34.674  1.00  0.00    -0.206 F 
ATOM     44  C   UNL A   1      46.828  28.247  36.152  1.00  0.00     0.059 A 
ATOM     45  C   UNL A   1      45.259  26.732  37.217  1.00  0.00     0.059 A 
ATOM     46  F   UNL A   1      42.971  26.897  36.731  1.00  0.00    -0.206 F 
ATOM     47  C   UNL A   1      46.563  27.180  37.011  1.00  0.00     0.060 A 
BRANCH  47  48
ATOM     48  S   UNL A   1      47.949  26.395  37.860  1.00  0.00     0.124 S 
ATOM     49  O   UNL A   1      47.450  25.034  38.038  1.00  0.00    -0.237 OA
ATOM     50  O   UNL A   1      49.033  26.549  36.896  1.00  0.00    -0.237 OA
ATOM     51  O   UNL A   1      48.087  27.175  39.086  1.00  0.00    -0.744 OA
ENDBRANCH  47  48
ENDBRANCH  26  40
BRANCH  27  52
ATOM     52  C   UNL A   1      36.867  32.940  30.913  1.00  0.00     0.058 A 
ATOM     53  C   UNL A   1      35.546  32.548  31.172  1.00  0.00     0.135 A 
ATOM     54  C   UNL A   1      37.072  33.964  29.973  1.00  0.00     0.135 A 
ATOM     55  F   UNL A   1      35.296  31.576  32.063  1.00  0.00    -0.206 F 
ATOM     56  C   UNL A   1      34.472  33.123  30.502  1.00  0.00     0.059 A 
ATOM     57  C   UNL A   1      36.013  34.579  29.317  1.00  0.00     0.059 A 
ATOM     58  F   UNL A   1      38.315  34.393  29.704  1.00  0.00    -0.206 F 
ATOM     59  C   UNL A   1      34.717  34.138  29.574  1.00  0.00     0.060 A 
BRANCH  59  60
ATOM     60  S   UNL A   1      33.317  34.887  28.717  1.00  0.00     0.124 S 
ATOM     61  O   UNL A   1      33.935  36.070  28.127  1.00  0.00    -0.237 OA
ATOM     62  O   UNL A   1      32.930  33.835  27.783  1.00  0.00    -0.237 OA
ATOM     63  O   UNL A   1      32.364  35.144  29.793  1.00  0.00    -0.744 OA
ENDBRANCH  59  60
ENDBRANCH  27  52
BRANCH  39  64
ATOM     64  C   UNL A   1      39.877  33.841  37.136  1.00  0.00     0.058 A 
ATOM     65  C   UNL A   1      40.430  35.130  37.139  1.00  0.00     0.135 A 
ATOM     66  C   UNL A   1      39.051  33.480  38.213  1.00  0.00     0.135 A 
ATOM     67  F   UNL A   1      41.235  35.523  36.138  1.00  0.00    -0.206 F 
ATOM     68  C   UNL A   1      40.205  36.016  38.187  1.00  0.00     0.059 A 
ATOM     69  C   UNL A   1      38.784  34.363  39.256  1.00  0.00     0.059 A 
ATOM     70  F   UNL A   1      38.488  32.262  38.258  1.00  0.00    -0.206 F 
ATOM     71  C   UNL A   1      39.378  35.624  39.241  1.00  0.00     0.060 A 
BRANCH  71  72
ATOM     72  S   UNL A   1      39.081  36.788  40.587  1.00  0.00     0.124 S 
ATOM     73  O   UNL A   1      38.099  36.067  41.389  1.00  0.00    -0.237 OA
ATOM     74  O   UNL A   1      40.408  36.925  41.180  1.00  0.00    -0.237 OA
ATOM     75  O   UNL A   1      38.581  37.978  39.903  1.00  0.00    -0.744 OA
ENDBRANCH  71  72
ENDBRANCH  39  64
ENDBRANCH  13  14
ENDBRANCH   6   8
ENDBRANCH   3   4
ENDBRANCH   2   3
ENDBRANCH   1   2
BRANCH   1  76
ATOM     76  C   UNL A   1      37.572  22.428  25.700  1.00  0.00     0.116 C 
BRANCH  76  77
ATOM     77  N   UNL A   1      36.333  22.598  26.439  1.00  0.00    -0.354 N 
ATOM     78  C   UNL A   1      35.054  22.309  26.050  1.00  0.00     0.242 C 
ATOM     79  H   UNL A   1      36.426  22.973  27.344  1.00  0.00     0.163 HD
ATOM     80  O   UNL A   1      34.121  22.587  26.806  1.00  0.00    -0.273 OA
BRANCH  78  81
ATOM     81  C   UNL A   1      34.842  21.533  24.745  1.00  0.00     0.177 C 
ATOM     82  C   UNL A   1      34.311  20.138  25.045  1.00  0.00     0.069 C 
ATOM     83  N   UNL A   1      33.828  22.132  23.887  1.00  0.00    -0.327 N 
ATOM     84  C   UNL A   1      32.792  20.317  25.033  1.00  0.00     0.136 C 
ATOM     85  C   UNL A   1      32.544  21.466  24.047  1.00  0.00     0.152 C 
BRANCH  83  86
ATOM     86  C   UNL A   1      34.180  23.166  23.047  1.00  0.00     0.233 C 
ATOM     87  O   UNL A   1      35.356  23.336  22.715  1.00  0.00    -0.274 OA
BRANCH  86  88
ATOM     88  C   UNL A   1      33.073  24.012  22.439  1.00  0.00     0.169 C 
BRANCH  88  89
ATOM     89  S   UNL A   1      33.380  25.804  22.764  1.00  0.00    -0.148 SA
BRANCH  89  90
ATOM     90  C   UNL A   1      32.072  26.149  23.974  1.00  0.00     0.063 C 
ATOM     91  C   UNL A   1      30.661  25.981  23.390  1.00  0.00     0.031 C 
ATOM     92  C   UNL A   1      32.066  25.216  25.179  1.00  0.00     0.151 C 
ATOM     93  C   UNL A   1      29.696  26.211  24.561  1.00  0.00     0.138 C 
ATOM     94  S   UNL A   1      30.592  25.718  26.032  1.00  0.00     0.151 S 
ATOM     95  O   UNL A   1      30.931  26.899  26.805  1.00  0.00    -0.229 OA
ATOM     96  O   UNL A   1      29.966  24.557  26.629  1.00  0.00    -0.229 OA
ENDBRANCH  89  90
ENDBRANCH  88  89
ENDBRANCH  86  88
ENDBRANCH  83  86
BRANCH  84  97
ATOM     97  O   UNL A   1      32.148  19.115  24.629  1.00  0.00    -0.391 OA
ATOM     98  H   UNL A   1      32.763  18.371  24.723  1.00  0.00     0.211 HD
ENDBRANCH  84  97
ENDBRANCH  78  81
ENDBRANCH  76  77
ENDBRANCH   1  76
TORSDOF 19
ENDMDL
MODEL 2
REMARK VINA RESULT:     -11.4      0.967      2.018
REMARK SMILES O=C(NCCCCNC(=O)[C@H]1C[C@H](O)CN1C(=O)CS[C@H]1CCS(=O)(=O)C1)c1ccc(-c2c3nc(c(-c4c(F)cc(S(=O)(=O)[O-])cc4F)c4ccc([nH]4)c(-c4c(F)cc(S(=O)(=O)[O-])cc4F)c4nc(c(-c5c(F)cc(S(=O)(=O)[O-])cc5F)c5ccc2[nH]5)C=C4)C=C3)cc1
REMARK SMILES IDX 6 1 5 2 4 3 3 4 1 5 2 6 28 8 29 9 93 10 30 11 92 12 31 13
REMARK SMILES IDX 32 14 33 15 86 16 34 17 91 18 85 19 87 20 35 21 90 22 84 23
REMARK SMILES IDX 83 24 36 26 70 27 49 28 69 29 50 30 53 31 68 32 88 33 51 34
REMARK SMILES IDX 52 35 67 37 89 38 54 39 37 40 38 41 47 42 39 43 40 44 46 45
REMARK SMILES IDX 48 46 41 47 42 48 43 49 44 50 45 51 71 52 72 53 81 54 73 55
REMARK SMILES IDX 74 56 80 57 82 58 75 59 76 60 77 61 78 62 79 63 55 64 56 65
REMARK SMILES IDX 65 66 57 67 58 68 64 69 66 70 59 71 60 72 61 73 62 74 63 75
REMARK SMILES IDX 7 76 8 77 9 78 10 80 11 81 12 82 16 83 13 84 15 85 17 86
REMARK SMILES IDX 18 87 19 88 20 89 21 90 22 91 27 92 23 93 24 94 25 95 26 96
REMARK SMILES IDX 14 97
REMARK H PARENT 3 7 87 25 53 36 8 79 14 98
REMARK Flexibility Score: inf
ROOT
ATOM      1  C   UNL A   1      39.376  21.537  26.076  1.00  0.00     0.023 C 
ENDROOT
BRANCH   1   2
ATOM      2  C   UNL A   1      39.618  22.567  27.178  1.00  0.00     0.023 C 
BRANCH   2   3
ATOM      3  C   UNL A   1      41.040  23.105  27.250  1.00  0.00     0.116 C 
BRANCH   3   4
ATOM      4  N   UNL A   1      41.408  23.911  26.096  1.00  0.00    -0.352 N 
ATOM      5  O   UNL A   1      41.749  25.826  24.944  1.00  0.00    -0.269 OA
ATOM      6  C   UNL A   1      41.565  25.278  26.025  1.00  0.00     0.251 C 
ATOM      7  H   UNL A   1      41.565  23.417  25.259  1.00  0.00     0.163 HD
BRANCH   6   8
ATOM      8  C   UNL A   1      41.474  26.073  27.269  1.00  0.00     0.039 A 
ATOM      9  C   UNL A   1      40.361  25.942  28.101  1.00  0.00     0.014 A 
ATOM     10  C   UNL A   1      42.478  26.996  27.576  1.00  0.00     0.014 A 
ATOM     11  C   UNL A   1      40.167  26.847  29.134  1.00  0.00     0.010 A 
ATOM     12  C   UNL A   1      42.332  27.832  28.688  1.00  0.00     0.010 A 
ATOM     13  C   UNL A   1      41.160  27.787  29.458  1.00  0.00    -0.014 A 
BRANCH  13  14
ATOM     14  C   UNL A   1      40.962  28.652  30.651  1.00  0.00     0.031 A 
ATOM     15  C   UNL A   1      41.843  28.538  31.865  1.00  0.00     0.074 A 
ATOM     16  C   UNL A   1      39.993  29.589  30.601  1.00  0.00     0.049 A 
ATOM     17  N   UNL A   1      41.812  29.240  32.970  1.00  0.00    -0.248 NA
ATOM     18  C   UNL A   1      42.888  27.503  31.847  1.00  0.00     0.031 C 
ATOM     19  C   UNL A   1      39.066  29.781  29.481  1.00  0.00     0.029 A 
ATOM     20  N   UNL A   1      39.636  30.567  31.493  1.00  0.00    -0.354 N 
ATOM     21  C   UNL A   1      42.826  28.736  33.777  1.00  0.00     0.074 A 
ATOM     22  C   UNL A   1      43.428  27.637  33.051  1.00  0.00     0.031 C 
ATOM     23  C   UNL A   1      38.284  30.840  29.730  1.00  0.00     0.029 A 
ATOM     24  C   UNL A   1      38.596  31.354  31.057  1.00  0.00     0.049 A 
ATOM     25  H   UNL A   1      40.081  30.693  32.363  1.00  0.00     0.167 HD
ATOM     26  C   UNL A   1      43.226  29.162  35.000  1.00  0.00     0.037 A 
ATOM     27  C   UNL A   1      37.943  32.361  31.664  1.00  0.00     0.037 A 
ATOM     28  C   UNL A   1      42.615  30.258  35.714  1.00  0.00     0.049 A 
ATOM     29  C   UNL A   1      38.379  32.781  33.038  1.00  0.00     0.074 A 
ATOM     30  C   UNL A   1      42.948  30.767  36.958  1.00  0.00     0.029 A 
ATOM     31  N   UNL A   1      41.546  31.013  35.251  1.00  0.00    -0.354 N 
ATOM     32  N   UNL A   1      39.355  32.305  33.773  1.00  0.00    -0.248 NA
ATOM     33  C   UNL A   1      37.628  33.876  33.665  1.00  0.00     0.031 C 
ATOM     34  C   UNL A   1      42.052  31.796  37.267  1.00  0.00     0.029 A 
ATOM     35  C   UNL A   1      41.198  31.970  36.191  1.00  0.00     0.049 A 
ATOM     36  H   UNL A   1      41.100  30.886  34.383  1.00  0.00     0.167 HD
ATOM     37  C   UNL A   1      39.348  33.057  34.942  1.00  0.00     0.074 A 
ATOM     38  C   UNL A   1      38.289  34.035  34.802  1.00  0.00     0.031 C 
ATOM     39  C   UNL A   1      40.143  32.944  36.035  1.00  0.00     0.037 A 
BRANCH  26  40
ATOM     40  C   UNL A   1      44.379  28.445  35.656  1.00  0.00     0.058 A 
ATOM     41  C   UNL A   1      44.188  27.271  36.402  1.00  0.00     0.135 A 
ATOM     42  C   UNL A   1      45.699  28.899  35.483  1.00  0.00     0.135 A 
ATOM     43  F   UNL A   1      42.950  26.797  36.612  1.00  0.00    -0.206 F 
ATOM     44  C   UNL A   1      45.259  26.585  36.970  1.00  0.00     0.059 A 
ATOM     45  C   UNL A   1      46.786  28.213  36.018  1.00  0.00     0.059 A 
ATOM     46  F   UNL A   1      45.942  30.015  34.777  1.00  0.00    -0.206 F 
ATOM     47  C   UNL A   1      46.555  27.062  36.769  1.00  0.00     0.060 A 
BRANCH  47  48
ATOM     48  S   UNL A   1      47.930  26.149  37.499  1.00  0.00     0.124 S 
ATOM     49  O   UNL A   1      49.077  26.791  36.864  1.00  0.00    -0.237 OA
ATOM     50  O   UNL A   1      47.763  26.420  38.924  1.00  0.00    -0.237 OA
ATOM     51  O   UNL A   1      47.680  24.769  37.093  1.00  0.00    -0.744 OA
ENDBRANCH  47  48
ENDBRANCH  26  40
BRANCH  27  52
ATOM     52  C   UNL A   1      36.791  33.014  30.987  1.00  0.00     0.058 A 
ATOM     53  C   UNL A   1      36.980  33.929  29.943  1.00  0.00     0.135 A 
ATOM     54  C   UNL A   1      35.471  32.732  31.378  1.00  0.00     0.135 A 
ATOM     55  F   UNL A   1      38.221  34.231  29.531  1.00  0.00    -0.206 F 
ATOM     56  C   UNL A   1      35.906  34.568  29.331  1.00  0.00     0.059 A 
ATOM     57  C   UNL A   1      34.380  33.330  30.757  1.00  0.00     0.059 A 
ATOM     58  F   UNL A   1      35.232  31.846  32.357  1.00  0.00    -0.206 F 
ATOM     59  C   UNL A   1      34.609  34.262  29.748  1.00  0.00     0.060 A 
BRANCH  59  60
ATOM     60  S   UNL A   1      33.221  35.085  28.941  1.00  0.00     0.124 S 
ATOM     61  O   UNL A   1      32.819  34.085  27.959  1.00  0.00    -0.237 OA
ATOM     62  O   UNL A   1      32.300  35.294  30.054  1.00  0.00    -0.237 OA
ATOM     63  O   UNL A   1      33.822  36.299  28.396  1.00  0.00    -0.744 OA
ENDBRANCH  59  60
ENDBRANCH  27  52
BRANCH  39  64
ATOM     64  C   UNL A   1      39.920  33.931  37.148  1.00  0.00     0.058 A 
ATOM     65  C   UNL A   1      39.095  33.639  38.245  1.00  0.00     0.135 A 
ATOM     66  C   UNL A   1      40.557  35.183  37.123  1.00  0.00     0.135 A 
ATOM     67  F   UNL A   1      38.455  32.460  38.315  1.00  0.00    -0.206 F 
ATOM     68  C   UNL A   1      38.879  34.565  39.260  1.00  0.00     0.059 A 
ATOM     69  C   UNL A   1      40.382  36.112  38.144  1.00  0.00     0.059 A 
ATOM     70  F   UNL A   1      41.364  35.512  36.102  1.00  0.00    -0.206 F 
ATOM     71  C   UNL A   1      39.528  35.800  39.201  1.00  0.00     0.060 A 
BRANCH  71  72
ATOM     72  S   UNL A   1      39.251  36.986  40.532  1.00  0.00     0.124 S 
ATOM     73  O   UNL A   1      38.740  38.139  39.797  1.00  0.00    -0.237 OA
ATOM     74  O   UNL A   1      38.282  36.290  41.373  1.00  0.00    -0.237 OA
ATOM     75  O   UNL A   1      40.577  37.154  41.120  1.00  0.00    -0.744 OA
ENDBRANCH  71  72
ENDBRANCH  39  64
ENDBRANCH  13  14
ENDBRANCH   6   8
ENDBRANCH   3   4
ENDBRANCH   2   3
ENDBRANCH   1   2
BRANCH   1  76
ATOM     76  C   UNL A   1      38.035  21.696  25.359  1.00  0.00     0.116 C 
BRANCH  76  77
ATOM     77  N   UNL A   1      37.042  22.333  26.208  1.00  0.00    -0.354 N 
ATOM     78  C   UNL A   1      35.703  22.496  25.989  1.00  0.00     0.242 C 
ATOM     79  H   UNL A   1      37.380  22.697  27.057  1.00  0.00     0.163 HD
ATOM     80  O   UNL A   1      35.034  23.126  26.810  1.00  0.00    -0.273 OA
BRANCH  78  81
ATOM     81  C   UNL A   1      35.062  21.779  24.794  1.00  0.00     0.177 C 
ATOM     82  C   UNL A   1      34.481  20.442  25.237  1.00  0.00     0.069 C 
ATOM     83  N   UNL A   1      33.926  22.504  24.239  1.00  0.00    -0.327 N 
ATOM     84  C   UNL A   1      33.045  20.784  25.635  1.00  0.00     0.136 C 
ATOM     85  C   UNL A   1      32.668  21.976  24.745  1.00  0.00     0.152 C 
BRANCH  83  86
ATOM     86  C   UNL A   1      34.150  23.514  23.330  1.00  0.00     0.233 C 
ATOM     87  O   UNL A   1      34.940  23.356  22.396  1.00  0.00    -0.274 OA
BRANCH  86  88
ATOM     88  C   UNL A   1      33.307  24.775  23.428  1.00  0.00     0.169 C 
BRANCH  88  89
ATOM     89  S   UNL A   1      32.861  25.384  21.742  1.00  0.00    -0.148 SA
BRANCH  89  90
ATOM     90  C   UNL A   1      31.497  26.511  22.148  1.00  0.00     0.063 C 
ATOM     91  C   UNL A   1      30.649  26.017  23.329  1.00  0.00     0.031 C 
ATOM     92  C   UNL A   1      31.939  27.902  22.590  1.00  0.00     0.151 C 
ATOM     93  C   UNL A   1      29.619  27.124  23.593  1.00  0.00     0.138 C 
ATOM     94  S   UNL A   1      30.399  28.648  23.064  1.00  0.00     0.151 S 
ATOM     95  O   UNL A   1      29.761  29.114  21.846  1.00  0.00    -0.229 OA
ATOM     96  O   UNL A   1      30.618  29.515  24.202  1.00  0.00    -0.229 OA
ENDBRANCH  89  90
ENDBRANCH  88  89
ENDBRANCH  86  88
ENDBRANCH  83  86
BRANCH  84  97
ATOM     97  O   UNL A   1      32.187  19.669  25.428  1.00  0.00    -0.391 OA
ATOM     98  H   UNL A   1      31.330  19.837  25.849  1.00  0.00     0.211 HD
ENDBRANCH  84  97
ENDBRANCH  78  81
ENDBRANCH  76  77
ENDBRANCH   1  76
TORSDOF 19
ENDMDL
MODEL 3
REMARK VINA RESULT:     -11.4      5.927      8.305
REMARK SMILES O=C(NCCCCNC(=O)[C@H]1C[C@H](O)CN1C(=O)CS[C@H]1CCS(=O)(=O)C1)c1ccc(-c2c3nc(c(-c4c(F)cc(S(=O)(=O)[O-])cc4F)c4ccc([nH]4)c(-c4c(F)cc(S(=O)(=O)[O-])cc4F)c4nc(c(-c5c(F)cc(S(=O)(=O)[O-])cc5F)c5ccc2[nH]5)C=C4)C=C3)cc1
REMARK SMILES IDX 6 1 5 2 4 3 3 4 1 5 2 6 28 8 29 9 93 10 30 11 92 12 31 13
REMARK SMILES IDX 32 14 33 15 86 16 34 17 91 18 85 19 87 20 35 21 90 22 84 23
REMARK SMILES IDX 83 24 36 26 70 27 49 28 69 29 50 30 53 31 68 32 88 33 51 34
REMARK SMILES IDX 52 35 67 37 89 38 54 39 37 40 38 41 47 42 39 43 40 44 46 45
REMARK SMILES IDX 48 46 41 47 42 48 43 49 44 50 45 51 71 52 72 53 81 54 73 55
REMARK SMILES IDX 74 56 80 57 82 58 75 59 76 60 77 61 78 62 79 63 55 64 56 65
REMARK SMILES IDX 65 66 57 67 58 68 64 69 66 70 59 71 60 72 61 73 62 74 63 75
REMARK SMILES IDX 7 76 8 77 9 78 10 80 11 81 12 82 16 83 13 84 15 85 17 86
REMARK SMILES IDX 18 87 19 88 20 89 21 90 22 91 27 92 23 93 24 94 25 95 26 96
REMARK SMILES IDX 14 97
REMARK H PARENT 3 7 87 25 53 36 8 79 14 98
REMARK Flexibility Score: inf
ROOT
ATOM      1  C   UNL A   1      37.289  21.046  24.596  1.00  0.00     0.023 C 
ENDROOT
BRANCH   1   2
ATOM      2  C   UNL A   1      38.225  19.920  25.032  1.00  0.00     0.023 C 
BRANCH   2   3
ATOM      3  C   UNL A   1      39.346  20.345  25.968  1.00  0.00     0.116 C 
BRANCH   3   4
ATOM      4  N   UNL A   1      40.446  19.393  26.017  1.00  0.00    -0.352 N 
ATOM      5  O   UNL A   1      42.611  18.749  26.105  1.00  0.00    -0.269 OA
ATOM      6  C   UNL A   1      41.784  19.646  26.225  1.00  0.00     0.251 C 
ATOM      7  H   UNL A   1      40.203  18.449  25.885  1.00  0.00     0.163 HD
BRANCH   6   8
ATOM      8  C   UNL A   1      42.207  21.023  26.560  1.00  0.00     0.039 A 
ATOM      9  C   UNL A   1      42.350  21.975  25.550  1.00  0.00     0.014 A 
ATOM     10  C   UNL A   1      42.518  21.349  27.884  1.00  0.00     0.014 A 
ATOM     11  C   UNL A   1      42.964  23.186  25.831  1.00  0.00     0.010 A 
ATOM     12  C   UNL A   1      43.033  22.615  28.182  1.00  0.00     0.010 A 
ATOM     13  C   UNL A   1      43.291  23.534  27.153  1.00  0.00    -0.014 A 
BRANCH  13  14
ATOM     14  C   UNL A   1      43.832  24.893  27.422  1.00  0.00     0.031 A 
ATOM     15  C   UNL A   1      45.280  25.228  27.192  1.00  0.00     0.074 A 
ATOM     16  C   UNL A   1      42.972  25.847  27.835  1.00  0.00     0.049 A 
ATOM     17  N   UNL A   1      45.893  26.373  27.355  1.00  0.00    -0.248 NA
ATOM     18  C   UNL A   1      46.159  24.142  26.730  1.00  0.00     0.031 C 
ATOM     19  C   UNL A   1      41.546  25.633  28.107  1.00  0.00     0.029 A 
ATOM     20  N   UNL A   1      43.155  27.183  28.078  1.00  0.00    -0.354 N 
ATOM     21  C   UNL A   1      47.223  26.151  27.017  1.00  0.00     0.074 A 
ATOM     22  C   UNL A   1      47.339  24.747  26.681  1.00  0.00     0.031 C 
ATOM     23  C   UNL A   1      40.977  26.802  28.429  1.00  0.00     0.029 A 
ATOM     24  C   UNL A   1      42.006  27.832  28.465  1.00  0.00     0.049 A 
ATOM     25  H   UNL A   1      44.025  27.634  27.986  1.00  0.00     0.167 HD
ATOM     26  C   UNL A   1      48.247  27.039  26.976  1.00  0.00     0.037 A 
ATOM     27  C   UNL A   1      41.803  29.109  28.836  1.00  0.00     0.037 A 
ATOM     28  C   UNL A   1      48.118  28.436  27.316  1.00  0.00     0.049 A 
ATOM     29  C   UNL A   1      42.964  30.060  28.823  1.00  0.00     0.074 A 
ATOM     30  C   UNL A   1      49.095  29.419  27.305  1.00  0.00     0.029 A 
ATOM     31  N   UNL A   1      46.944  29.052  27.729  1.00  0.00    -0.354 N 
ATOM     32  N   UNL A   1      44.209  29.834  28.479  1.00  0.00    -0.248 NA
ATOM     33  C   UNL A   1      42.695  31.440  29.247  1.00  0.00     0.031 C 
ATOM     34  C   UNL A   1      48.523  30.613  27.756  1.00  0.00     0.029 A 
ATOM     35  C   UNL A   1      47.176  30.393  27.991  1.00  0.00     0.049 A 
ATOM     36  H   UNL A   1      46.075  28.600  27.823  1.00  0.00     0.167 HD
ATOM     37  C   UNL A   1      44.868  31.049  28.625  1.00  0.00     0.074 A 
ATOM     38  C   UNL A   1      43.877  32.010  29.062  1.00  0.00     0.031 C 
ATOM     39  C   UNL A   1      46.177  31.341  28.421  1.00  0.00     0.037 A 
BRANCH  26  40
ATOM     40  C   UNL A   1      49.602  26.536  26.549  1.00  0.00     0.058 A 
ATOM     41  C   UNL A   1      50.486  25.937  27.462  1.00  0.00     0.135 A 
ATOM     42  C   UNL A   1      49.999  26.593  25.201  1.00  0.00     0.135 A 
ATOM     43  F   UNL A   1      50.168  25.866  28.764  1.00  0.00    -0.206 F 
ATOM     44  C   UNL A   1      51.720  25.433  27.059  1.00  0.00     0.059 A 
ATOM     45  C   UNL A   1      51.216  26.070  24.772  1.00  0.00     0.059 A 
ATOM     46  F   UNL A   1      49.194  27.153  24.284  1.00  0.00    -0.206 F 
ATOM     47  C   UNL A   1      52.075  25.500  25.711  1.00  0.00     0.060 A 
BRANCH  47  48
ATOM     48  S   UNL A   1      53.671  24.825  25.206  1.00  0.00     0.124 S 
ATOM     49  O   UNL A   1      53.353  23.408  25.054  1.00  0.00    -0.237 OA
ATOM     50  O   UNL A   1      53.938  25.550  23.968  1.00  0.00    -0.237 OA
ATOM     51  O   UNL A   1      54.550  25.153  26.324  1.00  0.00    -0.744 OA
ENDBRANCH  47  48
ENDBRANCH  26  40
BRANCH  27  52
ATOM     52  C   UNL A   1      40.451  29.547  29.278  1.00  0.00     0.058 A 
ATOM     53  C   UNL A   1      39.419  29.773  28.358  1.00  0.00     0.135 A 
ATOM     54  C   UNL A   1      40.170  29.751  30.640  1.00  0.00     0.135 A 
ATOM     55  F   UNL A   1      39.636  29.591  27.046  1.00  0.00    -0.206 F 
ATOM     56  C   UNL A   1      38.165  30.217  28.766  1.00  0.00     0.059 A 
ATOM     57  C   UNL A   1      38.915  30.159  31.075  1.00  0.00     0.059 A 
ATOM     58  F   UNL A   1      41.117  29.528  31.565  1.00  0.00    -0.206 F 
ATOM     59  C   UNL A   1      37.924  30.408  30.128  1.00  0.00     0.060 A 
BRANCH  59  60
ATOM     60  S   UNL A   1      36.291  30.972  30.650  1.00  0.00     0.124 S 
ATOM     61  O   UNL A   1      35.569  30.987  29.383  1.00  0.00    -0.237 OA
ATOM     62  O   UNL A   1      35.897  29.935  31.598  1.00  0.00    -0.237 OA
ATOM     63  O   UNL A   1      36.561  32.280  31.238  1.00  0.00    -0.744 OA
ENDBRANCH  59  60
ENDBRANCH  27  52
BRANCH  39  64
ATOM     64  C   UNL A   1      46.600  32.770  28.632  1.00  0.00     0.058 A 
ATOM     65  C   UNL A   1      47.082  33.225  29.869  1.00  0.00     0.135 A 
ATOM     66  C   UNL A   1      46.537  33.691  27.574  1.00  0.00     0.135 A 
ATOM     67  F   UNL A   1      47.155  32.388  30.917  1.00  0.00    -0.206 F 
ATOM     68  C   UNL A   1      47.452  34.552  30.061  1.00  0.00     0.059 A 
ATOM     69  C   UNL A   1      46.934  35.015  27.734  1.00  0.00     0.059 A 
ATOM     70  F   UNL A   1      46.092  33.307  26.367  1.00  0.00    -0.206 F 
ATOM     71  C   UNL A   1      47.375  35.440  28.986  1.00  0.00     0.060 A 
BRANCH  71  72
ATOM     72  S   UNL A   1      47.873  37.155  29.244  1.00  0.00     0.124 S 
ATOM     73  O   UNL A   1      46.581  37.827  29.333  1.00  0.00    -0.237 OA
ATOM     74  O   UNL A   1      48.633  37.075  30.488  1.00  0.00    -0.237 OA
ATOM     75  O   UNL A   1      48.661  37.464  28.054  1.00  0.00    -0.744 OA
ENDBRANCH  71  72
ENDBRANCH  39  64
ENDBRANCH  13  14
ENDBRANCH   6   8
ENDBRANCH   3   4
ENDBRANCH   2   3
ENDBRANCH   1   2
BRANCH   1  76
ATOM     76  C   UNL A   1      36.201  21.382  25.616  1.00  0.00     0.116 C 
BRANCH  76  77
ATOM     77  N   UNL A   1      34.997  20.597  25.398  1.00  0.00    -0.354 N 
ATOM     78  C   UNL A   1      33.733  21.027  25.106  1.00  0.00     0.242 C 
ATOM     79  H   UNL A   1      35.107  19.622  25.471  1.00  0.00     0.163 HD
ATOM     80  O   UNL A   1      32.824  20.199  25.019  1.00  0.00    -0.273 OA
BRANCH  78  81
ATOM     81  C   UNL A   1      33.521  22.508  24.771  1.00  0.00     0.177 C 
ATOM     82  C   UNL A   1      34.185  22.845  23.441  1.00  0.00     0.069 C 
ATOM     83  N   UNL A   1      32.117  22.851  24.574  1.00  0.00    -0.327 N 
ATOM     84  C   UNL A   1      33.085  22.588  22.411  1.00  0.00     0.136 C 
ATOM     85  C   UNL A   1      31.776  22.874  23.160  1.00  0.00     0.152 C 
BRANCH  83  86
ATOM     86  C   UNL A   1      31.333  23.134  25.670  1.00  0.00     0.233 C 
ATOM     87  O   UNL A   1      30.458  22.347  26.039  1.00  0.00    -0.274 OA
BRANCH  86  88
ATOM     88  C   UNL A   1      31.657  24.374  26.489  1.00  0.00     0.169 C 
BRANCH  88  89
ATOM     89  S   UNL A   1      30.588  25.787  25.966  1.00  0.00    -0.148 SA
BRANCH  89  90
ATOM     90  C   UNL A   1      31.735  26.685  24.883  1.00  0.00     0.063 C 
ATOM     91  C   UNL A   1      33.206  26.479  25.273  1.00  0.00     0.031 C 
ATOM     92  C   UNL A   1      31.695  26.250  23.422  1.00  0.00     0.151 C 
ATOM     93  C   UNL A   1      34.027  27.218  24.207  1.00  0.00     0.138 C 
ATOM     94  S   UNL A   1      33.030  27.185  22.718  1.00  0.00     0.151 S 
ATOM     95  O   UNL A   1      32.521  28.518  22.453  1.00  0.00    -0.229 OA
ATOM     96  O   UNL A   1      33.685  26.391  21.700  1.00  0.00    -0.229 OA
ENDBRANCH  89  90
ENDBRANCH  88  89
ENDBRANCH  86  88
ENDBRANCH  83  86
BRANCH  84  97
ATOM     97  O   UNL A   1      33.250  23.434  21.280  1.00  0.00    -0.391 OA
ATOM     98  H   UNL A   1      33.911  24.115  21.478  1.00  0.00     0.211 HD
ENDBRANCH  84  97
ENDBRANCH  78  81
ENDBRANCH  76  77
ENDBRANCH   1  76
TORSDOF 19
ENDMDL
