MODEL 1
REMARK VINA RESULT:     -11.1      0.000      0.000
REMARK SMILES Cc1oc(C[N@H+]2C[C@@H](C)[C@@H](C)C2)cc1C(=O)NCCCCNC(=O)c1ccc(-c2c3nc(c(-c4c(F)cc(S(=O)(=O)[O-])cc4F)c4ccc([nH]4)c(-c4c(F)cc(S(=O)(=O)[O-])cc4F)c4nc(c(-c5c(F)cc(S(=O)(=O)[O-])cc5F)c5ccc2[nH]5)C=C4)C=C3)cc1
REMARK SMILES IDX 20 1 19 2 18 3 17 4 15 5 16 6 14 8 1 9 2 10 3 11 4 12 13 13
REMARK SMILES IDX 5 14 6 15 7 16 12 17 8 19 10 20 9 21 11 22 21 23 22 24 23 25
REMARK SMILES IDX 24 27 25 28 26 29 90 30 27 31 89 32 28 33 29 34 30 35 83 36
REMARK SMILES IDX 31 37 88 38 82 39 84 40 32 41 87 42 81 43 80 44 33 46 67 47
REMARK SMILES IDX 46 48 66 49 47 50 50 51 65 52 85 53 48 54 49 55 64 57 86 58
REMARK SMILES IDX 51 59 34 60 35 61 44 62 36 63 37 64 43 65 45 66 38 67 39 68
REMARK SMILES IDX 40 69 41 70 42 71 68 72 69 73 78 74 70 75 71 76 77 77 79 78
REMARK SMILES IDX 72 79 73 80 74 81 75 82 76 83 52 84 53 85 62 86 54 87 55 88
REMARK SMILES IDX 61 89 63 90 56 91 57 92 58 93 59 94 60 95
REMARK H PARENT 17 7 6 18 22 26 84 45 50 56
REMARK Flexibility Score: inf
ROOT
ATOM      1  C   UNL A   1      33.162  28.203  25.881  1.00  0.00     0.023 C 
ENDROOT
BRANCH   1   2
ATOM      2  C   UNL A   1      32.980  29.412  24.958  1.00  0.00     0.023 C 
BRANCH   2   3
ATOM      3  C   UNL A   1      33.329  29.140  23.498  1.00  0.00     0.116 C 
BRANCH   3   4
ATOM      4  N   UNL A   1      32.178  28.782  22.714  1.00  0.00    -0.352 N 
ATOM      5  C   UNL A   1      31.361  27.690  22.650  1.00  0.00     0.254 C 
ATOM      6  O   UNL A   1      30.458  27.789  21.811  1.00  0.00    -0.269 OA
ATOM      7  H   UNL A   1      31.921  29.485  22.076  1.00  0.00     0.163 HD
BRANCH   5   8
ATOM      8  C   UNL A   1      31.475  26.454  23.431  1.00  0.00     0.081 A 
ATOM      9  C   UNL A   1      29.433  25.929  25.107  1.00  0.00     0.088 C 
ATOM     10  C   UNL A   1      30.711  25.780  24.381  1.00  0.00     0.114 A 
ATOM     11  O   UNL A   1      31.349  24.639  24.775  1.00  0.00    -0.460 OA
ATOM     12  C   UNL A   1      32.543  24.568  24.150  1.00  0.00     0.159 A 
ATOM     13  C   UNL A   1      32.644  25.615  23.271  1.00  0.00     0.066 A 
BRANCH  12  14
ATOM     14  C   UNL A   1      33.467  23.477  24.572  1.00  0.00     0.338 C 
BRANCH  14  15
ATOM     15  N   UNL A   1      34.891  23.755  24.340  1.00  0.00    -0.328 N 
ATOM     16  C   UNL A   1      35.697  23.864  25.557  1.00  0.00     0.266 C 
ATOM     17  C   UNL A   1      35.558  22.826  23.419  1.00  0.00     0.266 C 
ATOM     18  H   UNL A   1      34.849  24.672  23.894  1.00  0.00     0.348 HD
ATOM     19  C   UNL A   1      37.118  23.671  25.044  1.00  0.00     0.049 C 
ATOM     20  C   UNL A   1      36.955  22.556  24.000  1.00  0.00     0.049 C 
ATOM     21  C   UNL A   1      38.115  23.411  26.163  1.00  0.00     0.014 C 
ATOM     22  C   UNL A   1      37.056  21.137  24.564  1.00  0.00     0.014 C 
ENDBRANCH  14  15
ENDBRANCH  12  14
ENDBRANCH   5   8
ENDBRANCH   3   4
ENDBRANCH   2   3
ENDBRANCH   1   2
BRANCH   1  23
ATOM     23  C   UNL A   1      33.437  28.531  27.348  1.00  0.00     0.116 C 
BRANCH  23  24
ATOM     24  N   UNL A   1      33.399  29.954  27.656  1.00  0.00    -0.352 N 
ATOM     25  C   UNL A   1      34.423  30.740  28.130  1.00  0.00     0.251 C 
ATOM     26  H   UNL A   1      32.538  30.406  27.505  1.00  0.00     0.163 HD
ATOM     27  O   UNL A   1      34.227  31.917  28.416  1.00  0.00    -0.269 OA
BRANCH  25  28
ATOM     28  C   UNL A   1      35.749  30.123  28.336  1.00  0.00     0.039 A 
ATOM     29  C   UNL A   1      36.669  30.139  27.286  1.00  0.00     0.014 A 
ATOM     30  C   UNL A   1      36.103  29.619  29.589  1.00  0.00     0.014 A 
ATOM     31  C   UNL A   1      37.980  29.722  27.520  1.00  0.00     0.010 A 
ATOM     32  C   UNL A   1      37.426  29.267  29.836  1.00  0.00     0.010 A 
ATOM     33  C   UNL A   1      38.379  29.327  28.807  1.00  0.00    -0.014 A 
BRANCH  33  34
ATOM     34  C   UNL A   1      39.794  28.994  29.110  1.00  0.00     0.031 A 
ATOM     35  C   UNL A   1      40.698  30.034  29.710  1.00  0.00     0.074 A 
ATOM     36  C   UNL A   1      40.282  27.786  28.767  1.00  0.00     0.049 A 
ATOM     37  N   UNL A   1      41.981  29.969  29.954  1.00  0.00    -0.248 NA
ATOM     38  C   UNL A   1      40.086  31.329  30.047  1.00  0.00     0.031 C 
ATOM     39  C   UNL A   1      39.518  26.714  28.124  1.00  0.00     0.029 A 
ATOM     40  N   UNL A   1      41.543  27.260  28.895  1.00  0.00    -0.354 N 
ATOM     41  C   UNL A   1      42.334  31.217  30.452  1.00  0.00     0.074 A 
ATOM     42  C   UNL A   1      41.139  32.034  30.433  1.00  0.00     0.031 C 
ATOM     43  C   UNL A   1      40.321  25.654  27.932  1.00  0.00     0.029 A 
ATOM     44  C   UNL A   1      41.661  25.980  28.408  1.00  0.00     0.049 A 
ATOM     45  H   UNL A   1      42.293  27.754  29.299  1.00  0.00     0.167 HD
ATOM     46  C   UNL A   1      43.538  31.638  30.906  1.00  0.00     0.037 A 
ATOM     47  C   UNL A   1      42.731  25.163  28.348  1.00  0.00     0.037 A 
ATOM     48  C   UNL A   1      44.713  30.810  30.959  1.00  0.00     0.049 A 
ATOM     49  C   UNL A   1      44.049  25.639  28.892  1.00  0.00     0.074 A 
ATOM     50  C   UNL A   1      45.966  31.122  31.458  1.00  0.00     0.029 A 
ATOM     51  N   UNL A   1      44.779  29.500  30.505  1.00  0.00    -0.354 N 
ATOM     52  N   UNL A   1      44.351  26.804  29.413  1.00  0.00    -0.248 NA
ATOM     53  C   UNL A   1      45.170  24.690  28.847  1.00  0.00     0.031 C 
ATOM     54  C   UNL A   1      46.796  30.010  31.283  1.00  0.00     0.029 A 
ATOM     55  C   UNL A   1      46.052  28.993  30.705  1.00  0.00     0.049 A 
ATOM     56  H   UNL A   1      44.032  29.005  30.099  1.00  0.00     0.167 HD
ATOM     57  C   UNL A   1      45.688  26.719  29.784  1.00  0.00     0.074 A 
ATOM     58  C   UNL A   1      46.136  25.386  29.432  1.00  0.00     0.031 C 
ATOM     59  C   UNL A   1      46.473  27.659  30.364  1.00  0.00     0.037 A 
BRANCH  46  60
ATOM     60  C   UNL A   1      43.638  33.057  31.390  1.00  0.00     0.058 A 
ATOM     61  C   UNL A   1      43.989  34.103  30.523  1.00  0.00     0.135 A 
ATOM     62  C   UNL A   1      43.363  33.377  32.729  1.00  0.00     0.135 A 
ATOM     63  F   UNL A   1      44.278  33.849  29.237  1.00  0.00    -0.206 F 
ATOM     64  C   UNL A   1      44.096  35.415  30.973  1.00  0.00     0.059 A 
ATOM     65  C   UNL A   1      43.440  34.686  33.196  1.00  0.00     0.059 A 
ATOM     66  F   UNL A   1      43.025  32.413  33.600  1.00  0.00    -0.206 F 
ATOM     67  C   UNL A   1      43.825  35.695  32.312  1.00  0.00     0.060 A 
BRANCH  67  68
ATOM     68  S   UNL A   1      43.973  37.401  32.886  1.00  0.00     0.124 S 
ATOM     69  O   UNL A   1      45.295  37.382  33.505  1.00  0.00    -0.237 OA
ATOM     70  O   UNL A   1      43.867  38.160  31.645  1.00  0.00    -0.237 OA
ATOM     71  O   UNL A   1      42.850  37.548  33.806  1.00  0.00    -0.744 OA
ENDBRANCH  67  68
ENDBRANCH  46  60
BRANCH  47  72
ATOM     72  C   UNL A   1      42.589  23.796  27.781  1.00  0.00     0.058 A 
ATOM     73  C   UNL A   1      42.614  23.588  26.394  1.00  0.00     0.135 A 
ATOM     74  C   UNL A   1      42.445  22.673  28.610  1.00  0.00     0.135 A 
ATOM     75  F   UNL A   1      42.746  24.634  25.564  1.00  0.00    -0.206 F 
ATOM     76  C   UNL A   1      42.486  22.317  25.846  1.00  0.00     0.059 A 
ATOM     77  C   UNL A   1      42.335  21.388  28.085  1.00  0.00     0.059 A 
ATOM     78  F   UNL A   1      42.434  22.818  29.944  1.00  0.00    -0.206 F 
ATOM     79  C   UNL A   1      42.347  21.222  26.699  1.00  0.00     0.060 A 
BRANCH  79  80
ATOM     80  S   UNL A   1      42.235  19.569  25.981  1.00  0.00     0.124 S 
ATOM     81  O   UNL A   1      42.714  18.739  27.079  1.00  0.00    -0.237 OA
ATOM     82  O   UNL A   1      40.811  19.463  25.672  1.00  0.00    -0.237 OA
ATOM     83  O   UNL A   1      43.114  19.651  24.817  1.00  0.00    -0.744 OA
ENDBRANCH  79  80
ENDBRANCH  47  72
BRANCH  59  84
ATOM     84  C   UNL A   1      47.886  27.271  30.693  1.00  0.00     0.058 A 
ATOM     85  C   UNL A   1      48.198  26.541  31.848  1.00  0.00     0.135 A 
ATOM     86  C   UNL A   1      48.930  27.581  29.806  1.00  0.00     0.135 A 
ATOM     87  F   UNL A   1      47.235  26.226  32.730  1.00  0.00    -0.206 F 
ATOM     88  C   UNL A   1      49.502  26.141  32.122  1.00  0.00     0.059 A 
ATOM     89  C   UNL A   1      50.237  27.174  30.050  1.00  0.00     0.059 A 
ATOM     90  F   UNL A   1      48.681  28.272  28.683  1.00  0.00    -0.206 F 
ATOM     91  C   UNL A   1      50.515  26.460  31.215  1.00  0.00     0.060 A 
BRANCH  91  92
ATOM     92  S   UNL A   1      52.196  25.897  31.556  1.00  0.00     0.124 S 
ATOM     93  O   UNL A   1      52.816  26.011  30.240  1.00  0.00    -0.237 OA
ATOM     94  O   UNL A   1      52.653  26.856  32.557  1.00  0.00    -0.237 OA
ATOM     95  O   UNL A   1      52.004  24.535  32.046  1.00  0.00    -0.744 OA
ENDBRANCH  91  92
ENDBRANCH  59  84
ENDBRANCH  33  34
ENDBRANCH  25  28
ENDBRANCH  23  24
ENDBRANCH   1  23
TORSDOF 16
ENDMDL
MODEL 2
REMARK VINA RESULT:     -11.1      1.083      2.145
REMARK SMILES Cc1oc(C[N@H+]2C[C@@H](C)[C@@H](C)C2)cc1C(=O)NCCCCNC(=O)c1ccc(-c2c3nc(c(-c4c(F)cc(S(=O)(=O)[O-])cc4F)c4ccc([nH]4)c(-c4c(F)cc(S(=O)(=O)[O-])cc4F)c4nc(c(-c5c(F)cc(S(=O)(=O)[O-])cc5F)c5ccc2[nH]5)C=C4)C=C3)cc1
REMARK SMILES IDX 20 1 19 2 18 3 17 4 15 5 16 6 14 8 1 9 2 10 3 11 4 12 13 13
REMARK SMILES IDX 5 14 6 15 7 16 12 17 8 19 10 20 9 21 11 22 21 23 22 24 23 25
REMARK SMILES IDX 24 27 25 28 26 29 90 30 27 31 89 32 28 33 29 34 30 35 83 36
REMARK SMILES IDX 31 37 88 38 82 39 84 40 32 41 87 42 81 43 80 44 33 46 67 47
REMARK SMILES IDX 46 48 66 49 47 50 50 51 65 52 85 53 48 54 49 55 64 57 86 58
REMARK SMILES IDX 51 59 34 60 35 61 44 62 36 63 37 64 43 65 45 66 38 67 39 68
REMARK SMILES IDX 40 69 41 70 42 71 68 72 69 73 78 74 70 75 71 76 77 77 79 78
REMARK SMILES IDX 72 79 73 80 74 81 75 82 76 83 52 84 53 85 62 86 54 87 55 88
REMARK SMILES IDX 61 89 63 90 56 91 57 92 58 93 59 94 60 95
REMARK H PARENT 17 7 6 18 22 26 84 45 50 56
REMARK Flexibility Score: inf
ROOT
ATOM      1  C   UNL A   1      32.776  28.150  26.114  1.00  0.00     0.023 C 
ENDROOT
BRANCH   1   2
ATOM      2  C   UNL A   1      31.448  28.904  25.990  1.00  0.00     0.023 C 
BRANCH   2   3
ATOM      3  C   UNL A   1      31.442  29.981  24.909  1.00  0.00     0.116 C 
BRANCH   3   4
ATOM      4  N   UNL A   1      30.651  29.611  23.766  1.00  0.00    -0.352 N 
ATOM      5  C   UNL A   1      30.742  28.642  22.809  1.00  0.00     0.254 C 
ATOM      6  O   UNL A   1      29.826  28.671  21.978  1.00  0.00    -0.269 OA
ATOM      7  H   UNL A   1      29.863  30.188  23.647  1.00  0.00     0.163 HD
BRANCH   5   8
ATOM      8  C   UNL A   1      31.801  27.637  22.667  1.00  0.00     0.081 A 
ATOM      9  C   UNL A   1      34.314  28.592  22.500  1.00  0.00     0.088 C 
ATOM     10  C   UNL A   1      33.190  27.635  22.553  1.00  0.00     0.114 A 
ATOM     11  O   UNL A   1      33.651  26.356  22.436  1.00  0.00    -0.460 OA
ATOM     12  C   UNL A   1      32.598  25.512  22.415  1.00  0.00     0.159 A 
ATOM     13  C   UNL A   1      31.449  26.233  22.616  1.00  0.00     0.066 A 
BRANCH  12  14
ATOM     14  C   UNL A   1      32.882  24.077  22.125  1.00  0.00     0.338 C 
BRANCH  14  15
ATOM     15  N   UNL A   1      32.453  23.143  23.175  1.00  0.00    -0.328 N 
ATOM     16  C   UNL A   1      32.330  21.751  22.738  1.00  0.00     0.266 C 
ATOM     17  C   UNL A   1      33.261  23.179  24.400  1.00  0.00     0.266 C 
ATOM     18  H   UNL A   1      31.522  23.498  23.395  1.00  0.00     0.348 HD
ATOM     19  C   UNL A   1      32.355  20.978  24.051  1.00  0.00     0.049 C 
ATOM     20  C   UNL A   1      33.423  21.723  24.865  1.00  0.00     0.049 C 
ATOM     21  C   UNL A   1      32.576  19.487  23.849  1.00  0.00     0.014 C 
ATOM     22  C   UNL A   1      34.854  21.227  24.644  1.00  0.00     0.014 C 
ENDBRANCH  14  15
ENDBRANCH  12  14
ENDBRANCH   5   8
ENDBRANCH   3   4
ENDBRANCH   2   3
ENDBRANCH   1   2
BRANCH   1  23
ATOM     23  C   UNL A   1      33.619  28.501  27.339  1.00  0.00     0.116 C 
BRANCH  23  24
ATOM     24  N   UNL A   1      33.583  29.911  27.701  1.00  0.00    -0.352 N 
ATOM     25  C   UNL A   1      34.612  30.678  28.200  1.00  0.00     0.251 C 
ATOM     26  H   UNL A   1      32.722  30.369  27.572  1.00  0.00     0.163 HD
ATOM     27  O   UNL A   1      34.418  31.843  28.531  1.00  0.00    -0.269 OA
BRANCH  25  28
ATOM     28  C   UNL A   1      35.937  30.053  28.375  1.00  0.00     0.039 A 
ATOM     29  C   UNL A   1      36.834  30.064  27.304  1.00  0.00     0.014 A 
ATOM     30  C   UNL A   1      36.316  29.544  29.619  1.00  0.00     0.014 A 
ATOM     31  C   UNL A   1      38.148  29.640  27.509  1.00  0.00     0.010 A 
ATOM     32  C   UNL A   1      37.642  29.184  29.835  1.00  0.00     0.010 A 
ATOM     33  C   UNL A   1      38.573  29.240  28.786  1.00  0.00    -0.014 A 
BRANCH  33  34
ATOM     34  C   UNL A   1      39.992  28.898  29.057  1.00  0.00     0.031 A 
ATOM     35  C   UNL A   1      40.917  29.933  29.632  1.00  0.00     0.074 A 
ATOM     36  C   UNL A   1      40.463  27.685  28.706  1.00  0.00     0.049 A 
ATOM     37  N   UNL A   1      42.205  29.860  29.847  1.00  0.00    -0.248 NA
ATOM     38  C   UNL A   1      40.322  31.234  29.979  1.00  0.00     0.031 C 
ATOM     39  C   UNL A   1      39.676  26.616  28.085  1.00  0.00     0.029 A 
ATOM     40  N   UNL A   1      41.723  27.150  28.807  1.00  0.00    -0.354 N 
ATOM     41  C   UNL A   1      42.578  31.106  30.332  1.00  0.00     0.074 A 
ATOM     42  C   UNL A   1      41.389  31.931  30.338  1.00  0.00     0.031 C 
ATOM     43  C   UNL A   1      40.467  25.551  27.877  1.00  0.00     0.029 A 
ATOM     44  C   UNL A   1      41.821  25.868  28.320  1.00  0.00     0.049 A 
ATOM     45  H   UNL A   1      42.486  27.640  29.191  1.00  0.00     0.167 HD
ATOM     46  C   UNL A   1      43.796  31.520  30.756  1.00  0.00     0.037 A 
ATOM     47  C   UNL A   1      42.883  25.043  28.238  1.00  0.00     0.037 A 
ATOM     48  C   UNL A   1      44.966  30.683  30.785  1.00  0.00     0.049 A 
ATOM     49  C   UNL A   1      44.217  25.511  28.750  1.00  0.00     0.074 A 
ATOM     50  C   UNL A   1      46.232  30.989  31.253  1.00  0.00     0.029 A 
ATOM     51  N   UNL A   1      45.012  29.372  30.333  1.00  0.00    -0.354 N 
ATOM     52  N   UNL A   1      44.539  26.676  29.260  1.00  0.00    -0.248 NA
ATOM     53  C   UNL A   1      45.329  24.554  28.682  1.00  0.00     0.031 C 
ATOM     54  C   UNL A   1      47.050  29.870  31.062  1.00  0.00     0.029 A 
ATOM     55  C   UNL A   1      46.285  28.857  30.505  1.00  0.00     0.049 A 
ATOM     56  H   UNL A   1      44.251  28.881  29.946  1.00  0.00     0.167 HD
ATOM     57  C   UNL A   1      45.883  26.582  29.600  1.00  0.00     0.074 A 
ATOM     58  C   UNL A   1      46.314  25.246  29.242  1.00  0.00     0.031 C 
ATOM     59  C   UNL A   1      46.689  27.519  30.158  1.00  0.00     0.037 A 
BRANCH  46  60
ATOM     60  C   UNL A   1      43.917  32.940  31.233  1.00  0.00     0.058 A 
ATOM     61  C   UNL A   1      44.276  33.977  30.359  1.00  0.00     0.135 A 
ATOM     62  C   UNL A   1      43.655  33.269  32.572  1.00  0.00     0.135 A 
ATOM     63  F   UNL A   1      44.553  33.714  29.073  1.00  0.00    -0.206 F 
ATOM     64  C   UNL A   1      44.402  35.290  30.803  1.00  0.00     0.059 A 
ATOM     65  C   UNL A   1      43.752  34.579  33.033  1.00  0.00     0.059 A 
ATOM     66  F   UNL A   1      43.309  32.314  33.450  1.00  0.00    -0.206 F 
ATOM     67  C   UNL A   1      44.143  35.580  32.143  1.00  0.00     0.060 A 
BRANCH  67  68
ATOM     68  S   UNL A   1      44.317  37.285  32.708  1.00  0.00     0.124 S 
ATOM     69  O   UNL A   1      45.764  37.388  32.874  1.00  0.00    -0.237 OA
ATOM     70  O   UNL A   1      43.753  38.044  31.596  1.00  0.00    -0.237 OA
ATOM     71  O   UNL A   1      43.539  37.315  33.942  1.00  0.00    -0.744 OA
ENDBRANCH  67  68
ENDBRANCH  46  60
BRANCH  47  72
ATOM     72  C   UNL A   1      42.718  23.675  27.679  1.00  0.00     0.058 A 
ATOM     73  C   UNL A   1      42.455  22.584  28.521  1.00  0.00     0.135 A 
ATOM     74  C   UNL A   1      42.802  23.435  26.300  1.00  0.00     0.135 A 
ATOM     75  F   UNL A   1      42.369  22.767  29.847  1.00  0.00    -0.206 F 
ATOM     76  C   UNL A   1      42.295  21.298  28.017  1.00  0.00     0.059 A 
ATOM     77  C   UNL A   1      42.626  22.159  25.770  1.00  0.00     0.059 A 
ATOM     78  F   UNL A   1      43.034  24.449  25.453  1.00  0.00    -0.206 F 
ATOM     79  C   UNL A   1      42.382  21.095  26.639  1.00  0.00     0.060 A 
BRANCH  79  80
ATOM     80  S   UNL A   1      42.120  19.431  25.988  1.00  0.00     0.124 S 
ATOM     81  O   UNL A   1      42.983  19.437  24.813  1.00  0.00    -0.237 OA
ATOM     82  O   UNL A   1      42.560  18.592  27.099  1.00  0.00    -0.237 OA
ATOM     83  O   UNL A   1      40.685  19.399  25.720  1.00  0.00    -0.744 OA
ENDBRANCH  79  80
ENDBRANCH  47  72
BRANCH  59  84
ATOM     84  C   UNL A   1      48.106  27.122  30.455  1.00  0.00     0.058 A 
ATOM     85  C   UNL A   1      49.132  27.301  29.516  1.00  0.00     0.135 A 
ATOM     86  C   UNL A   1      48.450  26.616  31.719  1.00  0.00     0.135 A 
ATOM     87  F   UNL A   1      48.852  27.775  28.292  1.00  0.00    -0.206 F 
ATOM     88  C   UNL A   1      50.452  26.978  29.815  1.00  0.00     0.059 A 
ATOM     89  C   UNL A   1      49.766  26.306  32.046  1.00  0.00     0.059 A 
ATOM     90  F   UNL A   1      47.505  26.434  32.655  1.00  0.00    -0.206 F 
ATOM     91  C   UNL A   1      50.760  26.484  31.084  1.00  0.00     0.060 A 
BRANCH  91  92
ATOM     92  S   UNL A   1      52.481  26.112  31.478  1.00  0.00     0.124 S 
ATOM     93  O   UNL A   1      52.389  24.722  31.915  1.00  0.00    -0.237 OA
ATOM     94  O   UNL A   1      53.152  26.331  30.200  1.00  0.00    -0.237 OA
ATOM     95  O   UNL A   1      52.806  27.079  32.522  1.00  0.00    -0.744 OA
ENDBRANCH  91  92
ENDBRANCH  59  84
ENDBRANCH  33  34
ENDBRANCH  25  28
ENDBRANCH  23  24
ENDBRANCH   1  23
TORSDOF 16
ENDMDL
MODEL 3
REMARK VINA RESULT:     -11.0      1.635      2.714
REMARK SMILES Cc1oc(C[N@H+]2C[C@@H](C)[C@@H](C)C2)cc1C(=O)NCCCCNC(=O)c1ccc(-c2c3nc(c(-c4c(F)cc(S(=O)(=O)[O-])cc4F)c4ccc([nH]4)c(-c4c(F)cc(S(=O)(=O)[O-])cc4F)c4nc(c(-c5c(F)cc(S(=O)(=O)[O-])cc5F)c5ccc2[nH]5)C=C4)C=C3)cc1
REMARK SMILES IDX 20 1 19 2 18 3 17 4 15 5 16 6 14 8 1 9 2 10 3 11 4 12 13 13
REMARK SMILES IDX 5 14 6 15 7 16 12 17 8 19 10 20 9 21 11 22 21 23 22 24 23 25
REMARK SMILES IDX 24 27 25 28 26 29 90 30 27 31 89 32 28 33 29 34 30 35 83 36
REMARK SMILES IDX 31 37 88 38 82 39 84 40 32 41 87 42 81 43 80 44 33 46 67 47
REMARK SMILES IDX 46 48 66 49 47 50 50 51 65 52 85 53 48 54 49 55 64 57 86 58
REMARK SMILES IDX 51 59 34 60 35 61 44 62 36 63 37 64 43 65 45 66 38 67 39 68
REMARK SMILES IDX 40 69 41 70 42 71 68 72 69 73 78 74 70 75 71 76 77 77 79 78
REMARK SMILES IDX 72 79 73 80 74 81 75 82 76 83 52 84 53 85 62 86 54 87 55 88
REMARK SMILES IDX 61 89 63 90 56 91 57 92 58 93 59 94 60 95
REMARK H PARENT 17 7 6 18 22 26 84 45 50 56
REMARK Flexibility Score: inf
ROOT
ATOM      1  C   UNL A   1      32.248  27.839  26.879  1.00  0.00     0.023 C 
ENDROOT
BRANCH   1   2
ATOM      2  C   UNL A   1      32.231  27.051  25.565  1.00  0.00     0.023 C 
BRANCH   2   3
ATOM      3  C   UNL A   1      33.616  26.792  24.976  1.00  0.00     0.116 C 
BRANCH   3   4
ATOM      4  N   UNL A   1      33.556  26.240  23.650  1.00  0.00    -0.352 N 
ATOM      5  C   UNL A   1      33.766  25.002  23.114  1.00  0.00     0.254 C 
ATOM      6  O   UNL A   1      33.604  24.953  21.889  1.00  0.00    -0.269 OA
ATOM      7  H   UNL A   1      33.305  26.908  22.973  1.00  0.00     0.163 HD
BRANCH   5   8
ATOM      8  C   UNL A   1      34.181  23.790  23.827  1.00  0.00     0.081 A 
ATOM      9  C   UNL A   1      36.637  22.858  23.230  1.00  0.00     0.088 C 
ATOM     10  C   UNL A   1      35.307  22.970  23.864  1.00  0.00     0.114 A 
ATOM     11  O   UNL A   1      35.114  21.944  24.743  1.00  0.00    -0.460 OA
ATOM     12  C   UNL A   1      33.866  22.033  25.250  1.00  0.00     0.159 A 
ATOM     13  C   UNL A   1      33.276  23.175  24.775  1.00  0.00     0.066 A 
BRANCH  12  14
ATOM     14  C   UNL A   1      33.399  20.906  26.108  1.00  0.00     0.338 C 
BRANCH  14  15
ATOM     15  N   UNL A   1      32.611  19.885  25.403  1.00  0.00    -0.328 N 
ATOM     16  C   UNL A   1      32.643  19.991  23.944  1.00  0.00     0.266 C 
ATOM     17  C   UNL A   1      32.921  18.499  25.779  1.00  0.00     0.266 C 
ATOM     18  H   UNL A   1      31.667  20.100  25.725  1.00  0.00     0.348 HD
ATOM     19  C   UNL A   1      32.184  18.610  23.491  1.00  0.00     0.049 C 
ATOM     20  C   UNL A   1      32.891  17.674  24.483  1.00  0.00     0.049 C 
ATOM     21  C   UNL A   1      32.450  18.358  22.015  1.00  0.00     0.014 C 
ATOM     22  C   UNL A   1      34.300  17.249  24.064  1.00  0.00     0.014 C 
ENDBRANCH  14  15
ENDBRANCH  12  14
ENDBRANCH   5   8
ENDBRANCH   3   4
ENDBRANCH   2   3
ENDBRANCH   1   2
BRANCH   1  23
ATOM     23  C   UNL A   1      33.597  28.447  27.264  1.00  0.00     0.116 C 
BRANCH  23  24
ATOM     24  N   UNL A   1      33.521  29.838  27.688  1.00  0.00    -0.352 N 
ATOM     25  C   UNL A   1      34.522  30.604  28.240  1.00  0.00     0.251 C 
ATOM     26  H   UNL A   1      32.652  30.282  27.565  1.00  0.00     0.163 HD
ATOM     27  O   UNL A   1      34.295  31.748  28.621  1.00  0.00    -0.269 OA
BRANCH  25  28
ATOM     28  C   UNL A   1      35.859  30.002  28.411  1.00  0.00     0.039 A 
ATOM     29  C   UNL A   1      36.759  30.047  27.343  1.00  0.00     0.014 A 
ATOM     30  C   UNL A   1      36.244  29.483  29.648  1.00  0.00     0.014 A 
ATOM     31  C   UNL A   1      38.080  29.645  27.546  1.00  0.00     0.010 A 
ATOM     32  C   UNL A   1      37.576  29.145  29.864  1.00  0.00     0.010 A 
ATOM     33  C   UNL A   1      38.509  29.235  28.819  1.00  0.00    -0.014 A 
BRANCH  33  34
ATOM     34  C   UNL A   1      39.933  28.916  29.090  1.00  0.00     0.031 A 
ATOM     35  C   UNL A   1      40.841  29.965  29.667  1.00  0.00     0.074 A 
ATOM     36  C   UNL A   1      40.425  27.713  28.735  1.00  0.00     0.049 A 
ATOM     37  N   UNL A   1      42.129  29.914  29.883  1.00  0.00    -0.248 NA
ATOM     38  C   UNL A   1      40.223  31.255  30.018  1.00  0.00     0.031 C 
ATOM     39  C   UNL A   1      39.657  26.632  28.111  1.00  0.00     0.029 A 
ATOM     40  N   UNL A   1      41.694  27.199  28.835  1.00  0.00    -0.354 N 
ATOM     41  C   UNL A   1      42.481  31.165  30.372  1.00  0.00     0.074 A 
ATOM     42  C   UNL A   1      41.278  31.970  30.379  1.00  0.00     0.031 C 
ATOM     43  C   UNL A   1      40.466  25.581  27.901  1.00  0.00     0.029 A 
ATOM     44  C   UNL A   1      41.814  25.920  28.345  1.00  0.00     0.049 A 
ATOM     45  H   UNL A   1      42.449  27.701  29.221  1.00  0.00     0.167 HD
ATOM     46  C   UNL A   1      43.691  31.599  30.797  1.00  0.00     0.037 A 
ATOM     47  C   UNL A   1      42.890  25.113  28.262  1.00  0.00     0.037 A 
ATOM     48  C   UNL A   1      44.875  30.782  30.824  1.00  0.00     0.049 A 
ATOM     49  C   UNL A   1      44.216  25.603  28.775  1.00  0.00     0.074 A 
ATOM     50  C   UNL A   1      46.136  31.108  31.294  1.00  0.00     0.029 A 
ATOM     51  N   UNL A   1      44.944  29.473  30.369  1.00  0.00    -0.354 N 
ATOM     52  N   UNL A   1      44.518  26.772  29.288  1.00  0.00    -0.248 NA
ATOM     53  C   UNL A   1      45.344  24.665  28.705  1.00  0.00     0.031 C 
ATOM     54  C   UNL A   1      46.973  30.003  31.100  1.00  0.00     0.029 A 
ATOM     55  C   UNL A   1      46.226  28.979  30.541  1.00  0.00     0.049 A 
ATOM     56  H   UNL A   1      44.192  28.970  29.980  1.00  0.00     0.167 HD
ATOM     57  C   UNL A   1      45.863  26.700  29.629  1.00  0.00     0.074 A 
ATOM     58  C   UNL A   1      46.317  25.372  29.268  1.00  0.00     0.031 C 
ATOM     59  C   UNL A   1      46.653  27.649  30.190  1.00  0.00     0.037 A 
BRANCH  46  60
ATOM     60  C   UNL A   1      43.788  33.019  31.278  1.00  0.00     0.058 A 
ATOM     61  C   UNL A   1      43.550  33.355  32.620  1.00  0.00     0.135 A 
ATOM     62  C   UNL A   1      44.139  34.051  30.395  1.00  0.00     0.135 A 
ATOM     63  F   UNL A   1      43.194  32.408  33.502  1.00  0.00    -0.206 F 
ATOM     64  C   UNL A   1      43.625  34.671  33.064  1.00  0.00     0.059 A 
ATOM     65  C   UNL A   1      44.244  35.372  30.822  1.00  0.00     0.059 A 
ATOM     66  F   UNL A   1      44.376  33.784  29.101  1.00  0.00    -0.206 F 
ATOM     67  C   UNL A   1      43.968  35.673  32.156  1.00  0.00     0.060 A 
BRANCH  67  68
ATOM     68  S   UNL A   1      44.056  37.378  32.742  1.00  0.00     0.124 S 
ATOM     69  O   UNL A   1      45.407  37.424  33.293  1.00  0.00    -0.237 OA
ATOM     70  O   UNL A   1      43.846  38.143  31.517  1.00  0.00    -0.237 OA
ATOM     71  O   UNL A   1      42.975  37.457  33.720  1.00  0.00    -0.744 OA
ENDBRANCH  67  68
ENDBRANCH  46  60
BRANCH  47  72
ATOM     72  C   UNL A   1      42.749  23.745  27.699  1.00  0.00     0.058 A 
ATOM     73  C   UNL A   1      42.477  22.651  28.535  1.00  0.00     0.135 A 
ATOM     74  C   UNL A   1      42.865  23.505  26.322  1.00  0.00     0.135 A 
ATOM     75  F   UNL A   1      42.362  22.833  29.859  1.00  0.00    -0.206 F 
ATOM     76  C   UNL A   1      42.339  21.364  28.027  1.00  0.00     0.059 A 
ATOM     77  C   UNL A   1      42.710  22.229  25.787  1.00  0.00     0.059 A 
ATOM     78  F   UNL A   1      43.106  24.522  25.480  1.00  0.00    -0.206 F 
ATOM     79  C   UNL A   1      42.457  21.162  26.651  1.00  0.00     0.060 A 
BRANCH  79  80
ATOM     80  S   UNL A   1      42.224  19.496  25.994  1.00  0.00     0.124 S 
ATOM     81  O   UNL A   1      43.021  19.548  24.775  1.00  0.00    -0.237 OA
ATOM     82  O   UNL A   1      42.754  18.663  27.070  1.00  0.00    -0.237 OA
ATOM     83  O   UNL A   1      40.778  19.412  25.803  1.00  0.00    -0.744 OA
ENDBRANCH  79  80
ENDBRANCH  47  72
BRANCH  59  84
ATOM     84  C   UNL A   1      48.076  27.275  30.487  1.00  0.00     0.058 A 
ATOM     85  C   UNL A   1      48.417  26.513  31.613  1.00  0.00     0.135 A 
ATOM     86  C   UNL A   1      49.102  27.633  29.597  1.00  0.00     0.135 A 
ATOM     87  F   UNL A   1      47.472  26.152  32.497  1.00  0.00    -0.206 F 
ATOM     88  C   UNL A   1      49.731  26.127  31.856  1.00  0.00     0.059 A 
ATOM     89  C   UNL A   1      50.420  27.241  29.810  1.00  0.00     0.059 A 
ATOM     90  F   UNL A   1      48.825  28.356  28.501  1.00  0.00    -0.206 F 
ATOM     91  C   UNL A   1      50.726  26.494  30.946  1.00  0.00     0.060 A 
BRANCH  91  92
ATOM     92  S   UNL A   1      52.421  25.950  31.246  1.00  0.00     0.124 S 
ATOM     93  O   UNL A   1      52.204  24.672  31.917  1.00  0.00    -0.237 OA
ATOM     94  O   UNL A   1      52.970  25.870  29.895  1.00  0.00    -0.237 OA
ATOM     95  O   UNL A   1      52.976  27.012  32.078  1.00  0.00    -0.744 OA
ENDBRANCH  91  92
ENDBRANCH  59  84
ENDBRANCH  33  34
ENDBRANCH  25  28
ENDBRANCH  23  24
ENDBRANCH   1  23
TORSDOF 16
ENDMDL
