MODEL 1
REMARK VINA RESULT:     -11.3      0.000      0.000
REMARK SMILES COC[C@H](C)Oc1cnc2ccccc2c1C(=O)NCCCCNC(=O)c1ccc(-c2c3nc(c(-c4c(F)cc(S(=O)(=O)[O-])cc4F)c4ccc([nH]4)c(-c4c(F)cc(S(=O)(=O)[O-])cc4F)c4nc(c(-c5c(F)cc(S(=O)(=O)[O-])cc5F)c5ccc2[nH]5)C=C4)C=C3)cc1
REMARK SMILES IDX 21 1 20 2 19 3 17 4 18 5 16 7 7 8 8 9 9 10 15 11 10 12 14 13
REMARK SMILES IDX 11 14 13 15 12 16 6 17 4 18 5 19 3 20 2 21 1 22 22 23 23 24
REMARK SMILES IDX 24 25 25 26 26 28 27 29 28 30 92 31 29 32 91 33 30 34 31 35
REMARK SMILES IDX 32 36 85 37 33 38 90 39 84 40 86 41 34 42 89 43 83 44 82 45
REMARK SMILES IDX 35 47 69 48 48 49 68 50 49 51 52 52 67 53 87 54 50 55 51 56
REMARK SMILES IDX 66 58 88 59 53 60 36 61 37 62 46 63 38 64 39 65 45 66 47 67
REMARK SMILES IDX 40 68 41 69 42 70 43 71 44 72 70 73 71 74 80 75 72 76 73 77
REMARK SMILES IDX 79 78 81 79 74 80 75 81 76 82 77 83 78 84 54 85 55 86 64 87
REMARK SMILES IDX 56 88 57 89 63 90 65 91 58 92 59 93 60 94 61 95 62 96
REMARK H PARENT 19 6 24 27 86 46 52 57
REMARK Flexibility Score: inf
ROOT
ATOM      1  C   UNL A   1      37.547  22.098  24.769  1.00  0.00     0.023 C 
ENDROOT
BRANCH   1   2
ATOM      2  C   UNL A   1      37.354  23.241  25.782  1.00  0.00     0.116 C 
BRANCH   2   3
ATOM      3  N   UNL A   1      36.041  23.110  26.393  1.00  0.00    -0.352 N 
ATOM      4  C   UNL A   1      34.767  23.534  26.087  1.00  0.00     0.255 C 
ATOM      5  O   UNL A   1      33.992  23.529  27.047  1.00  0.00    -0.269 OA
ATOM      6  H   UNL A   1      36.070  22.592  27.230  1.00  0.00     0.163 HD
BRANCH   4   7
ATOM      7  C   UNL A   1      34.244  23.879  24.713  1.00  0.00     0.092 A 
ATOM      8  C   UNL A   1      33.983  22.784  23.854  1.00  0.00     0.151 A 
ATOM      9  C   UNL A   1      33.555  23.065  22.570  1.00  0.00     0.159 A 
ATOM     10  N   UNL A   1      33.447  24.301  22.049  1.00  0.00    -0.252 NA
ATOM     11  C   UNL A   1      33.965  25.196  24.230  1.00  0.00     0.017 A 
ATOM     12  C   UNL A   1      33.642  25.337  22.862  1.00  0.00     0.071 A 
ATOM     13  C   UNL A   1      33.903  26.377  24.999  1.00  0.00     0.011 A 
ATOM     14  C   UNL A   1      33.466  26.598  22.307  1.00  0.00     0.029 A 
ATOM     15  C   UNL A   1      33.752  27.644  24.433  1.00  0.00     0.001 A 
ATOM     16  C   UNL A   1      33.556  27.758  23.070  1.00  0.00     0.002 A 
BRANCH   8  17
ATOM     17  O   UNL A   1      34.042  21.510  24.340  1.00  0.00    -0.486 OA
BRANCH  17  18
ATOM     18  C   UNL A   1      32.897  20.825  24.868  1.00  0.00     0.196 C 
ATOM     19  C   UNL A   1      31.688  21.731  25.107  1.00  0.00     0.055 C 
BRANCH  18  20
ATOM     20  C   UNL A   1      32.578  19.509  24.139  1.00  0.00     0.204 C 
BRANCH  20  21
ATOM     21  O   UNL A   1      32.012  18.508  24.987  1.00  0.00    -0.381 OA
ATOM     22  C   UNL A   1      32.974  17.608  25.521  1.00  0.00     0.195 C 
ENDBRANCH  20  21
ENDBRANCH  18  20
ENDBRANCH  17  18
ENDBRANCH   8  17
ENDBRANCH   4   7
ENDBRANCH   2   3
ENDBRANCH   1   2
BRANCH   1  23
ATOM     23  C   UNL A   1      38.096  20.788  25.325  1.00  0.00     0.023 C 
BRANCH  23  24
ATOM     24  C   UNL A   1      39.456  20.901  25.996  1.00  0.00     0.116 C 
BRANCH  24  25
ATOM     25  N   UNL A   1      40.226  19.662  25.988  1.00  0.00    -0.352 N 
ATOM     26  C   UNL A   1      41.578  19.494  26.179  1.00  0.00     0.251 C 
ATOM     27  H   UNL A   1      39.711  18.839  25.824  1.00  0.00     0.163 HD
ATOM     28  O   UNL A   1      42.086  18.381  26.079  1.00  0.00    -0.269 OA
BRANCH  26  29
ATOM     29  C   UNL A   1      42.409  20.681  26.452  1.00  0.00     0.039 A 
ATOM     30  C   UNL A   1      42.942  21.395  25.376  1.00  0.00     0.014 A 
ATOM     31  C   UNL A   1      42.567  21.142  27.761  1.00  0.00     0.014 A 
ATOM     32  C   UNL A   1      43.549  22.630  25.609  1.00  0.00     0.010 A 
ATOM     33  C   UNL A   1      43.089  22.409  27.980  1.00  0.00     0.010 A 
ATOM     34  C   UNL A   1      43.577  23.168  26.906  1.00  0.00    -0.014 A 
BRANCH  34  35
ATOM     35  C   UNL A   1      44.084  24.538  27.163  1.00  0.00     0.031 A 
ATOM     36  C   UNL A   1      43.140  25.620  27.600  1.00  0.00     0.074 A 
ATOM     37  C   UNL A   1      45.374  24.828  26.898  1.00  0.00     0.049 A 
ATOM     38  N   UNL A   1      43.373  26.892  27.790  1.00  0.00    -0.248 NA
ATOM     39  C   UNL A   1      41.737  25.226  27.807  1.00  0.00     0.031 C 
ATOM     40  C   UNL A   1      46.367  23.881  26.383  1.00  0.00     0.029 A 
ATOM     41  N   UNL A   1      46.066  26.007  27.005  1.00  0.00    -0.354 N 
ATOM     42  C   UNL A   1      42.145  27.454  28.114  1.00  0.00     0.074 A 
ATOM     43  C   UNL A   1      41.161  26.397  28.038  1.00  0.00     0.031 C 
ATOM     44  C   UNL A   1      47.542  24.512  26.238  1.00  0.00     0.029 A 
ATOM     45  C   UNL A   1      47.382  25.912  26.620  1.00  0.00     0.049 A 
ATOM     46  H   UNL A   1      45.658  26.843  27.328  1.00  0.00     0.167 HD
ATOM     47  C   UNL A   1      41.866  28.732  28.467  1.00  0.00     0.037 A 
ATOM     48  C   UNL A   1      48.350  26.847  26.577  1.00  0.00     0.037 A 
ATOM     49  C   UNL A   1      42.857  29.768  28.576  1.00  0.00     0.049 A 
ATOM     50  C   UNL A   1      48.036  28.245  27.026  1.00  0.00     0.074 A 
ATOM     51  C   UNL A   1      42.700  31.068  29.021  1.00  0.00     0.029 A 
ATOM     52  N   UNL A   1      44.194  29.622  28.232  1.00  0.00    -0.354 N 
ATOM     53  N   UNL A   1      46.888  28.742  27.424  1.00  0.00    -0.248 NA
ATOM     54  C   UNL A   1      49.145  29.207  27.032  1.00  0.00     0.031 C 
ATOM     55  C   UNL A   1      43.936  31.718  28.914  1.00  0.00     0.029 A 
ATOM     56  C   UNL A   1      44.870  30.812  28.435  1.00  0.00     0.049 A 
ATOM     57  H   UNL A   1      44.602  28.792  27.894  1.00  0.00     0.167 HD
ATOM     58  C   UNL A   1      47.137  30.072  27.736  1.00  0.00     0.074 A 
ATOM     59  C   UNL A   1      48.550  30.298  27.497  1.00  0.00     0.031 C 
ATOM     60  C   UNL A   1      46.275  31.020  28.180  1.00  0.00     0.037 A 
BRANCH  47  61
ATOM     61  C   UNL A   1      40.429  29.060  28.759  1.00  0.00     0.058 A 
ATOM     62  C   UNL A   1      39.512  29.331  27.729  1.00  0.00     0.135 A 
ATOM     63  C   UNL A   1      39.969  29.139  30.082  1.00  0.00     0.135 A 
ATOM     64  F   UNL A   1      39.904  29.285  26.446  1.00  0.00    -0.206 F 
ATOM     65  C   UNL A   1      38.207  29.723  28.002  1.00  0.00     0.059 A 
ATOM     66  C   UNL A   1      38.657  29.503  30.378  1.00  0.00     0.059 A 
ATOM     67  F   UNL A   1      40.801  28.889  31.105  1.00  0.00    -0.206 F 
ATOM     68  C   UNL A   1      37.793  29.820  29.331  1.00  0.00     0.060 A 
BRANCH  68  69
ATOM     69  S   UNL A   1      36.111  30.378  29.675  1.00  0.00     0.124 S 
ATOM     70  O   UNL A   1      35.908  29.863  31.026  1.00  0.00    -0.237 OA
ATOM     71  O   UNL A   1      36.229  31.828  29.564  1.00  0.00    -0.237 OA
ATOM     72  O   UNL A   1      35.321  29.734  28.632  1.00  0.00    -0.744 OA
ENDBRANCH  68  69
ENDBRANCH  47  61
BRANCH  48  73
ATOM     73  C   UNL A   1      49.711  26.463  26.125  1.00  0.00     0.058 A 
ATOM     74  C   UNL A   1      50.157  26.790  24.836  1.00  0.00     0.135 A 
ATOM     75  C   UNL A   1      50.616  25.833  26.992  1.00  0.00     0.135 A 
ATOM     76  F   UNL A   1      49.326  27.389  23.970  1.00  0.00    -0.206 F 
ATOM     77  C   UNL A   1      51.457  26.515  24.425  1.00  0.00     0.059 A 
ATOM     78  C   UNL A   1      51.927  25.563  26.610  1.00  0.00     0.059 A 
ATOM     79  F   UNL A   1      50.239  25.516  28.241  1.00  0.00    -0.206 F 
ATOM     80  C   UNL A   1      52.338  25.910  25.324  1.00  0.00     0.060 A 
BRANCH  80  81
ATOM     81  S   UNL A   1      54.053  25.652  24.815  1.00  0.00     0.124 S 
ATOM     82  O   UNL A   1      54.019  26.097  23.427  1.00  0.00    -0.237 OA
ATOM     83  O   UNL A   1      54.781  26.511  25.745  1.00  0.00    -0.237 OA
ATOM     84  O   UNL A   1      54.249  24.219  25.017  1.00  0.00    -0.744 OA
ENDBRANCH  80  81
ENDBRANCH  48  73
BRANCH  60  85
ATOM     85  C   UNL A   1      46.833  32.391  28.436  1.00  0.00     0.058 A 
ATOM     86  C   UNL A   1      46.837  33.377  27.438  1.00  0.00     0.135 A 
ATOM     87  C   UNL A   1      47.318  32.738  29.706  1.00  0.00     0.135 A 
ATOM     88  F   UNL A   1      46.390  33.091  26.204  1.00  0.00    -0.206 F 
ATOM     89  C   UNL A   1      47.317  34.657  27.686  1.00  0.00     0.059 A 
ATOM     90  C   UNL A   1      47.784  34.019  29.983  1.00  0.00     0.059 A 
ATOM     91  F   UNL A   1      47.328  31.832  30.697  1.00  0.00    -0.206 F 
ATOM     92  C   UNL A   1      47.789  34.970  28.962  1.00  0.00     0.060 A 
BRANCH  92  93
ATOM     93  S   UNL A   1      48.373  36.647  29.286  1.00  0.00     0.124 S 
ATOM     94  O   UNL A   1      48.807  36.542  30.676  1.00  0.00    -0.237 OA
ATOM     95  O   UNL A   1      49.438  36.804  28.300  1.00  0.00    -0.237 OA
ATOM     96  O   UNL A   1      47.189  37.469  29.057  1.00  0.00    -0.744 OA
ENDBRANCH  92  93
ENDBRANCH  60  85
ENDBRANCH  34  35
ENDBRANCH  26  29
ENDBRANCH  24  25
ENDBRANCH  23  24
ENDBRANCH   1  23
TORSDOF 18
ENDMDL
MODEL 2
REMARK VINA RESULT:     -11.3      6.329     11.142
REMARK SMILES COC[C@H](C)Oc1cnc2ccccc2c1C(=O)NCCCCNC(=O)c1ccc(-c2c3nc(c(-c4c(F)cc(S(=O)(=O)[O-])cc4F)c4ccc([nH]4)c(-c4c(F)cc(S(=O)(=O)[O-])cc4F)c4nc(c(-c5c(F)cc(S(=O)(=O)[O-])cc5F)c5ccc2[nH]5)C=C4)C=C3)cc1
REMARK SMILES IDX 21 1 20 2 19 3 17 4 18 5 16 7 7 8 8 9 9 10 15 11 10 12 14 13
REMARK SMILES IDX 11 14 13 15 12 16 6 17 4 18 5 19 3 20 2 21 1 22 22 23 23 24
REMARK SMILES IDX 24 25 25 26 26 28 27 29 28 30 92 31 29 32 91 33 30 34 31 35
REMARK SMILES IDX 32 36 85 37 33 38 90 39 84 40 86 41 34 42 89 43 83 44 82 45
REMARK SMILES IDX 35 47 69 48 48 49 68 50 49 51 52 52 67 53 87 54 50 55 51 56
REMARK SMILES IDX 66 58 88 59 53 60 36 61 37 62 46 63 38 64 39 65 45 66 47 67
REMARK SMILES IDX 40 68 41 69 42 70 43 71 44 72 70 73 71 74 80 75 72 76 73 77
REMARK SMILES IDX 79 78 81 79 74 80 75 81 76 82 77 83 78 84 54 85 55 86 64 87
REMARK SMILES IDX 56 88 57 89 63 90 65 91 58 92 59 93 60 94 61 95 62 96
REMARK H PARENT 19 6 24 27 86 46 52 57
REMARK Flexibility Score: inf
ROOT
ATOM      1  C   UNL A   1      38.031  23.738  25.911  1.00  0.00     0.023 C 
ENDROOT
BRANCH   1   2
ATOM      2  C   UNL A   1      36.707  23.260  25.288  1.00  0.00     0.116 C 
BRANCH   2   3
ATOM      3  N   UNL A   1      36.015  22.414  26.248  1.00  0.00    -0.352 N 
ATOM      4  C   UNL A   1      34.774  21.824  26.322  1.00  0.00     0.255 C 
ATOM      5  O   UNL A   1      34.443  21.491  27.463  1.00  0.00    -0.269 OA
ATOM      6  H   UNL A   1      36.569  22.216  27.037  1.00  0.00     0.163 HD
BRANCH   4   7
ATOM      7  C   UNL A   1      33.880  21.468  25.158  1.00  0.00     0.092 A 
ATOM      8  C   UNL A   1      33.126  22.531  24.605  1.00  0.00     0.151 A 
ATOM      9  C   UNL A   1      32.257  22.231  23.573  1.00  0.00     0.159 A 
ATOM     10  N   UNL A   1      32.011  20.991  23.110  1.00  0.00    -0.252 NA
ATOM     11  C   UNL A   1      33.759  20.174  24.559  1.00  0.00     0.017 A 
ATOM     12  C   UNL A   1      32.749  19.992  23.589  1.00  0.00     0.071 A 
ATOM     13  C   UNL A   1      34.602  19.065  24.782  1.00  0.00     0.011 A 
ATOM     14  C   UNL A   1      32.510  18.736  23.049  1.00  0.00     0.029 A 
ATOM     15  C   UNL A   1      34.342  17.797  24.257  1.00  0.00     0.001 A 
ATOM     16  C   UNL A   1      33.271  17.626  23.402  1.00  0.00     0.002 A 
BRANCH   8  17
ATOM     17  O   UNL A   1      33.361  23.813  25.010  1.00  0.00    -0.486 OA
BRANCH  17  18
ATOM     18  C   UNL A   1      32.377  24.609  25.686  1.00  0.00     0.196 C 
ATOM     19  C   UNL A   1      31.675  23.883  26.835  1.00  0.00     0.055 C 
BRANCH  18  20
ATOM     20  C   UNL A   1      32.861  26.029  26.024  1.00  0.00     0.204 C 
BRANCH  20  21
ATOM     21  O   UNL A   1      32.690  26.961  24.956  1.00  0.00    -0.381 OA
ATOM     22  C   UNL A   1      33.705  27.955  24.903  1.00  0.00     0.195 C 
ENDBRANCH  20  21
ENDBRANCH  18  20
ENDBRANCH  17  18
ENDBRANCH   8  17
ENDBRANCH   4   7
ENDBRANCH   2   3
ENDBRANCH   1   2
BRANCH   1  23
ATOM     23  C   UNL A   1      38.822  22.698  26.697  1.00  0.00     0.023 C 
BRANCH  23  24
ATOM     24  C   UNL A   1      40.236  23.119  27.066  1.00  0.00     0.116 C 
BRANCH  24  25
ATOM     25  N   UNL A   1      40.913  23.894  26.033  1.00  0.00    -0.352 N 
ATOM     26  C   UNL A   1      41.441  25.161  26.122  1.00  0.00     0.251 C 
ATOM     27  H   UNL A   1      41.004  23.453  25.157  1.00  0.00     0.163 HD
ATOM     28  O   UNL A   1      41.928  25.703  25.133  1.00  0.00    -0.269 OA
BRANCH  26  29
ATOM     29  C   UNL A   1      41.361  25.875  27.410  1.00  0.00     0.039 A 
ATOM     30  C   UNL A   1      42.491  26.546  27.882  1.00  0.00     0.014 A 
ATOM     31  C   UNL A   1      40.142  25.968  28.086  1.00  0.00     0.014 A 
ATOM     32  C   UNL A   1      42.372  27.394  28.984  1.00  0.00     0.010 A 
ATOM     33  C   UNL A   1      40.006  26.879  29.124  1.00  0.00     0.010 A 
ATOM     34  C   UNL A   1      41.117  27.607  29.577  1.00  0.00    -0.014 A 
BRANCH  34  35
ATOM     35  C   UNL A   1      40.931  28.609  30.653  1.00  0.00     0.031 A 
ATOM     36  C   UNL A   1      41.743  28.520  31.913  1.00  0.00     0.074 A 
ATOM     37  C   UNL A   1      39.957  29.533  30.538  1.00  0.00     0.049 A 
ATOM     38  N   UNL A   1      41.667  29.245  32.998  1.00  0.00    -0.248 NA
ATOM     39  C   UNL A   1      42.744  27.442  31.977  1.00  0.00     0.031 C 
ATOM     40  C   UNL A   1      39.043  29.663  29.400  1.00  0.00     0.029 A 
ATOM     41  N   UNL A   1      39.557  30.525  31.397  1.00  0.00    -0.354 N 
ATOM     42  C   UNL A   1      42.588  28.698  33.881  1.00  0.00     0.074 A 
ATOM     43  C   UNL A   1      43.170  27.546  33.227  1.00  0.00     0.031 C 
ATOM     44  C   UNL A   1      38.204  30.686  29.624  1.00  0.00     0.029 A 
ATOM     45  C   UNL A   1      38.499  31.267  30.930  1.00  0.00     0.049 A 
ATOM     46  H   UNL A   1      39.989  30.690  32.266  1.00  0.00     0.167 HD
ATOM     47  C   UNL A   1      42.937  29.130  35.117  1.00  0.00     0.037 A 
ATOM     48  C   UNL A   1      37.839  32.298  31.492  1.00  0.00     0.037 A 
ATOM     49  C   UNL A   1      42.380  30.298  35.744  1.00  0.00     0.049 A 
ATOM     50  C   UNL A   1      38.276  32.799  32.838  1.00  0.00     0.074 A 
ATOM     51  C   UNL A   1      42.731  30.881  36.948  1.00  0.00     0.029 A 
ATOM     52  N   UNL A   1      41.347  31.061  35.216  1.00  0.00    -0.354 N 
ATOM     53  N   UNL A   1      39.217  32.331  33.623  1.00  0.00    -0.248 NA
ATOM     54  C   UNL A   1      37.573  33.973  33.371  1.00  0.00     0.031 C 
ATOM     55  C   UNL A   1      41.888  31.979  37.164  1.00  0.00     0.029 A 
ATOM     56  C   UNL A   1      41.034  32.099  36.078  1.00  0.00     0.049 A 
ATOM     57  H   UNL A   1      40.902  30.890  34.354  1.00  0.00     0.167 HD
ATOM     58  C   UNL A   1      39.227  33.156  34.740  1.00  0.00     0.074 A 
ATOM     59  C   UNL A   1      38.208  34.165  34.521  1.00  0.00     0.031 C 
ATOM     60  C   UNL A   1      40.008  33.086  35.846  1.00  0.00     0.037 A 
BRANCH  47  61
ATOM     61  C   UNL A   1      43.969  28.326  35.855  1.00  0.00     0.058 A 
ATOM     62  C   UNL A   1      43.605  27.312  36.757  1.00  0.00     0.135 A 
ATOM     63  C   UNL A   1      45.337  28.592  35.686  1.00  0.00     0.135 A 
ATOM     64  F   UNL A   1      42.311  27.027  36.968  1.00  0.00    -0.206 F 
ATOM     65  C   UNL A   1      44.557  26.630  37.507  1.00  0.00     0.059 A 
ATOM     66  C   UNL A   1      46.309  27.902  36.406  1.00  0.00     0.059 A 
ATOM     67  F   UNL A   1      45.740  29.548  34.835  1.00  0.00    -0.206 F 
ATOM     68  C   UNL A   1      45.906  26.942  37.334  1.00  0.00     0.060 A 
BRANCH  68  69
ATOM     69  S   UNL A   1      47.130  26.087  38.348  1.00  0.00     0.124 S 
ATOM     70  O   UNL A   1      46.314  25.650  39.477  1.00  0.00    -0.237 OA
ATOM     71  O   UNL A   1      47.596  25.028  37.459  1.00  0.00    -0.237 OA
ATOM     72  O   UNL A   1      48.109  27.127  38.646  1.00  0.00    -0.744 OA
ENDBRANCH  68  69
ENDBRANCH  47  61
BRANCH  48  73
ATOM     73  C   UNL A   1      36.722  32.936  30.749  1.00  0.00     0.058 A 
ATOM     74  C   UNL A   1      35.389  32.704  31.119  1.00  0.00     0.135 A 
ATOM     75  C   UNL A   1      36.965  33.846  29.709  1.00  0.00     0.135 A 
ATOM     76  F   UNL A   1      35.108  31.839  32.105  1.00  0.00    -0.206 F 
ATOM     77  C   UNL A   1      34.335  33.359  30.491  1.00  0.00     0.059 A 
ATOM     78  C   UNL A   1      35.928  34.526  29.077  1.00  0.00     0.059 A 
ATOM     79  F   UNL A   1      38.225  34.113  29.331  1.00  0.00    -0.206 F 
ATOM     80  C   UNL A   1      34.617  34.277  29.478  1.00  0.00     0.060 A 
BRANCH  80  81
ATOM     81  S   UNL A   1      33.249  35.199  28.741  1.00  0.00     0.124 S 
ATOM     82  O   UNL A   1      32.606  34.175  27.928  1.00  0.00    -0.237 OA
ATOM     83  O   UNL A   1      32.506  35.640  29.919  1.00  0.00    -0.237 OA
ATOM     84  O   UNL A   1      33.922  36.264  28.004  1.00  0.00    -0.744 OA
ENDBRANCH  80  81
ENDBRANCH  48  73
BRANCH  60  85
ATOM     85  C   UNL A   1      39.792  34.127  36.907  1.00  0.00     0.058 A 
ATOM     86  C   UNL A   1      39.025  33.857  38.051  1.00  0.00     0.135 A 
ATOM     87  C   UNL A   1      40.402  35.386  36.806  1.00  0.00     0.135 A 
ATOM     88  F   UNL A   1      38.414  32.669  38.190  1.00  0.00    -0.206 F 
ATOM     89  C   UNL A   1      38.857  34.807  39.052  1.00  0.00     0.059 A 
ATOM     90  C   UNL A   1      40.266  36.344  37.805  1.00  0.00     0.059 A 
ATOM     91  F   UNL A   1      41.153  35.690  35.735  1.00  0.00    -0.206 F 
ATOM     92  C   UNL A   1      39.482  36.048  38.921  1.00  0.00     0.060 A 
BRANCH  92  93
ATOM     93  S   UNL A   1      39.291  37.261  40.244  1.00  0.00     0.124 S 
ATOM     94  O   UNL A   1      40.682  37.574  40.556  1.00  0.00    -0.237 OA
ATOM     95  O   UNL A   1      38.533  38.323  39.590  1.00  0.00    -0.237 OA
ATOM     96  O   UNL A   1      38.566  36.526  41.275  1.00  0.00    -0.744 OA
ENDBRANCH  92  93
ENDBRANCH  60  85
ENDBRANCH  34  35
ENDBRANCH  26  29
ENDBRANCH  24  25
ENDBRANCH  23  24
ENDBRANCH   1  23
TORSDOF 18
ENDMDL
MODEL 3
REMARK VINA RESULT:     -11.1      2.805      8.631
REMARK SMILES COC[C@H](C)Oc1cnc2ccccc2c1C(=O)NCCCCNC(=O)c1ccc(-c2c3nc(c(-c4c(F)cc(S(=O)(=O)[O-])cc4F)c4ccc([nH]4)c(-c4c(F)cc(S(=O)(=O)[O-])cc4F)c4nc(c(-c5c(F)cc(S(=O)(=O)[O-])cc5F)c5ccc2[nH]5)C=C4)C=C3)cc1
REMARK SMILES IDX 21 1 20 2 19 3 17 4 18 5 16 7 7 8 8 9 9 10 15 11 10 12 14 13
REMARK SMILES IDX 11 14 13 15 12 16 6 17 4 18 5 19 3 20 2 21 1 22 22 23 23 24
REMARK SMILES IDX 24 25 25 26 26 28 27 29 28 30 92 31 29 32 91 33 30 34 31 35
REMARK SMILES IDX 32 36 85 37 33 38 90 39 84 40 86 41 34 42 89 43 83 44 82 45
REMARK SMILES IDX 35 47 69 48 48 49 68 50 49 51 52 52 67 53 87 54 50 55 51 56
REMARK SMILES IDX 66 58 88 59 53 60 36 61 37 62 46 63 38 64 39 65 45 66 47 67
REMARK SMILES IDX 40 68 41 69 42 70 43 71 44 72 70 73 71 74 80 75 72 76 73 77
REMARK SMILES IDX 79 78 81 79 74 80 75 81 76 82 77 83 78 84 54 85 55 86 64 87
REMARK SMILES IDX 56 88 57 89 63 90 65 91 58 92 59 93 60 94 61 95 62 96
REMARK H PARENT 19 6 24 27 86 46 52 57
REMARK Flexibility Score: inf
ROOT
ATOM      1  C   UNL A   1      34.781  29.548  27.193  1.00  0.00     0.023 C 
ENDROOT
BRANCH   1   2
ATOM      2  C   UNL A   1      33.601  28.568  27.067  1.00  0.00     0.116 C 
BRANCH   2   3
ATOM      3  N   UNL A   1      33.561  28.052  25.708  1.00  0.00    -0.352 N 
ATOM      4  C   UNL A   1      33.325  26.827  25.127  1.00  0.00     0.255 C 
ATOM      5  O   UNL A   1      33.744  26.729  23.971  1.00  0.00    -0.269 OA
ATOM      6  H   UNL A   1      33.749  28.750  25.040  1.00  0.00     0.163 HD
BRANCH   4   7
ATOM      7  C   UNL A   1      32.532  25.690  25.727  1.00  0.00     0.092 A 
ATOM      8  C   UNL A   1      31.125  25.845  25.726  1.00  0.00     0.151 A 
ATOM      9  C   UNL A   1      30.370  24.847  26.316  1.00  0.00     0.159 A 
ATOM     10  N   UNL A   1      30.876  23.782  26.964  1.00  0.00    -0.252 NA
ATOM     11  C   UNL A   1      33.076  24.477  26.256  1.00  0.00     0.017 A 
ATOM     12  C   UNL A   1      32.194  23.602  26.928  1.00  0.00     0.071 A 
ATOM     13  C   UNL A   1      34.402  24.019  26.111  1.00  0.00     0.011 A 
ATOM     14  C   UNL A   1      32.678  22.462  27.557  1.00  0.00     0.029 A 
ATOM     15  C   UNL A   1      34.890  22.886  26.766  1.00  0.00     0.001 A 
ATOM     16  C   UNL A   1      34.025  22.114  27.517  1.00  0.00     0.002 A 
BRANCH   8  17
ATOM     17  O   UNL A   1      30.556  26.887  25.053  1.00  0.00    -0.486 OA
BRANCH  17  18
ATOM     18  C   UNL A   1      29.934  26.737  23.769  1.00  0.00     0.196 C 
ATOM     19  C   UNL A   1      28.405  26.742  23.814  1.00  0.00     0.055 C 
BRANCH  18  20
ATOM     20  C   UNL A   1      30.547  27.635  22.681  1.00  0.00     0.204 C 
BRANCH  20  21
ATOM     21  O   UNL A   1      30.609  29.014  23.047  1.00  0.00    -0.381 OA
ATOM     22  C   UNL A   1      29.800  29.853  22.234  1.00  0.00     0.195 C 
ENDBRANCH  20  21
ENDBRANCH  18  20
ENDBRANCH  17  18
ENDBRANCH   8  17
ENDBRANCH   4   7
ENDBRANCH   2   3
ENDBRANCH   1   2
BRANCH   1  23
ATOM     23  C   UNL A   1      34.485  30.879  27.874  1.00  0.00     0.023 C 
BRANCH  23  24
ATOM     24  C   UNL A   1      35.676  31.518  28.570  1.00  0.00     0.116 C 
BRANCH  24  25
ATOM     25  N   UNL A   1      35.596  31.494  30.026  1.00  0.00    -0.352 N 
ATOM     26  C   UNL A   1      36.452  30.894  30.920  1.00  0.00     0.251 C 
ATOM     27  H   UNL A   1      34.829  31.968  30.421  1.00  0.00     0.163 HD
ATOM     28  O   UNL A   1      36.209  30.912  32.123  1.00  0.00    -0.269 OA
BRANCH  26  29
ATOM     29  C   UNL A   1      37.637  30.184  30.402  1.00  0.00     0.039 A 
ATOM     30  C   UNL A   1      37.982  30.336  29.057  1.00  0.00     0.014 A 
ATOM     31  C   UNL A   1      38.458  29.462  31.271  1.00  0.00     0.014 A 
ATOM     32  C   UNL A   1      39.208  29.845  28.606  1.00  0.00     0.010 A 
ATOM     33  C   UNL A   1      39.713  29.055  30.842  1.00  0.00     0.010 A 
ATOM     34  C   UNL A   1      40.103  29.250  29.509  1.00  0.00    -0.014 A 
BRANCH  34  35
ATOM     35  C   UNL A   1      41.469  28.850  29.091  1.00  0.00     0.031 A 
ATOM     36  C   UNL A   1      42.566  29.873  29.028  1.00  0.00     0.074 A 
ATOM     37  C   UNL A   1      41.690  27.590  28.667  1.00  0.00     0.049 A 
ATOM     38  N   UNL A   1      43.797  29.739  28.609  1.00  0.00    -0.248 NA
ATOM     39  C   UNL A   1      42.220  31.239  29.454  1.00  0.00     0.031 C 
ATOM     40  C   UNL A   1      40.681  26.531  28.597  1.00  0.00     0.029 A 
ATOM     41  N   UNL A   1      42.830  26.992  28.195  1.00  0.00    -0.354 N 
ATOM     42  C   UNL A   1      44.363  31.004  28.694  1.00  0.00     0.074 A 
ATOM     43  C   UNL A   1      43.326  31.903  29.151  1.00  0.00     0.031 C 
ATOM     44  C   UNL A   1      41.251  25.410  28.128  1.00  0.00     0.029 A 
ATOM     45  C   UNL A   1      42.657  25.676  27.838  1.00  0.00     0.049 A 
ATOM     46  H   UNL A   1      43.693  27.461  28.120  1.00  0.00     0.167 HD
ATOM     47  C   UNL A   1      45.640  31.380  28.439  1.00  0.00     0.037 A 
ATOM     48  C   UNL A   1      43.530  24.785  27.332  1.00  0.00     0.037 A 
ATOM     49  C   UNL A   1      46.674  30.472  28.020  1.00  0.00     0.049 A 
ATOM     50  C   UNL A   1      44.955  25.204  27.108  1.00  0.00     0.074 A 
ATOM     51  C   UNL A   1      48.019  30.727  27.830  1.00  0.00     0.029 A 
ATOM     52  N   UNL A   1      46.474  29.131  27.722  1.00  0.00    -0.354 N 
ATOM     53  N   UNL A   1      45.502  26.383  27.286  1.00  0.00    -0.248 NA
ATOM     54  C   UNL A   1      45.884  24.174  26.626  1.00  0.00     0.031 C 
ATOM     55  C   UNL A   1      48.628  29.547  27.385  1.00  0.00     0.029 A 
ATOM     56  C   UNL A   1      47.667  28.549  27.331  1.00  0.00     0.049 A 
ATOM     57  H   UNL A   1      45.610  28.662  27.782  1.00  0.00     0.167 HD
ATOM     58  C   UNL A   1      46.840  26.238  26.946  1.00  0.00     0.074 A 
ATOM     59  C   UNL A   1      47.025  24.849  26.569  1.00  0.00     0.031 C 
ATOM     60  C   UNL A   1      47.828  27.168  26.947  1.00  0.00     0.037 A 
BRANCH  47  61
ATOM     61  C   UNL A   1      45.970  32.836  28.612  1.00  0.00     0.058 A 
ATOM     62  C   UNL A   1      45.880  33.742  27.542  1.00  0.00     0.135 A 
ATOM     63  C   UNL A   1      46.412  33.326  29.850  1.00  0.00     0.135 A 
ATOM     64  F   UNL A   1      45.478  33.323  26.332  1.00  0.00    -0.206 F 
ATOM     65  C   UNL A   1      46.272  35.069  27.679  1.00  0.00     0.059 A 
ATOM     66  C   UNL A   1      46.783  34.657  30.017  1.00  0.00     0.059 A 
ATOM     67  F   UNL A   1      46.514  32.504  30.906  1.00  0.00    -0.206 F 
ATOM     68  C   UNL A   1      46.735  35.514  28.918  1.00  0.00     0.060 A 
BRANCH  68  69
ATOM     69  S   UNL A   1      47.289  37.225  29.072  1.00  0.00     0.124 S 
ATOM     70  O   UNL A   1      47.313  37.390  30.522  1.00  0.00    -0.237 OA
ATOM     71  O   UNL A   1      48.593  37.197  28.418  1.00  0.00    -0.237 OA
ATOM     72  O   UNL A   1      46.255  37.979  28.370  1.00  0.00    -0.744 OA
ENDBRANCH  68  69
ENDBRANCH  47  61
BRANCH  48  73
ATOM     73  C   UNL A   1      43.072  23.402  27.045  1.00  0.00     0.058 A 
ATOM     74  C   UNL A   1      42.850  22.979  25.725  1.00  0.00     0.135 A 
ATOM     75  C   UNL A   1      42.922  22.456  28.070  1.00  0.00     0.135 A 
ATOM     76  F   UNL A   1      42.977  23.849  24.713  1.00  0.00    -0.206 F 
ATOM     77  C   UNL A   1      42.504  21.665  25.432  1.00  0.00     0.059 A 
ATOM     78  C   UNL A   1      42.594  21.132  27.800  1.00  0.00     0.059 A 
ATOM     79  F   UNL A   1      43.140  22.811  29.346  1.00  0.00    -0.206 F 
ATOM     80  C   UNL A   1      42.389  20.745  26.476  1.00  0.00     0.060 A 
BRANCH  80  81
ATOM     81  S   UNL A   1      42.043  19.018  26.075  1.00  0.00     0.124 S 
ATOM     82  O   UNL A   1      42.453  18.342  27.300  1.00  0.00    -0.237 OA
ATOM     83  O   UNL A   1      40.607  19.046  25.809  1.00  0.00    -0.237 OA
ATOM     84  O   UNL A   1      42.881  18.772  24.905  1.00  0.00    -0.744 OA
ENDBRANCH  80  81
ENDBRANCH  48  73
BRANCH  60  85
ATOM     85  C   UNL A   1      49.197  26.716  26.527  1.00  0.00     0.058 A 
ATOM     86  C   UNL A   1      49.663  26.917  25.218  1.00  0.00     0.135 A 
ATOM     87  C   UNL A   1      50.071  26.128  27.453  1.00  0.00     0.135 A 
ATOM     88  F   UNL A   1      48.861  27.470  24.293  1.00  0.00    -0.206 F 
ATOM     89  C   UNL A   1      50.944  26.536  24.839  1.00  0.00     0.059 A 
ATOM     90  C   UNL A   1      51.364  25.757  27.102  1.00  0.00     0.059 A 
ATOM     91  F   UNL A   1      49.675  25.922  28.720  1.00  0.00    -0.206 F 
ATOM     92  C   UNL A   1      51.789  25.957  25.788  1.00  0.00     0.060 A 
BRANCH  92  93
ATOM     93  S   UNL A   1      53.465  25.501  25.296  1.00  0.00     0.124 S 
ATOM     94  O   UNL A   1      53.380  25.599  23.842  1.00  0.00    -0.237 OA
ATOM     95  O   UNL A   1      54.274  26.522  25.954  1.00  0.00    -0.237 OA
ATOM     96  O   UNL A   1      53.619  24.150  25.827  1.00  0.00    -0.744 OA
ENDBRANCH  92  93
ENDBRANCH  60  85
ENDBRANCH  34  35
ENDBRANCH  26  29
ENDBRANCH  24  25
ENDBRANCH  23  24
ENDBRANCH   1  23
TORSDOF 18
ENDMDL
