MODEL 1
REMARK VINA RESULT:     -10.3      0.000      0.000
REMARK SMILES C[C@H]1C[NH+](CC[C@@H]2CCC[C@]2([NH3+])C(=O)NCCCCNC(=O)c2ccc(-c3c4nc(c(-c5c(F)cc(S(=O)(=O)[O-])cc5F)c5ccc([nH]5)c(-c5c(F)cc(S(=O)(=O)[O-])cc5F)c5nc(c(-c6c(F)cc(S(=O)(=O)[O-])cc6F)c6ccc3[nH]6)C=C5)C=C4)cc2)C[C@H](C)O1
REMARK SMILES IDX 17 1 16 2 15 3 13 4 14 5 11 7 7 8 8 9 9 10 10 11 6 12 5 13
REMARK SMILES IDX 4 14 1 15 2 16 3 17 92 18 90 19 89 20 91 22 12 23 18 27
REMARK SMILES IDX 19 28 20 29 21 30 22 32 23 33 24 34 88 35 25 36 87 37 26 38
REMARK SMILES IDX 27 39 28 40 81 41 29 42 86 43 80 44 82 45 30 46 85 47 79 48
REMARK SMILES IDX 78 49 31 51 65 52 44 53 64 54 45 55 48 56 63 57 83 58 46 59
REMARK SMILES IDX 47 60 62 62 84 63 49 64 32 65 33 66 42 67 34 68 35 69 41 70
REMARK SMILES IDX 43 71 36 72 37 73 38 74 39 75 40 76 66 77 67 78 76 79 68 80
REMARK SMILES IDX 69 81 75 82 77 83 70 84 71 85 72 86 73 87 74 88 50 89 51 90
REMARK SMILES IDX 60 91 52 92 53 93 59 94 61 95 54 96 55 97 56 98 57 99 58 100
REMARK H PARENT 15 6 4 21 12 24 12 25 12 26 20 31 82 50 48 61
REMARK Flexibility Score: inf
ROOT
ATOM      1  C   UNL A   1      36.737  33.516  28.643  1.00  0.00     0.023 C 
ENDROOT
BRANCH   1   2
ATOM      2  C   UNL A   1      36.981  33.010  30.070  1.00  0.00     0.116 C 
BRANCH   2   3
ATOM      3  N   UNL A   1      37.495  34.040  30.958  1.00  0.00    -0.351 N 
ATOM      4  C   UNL A   1      37.910  34.007  32.259  1.00  0.00     0.281 C 
ATOM      5  O   UNL A   1      38.403  35.061  32.682  1.00  0.00    -0.268 OA
ATOM      6  H   UNL A   1      37.555  34.930  30.542  1.00  0.00     0.163 HD
BRANCH   4   7
ATOM      7  C   UNL A   1      37.756  32.743  33.202  1.00  0.00     0.177 C 
ATOM      8  C   UNL A   1      36.341  32.583  33.851  1.00  0.00     0.066 C 
ATOM      9  C   UNL A   1      36.356  33.672  34.935  1.00  0.00     0.011 C 
ATOM     10  C   UNL A   1      37.809  33.832  35.379  1.00  0.00     0.008 C 
ATOM     11  C   UNL A   1      38.629  32.937  34.461  1.00  0.00     0.079 C 
BRANCH   8  12
ATOM     12  C   UNL A   1      35.208  32.637  32.822  1.00  0.00     0.072 C 
BRANCH  12  13
ATOM     13  C   UNL A   1      34.065  33.671  32.833  1.00  0.00     0.262 C 
BRANCH  13  14
ATOM     14  N   UNL A   1      34.136  34.868  31.989  1.00  0.00    -0.331 N 
ATOM     15  C   UNL A   1      33.831  38.621  32.766  1.00  0.00     0.045 C 
ATOM     16  C   UNL A   1      33.958  37.382  31.884  1.00  0.00     0.170 C 
ATOM     17  C   UNL A   1      34.173  36.128  32.743  1.00  0.00     0.294 C 
ATOM     18  O   UNL A   1      32.740  37.256  31.138  1.00  0.00    -0.364 OA
ATOM     19  C   UNL A   1      32.772  36.149  30.228  1.00  0.00     0.170 C 
ATOM     20  C   UNL A   1      33.172  34.816  30.893  1.00  0.00     0.294 C 
ATOM     21  H   UNL A   1      35.051  34.861  31.538  1.00  0.00     0.348 HD
ATOM     22  C   UNL A   1      33.629  36.478  29.011  1.00  0.00     0.045 C 
ENDBRANCH  13  14
ENDBRANCH  12  13
ENDBRANCH   8  12
BRANCH   7  23
ATOM     23  N   UNL A   1      38.222  31.532  32.497  1.00  0.00    -0.345 N 
ATOM     24  H   UNL A   1      38.253  31.713  31.494  1.00  0.00     0.345 HD
ATOM     25  H   UNL A   1      37.580  30.762  32.683  1.00  0.00     0.345 HD
ATOM     26  H   UNL A   1      39.155  31.284  32.827  1.00  0.00     0.345 HD
ENDBRANCH   7  23
ENDBRANCH   4   7
ENDBRANCH   2   3
ENDBRANCH   1   2
BRANCH   1  27
ATOM     27  C   UNL A   1      35.408  33.110  28.024  1.00  0.00     0.023 C 
BRANCH  27  28
ATOM     28  C   UNL A   1      34.512  32.312  28.951  1.00  0.00     0.116 C 
BRANCH  28  29
ATOM     29  N   UNL A   1      33.967  31.113  28.322  1.00  0.00    -0.352 N 
ATOM     30  C   UNL A   1      34.626  29.970  27.945  1.00  0.00     0.251 C 
ATOM     31  H   UNL A   1      32.999  31.127  28.145  1.00  0.00     0.163 HD
ATOM     32  O   UNL A   1      34.047  29.098  27.305  1.00  0.00    -0.269 OA
BRANCH  30  33
ATOM     33  C   UNL A   1      36.050  29.830  28.298  1.00  0.00     0.039 A 
ATOM     34  C   UNL A   1      36.396  29.349  29.563  1.00  0.00     0.014 A 
ATOM     35  C   UNL A   1      37.033  30.097  27.342  1.00  0.00     0.014 A 
ATOM     36  C   UNL A   1      37.732  29.066  29.842  1.00  0.00     0.010 A 
ATOM     37  C   UNL A   1      38.343  29.720  27.587  1.00  0.00     0.010 A 
ATOM     38  C   UNL A   1      38.708  29.212  28.843  1.00  0.00    -0.014 A 
BRANCH  38  39
ATOM     39  C   UNL A   1      40.128  28.865  29.087  1.00  0.00     0.031 A 
ATOM     40  C   UNL A   1      41.059  29.909  29.637  1.00  0.00     0.074 A 
ATOM     41  C   UNL A   1      40.593  27.652  28.728  1.00  0.00     0.049 A 
ATOM     42  N   UNL A   1      42.351  29.850  29.821  1.00  0.00    -0.248 NA
ATOM     43  C   UNL A   1      40.463  31.211  29.985  1.00  0.00     0.031 C 
ATOM     44  C   UNL A   1      39.799  26.586  28.112  1.00  0.00     0.029 A 
ATOM     45  N   UNL A   1      41.854  27.119  28.813  1.00  0.00    -0.354 N 
ATOM     46  C   UNL A   1      42.726  31.111  30.271  1.00  0.00     0.074 A 
ATOM     47  C   UNL A   1      41.535  31.930  30.279  1.00  0.00     0.031 C 
ATOM     48  C   UNL A   1      40.587  25.519  27.896  1.00  0.00     0.029 A 
ATOM     49  C   UNL A   1      41.944  25.836  28.327  1.00  0.00     0.049 A 
ATOM     50  H   UNL A   1      42.621  27.609  29.188  1.00  0.00     0.167 HD
ATOM     51  C   UNL A   1      43.947  31.539  30.668  1.00  0.00     0.037 A 
ATOM     52  C   UNL A   1      43.006  25.011  28.239  1.00  0.00     0.037 A 
ATOM     53  C   UNL A   1      45.112  30.697  30.711  1.00  0.00     0.049 A 
ATOM     54  C   UNL A   1      44.339  25.485  28.749  1.00  0.00     0.074 A 
ATOM     55  C   UNL A   1      46.377  31.000  31.180  1.00  0.00     0.029 A 
ATOM     56  N   UNL A   1      45.149  29.380  30.275  1.00  0.00    -0.354 N 
ATOM     57  N   UNL A   1      44.661  26.656  29.244  1.00  0.00    -0.248 NA
ATOM     58  C   UNL A   1      45.448  24.525  28.702  1.00  0.00     0.031 C 
ATOM     59  C   UNL A   1      47.187  29.874  31.003  1.00  0.00     0.029 A 
ATOM     60  C   UNL A   1      46.418  28.859  30.455  1.00  0.00     0.049 A 
ATOM     61  H   UNL A   1      44.386  28.889  29.894  1.00  0.00     0.167 HD
ATOM     62  C   UNL A   1      46.005  26.569  29.584  1.00  0.00     0.074 A 
ATOM     63  C   UNL A   1      46.432  25.224  29.252  1.00  0.00     0.031 C 
ATOM     64  C   UNL A   1      46.815  27.514  30.123  1.00  0.00     0.037 A 
BRANCH  51  65
ATOM     65  C   UNL A   1      44.070  32.973  31.101  1.00  0.00     0.058 A 
ATOM     66  C   UNL A   1      43.959  33.348  32.449  1.00  0.00     0.135 A 
ATOM     67  C   UNL A   1      44.305  33.985  30.157  1.00  0.00     0.135 A 
ATOM     68  F   UNL A   1      43.714  32.422  33.390  1.00  0.00    -0.206 F 
ATOM     69  C   UNL A   1      44.036  34.678  32.843  1.00  0.00     0.059 A 
ATOM     70  C   UNL A   1      44.414  35.321  30.533  1.00  0.00     0.059 A 
ATOM     71  F   UNL A   1      44.418  33.683  28.854  1.00  0.00    -0.206 F 
ATOM     72  C   UNL A   1      44.260  35.660  31.876  1.00  0.00     0.060 A 
BRANCH  72  73
ATOM     73  S   UNL A   1      44.348  37.385  32.400  1.00  0.00     0.124 S 
ATOM     74  O   UNL A   1      45.667  37.432  33.022  1.00  0.00    -0.237 OA
ATOM     75  O   UNL A   1      44.216  38.103  31.137  1.00  0.00    -0.237 OA
ATOM     76  O   UNL A   1      43.216  37.519  33.313  1.00  0.00    -0.744 OA
ENDBRANCH  72  73
ENDBRANCH  51  65
BRANCH  52  77
ATOM     77  C   UNL A   1      42.837  23.644  27.681  1.00  0.00     0.058 A 
ATOM     78  C   UNL A   1      42.598  22.549  28.523  1.00  0.00     0.135 A 
ATOM     79  C   UNL A   1      42.878  23.411  26.298  1.00  0.00     0.135 A 
ATOM     80  F   UNL A   1      42.552  22.723  29.852  1.00  0.00    -0.206 F 
ATOM     81  C   UNL A   1      42.417  21.265  28.016  1.00  0.00     0.059 A 
ATOM     82  C   UNL A   1      42.680  22.141  25.765  1.00  0.00     0.059 A 
ATOM     83  F   UNL A   1      43.084  24.430  25.450  1.00  0.00    -0.206 F 
ATOM     84  C   UNL A   1      42.458  21.072  26.635  1.00  0.00     0.060 A 
BRANCH  84  85
ATOM     85  S   UNL A   1      42.162  19.414  25.982  1.00  0.00     0.124 S 
ATOM     86  O   UNL A   1      43.055  19.389  24.829  1.00  0.00    -0.237 OA
ATOM     87  O   UNL A   1      42.546  18.567  27.107  1.00  0.00    -0.237 OA
ATOM     88  O   UNL A   1      40.734  19.424  25.676  1.00  0.00    -0.744 OA
ENDBRANCH  84  85
ENDBRANCH  52  77
BRANCH  64  89
ATOM     89  C   UNL A   1      48.234  27.121  30.411  1.00  0.00     0.058 A 
ATOM     90  C   UNL A   1      49.241  27.247  29.441  1.00  0.00     0.135 A 
ATOM     91  C   UNL A   1      48.602  26.669  31.688  1.00  0.00     0.135 A 
ATOM     92  F   UNL A   1      48.938  27.668  28.203  1.00  0.00    -0.206 F 
ATOM     93  C   UNL A   1      50.563  26.920  29.723  1.00  0.00     0.059 A 
ATOM     94  C   UNL A   1      49.921  26.359  32.000  1.00  0.00     0.059 A 
ATOM     95  F   UNL A   1      47.676  26.543  32.652  1.00  0.00    -0.206 F 
ATOM     96  C   UNL A   1      50.893  26.478  31.006  1.00  0.00     0.060 A 
BRANCH  96  97
ATOM     97  S   UNL A   1      52.618  26.094  31.374  1.00  0.00     0.124 S 
ATOM     98  O   UNL A   1      52.503  24.763  31.961  1.00  0.00    -0.237 OA
ATOM     99  O   UNL A   1      53.242  26.154  30.056  1.00  0.00    -0.237 OA
ATOM    100  O   UNL A   1      53.011  27.156  32.296  1.00  0.00    -0.744 OA
ENDBRANCH  96  97
ENDBRANCH  64  89
ENDBRANCH  38  39
ENDBRANCH  30  33
ENDBRANCH  28  29
ENDBRANCH  27  28
ENDBRANCH   1  27
TORSDOF 18
ENDMDL
MODEL 2
REMARK VINA RESULT:     -10.2      5.834     12.978
REMARK SMILES C[C@H]1C[NH+](CC[C@@H]2CCC[C@]2([NH3+])C(=O)NCCCCNC(=O)c2ccc(-c3c4nc(c(-c5c(F)cc(S(=O)(=O)[O-])cc5F)c5ccc([nH]5)c(-c5c(F)cc(S(=O)(=O)[O-])cc5F)c5nc(c(-c6c(F)cc(S(=O)(=O)[O-])cc6F)c6ccc3[nH]6)C=C5)C=C4)cc2)C[C@H](C)O1
REMARK SMILES IDX 17 1 16 2 15 3 13 4 14 5 11 7 7 8 8 9 9 10 10 11 6 12 5 13
REMARK SMILES IDX 4 14 1 15 2 16 3 17 92 18 90 19 89 20 91 22 12 23 18 27
REMARK SMILES IDX 19 28 20 29 21 30 22 32 23 33 24 34 88 35 25 36 87 37 26 38
REMARK SMILES IDX 27 39 28 40 81 41 29 42 86 43 80 44 82 45 30 46 85 47 79 48
REMARK SMILES IDX 78 49 31 51 65 52 44 53 64 54 45 55 48 56 63 57 83 58 46 59
REMARK SMILES IDX 47 60 62 62 84 63 49 64 32 65 33 66 42 67 34 68 35 69 41 70
REMARK SMILES IDX 43 71 36 72 37 73 38 74 39 75 40 76 66 77 67 78 76 79 68 80
REMARK SMILES IDX 69 81 75 82 77 83 70 84 71 85 72 86 73 87 74 88 50 89 51 90
REMARK SMILES IDX 60 91 52 92 53 93 59 94 61 95 54 96 55 97 56 98 57 99 58 100
REMARK H PARENT 15 6 4 21 12 24 12 25 12 26 20 31 82 50 48 61
REMARK Flexibility Score: inf
ROOT
ATOM      1  C   UNL A   1      38.994  22.427  26.120  1.00  0.00     0.023 C 
ENDROOT
BRANCH   1   2
ATOM      2  C   UNL A   1      38.210  21.227  25.576  1.00  0.00     0.116 C 
BRANCH   2   3
ATOM      3  N   UNL A   1      37.354  21.571  24.452  1.00  0.00    -0.351 N 
ATOM      4  C   UNL A   1      36.124  22.161  24.381  1.00  0.00     0.281 C 
ATOM      5  O   UNL A   1      35.725  22.413  23.236  1.00  0.00    -0.268 OA
ATOM      6  H   UNL A   1      37.733  21.333  23.575  1.00  0.00     0.163 HD
BRANCH   4   7
ATOM      7  C   UNL A   1      35.227  22.485  25.647  1.00  0.00     0.177 C 
ATOM      8  C   UNL A   1      33.695  22.594  25.347  1.00  0.00     0.066 C 
ATOM      9  C   UNL A   1      33.597  23.958  24.647  1.00  0.00     0.011 C 
ATOM     10  C   UNL A   1      34.718  24.827  25.215  1.00  0.00     0.008 C 
ATOM     11  C   UNL A   1      35.528  23.920  26.131  1.00  0.00     0.079 C 
BRANCH   8  12
ATOM     12  C   UNL A   1      33.151  21.380  24.589  1.00  0.00     0.072 C 
BRANCH  12  13
ATOM     13  C   UNL A   1      32.533  20.135  25.255  1.00  0.00     0.262 C 
BRANCH  13  14
ATOM     14  N   UNL A   1      32.795  18.796  24.717  1.00  0.00    -0.331 N 
ATOM     15  C   UNL A   1      32.223  15.267  26.129  1.00  0.00     0.045 C 
ATOM     16  C   UNL A   1      32.725  16.310  25.135  1.00  0.00     0.170 C 
ATOM     17  C   UNL A   1      32.222  17.708  25.520  1.00  0.00     0.294 C 
ATOM     18  O   UNL A   1      34.158  16.284  25.170  1.00  0.00    -0.364 OA
ATOM     19  C   UNL A   1      34.741  17.191  24.225  1.00  0.00     0.170 C 
ATOM     20  C   UNL A   1      34.196  18.630  24.337  1.00  0.00     0.294 C 
ATOM     21  H   UNL A   1      32.272  18.718  23.845  1.00  0.00     0.348 HD
ATOM     22  C   UNL A   1      34.640  16.634  22.811  1.00  0.00     0.045 C 
ENDBRANCH  13  14
ENDBRANCH  12  13
ENDBRANCH   8  12
BRANCH   7  23
ATOM     23  N   UNL A   1      35.549  21.548  26.742  1.00  0.00    -0.345 N 
ATOM     24  H   UNL A   1      35.671  20.611  26.362  1.00  0.00     0.345 HD
ATOM     25  H   UNL A   1      34.787  21.544  27.420  1.00  0.00     0.345 HD
ATOM     26  H   UNL A   1      36.410  21.845  27.201  1.00  0.00     0.345 HD
ENDBRANCH   7  23
ENDBRANCH   4   7
ENDBRANCH   2   3
ENDBRANCH   1   2
BRANCH   1  27
ATOM     27  C   UNL A   1      40.153  22.086  27.045  1.00  0.00     0.023 C 
BRANCH  27  28
ATOM     28  C   UNL A   1      41.074  23.253  27.338  1.00  0.00     0.116 C 
BRANCH  28  29
ATOM     29  N   UNL A   1      41.336  24.079  26.165  1.00  0.00    -0.352 N 
ATOM     30  C   UNL A   1      41.406  25.447  26.081  1.00  0.00     0.251 C 
ATOM     31  H   UNL A   1      41.481  23.591  25.323  1.00  0.00     0.163 HD
ATOM     32  O   UNL A   1      41.505  26.002  24.991  1.00  0.00    -0.269 OA
BRANCH  30  33
ATOM     33  C   UNL A   1      41.327  26.234  27.325  1.00  0.00     0.039 A 
ATOM     34  C   UNL A   1      42.368  27.108  27.647  1.00  0.00     0.014 A 
ATOM     35  C   UNL A   1      40.182  26.163  28.121  1.00  0.00     0.014 A 
ATOM     36  C   UNL A   1      42.223  27.967  28.735  1.00  0.00     0.010 A 
ATOM     37  C   UNL A   1      39.999  27.086  29.138  1.00  0.00     0.010 A 
ATOM     38  C   UNL A   1      41.022  27.989  29.463  1.00  0.00    -0.014 A 
BRANCH  38  39
ATOM     39  C   UNL A   1      40.812  28.929  30.589  1.00  0.00     0.031 A 
ATOM     40  C   UNL A   1      41.631  28.777  31.841  1.00  0.00     0.074 A 
ATOM     41  C   UNL A   1      39.830  29.849  30.520  1.00  0.00     0.049 A 
ATOM     42  N   UNL A   1      41.533  29.417  32.975  1.00  0.00    -0.248 NA
ATOM     43  C   UNL A   1      42.670  27.732  31.830  1.00  0.00     0.031 C 
ATOM     44  C   UNL A   1      38.920  30.037  29.387  1.00  0.00     0.029 A 
ATOM     45  N   UNL A   1      39.421  30.788  31.432  1.00  0.00    -0.354 N 
ATOM     46  C   UNL A   1      42.470  28.832  33.820  1.00  0.00     0.074 A 
ATOM     47  C   UNL A   1      43.086  27.750  33.086  1.00  0.00     0.031 C 
ATOM     48  C   UNL A   1      38.075  31.044  29.663  1.00  0.00     0.029 A 
ATOM     49  C   UNL A   1      38.362  31.551  31.001  1.00  0.00     0.049 A 
ATOM     50  H   UNL A   1      39.847  30.905  32.312  1.00  0.00     0.167 HD
ATOM     51  C   UNL A   1      42.805  29.183  35.083  1.00  0.00     0.037 A 
ATOM     52  C   UNL A   1      37.697  32.546  31.620  1.00  0.00     0.037 A 
ATOM     53  C   UNL A   1      42.225  30.299  35.781  1.00  0.00     0.049 A 
ATOM     54  C   UNL A   1      38.131  32.964  32.997  1.00  0.00     0.074 A 
ATOM     55  C   UNL A   1      42.554  30.799  37.028  1.00  0.00     0.029 A 
ATOM     56  N   UNL A   1      41.202  31.093  35.285  1.00  0.00    -0.354 N 
ATOM     57  N   UNL A   1      39.072  32.450  33.754  1.00  0.00    -0.248 NA
ATOM     58  C   UNL A   1      37.426  34.102  33.601  1.00  0.00     0.031 C 
ATOM     59  C   UNL A   1      41.709  31.881  37.297  1.00  0.00     0.029 A 
ATOM     60  C   UNL A   1      40.878  32.075  36.205  1.00  0.00     0.049 A 
ATOM     61  H   UNL A   1      40.769  30.975  34.409  1.00  0.00     0.167 HD
ATOM     62  C   UNL A   1      39.084  33.213  34.915  1.00  0.00     0.074 A 
ATOM     63  C   UNL A   1      38.067  34.233  34.754  1.00  0.00     0.031 C 
ATOM     64  C   UNL A   1      39.866  33.084  36.016  1.00  0.00     0.037 A 
BRANCH  51  65
ATOM     65  C   UNL A   1      43.855  28.360  35.774  1.00  0.00     0.058 A 
ATOM     66  C   UNL A   1      43.516  27.281  36.607  1.00  0.00     0.135 A 
ATOM     67  C   UNL A   1      45.217  28.652  35.602  1.00  0.00     0.135 A 
ATOM     68  F   UNL A   1      42.228  26.972  36.821  1.00  0.00    -0.206 F 
ATOM     69  C   UNL A   1      44.488  26.545  37.275  1.00  0.00     0.059 A 
ATOM     70  C   UNL A   1      46.208  27.909  36.239  1.00  0.00     0.059 A 
ATOM     71  F   UNL A   1      45.598  29.674  34.819  1.00  0.00    -0.206 F 
ATOM     72  C   UNL A   1      45.832  26.869  37.088  1.00  0.00     0.060 A 
BRANCH  72  73
ATOM     73  S   UNL A   1      47.082  25.912  37.970  1.00  0.00     0.124 S 
ATOM     74  O   UNL A   1      47.435  24.906  36.972  1.00  0.00    -0.237 OA
ATOM     75  O   UNL A   1      48.106  26.913  38.248  1.00  0.00    -0.237 OA
ATOM     76  O   UNL A   1      46.365  25.413  39.139  1.00  0.00    -0.744 OA
ENDBRANCH  72  73
ENDBRANCH  51  65
BRANCH  52  77
ATOM     77  C   UNL A   1      36.580  33.235  30.923  1.00  0.00     0.058 A 
ATOM     78  C   UNL A   1      35.252  33.043  31.330  1.00  0.00     0.135 A 
ATOM     79  C   UNL A   1      36.818  34.120  29.861  1.00  0.00     0.135 A 
ATOM     80  F   UNL A   1      34.975  32.204  32.339  1.00  0.00    -0.206 F 
ATOM     81  C   UNL A   1      34.195  33.694  30.701  1.00  0.00     0.059 A 
ATOM     82  C   UNL A   1      35.780  34.799  29.229  1.00  0.00     0.059 A 
ATOM     83  F   UNL A   1      38.073  34.352  29.447  1.00  0.00    -0.206 F 
ATOM     84  C   UNL A   1      34.470  34.573  29.652  1.00  0.00     0.060 A 
BRANCH  84  85
ATOM     85  S   UNL A   1      33.098  35.460  28.881  1.00  0.00     0.124 S 
ATOM     86  O   UNL A   1      33.804  36.467  28.098  1.00  0.00    -0.237 OA
ATOM     87  O   UNL A   1      32.438  34.405  28.118  1.00  0.00    -0.237 OA
ATOM     88  O   UNL A   1      32.341  35.963  30.023  1.00  0.00    -0.744 OA
ENDBRANCH  84  85
ENDBRANCH  52  77
BRANCH  64  89
ATOM     89  C   UNL A   1      39.671  34.082  37.120  1.00  0.00     0.058 A 
ATOM     90  C   UNL A   1      38.822  33.818  38.206  1.00  0.00     0.135 A 
ATOM     91  C   UNL A   1      40.385  35.290  37.120  1.00  0.00     0.135 A 
ATOM     92  F   UNL A   1      38.113  32.679  38.248  1.00  0.00    -0.206 F 
ATOM     93  C   UNL A   1      38.674  34.727  39.247  1.00  0.00     0.059 A 
ATOM     94  C   UNL A   1      40.271  36.204  38.162  1.00  0.00     0.059 A 
ATOM     95  F   UNL A   1      41.217  35.583  36.108  1.00  0.00    -0.206 F 
ATOM     96  C   UNL A   1      39.405  35.917  39.216  1.00  0.00     0.060 A 
BRANCH  96  97
ATOM     97  S   UNL A   1      39.236  37.074  40.592  1.00  0.00     0.124 S 
ATOM     98  O   UNL A   1      38.662  36.219  41.625  1.00  0.00    -0.237 OA
ATOM     99  O   UNL A   1      40.614  37.500  40.816  1.00  0.00    -0.237 OA
ATOM    100  O   UNL A   1      38.347  38.103  40.061  1.00  0.00    -0.744 OA
ENDBRANCH  96  97
ENDBRANCH  64  89
ENDBRANCH  38  39
ENDBRANCH  30  33
ENDBRANCH  28  29
ENDBRANCH  27  28
ENDBRANCH   1  27
TORSDOF 18
ENDMDL
MODEL 3
REMARK VINA RESULT:      -9.9      5.186     11.784
REMARK SMILES C[C@H]1C[NH+](CC[C@@H]2CCC[C@]2([NH3+])C(=O)NCCCCNC(=O)c2ccc(-c3c4nc(c(-c5c(F)cc(S(=O)(=O)[O-])cc5F)c5ccc([nH]5)c(-c5c(F)cc(S(=O)(=O)[O-])cc5F)c5nc(c(-c6c(F)cc(S(=O)(=O)[O-])cc6F)c6ccc3[nH]6)C=C5)C=C4)cc2)C[C@H](C)O1
REMARK SMILES IDX 17 1 16 2 15 3 13 4 14 5 11 7 7 8 8 9 9 10 10 11 6 12 5 13
REMARK SMILES IDX 4 14 1 15 2 16 3 17 92 18 90 19 89 20 91 22 12 23 18 27
REMARK SMILES IDX 19 28 20 29 21 30 22 32 23 33 24 34 88 35 25 36 87 37 26 38
REMARK SMILES IDX 27 39 28 40 81 41 29 42 86 43 80 44 82 45 30 46 85 47 79 48
REMARK SMILES IDX 78 49 31 51 65 52 44 53 64 54 45 55 48 56 63 57 83 58 46 59
REMARK SMILES IDX 47 60 62 62 84 63 49 64 32 65 33 66 42 67 34 68 35 69 41 70
REMARK SMILES IDX 43 71 36 72 37 73 38 74 39 75 40 76 66 77 67 78 76 79 68 80
REMARK SMILES IDX 69 81 75 82 77 83 70 84 71 85 72 86 73 87 74 88 50 89 51 90
REMARK SMILES IDX 60 91 52 92 53 93 59 94 61 95 54 96 55 97 56 98 57 99 58 100
REMARK H PARENT 15 6 4 21 12 24 12 25 12 26 20 31 82 50 48 61
REMARK Flexibility Score: inf
ROOT
ATOM      1  C   UNL A   1      38.185  23.876  26.453  1.00  0.00     0.023 C 
ENDROOT
BRANCH   1   2
ATOM      2  C   UNL A   1      36.989  23.484  25.577  1.00  0.00     0.116 C 
BRANCH   2   3
ATOM      3  N   UNL A   1      36.171  22.438  26.168  1.00  0.00    -0.351 N 
ATOM      4  C   UNL A   1      34.948  21.929  25.832  1.00  0.00     0.281 C 
ATOM      5  O   UNL A   1      34.586  20.947  26.494  1.00  0.00    -0.268 OA
ATOM      6  H   UNL A   1      36.575  22.015  26.960  1.00  0.00     0.163 HD
BRANCH   4   7
ATOM      7  C   UNL A   1      34.016  22.543  24.708  1.00  0.00     0.177 C 
ATOM      8  C   UNL A   1      32.831  23.411  25.248  1.00  0.00     0.066 C 
ATOM      9  C   UNL A   1      31.864  22.344  25.784  1.00  0.00     0.011 C 
ATOM     10  C   UNL A   1      32.073  21.092  24.933  1.00  0.00     0.008 C 
ATOM     11  C   UNL A   1      33.242  21.404  24.009  1.00  0.00     0.079 C 
BRANCH   8  12
ATOM     12  C   UNL A   1      33.288  24.494  26.229  1.00  0.00     0.072 C 
BRANCH  12  13
ATOM     13  C   UNL A   1      32.812  25.959  26.202  1.00  0.00     0.262 C 
BRANCH  13  14
ATOM     14  N   UNL A   1      32.322  26.559  24.957  1.00  0.00    -0.331 N 
ATOM     15  C   UNL A   1      34.095  28.387  22.076  1.00  0.00     0.045 C 
ATOM     16  C   UNL A   1      32.907  27.855  22.873  1.00  0.00     0.170 C 
ATOM     17  C   UNL A   1      33.388  26.976  24.035  1.00  0.00     0.294 C 
ATOM     18  O   UNL A   1      32.190  28.987  23.386  1.00  0.00    -0.364 OA
ATOM     19  C   UNL A   1      31.013  28.602  24.109  1.00  0.00     0.170 C 
ATOM     20  C   UNL A   1      31.282  27.553  25.208  1.00  0.00     0.294 C 
ATOM     21  H   UNL A   1      31.861  25.818  24.429  1.00  0.00     0.348 HD
ATOM     22  C   UNL A   1      29.908  28.178  23.149  1.00  0.00     0.045 C 
ENDBRANCH  13  14
ENDBRANCH  12  13
ENDBRANCH   8  12
BRANCH   7  23
ATOM     23  N   UNL A   1      34.839  23.234  23.695  1.00  0.00    -0.345 N 
ATOM     24  H   UNL A   1      35.698  22.707  23.539  1.00  0.00     0.345 HD
ATOM     25  H   UNL A   1      35.071  24.170  24.028  1.00  0.00     0.345 HD
ATOM     26  H   UNL A   1      34.318  23.303  22.822  1.00  0.00     0.345 HD
ENDBRANCH   7  23
ENDBRANCH   4   7
ENDBRANCH   2   3
ENDBRANCH   1   2
BRANCH   1  27
ATOM     27  C   UNL A   1      39.242  22.798  26.637  1.00  0.00     0.023 C 
BRANCH  27  28
ATOM     28  C   UNL A   1      40.609  23.331  27.017  1.00  0.00     0.116 C 
BRANCH  28  29
ATOM     29  N   UNL A   1      41.265  24.045  25.926  1.00  0.00    -0.352 N 
ATOM     30  C   UNL A   1      41.710  25.343  25.899  1.00  0.00     0.251 C 
ATOM     31  H   UNL A   1      41.405  23.527  25.101  1.00  0.00     0.163 HD
ATOM     32  O   UNL A   1      42.124  25.839  24.856  1.00  0.00    -0.269 OA
BRANCH  30  33
ATOM     33  C   UNL A   1      41.648  26.135  27.141  1.00  0.00     0.039 A 
ATOM     34  C   UNL A   1      42.621  27.107  27.379  1.00  0.00     0.014 A 
ATOM     35  C   UNL A   1      40.576  25.965  28.020  1.00  0.00     0.014 A 
ATOM     36  C   UNL A   1      42.476  27.962  28.470  1.00  0.00     0.010 A 
ATOM     37  C   UNL A   1      40.382  26.880  29.043  1.00  0.00     0.010 A 
ATOM     38  C   UNL A   1      41.336  27.880  29.285  1.00  0.00    -0.014 A 
BRANCH  38  39
ATOM     39  C   UNL A   1      41.121  28.810  30.418  1.00  0.00     0.031 A 
ATOM     40  C   UNL A   1      41.967  28.677  31.654  1.00  0.00     0.074 A 
ATOM     41  C   UNL A   1      40.112  29.702  30.371  1.00  0.00     0.049 A 
ATOM     42  N   UNL A   1      41.872  29.310  32.793  1.00  0.00    -0.248 NA
ATOM     43  C   UNL A   1      43.034  27.662  31.620  1.00  0.00     0.031 C 
ATOM     44  C   UNL A   1      39.176  29.869  29.256  1.00  0.00     0.029 A 
ATOM     45  N   UNL A   1      39.694  30.627  31.294  1.00  0.00    -0.354 N 
ATOM     46  C   UNL A   1      42.840  28.749  33.617  1.00  0.00     0.074 A 
ATOM     47  C   UNL A   1      43.473  27.687  32.869  1.00  0.00     0.031 C 
ATOM     48  C   UNL A   1      38.309  30.851  29.551  1.00  0.00     0.029 A 
ATOM     49  C   UNL A   1      38.606  31.361  30.885  1.00  0.00     0.049 A 
ATOM     50  H   UNL A   1      40.133  30.753  32.166  1.00  0.00     0.167 HD
ATOM     51  C   UNL A   1      43.189  29.106  34.875  1.00  0.00     0.037 A 
ATOM     52  C   UNL A   1      37.926  32.336  31.520  1.00  0.00     0.037 A 
ATOM     53  C   UNL A   1      42.592  30.203  35.588  1.00  0.00     0.049 A 
ATOM     54  C   UNL A   1      38.374  32.761  32.891  1.00  0.00     0.074 A 
ATOM     55  C   UNL A   1      42.929  30.709  36.830  1.00  0.00     0.029 A 
ATOM     56  N   UNL A   1      41.537  30.970  35.114  1.00  0.00    -0.354 N 
ATOM     57  N   UNL A   1      39.342  32.272  33.628  1.00  0.00    -0.248 NA
ATOM     58  C   UNL A   1      37.649  33.877  33.511  1.00  0.00     0.031 C 
ATOM     59  C   UNL A   1      42.060  31.766  37.120  1.00  0.00     0.029 A 
ATOM     60  C   UNL A   1      41.204  31.939  36.043  1.00  0.00     0.049 A 
ATOM     61  H   UNL A   1      41.092  30.843  34.246  1.00  0.00     0.167 HD
ATOM     62  C   UNL A   1      39.355  33.031  34.792  1.00  0.00     0.074 A 
ATOM     63  C   UNL A   1      38.307  34.023  34.653  1.00  0.00     0.031 C 
ATOM     64  C   UNL A   1      40.161  32.920  35.877  1.00  0.00     0.037 A 
BRANCH  51  65
ATOM     65  C   UNL A   1      44.275  28.310  35.544  1.00  0.00     0.058 A 
ATOM     66  C   UNL A   1      43.983  27.210  36.366  1.00  0.00     0.135 A 
ATOM     67  C   UNL A   1      45.624  28.650  35.360  1.00  0.00     0.135 A 
ATOM     68  F   UNL A   1      42.707  26.855  36.591  1.00  0.00    -0.206 F 
ATOM     69  C   UNL A   1      44.986  26.499  37.014  1.00  0.00     0.059 A 
ATOM     70  C   UNL A   1      46.647  27.934  35.977  1.00  0.00     0.059 A 
ATOM     71  F   UNL A   1      45.960  29.694  34.586  1.00  0.00    -0.206 F 
ATOM     72  C   UNL A   1      46.316  26.871  36.816  1.00  0.00     0.060 A 
BRANCH  72  73
ATOM     73  S   UNL A   1      47.608  25.946  37.671  1.00  0.00     0.124 S 
ATOM     74  O   UNL A   1      48.378  27.022  38.286  1.00  0.00    -0.237 OA
ATOM     75  O   UNL A   1      46.841  25.110  38.589  1.00  0.00    -0.237 OA
ATOM     76  O   UNL A   1      48.282  25.229  36.592  1.00  0.00    -0.744 OA
ENDBRANCH  72  73
ENDBRANCH  51  65
BRANCH  52  77
ATOM     77  C   UNL A   1      36.777  32.995  30.846  1.00  0.00     0.058 A 
ATOM     78  C   UNL A   1      35.459  32.701  31.223  1.00  0.00     0.135 A 
ATOM     79  C   UNL A   1      36.973  33.951  29.839  1.00  0.00     0.135 A 
ATOM     80  F   UNL A   1      35.221  31.792  32.179  1.00  0.00    -0.206 F 
ATOM     81  C   UNL A   1      34.371  33.323  30.616  1.00  0.00     0.059 A 
ATOM     82  C   UNL A   1      35.903  34.602  29.231  1.00  0.00     0.059 A 
ATOM     83  F   UNL A   1      38.217  34.281  29.457  1.00  0.00    -0.206 F 
ATOM     84  C   UNL A   1      34.604  34.275  29.622  1.00  0.00     0.060 A 
BRANCH  84  85
ATOM     85  S   UNL A   1      33.191  35.122  28.882  1.00  0.00     0.124 S 
ATOM     86  O   UNL A   1      32.672  34.097  27.984  1.00  0.00    -0.237 OA
ATOM     87  O   UNL A   1      32.367  35.423  30.050  1.00  0.00    -0.237 OA
ATOM     88  O   UNL A   1      33.796  36.283  28.237  1.00  0.00    -0.744 OA
ENDBRANCH  84  85
ENDBRANCH  52  77
BRANCH  64  89
ATOM     89  C   UNL A   1      39.958  33.909  36.988  1.00  0.00     0.058 A 
ATOM     90  C   UNL A   1      40.542  35.184  36.950  1.00  0.00     0.135 A 
ATOM     91  C   UNL A   1      39.124  33.598  38.073  1.00  0.00     0.135 A 
ATOM     92  F   UNL A   1      41.353  35.526  35.936  1.00  0.00    -0.206 F 
ATOM     93  C   UNL A   1      40.320  36.113  37.960  1.00  0.00     0.059 A 
ATOM     94  C   UNL A   1      38.869  34.519  39.083  1.00  0.00     0.059 A 
ATOM     95  F   UNL A   1      38.534  32.394  38.149  1.00  0.00    -0.206 F 
ATOM     96  C   UNL A   1      39.480  35.771  39.022  1.00  0.00     0.060 A 
BRANCH  96  97
ATOM     97  S   UNL A   1      39.166  36.997  40.309  1.00  0.00     0.124 S 
ATOM     98  O   UNL A   1      38.531  38.066  39.547  1.00  0.00    -0.237 OA
ATOM     99  O   UNL A   1      38.297  36.271  41.230  1.00  0.00    -0.237 OA
ATOM    100  O   UNL A   1      40.500  37.298  40.822  1.00  0.00    -0.744 OA
ENDBRANCH  96  97
ENDBRANCH  64  89
ENDBRANCH  38  39
ENDBRANCH  30  33
ENDBRANCH  28  29
ENDBRANCH  27  28
ENDBRANCH   1  27
TORSDOF 18
ENDMDL
