MODEL 1
REMARK VINA RESULT:      -9.6      0.000      0.000
REMARK SMILES O=C(COC[C@@H]1CCCCO1)NCCCCNC(=O)c1ccc(-c2c3nc(c(-c4c(F)cc(S(=O)(=O)[O-])cc4F)c4ccc([nH]4)c(-c4c(F)cc(S(=O)(=O)[O-])cc4F)c4nc(c(-c5c(F)cc(S(=O)(=O)[O-])cc5F)c5ccc2[nH]5)C=C4)C=C3)cc1
REMARK SMILES IDX 14 1 13 2 12 3 1 4 2 5 3 7 4 8 5 9 6 10 7 11 11 12 8 13
REMARK SMILES IDX 10 14 9 15 15 16 16 17 17 18 18 19 19 21 20 22 21 23 85 24
REMARK SMILES IDX 22 25 84 26 23 27 24 28 25 29 78 30 26 31 83 32 77 33 79 34
REMARK SMILES IDX 27 35 82 36 76 37 75 38 28 40 62 41 41 42 61 43 42 44 45 45
REMARK SMILES IDX 60 46 80 47 43 48 44 49 59 51 81 52 46 53 29 54 30 55 39 56
REMARK SMILES IDX 31 57 32 58 38 59 40 60 33 61 34 62 35 63 36 64 37 65 63 66
REMARK SMILES IDX 64 67 73 68 65 69 66 70 72 71 74 72 67 73 68 74 69 75 70 76
REMARK SMILES IDX 71 77 47 78 48 79 57 80 49 81 50 82 56 83 58 84 51 85 52 86
REMARK SMILES IDX 53 87 54 88 55 89
REMARK H PARENT 12 6 17 20 79 39 45 50
REMARK Flexibility Score: inf
ROOT
ATOM      1  C   UNL A   1      34.026  35.316  28.385  1.00  0.00     0.023 C 
ENDROOT
BRANCH   1   2
ATOM      2  C   UNL A   1      33.129  36.377  29.020  1.00  0.00     0.116 C 
BRANCH   2   3
ATOM      3  N   UNL A   1      33.619  36.774  30.320  1.00  0.00    -0.354 N 
ATOM      4  O   UNL A   1      32.311  35.310  31.519  1.00  0.00    -0.272 OA
ATOM      5  C   UNL A   1      33.131  36.223  31.482  1.00  0.00     0.245 C 
ATOM      6  H   UNL A   1      34.325  37.460  30.376  1.00  0.00     0.163 HD
BRANCH   5   7
ATOM      7  C   UNL A   1      33.654  36.896  32.747  1.00  0.00     0.260 C 
BRANCH   7   8
ATOM      8  O   UNL A   1      34.902  36.455  33.254  1.00  0.00    -0.369 OA
BRANCH   8   9
ATOM      9  C   UNL A   1      34.903  35.164  33.860  1.00  0.00     0.192 C 
BRANCH   9  10
ATOM     10  C   UNL A   1      36.197  34.326  33.703  1.00  0.00     0.144 C 
ATOM     11  C   UNL A   1      37.028  34.550  32.438  1.00  0.00     0.034 C 
ATOM     12  O   UNL A   1      35.926  32.917  33.847  1.00  0.00    -0.376 OA
ATOM     13  C   UNL A   1      36.320  34.015  31.207  1.00  0.00     0.005 C 
ATOM     14  C   UNL A   1      35.257  32.321  32.729  1.00  0.00     0.160 C 
ATOM     15  C   UNL A   1      35.995  32.544  31.415  1.00  0.00     0.029 C 
ENDBRANCH   9  10
ENDBRANCH   8   9
ENDBRANCH   7   8
ENDBRANCH   5   7
ENDBRANCH   2   3
ENDBRANCH   1   2
BRANCH   1  16
ATOM     16  C   UNL A   1      33.319  33.997  28.061  1.00  0.00     0.023 C 
BRANCH  16  17
ATOM     17  C   UNL A   1      34.056  32.738  28.506  1.00  0.00     0.116 C 
BRANCH  17  18
ATOM     18  N   UNL A   1      33.736  31.580  27.688  1.00  0.00    -0.352 N 
ATOM     19  C   UNL A   1      34.485  30.456  27.441  1.00  0.00     0.251 C 
ATOM     20  H   UNL A   1      32.856  31.605  27.248  1.00  0.00     0.163 HD
ATOM     21  O   UNL A   1      34.112  29.648  26.593  1.00  0.00    -0.269 OA
BRANCH  19  22
ATOM     22  C   UNL A   1      35.752  30.234  28.173  1.00  0.00     0.039 A 
ATOM     23  C   UNL A   1      35.722  29.515  29.370  1.00  0.00     0.014 A 
ATOM     24  C   UNL A   1      36.964  30.725  27.680  1.00  0.00     0.014 A 
ATOM     25  C   UNL A   1      36.916  29.231  30.036  1.00  0.00     0.010 A 
ATOM     26  C   UNL A   1      38.159  30.375  28.304  1.00  0.00     0.010 A 
ATOM     27  C   UNL A   1      38.149  29.625  29.489  1.00  0.00    -0.014 A 
BRANCH  27  28
ATOM     28  C   UNL A   1      39.434  29.252  30.137  1.00  0.00     0.031 A 
ATOM     29  C   UNL A   1      39.934  30.019  31.331  1.00  0.00     0.074 A 
ATOM     30  C   UNL A   1      40.181  28.259  29.612  1.00  0.00     0.049 A 
ATOM     31  N   UNL A   1      41.057  29.884  31.989  1.00  0.00    -0.248 NA
ATOM     32  C   UNL A   1      39.069  31.098  31.838  1.00  0.00     0.031 C 
ATOM     33  C   UNL A   1      39.829  27.470  28.429  1.00  0.00     0.029 A 
ATOM     34  N   UNL A   1      41.396  27.750  29.998  1.00  0.00    -0.354 N 
ATOM     35  C   UNL A   1      41.039  30.862  32.977  1.00  0.00     0.074 A 
ATOM     36  C   UNL A   1      39.820  31.620  32.796  1.00  0.00     0.031 C 
ATOM     37  C   UNL A   1      40.793  26.565  28.200  1.00  0.00     0.029 A 
ATOM     38  C   UNL A   1      41.853  26.734  29.189  1.00  0.00     0.049 A 
ATOM     39  H   UNL A   1      41.895  28.079  30.780  1.00  0.00     0.167 HD
ATOM     40  C   UNL A   1      41.943  31.090  33.960  1.00  0.00     0.037 A 
ATOM     41  C   UNL A   1      42.999  26.028  29.231  1.00  0.00     0.037 A 
ATOM     42  C   UNL A   1      43.146  30.321  34.144  1.00  0.00     0.049 A 
ATOM     43  C   UNL A   1      43.996  26.310  30.323  1.00  0.00     0.074 A 
ATOM     44  C   UNL A   1      44.100  30.441  35.139  1.00  0.00     0.029 A 
ATOM     45  N   UNL A   1      43.566  29.292  33.313  1.00  0.00    -0.354 N 
ATOM     46  N   UNL A   1      43.932  27.196  31.288  1.00  0.00    -0.248 NA
ATOM     47  C   UNL A   1      45.217  25.493  30.338  1.00  0.00     0.031 C 
ATOM     48  C   UNL A   1      45.122  29.522  34.881  1.00  0.00     0.029 A 
ATOM     49  C   UNL A   1      44.777  28.785  33.759  1.00  0.00     0.049 A 
ATOM     50  H   UNL A   1      43.076  28.968  32.523  1.00  0.00     0.167 HD
ATOM     51  C   UNL A   1      45.087  27.023  32.041  1.00  0.00     0.074 A 
ATOM     52  C   UNL A   1      45.827  25.940  31.427  1.00  0.00     0.031 C 
ATOM     53  C   UNL A   1      45.500  27.701  33.142  1.00  0.00     0.037 A 
BRANCH  40  54
ATOM     54  C   UNL A   1      41.664  32.219  34.918  1.00  0.00     0.058 A 
ATOM     55  C   UNL A   1      42.178  33.509  34.708  1.00  0.00     0.135 A 
ATOM     56  C   UNL A   1      40.842  32.019  36.038  1.00  0.00     0.135 A 
ATOM     57  F   UNL A   1      42.982  33.756  33.662  1.00  0.00    -0.206 F 
ATOM     58  C   UNL A   1      41.913  34.552  35.591  1.00  0.00     0.059 A 
ATOM     59  C   UNL A   1      40.537  33.055  36.917  1.00  0.00     0.059 A 
ATOM     60  F   UNL A   1      40.323  30.807  36.289  1.00  0.00    -0.206 F 
ATOM     61  C   UNL A   1      41.089  34.315  36.692  1.00  0.00     0.060 A 
BRANCH  61  62
ATOM     62  S   UNL A   1      40.751  35.680  37.823  1.00  0.00     0.124 S 
ATOM     63  O   UNL A   1      39.906  35.029  38.820  1.00  0.00    -0.237 OA
ATOM     64  O   UNL A   1      42.089  36.051  38.272  1.00  0.00    -0.237 OA
ATOM     65  O   UNL A   1      40.081  36.664  36.979  1.00  0.00    -0.744 OA
ENDBRANCH  61  62
ENDBRANCH  40  54
BRANCH  41  66
ATOM     66  C   UNL A   1      43.261  24.973  28.212  1.00  0.00     0.058 A 
ATOM     67  C   UNL A   1      43.868  25.285  26.986  1.00  0.00     0.135 A 
ATOM     68  C   UNL A   1      42.919  23.632  28.449  1.00  0.00     0.135 A 
ATOM     69  F   UNL A   1      44.208  26.552  26.709  1.00  0.00    -0.206 F 
ATOM     70  C   UNL A   1      44.109  24.309  26.024  1.00  0.00     0.059 A 
ATOM     71  C   UNL A   1      43.178  22.635  27.515  1.00  0.00     0.059 A 
ATOM     72  F   UNL A   1      42.352  23.278  29.613  1.00  0.00    -0.206 F 
ATOM     73  C   UNL A   1      43.764  22.985  26.300  1.00  0.00     0.060 A 
BRANCH  73  74
ATOM     74  S   UNL A   1      44.124  21.721  25.061  1.00  0.00     0.124 S 
ATOM     75  O   UNL A   1      43.093  20.730  25.343  1.00  0.00    -0.237 OA
ATOM     76  O   UNL A   1      43.974  22.464  23.814  1.00  0.00    -0.237 OA
ATOM     77  O   UNL A   1      45.492  21.320  25.382  1.00  0.00    -0.744 OA
ENDBRANCH  73  74
ENDBRANCH  41  66
BRANCH  53  78
ATOM     78  C   UNL A   1      46.790  27.267  33.783  1.00  0.00     0.058 A 
ATOM     79  C   UNL A   1      48.021  27.848  33.439  1.00  0.00     0.135 A 
ATOM     80  C   UNL A   1      46.788  26.293  34.796  1.00  0.00     0.135 A 
ATOM     81  F   UNL A   1      48.082  28.779  32.474  1.00  0.00    -0.206 F 
ATOM     82  C   UNL A   1      49.205  27.461  34.057  1.00  0.00     0.059 A 
ATOM     83  C   UNL A   1      47.955  25.914  35.450  1.00  0.00     0.059 A 
ATOM     84  F   UNL A   1      45.637  25.712  35.171  1.00  0.00    -0.206 F 
ATOM     85  C   UNL A   1      49.162  26.495  35.066  1.00  0.00     0.060 A 
BRANCH  85  86
ATOM     86  S   UNL A   1      50.701  26.030  35.884  1.00  0.00     0.124 S 
ATOM     87  O   UNL A   1      51.389  25.300  34.825  1.00  0.00    -0.237 OA
ATOM     88  O   UNL A   1      51.272  27.327  36.236  1.00  0.00    -0.237 OA
ATOM     89  O   UNL A   1      50.255  25.221  37.015  1.00  0.00    -0.744 OA
ENDBRANCH  85  86
ENDBRANCH  53  78
ENDBRANCH  27  28
ENDBRANCH  19  22
ENDBRANCH  17  18
ENDBRANCH  16  17
ENDBRANCH   1  16
TORSDOF 17
ENDMDL
MODEL 2
REMARK VINA RESULT:      -9.6      5.063      6.373
REMARK SMILES O=C(COC[C@@H]1CCCCO1)NCCCCNC(=O)c1ccc(-c2c3nc(c(-c4c(F)cc(S(=O)(=O)[O-])cc4F)c4ccc([nH]4)c(-c4c(F)cc(S(=O)(=O)[O-])cc4F)c4nc(c(-c5c(F)cc(S(=O)(=O)[O-])cc5F)c5ccc2[nH]5)C=C4)C=C3)cc1
REMARK SMILES IDX 14 1 13 2 12 3 1 4 2 5 3 7 4 8 5 9 6 10 7 11 11 12 8 13
REMARK SMILES IDX 10 14 9 15 15 16 16 17 17 18 18 19 19 21 20 22 21 23 85 24
REMARK SMILES IDX 22 25 84 26 23 27 24 28 25 29 78 30 26 31 83 32 77 33 79 34
REMARK SMILES IDX 27 35 82 36 76 37 75 38 28 40 62 41 41 42 61 43 42 44 45 45
REMARK SMILES IDX 60 46 80 47 43 48 44 49 59 51 81 52 46 53 29 54 30 55 39 56
REMARK SMILES IDX 31 57 32 58 38 59 40 60 33 61 34 62 35 63 36 64 37 65 63 66
REMARK SMILES IDX 64 67 73 68 65 69 66 70 72 71 74 72 67 73 68 74 69 75 70 76
REMARK SMILES IDX 71 77 47 78 48 79 57 80 49 81 50 82 56 83 58 84 51 85 52 86
REMARK SMILES IDX 53 87 54 88 55 89
REMARK H PARENT 12 6 17 20 79 39 45 50
REMARK Flexibility Score: inf
ROOT
ATOM      1  C   UNL A   1      34.750  34.485  28.146  1.00  0.00     0.023 C 
ENDROOT
BRANCH   1   2
ATOM      2  C   UNL A   1      33.592  34.778  29.098  1.00  0.00     0.116 C 
BRANCH   2   3
ATOM      3  N   UNL A   1      33.980  35.715  30.128  1.00  0.00    -0.354 N 
ATOM      4  O   UNL A   1      32.184  35.304  31.506  1.00  0.00    -0.272 OA
ATOM      5  C   UNL A   1      33.208  35.930  31.246  1.00  0.00     0.245 C 
ATOM      6  H   UNL A   1      34.823  36.215  30.027  1.00  0.00     0.163 HD
BRANCH   5   7
ATOM      7  C   UNL A   1      33.703  37.075  32.123  1.00  0.00     0.260 C 
BRANCH   7   8
ATOM      8  O   UNL A   1      34.351  36.737  33.336  1.00  0.00    -0.369 OA
BRANCH   8   9
ATOM      9  C   UNL A   1      35.275  35.653  33.264  1.00  0.00     0.192 C 
BRANCH   9  10
ATOM     10  C   UNL A   1      35.011  34.452  34.207  1.00  0.00     0.144 C 
ATOM     11  C   UNL A   1      36.227  33.790  34.857  1.00  0.00     0.034 C 
ATOM     12  O   UNL A   1      34.215  33.442  33.554  1.00  0.00    -0.376 OA
ATOM     13  C   UNL A   1      37.058  33.034  33.836  1.00  0.00     0.005 C 
ATOM     14  C   UNL A   1      34.917  32.673  32.570  1.00  0.00     0.160 C 
ATOM     15  C   UNL A   1      36.177  32.020  33.124  1.00  0.00     0.029 C 
ENDBRANCH   9  10
ENDBRANCH   8   9
ENDBRANCH   7   8
ENDBRANCH   5   7
ENDBRANCH   2   3
ENDBRANCH   1   2
BRANCH   1  16
ATOM     16  C   UNL A   1      35.965  33.827  28.805  1.00  0.00     0.023 C 
BRANCH  16  17
ATOM     17  C   UNL A   1      36.209  32.373  28.413  1.00  0.00     0.116 C 
BRANCH  17  18
ATOM     18  N   UNL A   1      35.780  31.436  29.437  1.00  0.00    -0.352 N 
ATOM     19  C   UNL A   1      36.436  30.342  29.946  1.00  0.00     0.251 C 
ATOM     20  H   UNL A   1      34.891  31.610  29.822  1.00  0.00     0.163 HD
ATOM     21  O   UNL A   1      35.846  29.572  30.701  1.00  0.00    -0.269 OA
BRANCH  19  22
ATOM     22  C   UNL A   1      37.840  30.075  29.562  1.00  0.00     0.039 A 
ATOM     23  C   UNL A   1      38.825  30.088  30.552  1.00  0.00     0.014 A 
ATOM     24  C   UNL A   1      38.185  29.808  28.234  1.00  0.00     0.014 A 
ATOM     25  C   UNL A   1      40.143  29.765  30.222  1.00  0.00     0.010 A 
ATOM     26  C   UNL A   1      39.483  29.412  27.921  1.00  0.00     0.010 A 
ATOM     27  C   UNL A   1      40.477  29.386  28.911  1.00  0.00    -0.014 A 
BRANCH  27  28
ATOM     28  C   UNL A   1      41.855  28.952  28.562  1.00  0.00     0.031 A 
ATOM     29  C   UNL A   1      42.975  29.955  28.500  1.00  0.00     0.074 A 
ATOM     30  C   UNL A   1      42.086  27.662  28.242  1.00  0.00     0.049 A 
ATOM     31  N   UNL A   1      44.224  29.778  28.153  1.00  0.00    -0.248 NA
ATOM     32  C   UNL A   1      42.643  31.346  28.850  1.00  0.00     0.031 C 
ATOM     33  C   UNL A   1      41.075  26.603  28.219  1.00  0.00     0.029 A 
ATOM     34  N   UNL A   1      43.241  27.023  27.864  1.00  0.00    -0.354 N 
ATOM     35  C   UNL A   1      44.823  31.030  28.232  1.00  0.00     0.074 A 
ATOM     36  C   UNL A   1      43.787  31.968  28.605  1.00  0.00     0.031 C 
ATOM     37  C   UNL A   1      41.657  25.445  27.868  1.00  0.00     0.029 A 
ATOM     38  C   UNL A   1      43.071  25.684  27.599  1.00  0.00     0.049 A 
ATOM     39  H   UNL A   1      44.110  27.480  27.789  1.00  0.00     0.167 HD
ATOM     40  C   UNL A   1      46.122  31.363  28.038  1.00  0.00     0.037 A 
ATOM     41  C   UNL A   1      43.951  24.755  27.175  1.00  0.00     0.037 A 
ATOM     42  C   UNL A   1      47.151  30.420  27.683  1.00  0.00     0.049 A 
ATOM     43  C   UNL A   1      45.386  25.152  26.950  1.00  0.00     0.074 A 
ATOM     44  C   UNL A   1      48.506  30.650  27.513  1.00  0.00     0.029 A 
ATOM     45  N   UNL A   1      46.943  29.070  27.438  1.00  0.00    -0.354 N 
ATOM     46  N   UNL A   1      45.947  26.329  27.093  1.00  0.00    -0.248 NA
ATOM     47  C   UNL A   1      46.308  24.095  26.514  1.00  0.00     0.031 C 
ATOM     48  C   UNL A   1      49.106  29.452  27.114  1.00  0.00     0.029 A 
ATOM     49  C   UNL A   1      48.139  28.460  27.094  1.00  0.00     0.049 A 
ATOM     50  H   UNL A   1      46.073  28.613  27.499  1.00  0.00     0.167 HD
ATOM     51  C   UNL A   1      47.293  26.148  26.794  1.00  0.00     0.074 A 
ATOM     52  C   UNL A   1      47.464  24.746  26.474  1.00  0.00     0.031 C 
ATOM     53  C   UNL A   1      48.297  27.060  26.785  1.00  0.00     0.037 A 
BRANCH  40  54
ATOM     54  C   UNL A   1      46.506  32.809  28.207  1.00  0.00     0.058 A 
ATOM     55  C   UNL A   1      46.981  33.309  29.430  1.00  0.00     0.135 A 
ATOM     56  C   UNL A   1      46.435  33.699  27.122  1.00  0.00     0.135 A 
ATOM     57  F   UNL A   1      47.057  32.508  30.505  1.00  0.00    -0.206 F 
ATOM     58  C   UNL A   1      47.342  34.645  29.581  1.00  0.00     0.059 A 
ATOM     59  C   UNL A   1      46.821  35.031  27.242  1.00  0.00     0.059 A 
ATOM     60  F   UNL A   1      45.988  33.277  25.929  1.00  0.00    -0.206 F 
ATOM     61  C   UNL A   1      47.259  35.497  28.480  1.00  0.00     0.060 A 
BRANCH  61  62
ATOM     62  S   UNL A   1      47.737  37.225  28.693  1.00  0.00     0.124 S 
ATOM     63  O   UNL A   1      49.186  37.149  28.526  1.00  0.00    -0.237 OA
ATOM     64  O   UNL A   1      47.010  37.885  27.613  1.00  0.00    -0.237 OA
ATOM     65  O   UNL A   1      47.277  37.542  30.040  1.00  0.00    -0.744 OA
ENDBRANCH  61  62
ENDBRANCH  40  54
BRANCH  41  66
ATOM     66  C   UNL A   1      43.502  23.353  26.949  1.00  0.00     0.058 A 
ATOM     67  C   UNL A   1      43.304  22.474  28.024  1.00  0.00     0.135 A 
ATOM     68  C   UNL A   1      43.253  22.869  25.655  1.00  0.00     0.135 A 
ATOM     69  F   UNL A   1      43.535  22.886  29.279  1.00  0.00    -0.206 F 
ATOM     70  C   UNL A   1      42.893  21.160  27.824  1.00  0.00     0.059 A 
ATOM     71  C   UNL A   1      42.813  21.569  25.433  1.00  0.00     0.059 A 
ATOM     72  F   UNL A   1      43.410  23.675  24.593  1.00  0.00    -0.206 F 
ATOM     73  C   UNL A   1      42.646  20.717  26.523  1.00  0.00     0.060 A 
BRANCH  73  74
ATOM     74  S   UNL A   1      42.069  19.023  26.281  1.00  0.00     0.124 S 
ATOM     75  O   UNL A   1      42.183  18.477  27.628  1.00  0.00    -0.237 OA
ATOM     76  O   UNL A   1      40.712  19.230  25.787  1.00  0.00    -0.237 OA
ATOM     77  O   UNL A   1      43.009  18.487  25.300  1.00  0.00    -0.744 OA
ENDBRANCH  73  74
ENDBRANCH  41  66
BRANCH  53  78
ATOM     78  C   UNL A   1      49.681  26.568  26.458  1.00  0.00     0.058 A 
ATOM     79  C   UNL A   1      50.516  26.000  27.434  1.00  0.00     0.135 A 
ATOM     80  C   UNL A   1      50.158  26.616  25.137  1.00  0.00     0.135 A 
ATOM     81  F   UNL A   1      50.112  25.935  28.712  1.00  0.00    -0.206 F 
ATOM     82  C   UNL A   1      51.782  25.522  27.117  1.00  0.00     0.059 A 
ATOM     83  C   UNL A   1      51.408  26.114  24.792  1.00  0.00     0.059 A 
ATOM     84  F   UNL A   1      49.397  27.140  24.163  1.00  0.00    -0.206 F 
ATOM     85  C   UNL A   1      52.219  25.579  25.791  1.00  0.00     0.060 A 
BRANCH  85  86
ATOM     86  S   UNL A   1      53.850  24.921  25.389  1.00  0.00     0.124 S 
ATOM     87  O   UNL A   1      54.577  25.155  26.632  1.00  0.00    -0.237 OA
ATOM     88  O   UNL A   1      53.556  23.525  25.080  1.00  0.00    -0.237 OA
ATOM     89  O   UNL A   1      54.275  25.733  24.252  1.00  0.00    -0.744 OA
ENDBRANCH  85  86
ENDBRANCH  53  78
ENDBRANCH  27  28
ENDBRANCH  19  22
ENDBRANCH  17  18
ENDBRANCH  16  17
ENDBRANCH   1  16
TORSDOF 17
ENDMDL
MODEL 3
REMARK VINA RESULT:      -9.6      3.295     11.824
REMARK SMILES O=C(COC[C@@H]1CCCCO1)NCCCCNC(=O)c1ccc(-c2c3nc(c(-c4c(F)cc(S(=O)(=O)[O-])cc4F)c4ccc([nH]4)c(-c4c(F)cc(S(=O)(=O)[O-])cc4F)c4nc(c(-c5c(F)cc(S(=O)(=O)[O-])cc5F)c5ccc2[nH]5)C=C4)C=C3)cc1
REMARK SMILES IDX 14 1 13 2 12 3 1 4 2 5 3 7 4 8 5 9 6 10 7 11 11 12 8 13
REMARK SMILES IDX 10 14 9 15 15 16 16 17 17 18 18 19 19 21 20 22 21 23 85 24
REMARK SMILES IDX 22 25 84 26 23 27 24 28 25 29 78 30 26 31 83 32 77 33 79 34
REMARK SMILES IDX 27 35 82 36 76 37 75 38 28 40 62 41 41 42 61 43 42 44 45 45
REMARK SMILES IDX 60 46 80 47 43 48 44 49 59 51 81 52 46 53 29 54 30 55 39 56
REMARK SMILES IDX 31 57 32 58 38 59 40 60 33 61 34 62 35 63 36 64 37 65 63 66
REMARK SMILES IDX 64 67 73 68 65 69 66 70 72 71 74 72 67 73 68 74 69 75 70 76
REMARK SMILES IDX 71 77 47 78 48 79 57 80 49 81 50 82 56 83 58 84 51 85 52 86
REMARK SMILES IDX 53 87 54 88 55 89
REMARK H PARENT 12 6 17 20 79 39 45 50
REMARK Flexibility Score: inf
ROOT
ATOM      1  C   UNL A   1      41.897  19.656  26.939  1.00  0.00     0.023 C 
ENDROOT
BRANCH   1   2
ATOM      2  C   UNL A   1      42.495  18.679  25.929  1.00  0.00     0.116 C 
BRANCH   2   3
ATOM      3  N   UNL A   1      43.445  19.335  25.059  1.00  0.00    -0.354 N 
ATOM      4  O   UNL A   1      45.218  17.962  25.574  1.00  0.00    -0.272 OA
ATOM      5  C   UNL A   1      44.760  18.936  24.985  1.00  0.00     0.245 C 
ATOM      6  H   UNL A   1      43.142  20.089  24.503  1.00  0.00     0.163 HD
BRANCH   5   7
ATOM      7  C   UNL A   1      45.634  19.860  24.142  1.00  0.00     0.260 C 
BRANCH   7   8
ATOM      8  O   UNL A   1      45.218  21.207  24.003  1.00  0.00    -0.369 OA
BRANCH   8   9
ATOM      9  C   UNL A   1      46.034  22.177  24.656  1.00  0.00     0.192 C 
BRANCH   9  10
ATOM     10  C   UNL A   1      45.457  22.813  25.946  1.00  0.00     0.144 C 
ATOM     11  C   UNL A   1      43.936  22.816  26.107  1.00  0.00     0.034 C 
ATOM     12  O   UNL A   1      45.955  24.154  26.134  1.00  0.00    -0.376 OA
ATOM     13  C   UNL A   1      43.277  23.771  25.128  1.00  0.00     0.005 C 
ATOM     14  C   UNL A   1      45.388  25.130  25.252  1.00  0.00     0.160 C 
ATOM     15  C   UNL A   1      43.866  25.162  25.310  1.00  0.00     0.029 C 
ENDBRANCH   9  10
ENDBRANCH   8   9
ENDBRANCH   7   8
ENDBRANCH   5   7
ENDBRANCH   2   3
ENDBRANCH   1   2
BRANCH   1  16
ATOM     16  C   UNL A   1      40.529  20.220  26.546  1.00  0.00     0.023 C 
BRANCH  16  17
ATOM     17  C   UNL A   1      40.445  21.742  26.491  1.00  0.00     0.116 C 
BRANCH  17  18
ATOM     18  N   UNL A   1      39.257  22.215  25.799  1.00  0.00    -0.352 N 
ATOM     19  C   UNL A   1      38.600  23.414  25.919  1.00  0.00     0.251 C 
ATOM     20  H   UNL A   1      38.869  21.585  25.149  1.00  0.00     0.163 HD
ATOM     21  O   UNL A   1      37.516  23.575  25.362  1.00  0.00    -0.269 OA
BRANCH  19  22
ATOM     22  C   UNL A   1      39.181  24.498  26.742  1.00  0.00     0.039 A 
ATOM     23  C   UNL A   1      40.045  25.414  26.138  1.00  0.00     0.014 A 
ATOM     24  C   UNL A   1      38.870  24.617  28.099  1.00  0.00     0.014 A 
ATOM     25  C   UNL A   1      40.544  26.487  26.879  1.00  0.00     0.010 A 
ATOM     26  C   UNL A   1      39.307  25.729  28.816  1.00  0.00     0.010 A 
ATOM     27  C   UNL A   1      40.149  26.677  28.214  1.00  0.00    -0.014 A 
BRANCH  27  28
ATOM     28  C   UNL A   1      40.598  27.863  28.990  1.00  0.00     0.031 A 
ATOM     29  C   UNL A   1      41.946  27.867  29.659  1.00  0.00     0.074 A 
ATOM     30  C   UNL A   1      39.765  28.913  29.142  1.00  0.00     0.049 A 
ATOM     31  N   UNL A   1      42.483  28.779  30.428  1.00  0.00    -0.248 NA
ATOM     32  C   UNL A   1      42.792  26.680  29.459  1.00  0.00     0.031 C 
ATOM     33  C   UNL A   1      38.416  29.010  28.582  1.00  0.00     0.029 A 
ATOM     34  N   UNL A   1      39.926  30.095  29.821  1.00  0.00    -0.354 N 
ATOM     35  C   UNL A   1      43.720  28.274  30.811  1.00  0.00     0.074 A 
ATOM     36  C   UNL A   1      43.830  26.951  30.235  1.00  0.00     0.031 C 
ATOM     37  C   UNL A   1      37.882  30.194  28.922  1.00  0.00     0.029 A 
ATOM     38  C   UNL A   1      38.829  30.923  29.759  1.00  0.00     0.049 A 
ATOM     39  H   UNL A   1      40.749  30.330  30.307  1.00  0.00     0.167 HD
ATOM     40  C   UNL A   1      44.687  28.869  31.551  1.00  0.00     0.037 A 
ATOM     41  C   UNL A   1      38.605  32.127  30.320  1.00  0.00     0.037 A 
ATOM     42  C   UNL A   1      44.577  30.193  32.106  1.00  0.00     0.049 A 
ATOM     43  C   UNL A   1      39.688  32.761  31.152  1.00  0.00     0.074 A 
ATOM     44  C   UNL A   1      45.520  30.904  32.828  1.00  0.00     0.029 A 
ATOM     45  N   UNL A   1      43.456  31.006  32.009  1.00  0.00    -0.354 N 
ATOM     46  N   UNL A   1      40.878  32.296  31.449  1.00  0.00    -0.248 NA
ATOM     47  C   UNL A   1      39.402  34.086  31.720  1.00  0.00     0.031 C 
ATOM     48  C   UNL A   1      44.952  32.122  33.212  1.00  0.00     0.029 A 
ATOM     49  C   UNL A   1      43.675  32.199  32.678  1.00  0.00     0.049 A 
ATOM     50  H   UNL A   1      42.627  30.769  31.534  1.00  0.00     0.167 HD
ATOM     51  C   UNL A   1      41.493  33.282  32.212  1.00  0.00     0.074 A 
ATOM     52  C   UNL A   1      40.549  34.375  32.320  1.00  0.00     0.031 C 
ATOM     53  C   UNL A   1      42.729  33.283  32.772  1.00  0.00     0.037 A 
BRANCH  40  54
ATOM     54  C   UNL A   1      45.952  28.092  31.802  1.00  0.00     0.058 A 
ATOM     55  C   UNL A   1      47.075  28.220  30.969  1.00  0.00     0.135 A 
ATOM     56  C   UNL A   1      46.058  27.238  32.913  1.00  0.00     0.135 A 
ATOM     57  F   UNL A   1      47.028  29.010  29.885  1.00  0.00    -0.206 F 
ATOM     58  C   UNL A   1      48.246  27.506  31.209  1.00  0.00     0.059 A 
ATOM     59  C   UNL A   1      47.230  26.539  33.190  1.00  0.00     0.059 A 
ATOM     60  F   UNL A   1      45.016  27.077  33.744  1.00  0.00    -0.206 F 
ATOM     61  C   UNL A   1      48.313  26.669  32.323  1.00  0.00     0.060 A 
BRANCH  61  62
ATOM     62  S   UNL A   1      49.841  25.755  32.621  1.00  0.00     0.124 S 
ATOM     63  O   UNL A   1      50.823  26.835  32.661  1.00  0.00    -0.237 OA
ATOM     64  O   UNL A   1      49.569  25.101  33.897  1.00  0.00    -0.237 OA
ATOM     65  O   UNL A   1      49.935  24.864  31.470  1.00  0.00    -0.744 OA
ENDBRANCH  61  62
ENDBRANCH  40  54
BRANCH  41  66
ATOM     66  C   UNL A   1      37.305  32.820  30.103  1.00  0.00     0.058 A 
ATOM     67  C   UNL A   1      36.219  32.610  30.966  1.00  0.00     0.135 A 
ATOM     68  C   UNL A   1      37.127  33.714  29.035  1.00  0.00     0.135 A 
ATOM     69  F   UNL A   1      36.337  31.760  31.997  1.00  0.00    -0.206 F 
ATOM     70  C   UNL A   1      34.997  33.244  30.768  1.00  0.00     0.059 A 
ATOM     71  C   UNL A   1      35.924  34.383  28.834  1.00  0.00     0.059 A 
ATOM     72  F   UNL A   1      38.140  33.964  28.190  1.00  0.00    -0.206 F 
ATOM     73  C   UNL A   1      34.860  34.134  29.700  1.00  0.00     0.060 A 
BRANCH  73  74
ATOM     74  S   UNL A   1      33.284  34.986  29.480  1.00  0.00     0.124 S 
ATOM     75  O   UNL A   1      33.722  36.315  29.071  1.00  0.00    -0.237 OA
ATOM     76  O   UNL A   1      32.641  34.179  28.449  1.00  0.00    -0.237 OA
ATOM     77  O   UNL A   1      32.672  34.903  30.804  1.00  0.00    -0.744 OA
ENDBRANCH  73  74
ENDBRANCH  41  66
BRANCH  53  78
ATOM     78  C   UNL A   1      43.152  34.518  33.520  1.00  0.00     0.058 A 
ATOM     79  C   UNL A   1      42.857  34.699  34.882  1.00  0.00     0.135 A 
ATOM     80  C   UNL A   1      43.911  35.511  32.879  1.00  0.00     0.135 A 
ATOM     81  F   UNL A   1      42.129  33.784  35.542  1.00  0.00    -0.206 F 
ATOM     82  C   UNL A   1      43.277  35.830  35.572  1.00  0.00     0.059 A 
ATOM     83  C   UNL A   1      44.370  36.635  33.559  1.00  0.00     0.059 A 
ATOM     84  F   UNL A   1      44.231  35.384  31.581  1.00  0.00    -0.206 F 
ATOM     85  C   UNL A   1      44.038  36.792  34.903  1.00  0.00     0.060 A 
BRANCH  85  86
ATOM     86  S   UNL A   1      44.607  38.237  35.822  1.00  0.00     0.124 S 
ATOM     87  O   UNL A   1      46.050  38.166  35.618  1.00  0.00    -0.237 OA
ATOM     88  O   UNL A   1      43.923  39.331  35.140  1.00  0.00    -0.237 OA
ATOM     89  O   UNL A   1      44.153  37.975  37.185  1.00  0.00    -0.744 OA
ENDBRANCH  85  86
ENDBRANCH  53  78
ENDBRANCH  27  28
ENDBRANCH  19  22
ENDBRANCH  17  18
ENDBRANCH  16  17
ENDBRANCH   1  16
TORSDOF 17
ENDMDL
