MODEL 1
REMARK VINA RESULT:     -10.9      0.000      0.000
REMARK SMILES CCC(CC)(NC(=O)NCc1ccccc1F)C(=O)NCCCCNC(=O)c1ccc(-c2c3nc(c(-c4c(F)cc(S(=O)(=O)[O-])cc4F)c4ccc([nH]4)c(-c4c(F)cc(S(=O)(=O)[O-])cc4F)c4nc(c(-c5c(F)cc(S(=O)(=O)[O-])cc5F)c5ccc2[nH]5)C=C4)C=C3)cc1
REMARK SMILES IDX 22 1 21 2 20 3 18 4 19 5 3 7 2 8 1 9 4 10 5 11 6 12 7 13
REMARK SMILES IDX 8 15 9 16 10 18 11 19 12 20 16 21 13 22 15 23 17 24 14 25
REMARK SMILES IDX 23 26 24 27 25 28 26 29 27 31 28 32 29 33 93 34 30 35 92 36
REMARK SMILES IDX 31 37 32 38 33 39 86 40 34 41 91 42 85 43 87 44 35 45 90 46
REMARK SMILES IDX 84 47 83 48 36 50 70 51 49 52 69 53 50 54 53 55 68 56 88 57
REMARK SMILES IDX 51 58 52 59 67 61 89 62 54 63 37 64 38 65 47 66 39 67 40 68
REMARK SMILES IDX 46 69 48 70 41 71 42 72 43 73 44 74 45 75 71 76 72 77 81 78
REMARK SMILES IDX 73 79 74 80 80 81 82 82 75 83 76 84 77 85 78 86 79 87 55 88
REMARK SMILES IDX 56 89 65 90 57 91 58 92 64 93 66 94 59 95 60 96 61 97 62 98
REMARK SMILES IDX 63 99
REMARK H PARENT 20 6 6 14 9 17 25 30 87 49 53 60
REMARK Flexibility Score: inf
ROOT
ATOM      1  C   UNL A   1      35.030  23.476  23.267  1.00  0.00     0.023 C 
ENDROOT
BRANCH   1   2
ATOM      2  C   UNL A   1      33.644  23.076  22.760  1.00  0.00     0.116 C 
BRANCH   2   3
ATOM      3  N   UNL A   1      33.078  23.780  21.613  1.00  0.00    -0.354 N 
ATOM      4  C   UNL A   1      32.789  25.115  21.424  1.00  0.00     0.245 C 
ATOM      5  O   UNL A   1      32.939  25.563  20.282  1.00  0.00    -0.272 OA
ATOM      6  H   UNL A   1      32.869  23.203  20.842  1.00  0.00     0.163 HD
BRANCH   4   7
ATOM      7  C   UNL A   1      32.470  26.071  22.610  1.00  0.00     0.120 C 
BRANCH   7   8
ATOM      8  C   UNL A   1      33.663  26.821  23.277  1.00  0.00     0.035 C 
ATOM      9  C   UNL A   1      34.093  28.158  22.691  1.00  0.00     0.007 C 
ENDBRANCH   7   8
BRANCH   7  10
ATOM     10  C   UNL A   1      31.812  25.119  23.672  1.00  0.00     0.035 C 
ATOM     11  C   UNL A   1      30.373  24.689  23.433  1.00  0.00     0.007 C 
ENDBRANCH   7  10
BRANCH   7  12
ATOM     12  N   UNL A   1      31.543  27.098  22.108  1.00  0.00    -0.324 N 
ATOM     13  C   UNL A   1      30.730  27.994  22.685  1.00  0.00     0.315 C 
ATOM     14  H   UNL A   1      31.516  27.138  21.124  1.00  0.00     0.166 HD
ATOM     15  O   UNL A   1      29.982  28.611  21.917  1.00  0.00    -0.249 OA
ATOM     16  N   UNL A   1      30.683  28.326  23.976  1.00  0.00    -0.334 N 
ATOM     17  H   UNL A   1      30.174  29.161  24.093  1.00  0.00     0.165 HD
BRANCH  16  18
ATOM     18  C   UNL A   1      31.152  27.838  25.272  1.00  0.00     0.156 C 
BRANCH  18  19
ATOM     19  C   UNL A   1      32.130  28.730  25.996  1.00  0.00     0.007 A 
ATOM     20  C   UNL A   1      31.895  30.115  26.064  1.00  0.00     0.008 A 
ATOM     21  C   UNL A   1      33.307  28.252  26.570  1.00  0.00     0.128 A 
ATOM     22  C   UNL A   1      32.727  30.958  26.805  1.00  0.00     0.001 A 
ATOM     23  C   UNL A   1      34.155  29.088  27.300  1.00  0.00     0.039 A 
ATOM     24  F   UNL A   1      33.623  26.953  26.461  1.00  0.00    -0.207 F 
ATOM     25  C   UNL A   1      33.848  30.440  27.442  1.00  0.00     0.003 A 
ENDBRANCH  18  19
ENDBRANCH  16  18
ENDBRANCH   7  12
ENDBRANCH   4   7
ENDBRANCH   2   3
ENDBRANCH   1   2
BRANCH   1  26
ATOM     26  C   UNL A   1      35.265  23.563  24.768  1.00  0.00     0.023 C 
BRANCH  26  27
ATOM     27  C   UNL A   1      36.618  24.082  25.225  1.00  0.00     0.116 C 
BRANCH  27  28
ATOM     28  N   UNL A   1      37.609  23.031  25.364  1.00  0.00    -0.352 N 
ATOM     29  C   UNL A   1      38.827  23.065  26.003  1.00  0.00     0.251 C 
ATOM     30  H   UNL A   1      37.377  22.173  24.942  1.00  0.00     0.163 HD
ATOM     31  O   UNL A   1      39.595  22.114  25.885  1.00  0.00    -0.269 OA
BRANCH  29  32
ATOM     32  C   UNL A   1      39.233  24.244  26.811  1.00  0.00     0.039 A 
ATOM     33  C   UNL A   1      40.040  25.217  26.213  1.00  0.00     0.014 A 
ATOM     34  C   UNL A   1      38.862  24.383  28.153  1.00  0.00     0.014 A 
ATOM     35  C   UNL A   1      40.437  26.344  26.942  1.00  0.00     0.010 A 
ATOM     36  C   UNL A   1      39.207  25.539  28.859  1.00  0.00     0.010 A 
ATOM     37  C   UNL A   1      40.007  26.528  28.267  1.00  0.00    -0.014 A 
BRANCH  37  38
ATOM     38  C   UNL A   1      40.410  27.735  29.040  1.00  0.00     0.031 A 
ATOM     39  C   UNL A   1      41.766  27.808  29.689  1.00  0.00     0.074 A 
ATOM     40  C   UNL A   1      39.549  28.763  29.181  1.00  0.00     0.049 A 
ATOM     41  N   UNL A   1      42.283  28.766  30.415  1.00  0.00    -0.248 NA
ATOM     42  C   UNL A   1      42.651  26.645  29.515  1.00  0.00     0.031 C 
ATOM     43  C   UNL A   1      38.193  28.812  28.632  1.00  0.00     0.029 A 
ATOM     44  N   UNL A   1      39.689  29.968  29.826  1.00  0.00    -0.354 N 
ATOM     45  C   UNL A   1      43.546  28.322  30.790  1.00  0.00     0.074 A 
ATOM     46  C   UNL A   1      43.698  26.987  30.253  1.00  0.00     0.031 C 
ATOM     47  C   UNL A   1      37.640  29.998  28.932  1.00  0.00     0.029 A 
ATOM     48  C   UNL A   1      38.585  30.784  29.723  1.00  0.00     0.049 A 
ATOM     49  H   UNL A   1      40.503  30.224  30.317  1.00  0.00     0.167 HD
ATOM     50  C   UNL A   1      44.503  28.973  31.494  1.00  0.00     0.037 A 
ATOM     51  C   UNL A   1      38.359  32.022  30.203  1.00  0.00     0.037 A 
ATOM     52  C   UNL A   1      44.370  30.315  32.000  1.00  0.00     0.049 A 
ATOM     53  C   UNL A   1      39.433  32.724  30.989  1.00  0.00     0.074 A 
ATOM     54  C   UNL A   1      45.308  31.074  32.677  1.00  0.00     0.029 A 
ATOM     55  N   UNL A   1      43.233  31.099  31.883  1.00  0.00    -0.354 N 
ATOM     56  N   UNL A   1      40.635  32.303  31.296  1.00  0.00    -0.248 NA
ATOM     57  C   UNL A   1      39.120  34.070  31.492  1.00  0.00     0.031 C 
ATOM     58  C   UNL A   1      44.728  32.304  33.001  1.00  0.00     0.029 A 
ATOM     59  C   UNL A   1      43.440  32.327  32.490  1.00  0.00     0.049 A 
ATOM     60  H   UNL A   1      42.401  30.825  31.433  1.00  0.00     0.167 HD
ATOM     61  C   UNL A   1      41.229  33.337  32.012  1.00  0.00     0.074 A 
ATOM     62  C   UNL A   1      40.258  34.409  32.084  1.00  0.00     0.031 C 
ATOM     63  C   UNL A   1      42.469  33.390  32.558  1.00  0.00     0.037 A 
BRANCH  50  64
ATOM     64  C   UNL A   1      45.796  28.251  31.748  1.00  0.00     0.058 A 
ATOM     65  C   UNL A   1      45.975  27.496  32.918  1.00  0.00     0.135 A 
ATOM     66  C   UNL A   1      46.878  28.350  30.859  1.00  0.00     0.135 A 
ATOM     67  F   UNL A   1      44.971  27.365  33.800  1.00  0.00    -0.206 F 
ATOM     68  C   UNL A   1      47.185  26.869  33.201  1.00  0.00     0.059 A 
ATOM     69  C   UNL A   1      48.089  27.712  31.109  1.00  0.00     0.059 A 
ATOM     70  F   UNL A   1      46.752  29.044  29.717  1.00  0.00    -0.206 F 
ATOM     71  C   UNL A   1      48.237  26.983  32.290  1.00  0.00     0.060 A 
BRANCH  71  72
ATOM     72  S   UNL A   1      49.785  26.125  32.645  1.00  0.00     0.124 S 
ATOM     73  O   UNL A   1      50.762  27.199  32.508  1.00  0.00    -0.237 OA
ATOM     74  O   UNL A   1      49.561  25.636  34.002  1.00  0.00    -0.237 OA
ATOM     75  O   UNL A   1      49.838  25.089  31.617  1.00  0.00    -0.744 OA
ENDBRANCH  71  72
ENDBRANCH  50  64
BRANCH  51  76
ATOM     76  C   UNL A   1      37.065  32.694  29.915  1.00  0.00     0.058 A 
ATOM     77  C   UNL A   1      36.927  33.587  28.843  1.00  0.00     0.135 A 
ATOM     78  C   UNL A   1      35.950  32.484  30.741  1.00  0.00     0.135 A 
ATOM     79  F   UNL A   1      37.966  33.826  28.028  1.00  0.00    -0.206 F 
ATOM     80  C   UNL A   1      35.738  34.270  28.614  1.00  0.00     0.059 A 
ATOM     81  C   UNL A   1      34.743  33.139  30.521  1.00  0.00     0.059 A 
ATOM     82  F   UNL A   1      36.031  31.626  31.769  1.00  0.00    -0.206 F 
ATOM     83  C   UNL A   1      34.653  34.046  29.464  1.00  0.00     0.060 A 
BRANCH  83  84
ATOM     84  S   UNL A   1      33.126  34.963  29.169  1.00  0.00     0.124 S 
ATOM     85  O   UNL A   1      32.511  34.935  30.493  1.00  0.00    -0.237 OA
ATOM     86  O   UNL A   1      33.629  36.262  28.731  1.00  0.00    -0.237 OA
ATOM     87  O   UNL A   1      32.451  34.176  28.145  1.00  0.00    -0.744 OA
ENDBRANCH  83  84
ENDBRANCH  51  76
BRANCH  63  88
ATOM     88  C   UNL A   1      42.866  34.649  33.276  1.00  0.00     0.058 A 
ATOM     89  C   UNL A   1      43.495  35.696  32.584  1.00  0.00     0.135 A 
ATOM     90  C   UNL A   1      42.704  34.783  34.663  1.00  0.00     0.135 A 
ATOM     91  F   UNL A   1      43.678  35.617  31.256  1.00  0.00    -0.206 F 
ATOM     92  C   UNL A   1      43.969  36.824  33.246  1.00  0.00     0.059 A 
ATOM     93  C   UNL A   1      43.151  35.912  35.343  1.00  0.00     0.059 A 
ATOM     94  F   UNL A   1      42.098  33.814  35.369  1.00  0.00    -0.206 F 
ATOM     95  C   UNL A   1      43.798  36.920  34.628  1.00  0.00     0.060 A 
BRANCH  95  96
ATOM     96  S   UNL A   1      44.421  38.389  35.474  1.00  0.00     0.124 S 
ATOM     97  O   UNL A   1      43.733  39.459  34.761  1.00  0.00    -0.237 OA
ATOM     98  O   UNL A   1      43.990  38.161  36.850  1.00  0.00    -0.237 OA
ATOM     99  O   UNL A   1      45.864  38.317  35.259  1.00  0.00    -0.744 OA
ENDBRANCH  95  96
ENDBRANCH  63  88
ENDBRANCH  37  38
ENDBRANCH  29  32
ENDBRANCH  27  28
ENDBRANCH  26  27
ENDBRANCH   1  26
TORSDOF 19
ENDMDL
MODEL 2
REMARK VINA RESULT:     -10.7      4.801      6.715
REMARK SMILES CCC(CC)(NC(=O)NCc1ccccc1F)C(=O)NCCCCNC(=O)c1ccc(-c2c3nc(c(-c4c(F)cc(S(=O)(=O)[O-])cc4F)c4ccc([nH]4)c(-c4c(F)cc(S(=O)(=O)[O-])cc4F)c4nc(c(-c5c(F)cc(S(=O)(=O)[O-])cc5F)c5ccc2[nH]5)C=C4)C=C3)cc1
REMARK SMILES IDX 22 1 21 2 20 3 18 4 19 5 3 7 2 8 1 9 4 10 5 11 6 12 7 13
REMARK SMILES IDX 8 15 9 16 10 18 11 19 12 20 16 21 13 22 15 23 17 24 14 25
REMARK SMILES IDX 23 26 24 27 25 28 26 29 27 31 28 32 29 33 93 34 30 35 92 36
REMARK SMILES IDX 31 37 32 38 33 39 86 40 34 41 91 42 85 43 87 44 35 45 90 46
REMARK SMILES IDX 84 47 83 48 36 50 70 51 49 52 69 53 50 54 53 55 68 56 88 57
REMARK SMILES IDX 51 58 52 59 67 61 89 62 54 63 37 64 38 65 47 66 39 67 40 68
REMARK SMILES IDX 46 69 48 70 41 71 42 72 43 73 44 74 45 75 71 76 72 77 81 78
REMARK SMILES IDX 73 79 74 80 80 81 82 82 75 83 76 84 77 85 78 86 79 87 55 88
REMARK SMILES IDX 56 89 65 90 57 91 58 92 64 93 66 94 59 95 60 96 61 97 62 98
REMARK SMILES IDX 63 99
REMARK H PARENT 20 6 6 14 9 17 25 30 87 49 53 60
REMARK Flexibility Score: inf
ROOT
ATOM      1  C   UNL A   1      37.345  21.010  24.518  1.00  0.00     0.023 C 
ENDROOT
BRANCH   1   2
ATOM      2  C   UNL A   1      37.200  22.334  25.270  1.00  0.00     0.116 C 
BRANCH   2   3
ATOM      3  N   UNL A   1      36.301  22.402  26.418  1.00  0.00    -0.354 N 
ATOM      4  C   UNL A   1      34.927  22.514  26.486  1.00  0.00     0.245 C 
ATOM      5  O   UNL A   1      34.365  21.936  27.422  1.00  0.00    -0.272 OA
ATOM      6  H   UNL A   1      36.751  22.360  27.293  1.00  0.00     0.163 HD
BRANCH   4   7
ATOM      7  C   UNL A   1      34.091  23.173  25.351  1.00  0.00     0.120 C 
BRANCH   7   8
ATOM      8  C   UNL A   1      34.406  22.753  23.883  1.00  0.00     0.035 C 
ATOM      9  C   UNL A   1      33.543  23.328  22.768  1.00  0.00     0.007 C 
ENDBRANCH   7   8
BRANCH   7  10
ATOM     10  C   UNL A   1      34.402  24.704  25.517  1.00  0.00     0.035 C 
ATOM     11  C   UNL A   1      33.237  25.624  25.843  1.00  0.00     0.007 C 
ENDBRANCH   7  10
BRANCH   7  12
ATOM     12  N   UNL A   1      32.678  22.845  25.599  1.00  0.00    -0.324 N 
ATOM     13  C   UNL A   1      31.942  21.729  25.511  1.00  0.00     0.315 C 
ATOM     14  H   UNL A   1      32.155  23.623  25.899  1.00  0.00     0.166 HD
ATOM     15  O   UNL A   1      30.725  21.875  25.673  1.00  0.00    -0.249 OA
ATOM     16  N   UNL A   1      32.385  20.484  25.329  1.00  0.00    -0.334 N 
ATOM     17  H   UNL A   1      31.673  19.836  25.536  1.00  0.00     0.165 HD
BRANCH  16  18
ATOM     18  C   UNL A   1      33.599  19.779  24.917  1.00  0.00     0.156 C 
BRANCH  18  19
ATOM     19  C   UNL A   1      33.558  18.276  25.035  1.00  0.00     0.007 A 
ATOM     20  C   UNL A   1      32.465  17.653  25.663  1.00  0.00     0.008 A 
ATOM     21  C   UNL A   1      34.594  17.455  24.592  1.00  0.00     0.128 A 
ATOM     22  C   UNL A   1      32.347  16.261  25.706  1.00  0.00     0.001 A 
ATOM     23  C   UNL A   1      34.496  16.063  24.645  1.00  0.00     0.039 A 
ATOM     24  F   UNL A   1      35.699  18.001  24.064  1.00  0.00    -0.207 F 
ATOM     25  C   UNL A   1      33.356  15.464  25.177  1.00  0.00     0.003 A 
ENDBRANCH  18  19
ENDBRANCH  16  18
ENDBRANCH   7  12
ENDBRANCH   4   7
ENDBRANCH   2   3
ENDBRANCH   1   2
BRANCH   1  26
ATOM     26  C   UNL A   1      38.129  19.879  25.169  1.00  0.00     0.023 C 
BRANCH  26  27
ATOM     27  C   UNL A   1      39.301  20.273  26.052  1.00  0.00     0.116 C 
BRANCH  27  28
ATOM     28  N   UNL A   1      40.397  19.325  25.991  1.00  0.00    -0.352 N 
ATOM     29  C   UNL A   1      41.752  19.556  26.076  1.00  0.00     0.251 C 
ATOM     30  H   UNL A   1      40.137  18.384  25.872  1.00  0.00     0.163 HD
ATOM     31  O   UNL A   1      42.534  18.636  25.852  1.00  0.00    -0.269 OA
BRANCH  29  32
ATOM     32  C   UNL A   1      42.276  20.906  26.408  1.00  0.00     0.039 A 
ATOM     33  C   UNL A   1      42.507  21.808  25.365  1.00  0.00     0.014 A 
ATOM     34  C   UNL A   1      42.578  21.278  27.723  1.00  0.00     0.014 A 
ATOM     35  C   UNL A   1      42.995  23.090  25.642  1.00  0.00     0.010 A 
ATOM     36  C   UNL A   1      43.005  22.579  28.003  1.00  0.00     0.010 A 
ATOM     37  C   UNL A   1      43.230  23.497  26.966  1.00  0.00    -0.014 A 
BRANCH  37  38
ATOM     38  C   UNL A   1      43.730  24.867  27.267  1.00  0.00     0.031 A 
ATOM     39  C   UNL A   1      45.175  25.220  27.033  1.00  0.00     0.074 A 
ATOM     40  C   UNL A   1      42.893  25.795  27.772  1.00  0.00     0.049 A 
ATOM     41  N   UNL A   1      45.794  26.351  27.254  1.00  0.00    -0.248 NA
ATOM     42  C   UNL A   1      46.042  24.158  26.498  1.00  0.00     0.031 C 
ATOM     43  C   UNL A   1      41.477  25.579  28.077  1.00  0.00     0.029 A 
ATOM     44  N   UNL A   1      43.109  27.107  28.116  1.00  0.00    -0.354 N 
ATOM     45  C   UNL A   1      47.120  26.138  26.894  1.00  0.00     0.074 A 
ATOM     46  C   UNL A   1      47.227  24.753  26.487  1.00  0.00     0.031 C 
ATOM     47  C   UNL A   1      40.945  26.727  28.527  1.00  0.00     0.029 A 
ATOM     48  C   UNL A   1      41.985  27.752  28.577  1.00  0.00     0.049 A 
ATOM     49  H   UNL A   1      43.988  27.545  28.040  1.00  0.00     0.167 HD
ATOM     50  C   UNL A   1      48.149  27.018  26.877  1.00  0.00     0.037 A 
ATOM     51  C   UNL A   1      41.806  29.024  28.987  1.00  0.00     0.037 A 
ATOM     52  C   UNL A   1      48.040  28.406  27.247  1.00  0.00     0.049 A 
ATOM     53  C   UNL A   1      42.965  29.982  28.967  1.00  0.00     0.074 A 
ATOM     54  C   UNL A   1      49.019  29.384  27.209  1.00  0.00     0.029 A 
ATOM     55  N   UNL A   1      46.887  29.014  27.717  1.00  0.00    -0.354 N 
ATOM     56  N   UNL A   1      44.201  29.772  28.584  1.00  0.00    -0.248 NA
ATOM     57  C   UNL A   1      42.706  31.352  29.435  1.00  0.00     0.031 C 
ATOM     58  C   UNL A   1      48.468  30.575  27.690  1.00  0.00     0.029 A 
ATOM     59  C   UNL A   1      47.134  30.350  27.990  1.00  0.00     0.049 A 
ATOM     60  H   UNL A   1      46.020  28.564  27.839  1.00  0.00     0.167 HD
ATOM     61  C   UNL A   1      44.862  30.984  28.745  1.00  0.00     0.074 A 
ATOM     62  C   UNL A   1      43.888  31.928  29.253  1.00  0.00     0.031 C 
ATOM     63  C   UNL A   1      46.160  31.285  28.494  1.00  0.00     0.037 A 
BRANCH  50  64
ATOM     64  C   UNL A   1      49.491  26.514  26.426  1.00  0.00     0.058 A 
ATOM     65  C   UNL A   1      50.348  25.860  27.325  1.00  0.00     0.135 A 
ATOM     66  C   UNL A   1      49.952  26.727  25.118  1.00  0.00     0.135 A 
ATOM     67  F   UNL A   1      49.956  25.627  28.588  1.00  0.00    -0.206 F 
ATOM     68  C   UNL A   1      51.619  25.439  26.943  1.00  0.00     0.059 A 
ATOM     69  C   UNL A   1      51.209  26.293  24.707  1.00  0.00     0.059 A 
ATOM     70  F   UNL A   1      49.164  27.331  24.214  1.00  0.00    -0.206 F 
ATOM     71  C   UNL A   1      52.041  25.661  25.631  1.00  0.00     0.060 A 
BRANCH  71  72
ATOM     72  S   UNL A   1      53.672  25.066  25.135  1.00  0.00     0.124 S 
ATOM     73  O   UNL A   1      53.766  25.558  23.766  1.00  0.00    -0.237 OA
ATOM     74  O   UNL A   1      54.545  25.717  26.107  1.00  0.00    -0.237 OA
ATOM     75  O   UNL A   1      53.559  23.618  25.279  1.00  0.00    -0.744 OA
ENDBRANCH  71  72
ENDBRANCH  50  64
BRANCH  51  76
ATOM     76  C   UNL A   1      40.456  29.472  29.415  1.00  0.00     0.058 A 
ATOM     77  C   UNL A   1      39.445  29.744  28.482  1.00  0.00     0.135 A 
ATOM     78  C   UNL A   1      40.167  29.677  30.773  1.00  0.00     0.135 A 
ATOM     79  F   UNL A   1      39.674  29.569  27.171  1.00  0.00    -0.206 F 
ATOM     80  C   UNL A   1      38.204  30.231  28.875  1.00  0.00     0.059 A 
ATOM     81  C   UNL A   1      38.926  30.144  31.194  1.00  0.00     0.059 A 
ATOM     82  F   UNL A   1      41.098  29.415  31.702  1.00  0.00    -0.206 F 
ATOM     83  C   UNL A   1      37.956  30.435  30.234  1.00  0.00     0.060 A 
BRANCH  83  84
ATOM     84  S   UNL A   1      36.348  31.095  30.725  1.00  0.00     0.124 S 
ATOM     85  O   UNL A   1      35.650  31.138  29.445  1.00  0.00    -0.237 OA
ATOM     86  O   UNL A   1      35.880  30.086  31.671  1.00  0.00    -0.237 OA
ATOM     87  O   UNL A   1      36.678  32.391  31.306  1.00  0.00    -0.744 OA
ENDBRANCH  83  84
ENDBRANCH  51  76
BRANCH  63  88
ATOM     88  C   UNL A   1      46.616  32.694  28.748  1.00  0.00     0.058 A 
ATOM     89  C   UNL A   1      46.578  33.651  27.722  1.00  0.00     0.135 A 
ATOM     90  C   UNL A   1      47.170  33.073  29.980  1.00  0.00     0.135 A 
ATOM     91  F   UNL A   1      46.061  33.339  26.523  1.00  0.00    -0.206 F 
ATOM     92  C   UNL A   1      47.094  34.931  27.902  1.00  0.00     0.059 A 
ATOM     93  C   UNL A   1      47.673  34.354  30.189  1.00  0.00     0.059 A 
ATOM     94  F   UNL A   1      47.219  32.197  30.997  1.00  0.00    -0.206 F 
ATOM     95  C   UNL A   1      47.647  35.270  29.138  1.00  0.00     0.060 A 
BRANCH  95  96
ATOM     96  S   UNL A   1      48.316  36.934  29.354  1.00  0.00     0.124 S 
ATOM     97  O   UNL A   1      48.182  37.488  28.012  1.00  0.00    -0.237 OA
ATOM     98  O   UNL A   1      47.426  37.497  30.366  1.00  0.00    -0.237 OA
ATOM     99  O   UNL A   1      49.685  36.693  29.801  1.00  0.00    -0.744 OA
ENDBRANCH  95  96
ENDBRANCH  63  88
ENDBRANCH  37  38
ENDBRANCH  29  32
ENDBRANCH  27  28
ENDBRANCH  26  27
ENDBRANCH   1  26
TORSDOF 19
ENDMDL
MODEL 3
REMARK VINA RESULT:     -10.7      2.973      3.896
REMARK SMILES CCC(CC)(NC(=O)NCc1ccccc1F)C(=O)NCCCCNC(=O)c1ccc(-c2c3nc(c(-c4c(F)cc(S(=O)(=O)[O-])cc4F)c4ccc([nH]4)c(-c4c(F)cc(S(=O)(=O)[O-])cc4F)c4nc(c(-c5c(F)cc(S(=O)(=O)[O-])cc5F)c5ccc2[nH]5)C=C4)C=C3)cc1
REMARK SMILES IDX 22 1 21 2 20 3 18 4 19 5 3 7 2 8 1 9 4 10 5 11 6 12 7 13
REMARK SMILES IDX 8 15 9 16 10 18 11 19 12 20 16 21 13 22 15 23 17 24 14 25
REMARK SMILES IDX 23 26 24 27 25 28 26 29 27 31 28 32 29 33 93 34 30 35 92 36
REMARK SMILES IDX 31 37 32 38 33 39 86 40 34 41 91 42 85 43 87 44 35 45 90 46
REMARK SMILES IDX 84 47 83 48 36 50 70 51 49 52 69 53 50 54 53 55 68 56 88 57
REMARK SMILES IDX 51 58 52 59 67 61 89 62 54 63 37 64 38 65 47 66 39 67 40 68
REMARK SMILES IDX 46 69 48 70 41 71 42 72 43 73 44 74 45 75 71 76 72 77 81 78
REMARK SMILES IDX 73 79 74 80 80 81 82 82 75 83 76 84 77 85 78 86 79 87 55 88
REMARK SMILES IDX 56 89 65 90 57 91 58 92 64 93 66 94 59 95 60 96 61 97 62 98
REMARK SMILES IDX 63 99
REMARK H PARENT 20 6 6 14 9 17 25 30 87 49 53 60
REMARK Flexibility Score: inf
ROOT
ATOM      1  C   UNL A   1      36.938  23.300  24.406  1.00  0.00     0.023 C 
ENDROOT
BRANCH   1   2
ATOM      2  C   UNL A   1      35.516  23.780  24.108  1.00  0.00     0.116 C 
BRANCH   2   3
ATOM      3  N   UNL A   1      34.910  24.782  24.979  1.00  0.00    -0.354 N 
ATOM      4  C   UNL A   1      33.651  25.346  24.969  1.00  0.00     0.245 C 
ATOM      5  O   UNL A   1      33.158  25.632  26.066  1.00  0.00    -0.272 OA
ATOM      6  H   UNL A   1      35.499  25.111  25.697  1.00  0.00     0.163 HD
BRANCH   4   7
ATOM      7  C   UNL A   1      32.800  25.454  23.671  1.00  0.00     0.120 C 
BRANCH   7   8
ATOM      8  C   UNL A   1      31.347  26.004  23.801  1.00  0.00     0.035 C 
ATOM      9  C   UNL A   1      30.190  25.027  23.647  1.00  0.00     0.007 C 
ENDBRANCH   7   8
BRANCH   7  10
ATOM     10  C   UNL A   1      32.736  23.971  23.158  1.00  0.00     0.035 C 
ATOM     11  C   UNL A   1      32.877  23.740  21.662  1.00  0.00     0.007 C 
ENDBRANCH   7  10
BRANCH   7  12
ATOM     12  N   UNL A   1      33.517  26.349  22.749  1.00  0.00    -0.324 N 
ATOM     13  C   UNL A   1      33.694  27.675  22.671  1.00  0.00     0.315 C 
ATOM     14  H   UNL A   1      33.974  25.862  22.024  1.00  0.00     0.166 HD
ATOM     15  O   UNL A   1      34.260  28.082  21.649  1.00  0.00    -0.249 OA
ATOM     16  N   UNL A   1      33.379  28.585  23.594  1.00  0.00    -0.334 N 
ATOM     17  H   UNL A   1      33.821  29.441  23.390  1.00  0.00     0.165 HD
BRANCH  16  18
ATOM     18  C   UNL A   1      32.582  28.710  24.814  1.00  0.00     0.156 C 
BRANCH  18  19
ATOM     19  C   UNL A   1      33.245  29.431  25.961  1.00  0.00     0.007 A 
ATOM     20  C   UNL A   1      34.418  28.908  26.532  1.00  0.00     0.008 A 
ATOM     21  C   UNL A   1      32.716  30.587  26.532  1.00  0.00     0.128 A 
ATOM     22  C   UNL A   1      35.111  29.598  27.530  1.00  0.00     0.001 A 
ATOM     23  C   UNL A   1      33.391  31.277  27.542  1.00  0.00     0.039 A 
ATOM     24  F   UNL A   1      31.553  31.083  26.083  1.00  0.00    -0.207 F 
ATOM     25  C   UNL A   1      34.607  30.796  28.022  1.00  0.00     0.003 A 
ENDBRANCH  18  19
ENDBRANCH  16  18
ENDBRANCH   7  12
ENDBRANCH   4   7
ENDBRANCH   2   3
ENDBRANCH   1   2
BRANCH   1  26
ATOM     26  C   UNL A   1      37.366  23.132  25.856  1.00  0.00     0.023 C 
BRANCH  26  27
ATOM     27  C   UNL A   1      38.295  24.190  26.428  1.00  0.00     0.116 C 
BRANCH  27  28
ATOM     28  N   UNL A   1      39.688  23.955  26.101  1.00  0.00    -0.352 N 
ATOM     29  C   UNL A   1      40.809  24.620  26.544  1.00  0.00     0.251 C 
ATOM     30  H   UNL A   1      39.857  23.215  25.474  1.00  0.00     0.163 HD
ATOM     31  O   UNL A   1      41.898  24.368  26.036  1.00  0.00    -0.269 OA
BRANCH  29  32
ATOM     32  C   UNL A   1      40.712  25.652  27.608  1.00  0.00     0.039 A 
ATOM     33  C   UNL A   1      39.673  25.557  28.540  1.00  0.00     0.014 A 
ATOM     34  C   UNL A   1      41.604  26.729  27.676  1.00  0.00     0.014 A 
ATOM     35  C   UNL A   1      39.555  26.509  29.559  1.00  0.00     0.010 A 
ATOM     36  C   UNL A   1      41.522  27.642  28.731  1.00  0.00     0.010 A 
ATOM     37  C   UNL A   1      40.491  27.550  29.678  1.00  0.00    -0.014 A 
BRANCH  37  38
ATOM     38  C   UNL A   1      40.381  28.553  30.773  1.00  0.00     0.031 A 
ATOM     39  C   UNL A   1      41.300  28.488  31.964  1.00  0.00     0.074 A 
ATOM     40  C   UNL A   1      39.440  29.517  30.712  1.00  0.00     0.049 A 
ATOM     41  N   UNL A   1      41.339  29.260  33.019  1.00  0.00    -0.248 NA
ATOM     42  C   UNL A   1      42.292  27.401  31.981  1.00  0.00     0.031 C 
ATOM     43  C   UNL A   1      38.465  29.679  29.632  1.00  0.00     0.029 A 
ATOM     44  N   UNL A   1      39.152  30.546  31.575  1.00  0.00    -0.354 N 
ATOM     45  C   UNL A   1      42.350  28.753  33.827  1.00  0.00     0.074 A 
ATOM     46  C   UNL A   1      42.866  27.574  33.164  1.00  0.00     0.031 C 
ATOM     47  C   UNL A   1      37.711  30.763  29.879  1.00  0.00     0.029 A 
ATOM     48  C   UNL A   1      38.124  31.355  31.149  1.00  0.00     0.049 A 
ATOM     49  H   UNL A   1      39.635  30.690  32.420  1.00  0.00     0.167 HD
ATOM     50  C   UNL A   1      42.825  29.235  35.000  1.00  0.00     0.037 A 
ATOM     51  C   UNL A   1      37.577  32.452  31.711  1.00  0.00     0.037 A 
ATOM     52  C   UNL A   1      42.339  30.426  35.647  1.00  0.00     0.049 A 
ATOM     53  C   UNL A   1      38.115  32.965  33.019  1.00  0.00     0.074 A 
ATOM     54  C   UNL A   1      42.798  31.019  36.811  1.00  0.00     0.029 A 
ATOM     55  N   UNL A   1      41.291  31.208  35.188  1.00  0.00    -0.354 N 
ATOM     56  N   UNL A   1      39.099  32.495  33.745  1.00  0.00    -0.248 NA
ATOM     57  C   UNL A   1      37.470  34.161  33.583  1.00  0.00     0.031 C 
ATOM     58  C   UNL A   1      42.005  32.139  37.075  1.00  0.00     0.029 A 
ATOM     59  C   UNL A   1      41.077  32.268  36.054  1.00  0.00     0.049 A 
ATOM     60  H   UNL A   1      40.775  31.037  34.367  1.00  0.00     0.167 HD
ATOM     61  C   UNL A   1      39.204  33.345  34.841  1.00  0.00     0.074 A 
ATOM     62  C   UNL A   1      38.190  34.365  34.679  1.00  0.00     0.031 C 
ATOM     63  C   UNL A   1      40.065  33.282  35.886  1.00  0.00     0.037 A 
BRANCH  50  64
ATOM     64  C   UNL A   1      43.946  28.483  35.661  1.00  0.00     0.058 A 
ATOM     65  C   UNL A   1      45.283  28.763  35.338  1.00  0.00     0.135 A 
ATOM     66  C   UNL A   1      43.694  27.447  36.575  1.00  0.00     0.135 A 
ATOM     67  F   UNL A   1      45.580  29.746  34.474  1.00  0.00    -0.206 F 
ATOM     68  C   UNL A   1      46.333  28.037  35.895  1.00  0.00     0.059 A 
ATOM     69  C   UNL A   1      44.729  26.724  37.162  1.00  0.00     0.059 A 
ATOM     70  F   UNL A   1      42.434  27.152  36.932  1.00  0.00    -0.206 F 
ATOM     71  C   UNL A   1      46.045  27.019  36.805  1.00  0.00     0.060 A 
BRANCH  71  72
ATOM     72  S   UNL A   1      47.418  26.118  37.557  1.00  0.00     0.124 S 
ATOM     73  O   UNL A   1      48.318  25.943  36.423  1.00  0.00    -0.237 OA
ATOM     74  O   UNL A   1      47.866  27.047  38.589  1.00  0.00    -0.237 OA
ATOM     75  O   UNL A   1      46.787  24.899  38.056  1.00  0.00    -0.744 OA
ENDBRANCH  71  72
ENDBRANCH  50  64
BRANCH  51  76
ATOM     76  C   UNL A   1      36.475  33.162  31.010  1.00  0.00     0.058 A 
ATOM     77  C   UNL A   1      36.716  33.936  29.866  1.00  0.00     0.135 A 
ATOM     78  C   UNL A   1      35.163  33.110  31.504  1.00  0.00     0.135 A 
ATOM     79  F   UNL A   1      37.956  34.021  29.359  1.00  0.00    -0.206 F 
ATOM     80  C   UNL A   1      35.700  34.658  29.250  1.00  0.00     0.059 A 
ATOM     81  C   UNL A   1      34.125  33.807  30.893  1.00  0.00     0.059 A 
ATOM     82  F   UNL A   1      34.883  32.369  32.586  1.00  0.00    -0.206 F 
ATOM     83  C   UNL A   1      34.408  34.593  29.777  1.00  0.00     0.060 A 
BRANCH  83  84
ATOM     84  S   UNL A   1      33.107  35.560  28.981  1.00  0.00     0.124 S 
ATOM     85  O   UNL A   1      32.468  34.550  28.142  1.00  0.00    -0.237 OA
ATOM     86  O   UNL A   1      32.325  36.022  30.125  1.00  0.00    -0.237 OA
ATOM     87  O   UNL A   1      33.843  36.597  28.268  1.00  0.00    -0.744 OA
ENDBRANCH  83  84
ENDBRANCH  51  76
BRANCH  63  88
ATOM     88  C   UNL A   1      39.969  34.349  36.940  1.00  0.00     0.058 A 
ATOM     89  C   UNL A   1      39.114  34.187  38.041  1.00  0.00     0.135 A 
ATOM     90  C   UNL A   1      40.656  35.565  36.815  1.00  0.00     0.135 A 
ATOM     91  F   UNL A   1      38.430  33.043  38.206  1.00  0.00    -0.206 F 
ATOM     92  C   UNL A   1      38.927  35.204  38.972  1.00  0.00     0.059 A 
ATOM     93  C   UNL A   1      40.501  36.589  37.745  1.00  0.00     0.059 A 
ATOM     94  F   UNL A   1      41.495  35.765  35.785  1.00  0.00    -0.206 F 
ATOM     95  C   UNL A   1      39.619  36.406  38.811  1.00  0.00     0.060 A 
BRANCH  95  96
ATOM     96  S   UNL A   1      39.364  37.717  40.025  1.00  0.00     0.124 S 
ATOM     97  O   UNL A   1      39.173  36.955  41.254  1.00  0.00    -0.237 OA
ATOM     98  O   UNL A   1      40.610  38.473  39.933  1.00  0.00    -0.237 OA
ATOM     99  O   UNL A   1      38.181  38.414  39.527  1.00  0.00    -0.744 OA
ENDBRANCH  95  96
ENDBRANCH  63  88
ENDBRANCH  37  38
ENDBRANCH  29  32
ENDBRANCH  27  28
ENDBRANCH  26  27
ENDBRANCH   1  26
TORSDOF 19
ENDMDL
