MODEL 1
REMARK VINA RESULT:     -13.2      0.000      0.000
REMARK SMILES CC(C)c1cc(N2CCC(C(=O)NCCCCNC(=O)c3ccc(-c4c5nc(c(-c6c(F)cc(S(=O)(=O)[O-])cc6F)c6ccc([nH]6)c(-c6c(F)cc(S(=O)(=O)[O-])cc6F)c6nc(c(-c7c(F)cc(S(=O)(=O)[O-])cc7F)c7ccc4[nH]7)C=C6)C=C5)cc3)CC2)nc(-c2ccc(F)cc2)n1
REMARK SMILES IDX 16 1 15 2 14 3 13 4 11 5 12 6 10 8 7 9 8 10 88 11 9 12 87 13
REMARK SMILES IDX 6 14 4 15 5 16 98 17 90 18 89 19 2 20 1 21 3 22 91 23 92 24
REMARK SMILES IDX 97 25 93 26 96 27 94 28 95 29 17 30 18 31 19 32 20 34 21 35
REMARK SMILES IDX 22 36 86 37 23 38 85 39 24 40 25 41 26 42 79 43 27 44 84 45
REMARK SMILES IDX 78 46 80 47 28 48 83 49 77 50 76 51 29 53 63 54 42 55 62 56
REMARK SMILES IDX 43 57 46 58 61 59 81 60 44 61 45 62 60 64 82 65 47 66 30 67
REMARK SMILES IDX 31 68 40 69 32 70 33 71 39 72 41 73 34 74 35 75 36 76 37 77
REMARK SMILES IDX 38 78 64 79 65 80 74 81 66 82 67 83 73 84 75 85 68 86 69 87
REMARK SMILES IDX 70 88 71 89 72 90 48 91 49 92 58 93 50 94 51 95 57 96 59 97
REMARK SMILES IDX 52 98 53 99 54 100 55 101 56 102
REMARK H PARENT 13 7 18 33 80 52 46 63
REMARK Flexibility Score: inf
ROOT
ATOM      1  C   UNL A   1      37.224  23.260  25.574  1.00  0.00     0.023 C 
ENDROOT
BRANCH   1   2
ATOM      2  C   UNL A   1      35.929  23.928  25.116  1.00  0.00     0.023 C 
BRANCH   2   3
ATOM      3  C   UNL A   1      34.702  23.622  25.974  1.00  0.00     0.116 C 
BRANCH   3   4
ATOM      4  N   UNL A   1      34.406  22.198  26.047  1.00  0.00    -0.356 N 
ATOM      5  C   UNL A   1      33.244  21.521  25.821  1.00  0.00     0.223 C 
ATOM      6  O   UNL A   1      33.255  20.292  25.914  1.00  0.00    -0.275 OA
ATOM      7  H   UNL A   1      35.170  21.631  26.301  1.00  0.00     0.163 HD
BRANCH   5   8
ATOM      8  C   UNL A   1      31.955  22.249  25.456  1.00  0.00     0.082 C 
ATOM      9  N   UNL A   1      31.175  24.859  24.753  1.00  0.00    -0.356 N 
ATOM     10  C   UNL A   1      30.719  24.416  26.059  1.00  0.00     0.119 C 
ATOM     11  C   UNL A   1      31.070  23.892  23.681  1.00  0.00     0.119 C 
ATOM     12  C   UNL A   1      31.612  23.287  26.538  1.00  0.00     0.035 C 
ATOM     13  C   UNL A   1      32.005  22.729  23.991  1.00  0.00     0.035 C 
BRANCH   9  14
ATOM     14  C   UNL A   1      31.070  26.212  24.517  1.00  0.00     0.132 A 
ATOM     15  C   UNL A   1      30.089  28.087  23.458  1.00  0.00     0.049 A 
ATOM     16  C   UNL A   1      30.234  26.713  23.537  1.00  0.00     0.071 A 
ATOM     17  N   UNL A   1      30.772  28.913  24.276  1.00  0.00    -0.233 NA
ATOM     18  C   UNL A   1      31.608  28.342  25.160  1.00  0.00     0.161 A 
ATOM     19  N   UNL A   1      31.770  27.021  25.327  1.00  0.00    -0.211 NA
BRANCH  15  20
ATOM     20  C   UNL A   1      29.171  28.765  22.462  1.00  0.00     0.032 C 
ATOM     21  C   UNL A   1      27.763  28.885  23.048  1.00  0.00     0.014 C 
ATOM     22  C   UNL A   1      29.654  30.128  21.957  1.00  0.00     0.014 C 
ENDBRANCH  15  20
BRANCH  18  23
ATOM     23  C   UNL A   1      32.423  29.235  25.990  1.00  0.00     0.019 A 
ATOM     24  C   UNL A   1      33.691  28.839  26.450  1.00  0.00     0.015 A 
ATOM     25  C   UNL A   1      31.948  30.509  26.363  1.00  0.00     0.015 A 
ATOM     26  C   UNL A   1      34.461  29.685  27.253  1.00  0.00     0.040 A 
ATOM     27  C   UNL A   1      32.710  31.349  27.180  1.00  0.00     0.040 A 
ATOM     28  C   UNL A   1      33.959  30.929  27.615  1.00  0.00     0.123 A 
ATOM     29  F   UNL A   1      34.692  31.730  28.400  1.00  0.00    -0.207 F 
ENDBRANCH  18  23
ENDBRANCH   9  14
ENDBRANCH   5   8
ENDBRANCH   3   4
ENDBRANCH   2   3
ENDBRANCH   1   2
BRANCH   1  30
ATOM     30  C   UNL A   1      38.146  24.131  26.419  1.00  0.00     0.116 C 
BRANCH  30  31
ATOM     31  N   UNL A   1      39.558  23.891  26.161  1.00  0.00    -0.352 N 
ATOM     32  C   UNL A   1      40.650  24.587  26.621  1.00  0.00     0.251 C 
ATOM     33  H   UNL A   1      39.759  23.124  25.577  1.00  0.00     0.163 HD
ATOM     34  O   UNL A   1      41.775  24.306  26.213  1.00  0.00    -0.269 OA
BRANCH  32  35
ATOM     35  C   UNL A   1      40.459  25.698  27.579  1.00  0.00     0.039 A 
ATOM     36  C   UNL A   1      39.479  25.576  28.568  1.00  0.00     0.014 A 
ATOM     37  C   UNL A   1      41.264  26.838  27.522  1.00  0.00     0.014 A 
ATOM     38  C   UNL A   1      39.359  26.565  29.547  1.00  0.00     0.010 A 
ATOM     39  C   UNL A   1      41.191  27.788  28.538  1.00  0.00     0.010 A 
ATOM     40  C   UNL A   1      40.240  27.659  29.563  1.00  0.00    -0.014 A 
BRANCH  40  41
ATOM     41  C   UNL A   1      40.193  28.675  30.646  1.00  0.00     0.031 A 
ATOM     42  C   UNL A   1      41.096  28.548  31.841  1.00  0.00     0.074 A 
ATOM     43  C   UNL A   1      39.284  29.669  30.589  1.00  0.00     0.049 A 
ATOM     44  N   UNL A   1      41.148  29.286  32.920  1.00  0.00    -0.248 NA
ATOM     45  C   UNL A   1      42.046  27.424  31.836  1.00  0.00     0.031 C 
ATOM     46  C   UNL A   1      38.316  29.871  29.509  1.00  0.00     0.029 A 
ATOM     47  N   UNL A   1      39.017  30.690  31.467  1.00  0.00    -0.354 N 
ATOM     48  C   UNL A   1      42.119  28.706  33.729  1.00  0.00     0.074 A 
ATOM     49  C   UNL A   1      42.595  27.528  33.037  1.00  0.00     0.031 C 
ATOM     50  C   UNL A   1      37.579  30.961  29.777  1.00  0.00     0.029 A 
ATOM     51  C   UNL A   1      37.995  31.515  31.061  1.00  0.00     0.049 A 
ATOM     52  H   UNL A   1      39.512  30.820  32.308  1.00  0.00     0.167 HD
ATOM     53  C   UNL A   1      42.587  29.130  34.928  1.00  0.00     0.037 A 
ATOM     54  C   UNL A   1      37.451  32.594  31.657  1.00  0.00     0.037 A 
ATOM     55  C   UNL A   1      42.131  30.319  35.598  1.00  0.00     0.049 A 
ATOM     56  C   UNL A   1      37.995  33.054  32.981  1.00  0.00     0.074 A 
ATOM     57  C   UNL A   1      42.587  30.869  36.783  1.00  0.00     0.029 A 
ATOM     58  N   UNL A   1      41.112  31.143  35.141  1.00  0.00    -0.354 N 
ATOM     59  N   UNL A   1      38.958  32.530  33.703  1.00  0.00    -0.248 NA
ATOM     60  C   UNL A   1      37.385  34.255  33.570  1.00  0.00     0.031 C 
ATOM     61  C   UNL A   1      41.820  32.006  37.061  1.00  0.00     0.029 A 
ATOM     62  C   UNL A   1      40.914  32.188  36.029  1.00  0.00     0.049 A 
ATOM     63  H   UNL A   1      40.604  31.007  34.309  1.00  0.00     0.167 HD
ATOM     64  C   UNL A   1      39.085  33.351  34.819  1.00  0.00     0.074 A 
ATOM     65  C   UNL A   1      38.107  34.410  34.672  1.00  0.00     0.031 C 
ATOM     66  C   UNL A   1      39.938  33.238  35.867  1.00  0.00     0.037 A 
BRANCH  53  67
ATOM     67  C   UNL A   1      43.651  28.297  35.586  1.00  0.00     0.058 A 
ATOM     68  C   UNL A   1      45.012  28.467  35.286  1.00  0.00     0.135 A 
ATOM     69  C   UNL A   1      43.308  27.320  36.536  1.00  0.00     0.135 A 
ATOM     70  F   UNL A   1      45.394  29.376  34.374  1.00  0.00    -0.206 F 
ATOM     71  C   UNL A   1      45.992  27.671  35.870  1.00  0.00     0.059 A 
ATOM     72  C   UNL A   1      44.275  26.531  37.154  1.00  0.00     0.059 A 
ATOM     73  F   UNL A   1      42.022  27.116  36.863  1.00  0.00    -0.206 F 
ATOM     74  C   UNL A   1      45.613  26.700  36.798  1.00  0.00     0.060 A 
BRANCH  74  75
ATOM     75  S   UNL A   1      46.892  25.662  37.534  1.00  0.00     0.124 S 
ATOM     76  O   UNL A   1      46.089  24.720  38.309  1.00  0.00    -0.237 OA
ATOM     77  O   UNL A   1      47.561  25.107  36.361  1.00  0.00    -0.237 OA
ATOM     78  O   UNL A   1      47.685  26.603  38.317  1.00  0.00    -0.744 OA
ENDBRANCH  74  75
ENDBRANCH  53  67
BRANCH  54  79
ATOM     79  C   UNL A   1      36.350  33.332  30.984  1.00  0.00     0.058 A 
ATOM     80  C   UNL A   1      35.051  33.321  31.512  1.00  0.00     0.135 A 
ATOM     81  C   UNL A   1      36.579  34.088  29.824  1.00  0.00     0.135 A 
ATOM     82  F   UNL A   1      34.783  32.606  32.616  1.00  0.00    -0.206 F 
ATOM     83  C   UNL A   1      34.014  34.027  30.912  1.00  0.00     0.059 A 
ATOM     84  C   UNL A   1      35.563  34.820  29.218  1.00  0.00     0.059 A 
ATOM     85  F   UNL A   1      37.808  34.143  29.289  1.00  0.00    -0.206 F 
ATOM     86  C   UNL A   1      34.282  34.778  29.767  1.00  0.00     0.060 A 
BRANCH  86  87
ATOM     87  S   UNL A   1      32.943  35.746  29.034  1.00  0.00     0.124 S 
ATOM     88  O   UNL A   1      32.353  34.781  28.114  1.00  0.00    -0.237 OA
ATOM     89  O   UNL A   1      32.139  36.090  30.203  1.00  0.00    -0.237 OA
ATOM     90  O   UNL A   1      33.643  36.866  28.413  1.00  0.00    -0.744 OA
ENDBRANCH  86  87
ENDBRANCH  54  79
BRANCH  66  91
ATOM     91  C   UNL A   1      39.872  34.300  36.928  1.00  0.00     0.058 A 
ATOM     92  C   UNL A   1      40.563  35.515  36.798  1.00  0.00     0.135 A 
ATOM     93  C   UNL A   1      39.066  34.121  38.064  1.00  0.00     0.135 A 
ATOM     94  F   UNL A   1      41.354  35.732  35.735  1.00  0.00    -0.206 F 
ATOM     95  C   UNL A   1      40.472  36.508  37.767  1.00  0.00     0.059 A 
ATOM     96  C   UNL A   1      38.941  35.111  39.033  1.00  0.00     0.059 A 
ATOM     97  F   UNL A   1      38.377  32.981  38.231  1.00  0.00    -0.206 F 
ATOM     98  C   UNL A   1      39.656  36.297  38.881  1.00  0.00     0.060 A 
BRANCH  98  99
ATOM     99  S   UNL A   1      39.516  37.610  40.114  1.00  0.00     0.124 S 
ATOM    100  O   UNL A   1      39.056  36.867  41.282  1.00  0.00    -0.237 OA
ATOM    101  O   UNL A   1      40.881  38.123  40.184  1.00  0.00    -0.237 OA
ATOM    102  O   UNL A   1      38.540  38.523  39.525  1.00  0.00    -0.744 OA
ENDBRANCH  98  99
ENDBRANCH  66  91
ENDBRANCH  40  41
ENDBRANCH  32  35
ENDBRANCH  30  31
ENDBRANCH   1  30
TORSDOF 17
ENDMDL
MODEL 2
REMARK VINA RESULT:     -13.0      5.150     10.949
REMARK SMILES CC(C)c1cc(N2CCC(C(=O)NCCCCNC(=O)c3ccc(-c4c5nc(c(-c6c(F)cc(S(=O)(=O)[O-])cc6F)c6ccc([nH]6)c(-c6c(F)cc(S(=O)(=O)[O-])cc6F)c6nc(c(-c7c(F)cc(S(=O)(=O)[O-])cc7F)c7ccc4[nH]7)C=C6)C=C5)cc3)CC2)nc(-c2ccc(F)cc2)n1
REMARK SMILES IDX 16 1 15 2 14 3 13 4 11 5 12 6 10 8 7 9 8 10 88 11 9 12 87 13
REMARK SMILES IDX 6 14 4 15 5 16 98 17 90 18 89 19 2 20 1 21 3 22 91 23 92 24
REMARK SMILES IDX 97 25 93 26 96 27 94 28 95 29 17 30 18 31 19 32 20 34 21 35
REMARK SMILES IDX 22 36 86 37 23 38 85 39 24 40 25 41 26 42 79 43 27 44 84 45
REMARK SMILES IDX 78 46 80 47 28 48 83 49 77 50 76 51 29 53 63 54 42 55 62 56
REMARK SMILES IDX 43 57 46 58 61 59 81 60 44 61 45 62 60 64 82 65 47 66 30 67
REMARK SMILES IDX 31 68 40 69 32 70 33 71 39 72 41 73 34 74 35 75 36 76 37 77
REMARK SMILES IDX 38 78 64 79 65 80 74 81 66 82 67 83 73 84 75 85 68 86 69 87
REMARK SMILES IDX 70 88 71 89 72 90 48 91 49 92 58 93 50 94 51 95 57 96 59 97
REMARK SMILES IDX 52 98 53 99 54 100 55 101 56 102
REMARK H PARENT 13 7 18 33 80 52 46 63
REMARK Flexibility Score: inf
ROOT
ATOM      1  C   UNL A   1      33.653  28.548  25.637  1.00  0.00     0.023 C 
ENDROOT
BRANCH   1   2
ATOM      2  C   UNL A   1      33.794  27.156  25.025  1.00  0.00     0.023 C 
BRANCH   2   3
ATOM      3  C   UNL A   1      33.808  27.116  23.497  1.00  0.00     0.116 C 
BRANCH   3   4
ATOM      4  N   UNL A   1      32.580  27.632  22.909  1.00  0.00    -0.356 N 
ATOM      5  C   UNL A   1      31.500  26.977  22.393  1.00  0.00     0.223 C 
ATOM      6  O   UNL A   1      30.552  27.647  21.979  1.00  0.00    -0.275 OA
ATOM      7  H   UNL A   1      32.518  28.615  22.878  1.00  0.00     0.163 HD
BRANCH   5   8
ATOM      8  C   UNL A   1      31.447  25.454  22.329  1.00  0.00     0.082 C 
ATOM      9  N   UNL A   1      32.875  23.282  23.403  1.00  0.00    -0.356 N 
ATOM     10  C   UNL A   1      33.043  23.477  21.973  1.00  0.00     0.119 C 
ATOM     11  C   UNL A   1      31.528  23.424  23.910  1.00  0.00     0.119 C 
ATOM     12  C   UNL A   1      32.704  24.914  21.626  1.00  0.00     0.035 C 
ATOM     13  C   UNL A   1      31.089  24.870  23.710  1.00  0.00     0.035 C 
BRANCH   9  14
ATOM     14  C   UNL A   1      33.784  22.433  23.996  1.00  0.00     0.132 A 
ATOM     15  C   UNL A   1      35.772  22.002  25.205  1.00  0.00     0.049 A 
ATOM     16  C   UNL A   1      34.980  22.898  24.510  1.00  0.00     0.071 A 
ATOM     17  N   UNL A   1      35.416  20.708  25.339  1.00  0.00    -0.233 NA
ATOM     18  C   UNL A   1      34.265  20.329  24.756  1.00  0.00     0.161 A 
ATOM     19  N   UNL A   1      33.425  21.146  24.105  1.00  0.00    -0.211 NA
BRANCH  15  20
ATOM     20  C   UNL A   1      37.083  22.390  25.858  1.00  0.00     0.032 C 
ATOM     21  C   UNL A   1      38.209  21.494  25.340  1.00  0.00     0.014 C 
ATOM     22  C   UNL A   1      37.468  23.865  25.712  1.00  0.00     0.014 C 
ENDBRANCH  15  20
BRANCH  18  23
ATOM     23  C   UNL A   1      33.917  18.906  24.818  1.00  0.00     0.019 A 
ATOM     24  C   UNL A   1      32.716  18.480  25.413  1.00  0.00     0.015 A 
ATOM     25  C   UNL A   1      34.786  17.926  24.298  1.00  0.00     0.015 A 
ATOM     26  C   UNL A   1      32.392  17.122  25.484  1.00  0.00     0.040 A 
ATOM     27  C   UNL A   1      34.471  16.566  24.383  1.00  0.00     0.040 A 
ATOM     28  C   UNL A   1      33.276  16.179  24.975  1.00  0.00     0.123 A 
ATOM     29  F   UNL A   1      32.970  14.877  25.062  1.00  0.00    -0.207 F 
ENDBRANCH  18  23
ENDBRANCH   9  14
ENDBRANCH   5   8
ENDBRANCH   3   4
ENDBRANCH   2   3
ENDBRANCH   1   2
BRANCH   1  30
ATOM     30  C   UNL A   1      33.681  28.600  27.159  1.00  0.00     0.116 C 
BRANCH  30  31
ATOM     31  N   UNL A   1      33.577  29.952  27.690  1.00  0.00    -0.352 N 
ATOM     32  C   UNL A   1      34.525  30.692  28.357  1.00  0.00     0.251 C 
ATOM     33  H   UNL A   1      32.710  30.397  27.553  1.00  0.00     0.163 HD
ATOM     34  O   UNL A   1      34.227  31.786  28.831  1.00  0.00    -0.269 OA
BRANCH  32  35
ATOM     35  C   UNL A   1      35.889  30.148  28.531  1.00  0.00     0.039 A 
ATOM     36  C   UNL A   1      36.768  30.169  27.445  1.00  0.00     0.014 A 
ATOM     37  C   UNL A   1      36.309  29.653  29.767  1.00  0.00     0.014 A 
ATOM     38  C   UNL A   1      38.093  29.761  27.620  1.00  0.00     0.010 A 
ATOM     39  C   UNL A   1      37.647  29.315  29.959  1.00  0.00     0.010 A 
ATOM     40  C   UNL A   1      38.552  29.370  28.888  1.00  0.00    -0.014 A 
BRANCH  40  41
ATOM     41  C   UNL A   1      39.978  29.022  29.121  1.00  0.00     0.031 A 
ATOM     42  C   UNL A   1      40.926  30.049  29.675  1.00  0.00     0.074 A 
ATOM     43  C   UNL A   1      40.435  27.805  28.762  1.00  0.00     0.049 A 
ATOM     44  N   UNL A   1      42.216  29.961  29.875  1.00  0.00    -0.248 NA
ATOM     45  C   UNL A   1      40.352  31.358  30.024  1.00  0.00     0.031 C 
ATOM     46  C   UNL A   1      39.628  26.739  28.164  1.00  0.00     0.029 A 
ATOM     47  N   UNL A   1      41.695  27.264  28.835  1.00  0.00    -0.354 N 
ATOM     48  C   UNL A   1      42.611  31.205  30.352  1.00  0.00     0.074 A 
ATOM     49  C   UNL A   1      41.432  32.044  30.366  1.00  0.00     0.031 C 
ATOM     50  C   UNL A   1      40.406  25.667  27.947  1.00  0.00     0.029 A 
ATOM     51  C   UNL A   1      41.772  25.978  28.355  1.00  0.00     0.049 A 
ATOM     52  H   UNL A   1      42.470  27.752  29.196  1.00  0.00     0.167 HD
ATOM     53  C   UNL A   1      43.839  31.605  30.763  1.00  0.00     0.037 A 
ATOM     54  C   UNL A   1      42.825  25.144  28.252  1.00  0.00     0.037 A 
ATOM     55  C   UNL A   1      45.001  30.757  30.775  1.00  0.00     0.049 A 
ATOM     56  C   UNL A   1      44.176  25.603  28.727  1.00  0.00     0.074 A 
ATOM     57  C   UNL A   1      46.275  31.047  31.233  1.00  0.00     0.029 A 
ATOM     58  N   UNL A   1      45.034  29.451  30.306  1.00  0.00    -0.354 N 
ATOM     59  N   UNL A   1      44.519  26.764  29.235  1.00  0.00    -0.248 NA
ATOM     60  C   UNL A   1      45.282  24.641  28.620  1.00  0.00     0.031 C 
ATOM     61  C   UNL A   1      47.086  29.928  31.008  1.00  0.00     0.029 A 
ATOM     62  C   UNL A   1      46.308  28.927  30.449  1.00  0.00     0.049 A 
ATOM     63  H   UNL A   1      44.264  28.967  29.929  1.00  0.00     0.167 HD
ATOM     64  C   UNL A   1      45.874  26.662  29.532  1.00  0.00     0.074 A 
ATOM     65  C   UNL A   1      46.286  25.326  29.153  1.00  0.00     0.031 C 
ATOM     66  C   UNL A   1      46.701  27.592  30.071  1.00  0.00     0.037 A 
BRANCH  53  67
ATOM     67  C   UNL A   1      43.979  33.025  31.235  1.00  0.00     0.058 A 
ATOM     68  C   UNL A   1      44.385  34.053  30.369  1.00  0.00     0.135 A 
ATOM     69  C   UNL A   1      43.698  33.366  32.568  1.00  0.00     0.135 A 
ATOM     70  F   UNL A   1      44.681  33.780  29.088  1.00  0.00    -0.206 F 
ATOM     71  C   UNL A   1      44.548  35.360  30.816  1.00  0.00     0.059 A 
ATOM     72  C   UNL A   1      43.827  34.674  33.030  1.00  0.00     0.059 A 
ATOM     73  F   UNL A   1      43.304  32.424  33.439  1.00  0.00    -0.206 F 
ATOM     74  C   UNL A   1      44.273  35.660  32.150  1.00  0.00     0.060 A 
BRANCH  74  75
ATOM     75  S   UNL A   1      44.506  37.355  32.722  1.00  0.00     0.124 S 
ATOM     76  O   UNL A   1      45.943  37.530  32.531  1.00  0.00    -0.237 OA
ATOM     77  O   UNL A   1      43.651  38.115  31.814  1.00  0.00    -0.237 OA
ATOM     78  O   UNL A   1      44.058  37.311  34.110  1.00  0.00    -0.744 OA
ENDBRANCH  74  75
ENDBRANCH  53  67
BRANCH  54  79
ATOM     79  C   UNL A   1      42.631  23.774  27.709  1.00  0.00     0.058 A 
ATOM     80  C   UNL A   1      42.699  23.535  26.328  1.00  0.00     0.135 A 
ATOM     81  C   UNL A   1      42.408  22.676  28.554  1.00  0.00     0.135 A 
ATOM     82  F   UNL A   1      42.904  24.554  25.481  1.00  0.00    -0.206 F 
ATOM     83  C   UNL A   1      42.547  22.256  25.802  1.00  0.00     0.059 A 
ATOM     84  C   UNL A   1      42.273  21.385  28.053  1.00  0.00     0.059 A 
ATOM     85  F   UNL A   1      42.350  22.852  29.883  1.00  0.00    -0.206 F 
ATOM     86  C   UNL A   1      42.339  21.186  26.674  1.00  0.00     0.060 A 
BRANCH  86  87
ATOM     87  S   UNL A   1      42.210  19.521  25.986  1.00  0.00     0.124 S 
ATOM     88  O   UNL A   1      43.106  19.607  24.839  1.00  0.00    -0.237 OA
ATOM     89  O   UNL A   1      42.672  18.693  27.096  1.00  0.00    -0.237 OA
ATOM     90  O   UNL A   1      40.790  19.399  25.672  1.00  0.00    -0.744 OA
ENDBRANCH  86  87
ENDBRANCH  54  79
BRANCH  66  91
ATOM     91  C   UNL A   1      48.129  27.190  30.311  1.00  0.00     0.058 A 
ATOM     92  C   UNL A   1      49.163  27.595  29.453  1.00  0.00     0.135 A 
ATOM     93  C   UNL A   1      48.473  26.435  31.444  1.00  0.00     0.135 A 
ATOM     94  F   UNL A   1      48.885  28.312  28.352  1.00  0.00    -0.206 F 
ATOM     95  C   UNL A   1      50.487  27.248  29.699  1.00  0.00     0.059 A 
ATOM     96  C   UNL A   1      49.793  26.097  31.722  1.00  0.00     0.059 A 
ATOM     97  F   UNL A   1      47.522  26.031  32.301  1.00  0.00    -0.206 F 
ATOM     98  C   UNL A   1      50.793  26.499  30.838  1.00  0.00     0.060 A 
BRANCH  98  99
ATOM     99  S   UNL A   1      52.520  26.087  31.167  1.00  0.00     0.124 S 
ATOM    100  O   UNL A   1      52.967  27.264  31.903  1.00  0.00    -0.237 OA
ATOM    101  O   UNL A   1      52.408  24.857  31.944  1.00  0.00    -0.237 OA
ATOM    102  O   UNL A   1      53.090  25.928  29.831  1.00  0.00    -0.744 OA
ENDBRANCH  98  99
ENDBRANCH  66  91
ENDBRANCH  40  41
ENDBRANCH  32  35
ENDBRANCH  30  31
ENDBRANCH   1  30
TORSDOF 17
ENDMDL
MODEL 3
REMARK VINA RESULT:     -13.0      4.789     10.616
REMARK SMILES CC(C)c1cc(N2CCC(C(=O)NCCCCNC(=O)c3ccc(-c4c5nc(c(-c6c(F)cc(S(=O)(=O)[O-])cc6F)c6ccc([nH]6)c(-c6c(F)cc(S(=O)(=O)[O-])cc6F)c6nc(c(-c7c(F)cc(S(=O)(=O)[O-])cc7F)c7ccc4[nH]7)C=C6)C=C5)cc3)CC2)nc(-c2ccc(F)cc2)n1
REMARK SMILES IDX 16 1 15 2 14 3 13 4 11 5 12 6 10 8 7 9 8 10 88 11 9 12 87 13
REMARK SMILES IDX 6 14 4 15 5 16 98 17 90 18 89 19 2 20 1 21 3 22 91 23 92 24
REMARK SMILES IDX 97 25 93 26 96 27 94 28 95 29 17 30 18 31 19 32 20 34 21 35
REMARK SMILES IDX 22 36 86 37 23 38 85 39 24 40 25 41 26 42 79 43 27 44 84 45
REMARK SMILES IDX 78 46 80 47 28 48 83 49 77 50 76 51 29 53 63 54 42 55 62 56
REMARK SMILES IDX 43 57 46 58 61 59 81 60 44 61 45 62 60 64 82 65 47 66 30 67
REMARK SMILES IDX 31 68 40 69 32 70 33 71 39 72 41 73 34 74 35 75 36 76 37 77
REMARK SMILES IDX 38 78 64 79 65 80 74 81 66 82 67 83 73 84 75 85 68 86 69 87
REMARK SMILES IDX 70 88 71 89 72 90 48 91 49 92 58 93 50 94 51 95 57 96 59 97
REMARK SMILES IDX 52 98 53 99 54 100 55 101 56 102
REMARK H PARENT 13 7 18 33 80 52 46 63
REMARK Flexibility Score: inf
ROOT
ATOM      1  C   UNL A   1      33.634  28.478  25.628  1.00  0.00     0.023 C 
ENDROOT
BRANCH   1   2
ATOM      2  C   UNL A   1      33.790  27.094  25.000  1.00  0.00     0.023 C 
BRANCH   2   3
ATOM      3  C   UNL A   1      33.055  26.895  23.676  1.00  0.00     0.116 C 
BRANCH   3   4
ATOM      4  N   UNL A   1      31.835  27.687  23.584  1.00  0.00    -0.356 N 
ATOM      5  C   UNL A   1      30.532  27.334  23.778  1.00  0.00     0.223 C 
ATOM      6  O   UNL A   1      29.668  28.207  23.675  1.00  0.00    -0.275 OA
ATOM      7  H   UNL A   1      31.975  28.632  23.342  1.00  0.00     0.163 HD
BRANCH   5   8
ATOM      8  C   UNL A   1      30.136  25.902  24.121  1.00  0.00     0.082 C 
ATOM      9  N   UNL A   1      31.433  23.472  24.691  1.00  0.00    -0.356 N 
ATOM     10  C   UNL A   1      30.734  23.509  23.417  1.00  0.00     0.119 C 
ATOM     11  C   UNL A   1      30.736  24.058  25.815  1.00  0.00     0.119 C 
ATOM     12  C   UNL A   1      30.562  24.953  22.989  1.00  0.00     0.035 C 
ATOM     13  C   UNL A   1      30.578  25.552  25.557  1.00  0.00     0.035 C 
BRANCH   9  14
ATOM     14  C   UNL A   1      32.313  22.425  24.853  1.00  0.00     0.132 A 
ATOM     15  C   UNL A   1      32.878  20.128  24.776  1.00  0.00     0.049 A 
ATOM     16  C   UNL A   1      31.904  21.110  24.731  1.00  0.00     0.071 A 
ATOM     17  N   UNL A   1      34.175  20.434  24.977  1.00  0.00    -0.233 NA
ATOM     18  C   UNL A   1      34.476  21.734  25.144  1.00  0.00     0.161 A 
ATOM     19  N   UNL A   1      33.598  22.745  25.071  1.00  0.00    -0.211 NA
BRANCH  15  20
ATOM     20  C   UNL A   1      32.572  18.653  24.610  1.00  0.00     0.032 C 
ATOM     21  C   UNL A   1      33.432  18.065  23.491  1.00  0.00     0.014 C 
ATOM     22  C   UNL A   1      32.712  17.815  25.884  1.00  0.00     0.014 C 
ENDBRANCH  15  20
BRANCH  18  23
ATOM     23  C   UNL A   1      35.869  22.067  25.455  1.00  0.00     0.019 A 
ATOM     24  C   UNL A   1      36.214  23.329  25.972  1.00  0.00     0.015 A 
ATOM     25  C   UNL A   1      36.903  21.137  25.228  1.00  0.00     0.015 A 
ATOM     26  C   UNL A   1      37.544  23.651  26.254  1.00  0.00     0.040 A 
ATOM     27  C   UNL A   1      38.237  21.464  25.494  1.00  0.00     0.040 A 
ATOM     28  C   UNL A   1      38.543  22.717  26.006  1.00  0.00     0.123 A 
ATOM     29  F   UNL A   1      39.819  23.037  26.260  1.00  0.00    -0.207 F 
ENDBRANCH  18  23
ENDBRANCH   9  14
ENDBRANCH   5   8
ENDBRANCH   3   4
ENDBRANCH   2   3
ENDBRANCH   1   2
BRANCH   1  30
ATOM     30  C   UNL A   1      33.862  28.544  27.133  1.00  0.00     0.116 C 
BRANCH  30  31
ATOM     31  N   UNL A   1      33.749  29.891  27.673  1.00  0.00    -0.352 N 
ATOM     32  C   UNL A   1      34.687  30.628  28.356  1.00  0.00     0.251 C 
ATOM     33  H   UNL A   1      32.883  30.335  27.529  1.00  0.00     0.163 HD
ATOM     34  O   UNL A   1      34.382  31.718  28.835  1.00  0.00    -0.269 OA
BRANCH  32  35
ATOM     35  C   UNL A   1      36.051  30.086  28.542  1.00  0.00     0.039 A 
ATOM     36  C   UNL A   1      36.957  30.157  27.480  1.00  0.00     0.014 A 
ATOM     37  C   UNL A   1      36.443  29.542  29.767  1.00  0.00     0.014 A 
ATOM     38  C   UNL A   1      38.279  29.751  27.672  1.00  0.00     0.010 A 
ATOM     39  C   UNL A   1      37.777  29.204  29.978  1.00  0.00     0.010 A 
ATOM     40  C   UNL A   1      38.710  29.309  28.934  1.00  0.00    -0.014 A 
BRANCH  40  41
ATOM     41  C   UNL A   1      40.131  28.961  29.188  1.00  0.00     0.031 A 
ATOM     42  C   UNL A   1      41.062  29.974  29.794  1.00  0.00     0.074 A 
ATOM     43  C   UNL A   1      40.603  27.757  28.803  1.00  0.00     0.049 A 
ATOM     44  N   UNL A   1      42.347  29.886  30.020  1.00  0.00    -0.248 NA
ATOM     45  C   UNL A   1      40.473  31.270  30.169  1.00  0.00     0.031 C 
ATOM     46  C   UNL A   1      39.814  26.706  28.156  1.00  0.00     0.029 A 
ATOM     47  N   UNL A   1      41.862  27.219  28.889  1.00  0.00    -0.354 N 
ATOM     48  C   UNL A   1      42.725  31.117  30.543  1.00  0.00     0.074 A 
ATOM     49  C   UNL A   1      41.543  31.950  30.556  1.00  0.00     0.031 C 
ATOM     50  C   UNL A   1      40.602  25.644  27.925  1.00  0.00     0.029 A 
ATOM     51  C   UNL A   1      41.957  25.949  28.373  1.00  0.00     0.049 A 
ATOM     52  H   UNL A   1      42.627  27.699  29.282  1.00  0.00     0.167 HD
ATOM     53  C   UNL A   1      43.942  31.509  30.993  1.00  0.00     0.037 A 
ATOM     54  C   UNL A   1      43.016  25.122  28.269  1.00  0.00     0.037 A 
ATOM     55  C   UNL A   1      45.108  30.666  31.006  1.00  0.00     0.049 A 
ATOM     56  C   UNL A   1      44.354  25.573  28.787  1.00  0.00     0.074 A 
ATOM     57  C   UNL A   1      46.370  30.948  31.501  1.00  0.00     0.029 A 
ATOM     58  N   UNL A   1      45.157  29.375  30.499  1.00  0.00    -0.354 N 
ATOM     59  N   UNL A   1      44.680  26.719  29.338  1.00  0.00    -0.248 NA
ATOM     60  C   UNL A   1      45.466  24.619  28.677  1.00  0.00     0.031 C 
ATOM     61  C   UNL A   1      47.190  29.840  31.261  1.00  0.00     0.029 A 
ATOM     62  C   UNL A   1      46.430  28.853  30.655  1.00  0.00     0.049 A 
ATOM     63  H   UNL A   1      44.398  28.899  30.090  1.00  0.00     0.167 HD
ATOM     64  C   UNL A   1      46.028  26.614  29.661  1.00  0.00     0.074 A 
ATOM     65  C   UNL A   1      46.454  25.291  29.253  1.00  0.00     0.031 C 
ATOM     66  C   UNL A   1      46.838  27.531  30.246  1.00  0.00     0.037 A 
BRANCH  53  67
ATOM     67  C   UNL A   1      44.065  32.916  31.510  1.00  0.00     0.058 A 
ATOM     68  C   UNL A   1      43.958  33.210  32.879  1.00  0.00     0.135 A 
ATOM     69  C   UNL A   1      44.300  33.983  30.628  1.00  0.00     0.135 A 
ATOM     70  F   UNL A   1      43.718  32.229  33.764  1.00  0.00    -0.206 F 
ATOM     71  C   UNL A   1      44.038  34.515  33.352  1.00  0.00     0.059 A 
ATOM     72  C   UNL A   1      44.412  35.295  31.083  1.00  0.00     0.059 A 
ATOM     73  F   UNL A   1      44.414  33.760  29.310  1.00  0.00    -0.206 F 
ATOM     74  C   UNL A   1      44.258  35.553  32.445  1.00  0.00     0.060 A 
BRANCH  74  75
ATOM     75  S   UNL A   1      44.339  37.244  33.069  1.00  0.00     0.124 S 
ATOM     76  O   UNL A   1      44.649  37.987  31.851  1.00  0.00    -0.237 OA
ATOM     77  O   UNL A   1      42.997  37.446  33.609  1.00  0.00    -0.237 OA
ATOM     78  O   UNL A   1      45.408  37.190  34.060  1.00  0.00    -0.744 OA
ENDBRANCH  74  75
ENDBRANCH  53  67
BRANCH  54  79
ATOM     79  C   UNL A   1      42.841  23.769  27.681  1.00  0.00     0.058 A 
ATOM     80  C   UNL A   1      43.034  23.553  26.308  1.00  0.00     0.135 A 
ATOM     81  C   UNL A   1      42.511  22.661  28.477  1.00  0.00     0.135 A 
ATOM     82  F   UNL A   1      43.343  24.583  25.506  1.00  0.00    -0.206 F 
ATOM     83  C   UNL A   1      42.901  22.289  25.743  1.00  0.00     0.059 A 
ATOM     84  C   UNL A   1      42.393  21.384  27.939  1.00  0.00     0.059 A 
ATOM     85  F   UNL A   1      42.331  22.814  29.798  1.00  0.00    -0.206 F 
ATOM     86  C   UNL A   1      42.584  21.209  26.569  1.00  0.00     0.060 A 
BRANCH  86  87
ATOM     87  S   UNL A   1      42.481  19.561  25.836  1.00  0.00     0.124 S 
ATOM     88  O   UNL A   1      42.839  18.713  26.967  1.00  0.00    -0.237 OA
ATOM     89  O   UNL A   1      41.085  19.502  25.410  1.00  0.00    -0.237 OA
ATOM     90  O   UNL A   1      43.456  19.616  24.751  1.00  0.00    -0.744 OA
ENDBRANCH  86  87
ENDBRANCH  54  79
BRANCH  66  91
ATOM     91  C   UNL A   1      48.263  27.128  30.507  1.00  0.00     0.058 A 
ATOM     92  C   UNL A   1      49.296  27.458  29.616  1.00  0.00     0.135 A 
ATOM     93  C   UNL A   1      48.604  26.449  31.687  1.00  0.00     0.135 A 
ATOM     94  F   UNL A   1      49.021  28.100  28.470  1.00  0.00    -0.206 F 
ATOM     95  C   UNL A   1      50.618  27.112  29.879  1.00  0.00     0.059 A 
ATOM     96  C   UNL A   1      49.921  26.115  31.982  1.00  0.00     0.059 A 
ATOM     97  F   UNL A   1      47.653  26.119  32.576  1.00  0.00    -0.206 F 
ATOM     98  C   UNL A   1      50.921  26.441  31.066  1.00  0.00     0.060 A 
BRANCH  98  99
ATOM     99  S   UNL A   1      52.645  26.030  31.414  1.00  0.00     0.124 S 
ATOM    100  O   UNL A   1      53.025  27.107  32.321  1.00  0.00    -0.237 OA
ATOM    101  O   UNL A   1      52.537  24.704  32.014  1.00  0.00    -0.237 OA
ATOM    102  O   UNL A   1      53.273  26.066  30.096  1.00  0.00    -0.744 OA
ENDBRANCH  98  99
ENDBRANCH  66  91
ENDBRANCH  40  41
ENDBRANCH  32  35
ENDBRANCH  30  31
ENDBRANCH   1  30
TORSDOF 17
ENDMDL
