MODEL 1
REMARK VINA RESULT:      -9.9      0.000      0.000
REMARK SMILES O=C(C[NH+]1CC[NH+](Cc2cc(Cl)ccc2[N+](=O)[O-])CC1)NCCCCNC(=O)c1ccc(-c2c3nc(c(-c4c(F)cc(S(=O)(=O)[O-])cc4F)c4ccc([nH]4)c(-c4c(F)cc(S(=O)(=O)[O-])cc4F)c4nc(c(-c5c(F)cc(S(=O)(=O)[O-])cc5F)c5ccc2[nH]5)C=C4)C=C3)cc1
REMARK SMILES IDX 23 1 22 2 21 3 1 4 2 5 3 7 4 8 5 9 20 10 6 12 19 13 7 14
REMARK SMILES IDX 8 16 9 17 10 18 15 19 11 20 14 21 12 22 13 23 16 24 17 25
REMARK SMILES IDX 18 26 24 27 25 28 26 29 27 30 28 32 29 33 30 34 94 35 31 36
REMARK SMILES IDX 93 37 32 38 33 39 34 40 87 41 35 42 92 43 86 44 88 45 36 46
REMARK SMILES IDX 91 47 85 48 84 49 37 51 71 52 50 53 70 54 51 55 54 56 69 57
REMARK SMILES IDX 89 58 52 59 53 60 68 62 90 63 55 64 38 65 39 66 48 67 40 68
REMARK SMILES IDX 41 69 47 70 49 71 42 72 43 73 44 74 45 75 46 76 72 77 73 78
REMARK SMILES IDX 82 79 74 80 75 81 81 82 83 83 76 84 77 85 78 86 79 87 80 88
REMARK SMILES IDX 56 89 57 90 66 91 58 92 59 93 65 94 67 95 60 96 61 97 62 98
REMARK SMILES IDX 63 99 64 100
REMARK H PARENT 21 6 4 11 7 15 26 31 88 50 54 61
REMARK Flexibility Score: inf
ROOT
ATOM      1  C   UNL A   1      32.886  34.521  28.481  1.00  0.00     0.023 C 
ENDROOT
BRANCH   1   2
ATOM      2  C   UNL A   1      32.951  35.937  29.046  1.00  0.00     0.116 C 
BRANCH   2   3
ATOM      3  N   UNL A   1      33.792  36.039  30.221  1.00  0.00    -0.351 N 
ATOM      4  O   UNL A   1      32.083  35.675  31.702  1.00  0.00    -0.269 OA
ATOM      5  C   UNL A   1      33.284  35.830  31.485  1.00  0.00     0.275 C 
ATOM      6  H   UNL A   1      34.745  36.262  30.114  1.00  0.00     0.163 HD
BRANCH   5   7
ATOM      7  C   UNL A   1      34.340  35.761  32.594  1.00  0.00     0.363 C 
BRANCH   7   8
ATOM      8  N   UNL A   1      34.347  34.525  33.403  1.00  0.00    -0.318 N 
ATOM      9  C   UNL A   1      34.502  33.252  32.690  1.00  0.00     0.325 C 
ATOM     10  C   UNL A   1      35.226  34.567  34.576  1.00  0.00     0.325 C 
ATOM     11  H   UNL A   1      33.379  34.528  33.725  1.00  0.00     0.348 HD
ATOM     12  C   UNL A   1      35.965  32.814  32.419  1.00  0.00     0.324 C 
ATOM     13  C   UNL A   1      36.704  34.231  34.285  1.00  0.00     0.324 C 
ATOM     14  N   UNL A   1      36.937  33.013  33.503  1.00  0.00    -0.322 N 
ATOM     15  H   UNL A   1      37.812  33.198  33.013  1.00  0.00     0.348 HD
BRANCH  14  16
ATOM     16  C   UNL A   1      37.306  31.815  34.272  1.00  0.00     0.306 C 
BRANCH  16  17
ATOM     17  C   UNL A   1      38.475  31.013  33.733  1.00  0.00     0.085 A 
ATOM     18  C   UNL A   1      38.158  29.744  33.186  1.00  0.00     0.037 A 
ATOM     19  C   UNL A   1      39.842  31.366  33.796  1.00  0.00     0.278 A 
ATOM     20  C   UNL A   1      39.144  28.817  32.858  1.00  0.00     0.042 A 
ATOM     21  C   UNL A   1      40.832  30.422  33.441  1.00  0.00     0.088 A 
ATOM     22  Cl  UNL A   1      38.692  27.246  32.326  1.00  0.00    -0.084 Cl
ATOM     23  C   UNL A   1      40.483  29.143  33.004  1.00  0.00     0.027 A 
BRANCH  19  24
ATOM     24  N   UNL A   1      40.330  32.697  34.218  1.00  0.00     0.063 N 
ATOM     25  O   UNL A   1      40.832  32.787  35.348  1.00  0.00    -0.258 OA
ATOM     26  O   UNL A   1      40.229  33.646  33.436  1.00  0.00    -0.258 OA
ENDBRANCH  19  24
ENDBRANCH  16  17
ENDBRANCH  14  16
ENDBRANCH   7   8
ENDBRANCH   5   7
ENDBRANCH   2   3
ENDBRANCH   1   2
BRANCH   1  27
ATOM     27  C   UNL A   1      34.239  33.876  28.147  1.00  0.00     0.023 C 
BRANCH  27  28
ATOM     28  C   UNL A   1      34.599  32.623  28.944  1.00  0.00     0.116 C 
BRANCH  28  29
ATOM     29  N   UNL A   1      33.970  31.424  28.414  1.00  0.00    -0.352 N 
ATOM     30  C   UNL A   1      34.507  30.224  28.018  1.00  0.00     0.251 C 
ATOM     31  H   UNL A   1      32.991  31.483  28.325  1.00  0.00     0.163 HD
ATOM     32  O   UNL A   1      33.785  29.417  27.434  1.00  0.00    -0.269 OA
BRANCH  30  33
ATOM     33  C   UNL A   1      35.931  29.885  28.257  1.00  0.00     0.039 A 
ATOM     34  C   UNL A   1      36.834  30.018  27.196  1.00  0.00     0.014 A 
ATOM     35  C   UNL A   1      36.379  29.379  29.480  1.00  0.00     0.014 A 
ATOM     36  C   UNL A   1      38.187  29.710  27.378  1.00  0.00     0.010 A 
ATOM     37  C   UNL A   1      37.740  29.131  29.681  1.00  0.00     0.010 A 
ATOM     38  C   UNL A   1      38.661  29.296  28.633  1.00  0.00    -0.014 A 
BRANCH  38  39
ATOM     39  C   UNL A   1      40.112  29.057  28.868  1.00  0.00     0.031 A 
ATOM     40  C   UNL A   1      40.736  27.726  28.540  1.00  0.00     0.074 A 
ATOM     41  C   UNL A   1      40.862  30.024  29.436  1.00  0.00     0.049 A 
ATOM     42  N   UNL A   1      41.963  27.316  28.745  1.00  0.00    -0.248 NA
ATOM     43  C   UNL A   1      39.864  26.719  27.920  1.00  0.00     0.031 C 
ATOM     44  C   UNL A   1      40.374  31.346  29.835  1.00  0.00     0.029 A 
ATOM     45  N   UNL A   1      42.189  30.044  29.787  1.00  0.00    -0.354 N 
ATOM     46  C   UNL A   1      42.007  26.002  28.295  1.00  0.00     0.074 A 
ATOM     47  C   UNL A   1      40.673  25.670  27.843  1.00  0.00     0.031 C 
ATOM     48  C   UNL A   1      41.388  32.050  30.361  1.00  0.00     0.029 A 
ATOM     49  C   UNL A   1      42.589  31.222  30.374  1.00  0.00     0.049 A 
ATOM     50  H   UNL A   1      42.798  29.284  29.633  1.00  0.00     0.167 HD
ATOM     51  C   UNL A   1      43.065  25.155  28.248  1.00  0.00     0.037 A 
ATOM     52  C   UNL A   1      43.784  31.591  30.878  1.00  0.00     0.037 A 
ATOM     53  C   UNL A   1      44.399  25.495  28.674  1.00  0.00     0.049 A 
ATOM     54  C   UNL A   1      44.940  30.630  30.821  1.00  0.00     0.074 A 
ATOM     55  C   UNL A   1      45.546  24.723  28.607  1.00  0.00     0.029 A 
ATOM     56  N   UNL A   1      44.766  26.703  29.250  1.00  0.00    -0.354 N 
ATOM     57  N   UNL A   1      44.976  29.412  30.338  1.00  0.00    -0.248 NA
ATOM     58  C   UNL A   1      46.220  31.096  31.374  1.00  0.00     0.031 C 
ATOM     59  C   UNL A   1      46.597  25.448  29.181  1.00  0.00     0.029 A 
ATOM     60  C   UNL A   1      46.115  26.689  29.562  1.00  0.00     0.049 A 
ATOM     61  H   UNL A   1      44.156  27.459  29.412  1.00  0.00     0.167 HD
ATOM     62  C   UNL A   1      46.286  28.975  30.503  1.00  0.00     0.074 A 
ATOM     63  C   UNL A   1      47.014  30.065  31.121  1.00  0.00     0.031 C 
ATOM     64  C   UNL A   1      46.835  27.782  30.170  1.00  0.00     0.037 A 
BRANCH  51  65
ATOM     65  C   UNL A   1      42.826  23.767  27.714  1.00  0.00     0.058 A 
ATOM     66  C   UNL A   1      42.558  22.685  28.568  1.00  0.00     0.135 A 
ATOM     67  C   UNL A   1      42.820  23.526  26.331  1.00  0.00     0.135 A 
ATOM     68  F   UNL A   1      42.562  22.856  29.899  1.00  0.00    -0.206 F 
ATOM     69  C   UNL A   1      42.321  21.407  28.070  1.00  0.00     0.059 A 
ATOM     70  C   UNL A   1      42.559  22.261  25.810  1.00  0.00     0.059 A 
ATOM     71  F   UNL A   1      43.067  24.525  25.469  1.00  0.00    -0.206 F 
ATOM     72  C   UNL A   1      42.326  21.205  26.689  1.00  0.00     0.060 A 
BRANCH  72  73
ATOM     73  S   UNL A   1      42.018  19.543  26.057  1.00  0.00     0.124 S 
ATOM     74  O   UNL A   1      40.598  19.619  25.720  1.00  0.00    -0.237 OA
ATOM     75  O   UNL A   1      42.932  19.465  24.920  1.00  0.00    -0.237 OA
ATOM     76  O   UNL A   1      42.348  18.682  27.184  1.00  0.00    -0.744 OA
ENDBRANCH  72  73
ENDBRANCH  51  65
BRANCH  52  77
ATOM     77  C   UNL A   1      43.952  32.945  31.469  1.00  0.00     0.058 A 
ATOM     78  C   UNL A   1      44.268  34.049  30.662  1.00  0.00     0.135 A 
ATOM     79  C   UNL A   1      43.792  33.167  32.846  1.00  0.00     0.135 A 
ATOM     80  F   UNL A   1      44.439  33.886  29.342  1.00  0.00    -0.206 F 
ATOM     81  C   UNL A   1      44.435  35.321  31.200  1.00  0.00     0.059 A 
ATOM     82  C   UNL A   1      43.929  34.434  33.403  1.00  0.00     0.059 A 
ATOM     83  F   UNL A   1      43.474  32.148  33.659  1.00  0.00    -0.206 F 
ATOM     84  C   UNL A   1      44.261  35.504  32.573  1.00  0.00     0.060 A 
BRANCH  84  85
ATOM     85  S   UNL A   1      44.431  37.168  33.253  1.00  0.00     0.124 S 
ATOM     86  O   UNL A   1      43.324  37.211  34.203  1.00  0.00    -0.237 OA
ATOM     87  O   UNL A   1      45.770  37.128  33.834  1.00  0.00    -0.237 OA
ATOM     88  O   UNL A   1      44.291  38.026  32.080  1.00  0.00    -0.744 OA
ENDBRANCH  84  85
ENDBRANCH  52  77
BRANCH  64  89
ATOM     89  C   UNL A   1      48.305  27.597  30.430  1.00  0.00     0.058 A 
ATOM     90  C   UNL A   1      49.275  27.967  29.487  1.00  0.00     0.135 A 
ATOM     91  C   UNL A   1      48.750  27.087  31.662  1.00  0.00     0.135 A 
ATOM     92  F   UNL A   1      48.905  28.452  28.292  1.00  0.00    -0.206 F 
ATOM     93  C   UNL A   1      50.634  27.819  29.746  1.00  0.00     0.059 A 
ATOM     94  C   UNL A   1      50.104  26.955  31.952  1.00  0.00     0.059 A 
ATOM     95  F   UNL A   1      47.863  26.726  32.603  1.00  0.00    -0.206 F 
ATOM     96  C   UNL A   1      51.039  27.313  30.982  1.00  0.00     0.060 A 
BRANCH  96  97
ATOM     97  S   UNL A   1      52.806  27.158  31.320  1.00  0.00     0.124 S 
ATOM     98  O   UNL A   1      53.263  26.405  30.156  1.00  0.00    -0.237 OA
ATOM     99  O   UNL A   1      53.237  28.551  31.382  1.00  0.00    -0.237 OA
ATOM    100  O   UNL A   1      52.848  26.438  32.589  1.00  0.00    -0.744 OA
ENDBRANCH  96  97
ENDBRANCH  64  89
ENDBRANCH  38  39
ENDBRANCH  30  33
ENDBRANCH  28  29
ENDBRANCH  27  28
ENDBRANCH   1  27
TORSDOF 18
ENDMDL
MODEL 2
REMARK VINA RESULT:      -9.7      0.490      8.246
REMARK SMILES O=C(C[NH+]1CC[NH+](Cc2cc(Cl)ccc2[N+](=O)[O-])CC1)NCCCCNC(=O)c1ccc(-c2c3nc(c(-c4c(F)cc(S(=O)(=O)[O-])cc4F)c4ccc([nH]4)c(-c4c(F)cc(S(=O)(=O)[O-])cc4F)c4nc(c(-c5c(F)cc(S(=O)(=O)[O-])cc5F)c5ccc2[nH]5)C=C4)C=C3)cc1
REMARK SMILES IDX 23 1 22 2 21 3 1 4 2 5 3 7 4 8 5 9 20 10 6 12 19 13 7 14
REMARK SMILES IDX 8 16 9 17 10 18 15 19 11 20 14 21 12 22 13 23 16 24 17 25
REMARK SMILES IDX 18 26 24 27 25 28 26 29 27 30 28 32 29 33 30 34 94 35 31 36
REMARK SMILES IDX 93 37 32 38 33 39 34 40 87 41 35 42 92 43 86 44 88 45 36 46
REMARK SMILES IDX 91 47 85 48 84 49 37 51 71 52 50 53 70 54 51 55 54 56 69 57
REMARK SMILES IDX 89 58 52 59 53 60 68 62 90 63 55 64 38 65 39 66 48 67 40 68
REMARK SMILES IDX 41 69 47 70 49 71 42 72 43 73 44 74 45 75 46 76 72 77 73 78
REMARK SMILES IDX 82 79 74 80 75 81 81 82 83 83 76 84 77 85 78 86 79 87 80 88
REMARK SMILES IDX 56 89 57 90 66 91 58 92 59 93 65 94 67 95 60 96 61 97 62 98
REMARK SMILES IDX 63 99 64 100
REMARK H PARENT 21 6 4 11 7 15 26 31 88 50 54 61
REMARK Flexibility Score: inf
ROOT
ATOM      1  C   UNL A   1      32.918  34.347  28.453  1.00  0.00     0.023 C 
ENDROOT
BRANCH   1   2
ATOM      2  C   UNL A   1      33.086  35.799  28.896  1.00  0.00     0.116 C 
BRANCH   2   3
ATOM      3  N   UNL A   1      33.882  35.935  30.098  1.00  0.00    -0.351 N 
ATOM      4  O   UNL A   1      32.105  35.695  31.523  1.00  0.00    -0.269 OA
ATOM      5  C   UNL A   1      33.317  35.804  31.349  1.00  0.00     0.275 C 
ATOM      6  H   UNL A   1      34.845  36.125  30.020  1.00  0.00     0.163 HD
BRANCH   5   7
ATOM      7  C   UNL A   1      34.325  35.760  32.503  1.00  0.00     0.363 C 
BRANCH   7   8
ATOM      8  N   UNL A   1      34.322  34.527  33.316  1.00  0.00    -0.318 N 
ATOM      9  C   UNL A   1      34.496  33.252  32.610  1.00  0.00     0.325 C 
ATOM     10  C   UNL A   1      35.180  34.577  34.505  1.00  0.00     0.325 C 
ATOM     11  H   UNL A   1      33.349  34.528  33.621  1.00  0.00     0.348 HD
ATOM     12  C   UNL A   1      35.965  32.819  32.368  1.00  0.00     0.324 C 
ATOM     13  C   UNL A   1      36.665  34.246  34.241  1.00  0.00     0.324 C 
ATOM     14  N   UNL A   1      36.916  33.026  33.468  1.00  0.00    -0.322 N 
ATOM     15  H   UNL A   1      37.800  33.213  32.994  1.00  0.00     0.348 HD
BRANCH  14  16
ATOM     16  C   UNL A   1      37.276  31.832  34.248  1.00  0.00     0.306 C 
BRANCH  16  17
ATOM     17  C   UNL A   1      38.619  31.207  33.926  1.00  0.00     0.085 A 
ATOM     18  C   UNL A   1      38.579  29.937  33.299  1.00  0.00     0.037 A 
ATOM     19  C   UNL A   1      39.892  31.723  34.259  1.00  0.00     0.278 A 
ATOM     20  C   UNL A   1      39.722  29.155  33.145  1.00  0.00     0.042 A 
ATOM     21  C   UNL A   1      41.046  30.926  34.080  1.00  0.00     0.088 A 
ATOM     22  Cl  UNL A   1      39.586  27.568  32.500  1.00  0.00    -0.084 Cl
ATOM     23  C   UNL A   1      40.955  29.637  33.554  1.00  0.00     0.027 A 
BRANCH  19  24
ATOM     24  N   UNL A   1      40.115  33.083  34.798  1.00  0.00     0.063 N 
ATOM     25  O   UNL A   1      39.660  33.329  35.925  1.00  0.00    -0.258 OA
ATOM     26  O   UNL A   1      40.743  33.899  34.118  1.00  0.00    -0.258 OA
ENDBRANCH  19  24
ENDBRANCH  16  17
ENDBRANCH  14  16
ENDBRANCH   7   8
ENDBRANCH   5   7
ENDBRANCH   2   3
ENDBRANCH   1   2
BRANCH   1  27
ATOM     27  C   UNL A   1      34.219  33.586  28.164  1.00  0.00     0.023 C 
BRANCH  27  28
ATOM     28  C   UNL A   1      34.468  32.338  29.009  1.00  0.00     0.116 C 
BRANCH  28  29
ATOM     29  N   UNL A   1      33.981  31.125  28.371  1.00  0.00    -0.352 N 
ATOM     30  C   UNL A   1      34.647  30.007  27.932  1.00  0.00     0.251 C 
ATOM     31  H   UNL A   1      33.007  31.102  28.229  1.00  0.00     0.163 HD
ATOM     32  O   UNL A   1      34.035  29.180  27.258  1.00  0.00    -0.269 OA
BRANCH  30  33
ATOM     33  C   UNL A   1      36.082  29.782  28.231  1.00  0.00     0.039 A 
ATOM     34  C   UNL A   1      36.435  29.357  29.517  1.00  0.00     0.014 A 
ATOM     35  C   UNL A   1      37.086  30.042  27.294  1.00  0.00     0.014 A 
ATOM     36  C   UNL A   1      37.778  29.132  29.842  1.00  0.00     0.010 A 
ATOM     37  C   UNL A   1      38.421  29.758  27.599  1.00  0.00     0.010 A 
ATOM     38  C   UNL A   1      38.783  29.297  28.875  1.00  0.00    -0.014 A 
BRANCH  38  39
ATOM     39  C   UNL A   1      40.204  28.969  29.177  1.00  0.00     0.031 A 
ATOM     40  C   UNL A   1      41.111  29.989  29.813  1.00  0.00     0.074 A 
ATOM     41  C   UNL A   1      40.698  27.765  28.823  1.00  0.00     0.049 A 
ATOM     42  N   UNL A   1      42.390  29.905  30.080  1.00  0.00    -0.248 NA
ATOM     43  C   UNL A   1      40.507  31.279  30.178  1.00  0.00     0.031 C 
ATOM     44  C   UNL A   1      39.937  26.699  28.168  1.00  0.00     0.029 A 
ATOM     45  N   UNL A   1      41.960  27.237  28.951  1.00  0.00    -0.354 N 
ATOM     46  C   UNL A   1      42.748  31.131  30.628  1.00  0.00     0.074 A 
ATOM     47  C   UNL A   1      41.559  31.956  30.619  1.00  0.00     0.031 C 
ATOM     48  C   UNL A   1      40.740  25.643  27.966  1.00  0.00     0.029 A 
ATOM     49  C   UNL A   1      42.083  25.966  28.440  1.00  0.00     0.049 A 
ATOM     50  H   UNL A   1      42.707  27.724  29.370  1.00  0.00     0.167 HD
ATOM     51  C   UNL A   1      43.952  31.527  31.111  1.00  0.00     0.037 A 
ATOM     52  C   UNL A   1      43.156  25.156  28.349  1.00  0.00     0.037 A 
ATOM     53  C   UNL A   1      45.128  30.696  31.143  1.00  0.00     0.049 A 
ATOM     54  C   UNL A   1      44.482  25.622  28.884  1.00  0.00     0.074 A 
ATOM     55  C   UNL A   1      46.375  30.991  31.668  1.00  0.00     0.029 A 
ATOM     56  N   UNL A   1      45.208  29.410  30.629  1.00  0.00    -0.354 N 
ATOM     57  N   UNL A   1      44.786  26.764  29.452  1.00  0.00    -0.248 NA
ATOM     58  C   UNL A   1      45.611  24.688  28.770  1.00  0.00     0.031 C 
ATOM     59  C   UNL A   1      47.220  29.900  31.433  1.00  0.00     0.029 A 
ATOM     60  C   UNL A   1      46.487  28.907  30.804  1.00  0.00     0.049 A 
ATOM     61  H   UNL A   1      44.464  28.926  30.202  1.00  0.00     0.167 HD
ATOM     62  C   UNL A   1      46.133  26.675  29.788  1.00  0.00     0.074 A 
ATOM     63  C   UNL A   1      46.582  25.363  29.369  1.00  0.00     0.031 C 
ATOM     64  C   UNL A   1      46.924  27.596  30.391  1.00  0.00     0.037 A 
BRANCH  51  65
ATOM     65  C   UNL A   1      44.063  32.931  31.645  1.00  0.00     0.058 A 
ATOM     66  C   UNL A   1      44.180  34.038  30.791  1.00  0.00     0.135 A 
ATOM     67  C   UNL A   1      44.005  33.174  33.027  1.00  0.00     0.135 A 
ATOM     68  F   UNL A   1      44.250  33.864  29.462  1.00  0.00    -0.206 F 
ATOM     69  C   UNL A   1      44.266  35.335  31.289  1.00  0.00     0.059 A 
ATOM     70  C   UNL A   1      44.062  34.465  33.546  1.00  0.00     0.059 A 
ATOM     71  F   UNL A   1      43.891  32.152  33.890  1.00  0.00    -0.206 F 
ATOM     72  C   UNL A   1      44.208  35.538  32.668  1.00  0.00     0.060 A 
BRANCH  72  73
ATOM     73  S   UNL A   1      44.321  37.225  33.299  1.00  0.00     0.124 S 
ATOM     74  O   UNL A   1      44.276  38.001  32.062  1.00  0.00    -0.237 OA
ATOM     75  O   UNL A   1      43.135  37.322  34.147  1.00  0.00    -0.237 OA
ATOM     76  O   UNL A   1      45.595  37.243  34.003  1.00  0.00    -0.744 OA
ENDBRANCH  72  73
ENDBRANCH  51  65
BRANCH  52  77
ATOM     77  C   UNL A   1      43.016  23.806  27.739  1.00  0.00     0.058 A 
ATOM     78  C   UNL A   1      42.666  22.695  28.522  1.00  0.00     0.135 A 
ATOM     79  C   UNL A   1      43.219  23.601  26.366  1.00  0.00     0.135 A 
ATOM     80  F   UNL A   1      42.470  22.840  29.841  1.00  0.00    -0.206 F 
ATOM     81  C   UNL A   1      42.537  21.425  27.968  1.00  0.00     0.059 A 
ATOM     82  C   UNL A   1      43.072  22.345  25.785  1.00  0.00     0.059 A 
ATOM     83  F   UNL A   1      43.540  24.634  25.571  1.00  0.00    -0.206 F 
ATOM     84  C   UNL A   1      42.741  21.261  26.596  1.00  0.00     0.060 A 
BRANCH  84  85
ATOM     85  S   UNL A   1      42.523  19.618  25.879  1.00  0.00     0.124 S 
ATOM     86  O   UNL A   1      43.460  19.659  24.762  1.00  0.00    -0.237 OA
ATOM     87  O   UNL A   1      42.891  18.746  26.990  1.00  0.00    -0.237 OA
ATOM     88  O   UNL A   1      41.108  19.596  25.517  1.00  0.00    -0.744 OA
ENDBRANCH  84  85
ENDBRANCH  52  77
BRANCH  64  89
ATOM     89  C   UNL A   1      48.351  27.210  30.671  1.00  0.00     0.058 A 
ATOM     90  C   UNL A   1      48.705  26.458  31.801  1.00  0.00     0.135 A 
ATOM     91  C   UNL A   1      49.370  27.556  29.769  1.00  0.00     0.135 A 
ATOM     92  F   UNL A   1      47.771  26.106  32.698  1.00  0.00    -0.206 F 
ATOM     93  C   UNL A   1      50.023  26.080  32.039  1.00  0.00     0.059 A 
ATOM     94  C   UNL A   1      50.690  27.168  29.973  1.00  0.00     0.059 A 
ATOM     95  F   UNL A   1      49.085  28.268  28.667  1.00  0.00    -0.206 F 
ATOM     96  C   UNL A   1      51.009  26.439  31.118  1.00  0.00     0.060 A 
BRANCH  96  97
ATOM     97  S   UNL A   1      52.710  25.914  31.421  1.00  0.00     0.124 S 
ATOM     98  O   UNL A   1      53.172  26.935  32.354  1.00  0.00    -0.237 OA
ATOM     99  O   UNL A   1      52.531  24.578  31.980  1.00  0.00    -0.237 OA
ATOM    100  O   UNL A   1      53.318  25.954  30.094  1.00  0.00    -0.744 OA
ENDBRANCH  96  97
ENDBRANCH  64  89
ENDBRANCH  38  39
ENDBRANCH  30  33
ENDBRANCH  28  29
ENDBRANCH  27  28
ENDBRANCH   1  27
TORSDOF 18
ENDMDL
MODEL 3
REMARK VINA RESULT:      -9.6      5.315     11.641
REMARK SMILES O=C(C[NH+]1CC[NH+](Cc2cc(Cl)ccc2[N+](=O)[O-])CC1)NCCCCNC(=O)c1ccc(-c2c3nc(c(-c4c(F)cc(S(=O)(=O)[O-])cc4F)c4ccc([nH]4)c(-c4c(F)cc(S(=O)(=O)[O-])cc4F)c4nc(c(-c5c(F)cc(S(=O)(=O)[O-])cc5F)c5ccc2[nH]5)C=C4)C=C3)cc1
REMARK SMILES IDX 23 1 22 2 21 3 1 4 2 5 3 7 4 8 5 9 20 10 6 12 19 13 7 14
REMARK SMILES IDX 8 16 9 17 10 18 15 19 11 20 14 21 12 22 13 23 16 24 17 25
REMARK SMILES IDX 18 26 24 27 25 28 26 29 27 30 28 32 29 33 30 34 94 35 31 36
REMARK SMILES IDX 93 37 32 38 33 39 34 40 87 41 35 42 92 43 86 44 88 45 36 46
REMARK SMILES IDX 91 47 85 48 84 49 37 51 71 52 50 53 70 54 51 55 54 56 69 57
REMARK SMILES IDX 89 58 52 59 53 60 68 62 90 63 55 64 38 65 39 66 48 67 40 68
REMARK SMILES IDX 41 69 47 70 49 71 42 72 43 73 44 74 45 75 46 76 72 77 73 78
REMARK SMILES IDX 82 79 74 80 75 81 81 82 83 83 76 84 77 85 78 86 79 87 80 88
REMARK SMILES IDX 56 89 57 90 66 91 58 92 59 93 65 94 67 95 60 96 61 97 62 98
REMARK SMILES IDX 63 99 64 100
REMARK H PARENT 21 6 4 11 7 15 26 31 88 50 54 61
REMARK Flexibility Score: inf
ROOT
ATOM      1  C   UNL A   1      37.436  22.408  24.822  1.00  0.00     0.023 C 
ENDROOT
BRANCH   1   2
ATOM      2  C   UNL A   1      36.671  21.223  25.407  1.00  0.00     0.116 C 
BRANCH   2   3
ATOM      3  N   UNL A   1      35.331  21.570  25.834  1.00  0.00    -0.351 N 
ATOM      4  O   UNL A   1      34.319  19.901  24.636  1.00  0.00    -0.269 OA
ATOM      5  C   UNL A   1      34.241  20.818  25.452  1.00  0.00     0.275 C 
ATOM      6  H   UNL A   1      35.197  22.357  26.409  1.00  0.00     0.163 HD
BRANCH   5   7
ATOM      7  C   UNL A   1      32.932  21.186  26.160  1.00  0.00     0.363 C 
BRANCH   7   8
ATOM      8  N   UNL A   1      31.901  21.825  25.318  1.00  0.00    -0.318 N 
ATOM      9  C   UNL A   1      30.783  22.485  26.002  1.00  0.00     0.325 C 
ATOM     10  C   UNL A   1      32.428  22.682  24.250  1.00  0.00     0.325 C 
ATOM     11  H   UNL A   1      31.492  20.993  24.890  1.00  0.00     0.348 HD
ATOM     12  C   UNL A   1      31.033  23.958  26.418  1.00  0.00     0.324 C 
ATOM     13  C   UNL A   1      32.774  24.120  24.692  1.00  0.00     0.324 C 
ATOM     14  N   UNL A   1      31.735  24.817  25.455  1.00  0.00    -0.322 N 
ATOM     15  H   UNL A   1      32.256  25.467  26.044  1.00  0.00     0.348 HD
BRANCH  14  16
ATOM     16  C   UNL A   1      30.897  25.756  24.694  1.00  0.00     0.306 C 
BRANCH  16  17
ATOM     17  C   UNL A   1      31.259  27.223  24.821  1.00  0.00     0.085 A 
ATOM     18  C   UNL A   1      32.245  27.539  25.789  1.00  0.00     0.037 A 
ATOM     19  C   UNL A   1      30.658  28.303  24.136  1.00  0.00     0.278 A 
ATOM     20  C   UNL A   1      32.515  28.853  26.164  1.00  0.00     0.042 A 
ATOM     21  C   UNL A   1      30.955  29.633  24.513  1.00  0.00     0.088 A 
ATOM     22  Cl  UNL A   1      33.625  29.163  27.439  1.00  0.00    -0.084 Cl
ATOM     23  C   UNL A   1      31.857  29.903  25.544  1.00  0.00     0.027 A 
BRANCH  19  24
ATOM     24  N   UNL A   1      29.709  28.141  23.011  1.00  0.00     0.063 N 
ATOM     25  O   UNL A   1      30.173  28.208  21.863  1.00  0.00    -0.258 OA
ATOM     26  O   UNL A   1      28.518  27.939  23.259  1.00  0.00    -0.258 OA
ENDBRANCH  19  24
ENDBRANCH  16  17
ENDBRANCH  14  16
ENDBRANCH   7   8
ENDBRANCH   5   7
ENDBRANCH   2   3
ENDBRANCH   1   2
BRANCH   1  27
ATOM     27  C   UNL A   1      37.377  23.705  25.641  1.00  0.00     0.023 C 
BRANCH  27  28
ATOM     28  C   UNL A   1      38.440  23.862  26.727  1.00  0.00     0.116 C 
BRANCH  28  29
ATOM     29  N   UNL A   1      39.784  23.965  26.181  1.00  0.00    -0.352 N 
ATOM     30  C   UNL A   1      40.808  24.837  26.464  1.00  0.00     0.251 C 
ATOM     31  H   UNL A   1      39.997  23.296  25.492  1.00  0.00     0.163 HD
ATOM     32  O   UNL A   1      41.801  24.836  25.739  1.00  0.00    -0.269 OA
BRANCH  30  33
ATOM     33  C   UNL A   1      40.738  25.786  27.601  1.00  0.00     0.039 A 
ATOM     34  C   UNL A   1      41.785  26.698  27.773  1.00  0.00     0.014 A 
ATOM     35  C   UNL A   1      39.698  25.751  28.535  1.00  0.00     0.014 A 
ATOM     36  C   UNL A   1      41.759  27.611  28.833  1.00  0.00     0.010 A 
ATOM     37  C   UNL A   1      39.640  26.704  29.557  1.00  0.00     0.010 A 
ATOM     38  C   UNL A   1      40.668  27.647  29.717  1.00  0.00    -0.014 A 
BRANCH  38  39
ATOM     39  C   UNL A   1      40.579  28.675  30.790  1.00  0.00     0.031 A 
ATOM     40  C   UNL A   1      41.457  28.591  32.011  1.00  0.00     0.074 A 
ATOM     41  C   UNL A   1      39.661  29.658  30.695  1.00  0.00     0.049 A 
ATOM     42  N   UNL A   1      41.466  29.354  33.076  1.00  0.00    -0.248 NA
ATOM     43  C   UNL A   1      42.439  27.498  32.048  1.00  0.00     0.031 C 
ATOM     44  C   UNL A   1      38.724  29.834  29.583  1.00  0.00     0.029 A 
ATOM     45  N   UNL A   1      39.354  30.689  31.550  1.00  0.00    -0.354 N 
ATOM     46  C   UNL A   1      42.439  28.825  33.916  1.00  0.00     0.074 A 
ATOM     47  C   UNL A   1      42.972  27.653  33.253  1.00  0.00     0.031 C 
ATOM     48  C   UNL A   1      37.960  30.913  29.816  1.00  0.00     0.029 A 
ATOM     49  C   UNL A   1      38.322  31.485  31.109  1.00  0.00     0.049 A 
ATOM     50  H   UNL A   1      39.828  30.843  32.399  1.00  0.00     0.167 HD
ATOM     51  C   UNL A   1      42.862  29.283  35.120  1.00  0.00     0.037 A 
ATOM     52  C   UNL A   1      37.725  32.547  31.684  1.00  0.00     0.037 A 
ATOM     53  C   UNL A   1      42.349  30.464  35.767  1.00  0.00     0.049 A 
ATOM     54  C   UNL A   1      38.207  33.031  33.025  1.00  0.00     0.074 A 
ATOM     55  C   UNL A   1      42.759  31.039  36.958  1.00  0.00     0.029 A 
ATOM     56  N   UNL A   1      41.315  31.250  35.281  1.00  0.00    -0.354 N 
ATOM     57  N   UNL A   1      39.168  32.552  33.777  1.00  0.00    -0.248 NA
ATOM     58  C   UNL A   1      37.525  34.202  33.594  1.00  0.00     0.031 C 
ATOM     59  C   UNL A   1      41.943  32.147  37.214  1.00  0.00     0.029 A 
ATOM     60  C   UNL A   1      41.058  32.291  36.159  1.00  0.00     0.049 A 
ATOM     61  H   UNL A   1      40.834  31.092  34.436  1.00  0.00     0.167 HD
ATOM     62  C   UNL A   1      39.226  33.379  34.893  1.00  0.00     0.074 A 
ATOM     63  C   UNL A   1      38.209  34.395  34.713  1.00  0.00     0.031 C 
ATOM     64  C   UNL A   1      40.049  33.304  35.968  1.00  0.00     0.037 A 
BRANCH  51  65
ATOM     65  C   UNL A   1      43.938  28.501  35.827  1.00  0.00     0.058 A 
ATOM     66  C   UNL A   1      45.300  28.767  35.618  1.00  0.00     0.135 A 
ATOM     67  C   UNL A   1      43.601  27.506  36.759  1.00  0.00     0.135 A 
ATOM     68  F   UNL A   1      45.680  29.700  34.731  1.00  0.00    -0.206 F 
ATOM     69  C   UNL A   1      46.292  28.054  36.286  1.00  0.00     0.059 A 
ATOM     70  C   UNL A   1      44.576  26.799  37.459  1.00  0.00     0.059 A 
ATOM     71  F   UNL A   1      42.314  27.213  37.000  1.00  0.00    -0.206 F 
ATOM     72  C   UNL A   1      45.919  27.070  37.203  1.00  0.00     0.060 A 
BRANCH  72  73
ATOM     73  S   UNL A   1      47.215  26.153  38.061  1.00  0.00     0.124 S 
ATOM     74  O   UNL A   1      46.431  25.162  38.796  1.00  0.00    -0.237 OA
ATOM     75  O   UNL A   1      48.013  25.629  36.954  1.00  0.00    -0.237 OA
ATOM     76  O   UNL A   1      47.868  27.166  38.878  1.00  0.00    -0.744 OA
ENDBRANCH  72  73
ENDBRANCH  51  65
BRANCH  52  77
ATOM     77  C   UNL A   1      36.610  33.240  30.984  1.00  0.00     0.058 A 
ATOM     78  C   UNL A   1      36.860  34.078  29.886  1.00  0.00     0.135 A 
ATOM     79  C   UNL A   1      35.277  33.073  31.390  1.00  0.00     0.135 A 
ATOM     80  F   UNL A   1      38.118  34.276  29.467  1.00  0.00    -0.206 F 
ATOM     81  C   UNL A   1      35.829  34.738  29.224  1.00  0.00     0.059 A 
ATOM     82  C   UNL A   1      34.227  33.703  30.728  1.00  0.00     0.059 A 
ATOM     83  F   UNL A   1      34.984  32.270  32.424  1.00  0.00    -0.206 F 
ATOM     84  C   UNL A   1      34.515  34.542  29.652  1.00  0.00     0.060 A 
BRANCH  84  85
ATOM     85  S   UNL A   1      33.180  35.364  28.755  1.00  0.00     0.124 S 
ATOM     86  O   UNL A   1      33.921  36.327  27.947  1.00  0.00    -0.237 OA
ATOM     87  O   UNL A   1      32.569  34.255  28.028  1.00  0.00    -0.237 OA
ATOM     88  O   UNL A   1      32.360  35.932  29.821  1.00  0.00    -0.744 OA
ENDBRANCH  84  85
ENDBRANCH  52  77
BRANCH  64  89
ATOM     89  C   UNL A   1      39.914  34.370  37.021  1.00  0.00     0.058 A 
ATOM     90  C   UNL A   1      40.658  35.558  36.970  1.00  0.00     0.135 A 
ATOM     91  C   UNL A   1      38.991  34.219  38.069  1.00  0.00     0.135 A 
ATOM     92  F   UNL A   1      41.559  35.749  35.994  1.00  0.00    -0.206 F 
ATOM     93  C   UNL A   1      40.508  36.551  37.933  1.00  0.00     0.059 A 
ATOM     94  C   UNL A   1      38.805  35.210  39.028  1.00  0.00     0.059 A 
ATOM     95  F   UNL A   1      38.246  33.106  38.160  1.00  0.00    -0.206 F 
ATOM     96  C   UNL A   1      39.578  36.369  38.958  1.00  0.00     0.060 A 
BRANCH  96  97
ATOM     97  S   UNL A   1      39.367  37.680  40.181  1.00  0.00     0.124 S 
ATOM     98  O   UNL A   1      39.075  36.913  41.387  1.00  0.00    -0.237 OA
ATOM     99  O   UNL A   1      40.664  38.348  40.153  1.00  0.00    -0.237 OA
ATOM    100  O   UNL A   1      38.255  38.464  39.651  1.00  0.00    -0.744 OA
ENDBRANCH  96  97
ENDBRANCH  64  89
ENDBRANCH  38  39
ENDBRANCH  30  33
ENDBRANCH  28  29
ENDBRANCH  27  28
ENDBRANCH   1  27
TORSDOF 18
ENDMDL
