MODEL 1
REMARK VINA RESULT:     -13.6      0.000      0.000
REMARK SMILES O=C(NCCCCNC(=O)[C@H](c1c[nH]c2ccc(Cl)cc12)[NH+]1CCN(c2cccc(Cl)c2)CC1)c1ccc(-c2c3nc(c(-c4c(F)cc(S(=O)(=O)[O-])cc4F)c4ccc([nH]4)c(-c4c(F)cc(S(=O)(=O)[O-])cc4F)c4nc(c(-c5c(F)cc(S(=O)(=O)[O-])cc5F)c5ccc2[nH]5)C=C4)C=C3)cc1
REMARK SMILES IDX 5 1 4 2 3 3 1 4 2 5 35 7 36 8 100 9 37 10 99 11 38 12 39 13
REMARK SMILES IDX 40 14 93 15 41 16 98 17 92 18 94 19 42 20 97 21 91 22 90 23
REMARK SMILES IDX 43 25 77 26 56 27 76 28 57 29 60 30 75 31 95 32 58 33 59 34
REMARK SMILES IDX 74 36 96 37 61 38 44 39 45 40 54 41 46 42 47 43 53 44 55 45
REMARK SMILES IDX 48 46 49 47 50 48 51 49 52 50 78 51 79 52 88 53 80 54 81 55
REMARK SMILES IDX 87 56 89 57 82 58 83 59 84 60 85 61 86 62 62 63 63 64 72 65
REMARK SMILES IDX 64 66 65 67 71 68 73 69 66 70 67 71 68 72 69 73 70 74 6 75
REMARK SMILES IDX 7 76 8 77 9 78 10 80 11 81 22 82 23 83 34 84 24 86 33 87
REMARK SMILES IDX 25 88 26 89 27 90 32 91 28 92 30 93 29 94 31 95 12 96 13 97
REMARK SMILES IDX 21 98 14 99 15 100 20 101 16 103 18 104 17 105 19 106
REMARK H PARENT 3 6 94 24 60 35 8 79 22 85 14 102
REMARK Flexibility Score: inf
ROOT
ATOM      1  C   UNL A   1      34.256  30.652  27.296  1.00  0.00     0.023 C 
ENDROOT
BRANCH   1   2
ATOM      2  C   UNL A   1      35.525  30.122  27.967  1.00  0.00     0.116 C 
BRANCH   2   3
ATOM      3  N   UNL A   1      35.474  30.159  29.419  1.00  0.00    -0.352 N 
ATOM      4  O   UNL A   1      36.217  29.966  31.530  1.00  0.00    -0.269 OA
ATOM      5  C   UNL A   1      36.489  30.009  30.339  1.00  0.00     0.251 C 
ATOM      6  H   UNL A   1      34.581  30.314  29.803  1.00  0.00     0.163 HD
BRANCH   5   7
ATOM      7  C   UNL A   1      37.889  29.847  29.882  1.00  0.00     0.039 A 
ATOM      8  C   UNL A   1      38.221  29.875  28.525  1.00  0.00     0.014 A 
ATOM      9  C   UNL A   1      38.886  29.647  30.842  1.00  0.00     0.014 A 
ATOM     10  C   UNL A   1      39.516  29.560  28.120  1.00  0.00     0.010 A 
ATOM     11  C   UNL A   1      40.196  29.380  30.437  1.00  0.00     0.010 A 
ATOM     12  C   UNL A   1      40.509  29.288  29.073  1.00  0.00    -0.014 A 
BRANCH  12  13
ATOM     13  C   UNL A   1      41.862  28.882  28.629  1.00  0.00     0.031 A 
ATOM     14  C   UNL A   1      42.980  29.888  28.601  1.00  0.00     0.074 A 
ATOM     15  C   UNL A   1      42.087  27.602  28.279  1.00  0.00     0.049 A 
ATOM     16  N   UNL A   1      44.229  29.726  28.249  1.00  0.00    -0.248 NA
ATOM     17  C   UNL A   1      42.648  31.257  29.026  1.00  0.00     0.031 C 
ATOM     18  C   UNL A   1      41.079  26.542  28.286  1.00  0.00     0.029 A 
ATOM     19  N   UNL A   1      43.230  26.977  27.856  1.00  0.00    -0.354 N 
ATOM     20  C   UNL A   1      44.832  30.969  28.403  1.00  0.00     0.074 A 
ATOM     21  C   UNL A   1      43.805  31.884  28.853  1.00  0.00     0.031 C 
ATOM     22  C   UNL A   1      41.650  25.393  27.892  1.00  0.00     0.029 A 
ATOM     23  C   UNL A   1      43.052  25.645  27.568  1.00  0.00     0.049 A 
ATOM     24  H   UNL A   1      44.096  27.437  27.765  1.00  0.00     0.167 HD
ATOM     25  C   UNL A   1      46.126  31.312  28.193  1.00  0.00     0.037 A 
ATOM     26  C   UNL A   1      43.917  24.735  27.081  1.00  0.00     0.037 A 
ATOM     27  C   UNL A   1      47.137  30.393  27.736  1.00  0.00     0.049 A 
ATOM     28  C   UNL A   1      45.337  25.149  26.812  1.00  0.00     0.074 A 
ATOM     29  C   UNL A   1      48.480  30.635  27.500  1.00  0.00     0.029 A 
ATOM     30  N   UNL A   1      46.915  29.057  27.436  1.00  0.00    -0.354 N 
ATOM     31  N   UNL A   1      45.899  26.321  26.986  1.00  0.00    -0.248 NA
ATOM     32  C   UNL A   1      46.241  24.120  26.284  1.00  0.00     0.031 C 
ATOM     33  C   UNL A   1      49.058  29.455  27.017  1.00  0.00     0.029 A 
ATOM     34  C   UNL A   1      48.088  28.466  26.997  1.00  0.00     0.049 A 
ATOM     35  H   UNL A   1      46.049  28.596  27.523  1.00  0.00     0.167 HD
ATOM     36  C   UNL A   1      47.228  26.166  26.611  1.00  0.00     0.074 A 
ATOM     37  C   UNL A   1      47.387  24.783  26.207  1.00  0.00     0.031 C 
ATOM     38  C   UNL A   1      48.226  27.084  26.604  1.00  0.00     0.037 A 
BRANCH  25  39
ATOM     39  C   UNL A   1      46.510  32.748  28.426  1.00  0.00     0.058 A 
ATOM     40  C   UNL A   1      46.418  33.712  27.408  1.00  0.00     0.135 A 
ATOM     41  C   UNL A   1      46.970  33.169  29.685  1.00  0.00     0.135 A 
ATOM     42  F   UNL A   1      46.000  33.363  26.182  1.00  0.00    -0.206 F 
ATOM     43  C   UNL A   1      46.804  35.033  27.620  1.00  0.00     0.059 A 
ATOM     44  C   UNL A   1      47.337  34.490  29.926  1.00  0.00     0.059 A 
ATOM     45  F   UNL A   1      47.075  32.291  30.694  1.00  0.00    -0.206 F 
ATOM     46  C   UNL A   1      47.269  35.410  28.881  1.00  0.00     0.060 A 
BRANCH  46  47
ATOM     47  S   UNL A   1      47.795  37.120  29.132  1.00  0.00     0.124 S 
ATOM     48  O   UNL A   1      47.516  37.703  27.824  1.00  0.00    -0.237 OA
ATOM     49  O   UNL A   1      46.928  37.560  30.219  1.00  0.00    -0.237 OA
ATOM     50  O   UNL A   1      49.209  36.994  29.473  1.00  0.00    -0.744 OA
ENDBRANCH  46  47
ENDBRANCH  25  39
BRANCH  26  51
ATOM     51  C   UNL A   1      43.450  23.349  26.822  1.00  0.00     0.058 A 
ATOM     52  C   UNL A   1      43.302  22.865  25.515  1.00  0.00     0.135 A 
ATOM     53  C   UNL A   1      43.189  22.463  27.881  1.00  0.00     0.135 A 
ATOM     54  F   UNL A   1      43.533  23.674  24.470  1.00  0.00    -0.206 F 
ATOM     55  C   UNL A   1      42.910  21.553  25.264  1.00  0.00     0.059 A 
ATOM     56  C   UNL A   1      42.820  21.142  27.656  1.00  0.00     0.059 A 
ATOM     57  F   UNL A   1      43.331  22.875  29.151  1.00  0.00    -0.206 F 
ATOM     58  C   UNL A   1      42.679  20.697  26.342  1.00  0.00     0.060 A 
BRANCH  58  59
ATOM     59  S   UNL A   1      42.241  18.977  26.005  1.00  0.00     0.124 S 
ATOM     60  O   UNL A   1      43.029  18.702  24.810  1.00  0.00    -0.237 OA
ATOM     61  O   UNL A   1      42.676  18.305  27.226  1.00  0.00    -0.237 OA
ATOM     62  O   UNL A   1      40.796  19.031  25.811  1.00  0.00    -0.744 OA
ENDBRANCH  58  59
ENDBRANCH  26  51
BRANCH  38  63
ATOM     63  C   UNL A   1      49.590  26.618  26.177  1.00  0.00     0.058 A 
ATOM     64  C   UNL A   1      50.063  26.819  24.872  1.00  0.00     0.135 A 
ATOM     65  C   UNL A   1      50.455  26.016  27.105  1.00  0.00     0.135 A 
ATOM     66  F   UNL A   1      49.271  27.382  23.945  1.00  0.00    -0.206 F 
ATOM     67  C   UNL A   1      51.344  26.427  24.496  1.00  0.00     0.059 A 
ATOM     68  C   UNL A   1      51.748  25.638  26.759  1.00  0.00     0.059 A 
ATOM     69  F   UNL A   1      50.053  25.809  28.370  1.00  0.00    -0.206 F 
ATOM     70  C   UNL A   1      52.180  25.839  25.448  1.00  0.00     0.060 A 
BRANCH  70  71
ATOM     71  S   UNL A   1      53.856  25.376  24.962  1.00  0.00     0.124 S 
ATOM     72  O   UNL A   1      54.642  25.918  26.065  1.00  0.00    -0.237 OA
ATOM     73  O   UNL A   1      53.773  23.920  24.899  1.00  0.00    -0.237 OA
ATOM     74  O   UNL A   1      54.034  26.043  23.676  1.00  0.00    -0.744 OA
ENDBRANCH  70  71
ENDBRANCH  38  63
ENDBRANCH  12  13
ENDBRANCH   5   7
ENDBRANCH   2   3
ENDBRANCH   1   2
BRANCH   1  75
ATOM     75  C   UNL A   1      33.543  29.701  26.332  1.00  0.00     0.023 C 
BRANCH  75  76
ATOM     76  C   UNL A   1      33.405  28.262  26.812  1.00  0.00     0.116 C 
BRANCH  76  77
ATOM     77  N   UNL A   1      32.040  27.795  26.911  1.00  0.00    -0.351 N 
ATOM     78  C   UNL A   1      31.385  26.902  26.097  1.00  0.00     0.283 C 
ATOM     79  H   UNL A   1      31.512  28.164  27.656  1.00  0.00     0.163 HD
ATOM     80  O   UNL A   1      30.347  26.410  26.550  1.00  0.00    -0.268 OA
BRANCH  78  81
ATOM     81  C   UNL A   1      31.957  26.549  24.692  1.00  0.00     0.307 C 
BRANCH  81  82
ATOM     82  N   UNL A   1      31.440  25.297  24.106  1.00  0.00    -0.318 N 
ATOM     83  C   UNL A   1      32.138  24.741  22.944  1.00  0.00     0.284 C 
ATOM     84  C   UNL A   1      30.952  24.254  25.012  1.00  0.00     0.284 C 
ATOM     85  H   UNL A   1      30.591  25.717  23.727  1.00  0.00     0.349 HD
ATOM     86  C   UNL A   1      33.110  23.559  23.182  1.00  0.00     0.178 C 
ATOM     87  C   UNL A   1      31.997  23.191  25.394  1.00  0.00     0.178 C 
ATOM     88  N   UNL A   1      32.610  22.618  24.187  1.00  0.00    -0.360 N 
BRANCH  88  89
ATOM     89  C   UNL A   1      33.219  21.378  24.343  1.00  0.00     0.038 A 
ATOM     90  C   UNL A   1      32.430  20.219  24.272  1.00  0.00     0.026 A 
ATOM     91  C   UNL A   1      34.591  21.223  24.574  1.00  0.00     0.046 A 
ATOM     92  C   UNL A   1      32.985  18.946  24.415  1.00  0.00     0.004 A 
ATOM     93  C   UNL A   1      35.145  19.949  24.724  1.00  0.00     0.043 A 
ATOM     94  C   UNL A   1      34.349  18.810  24.646  1.00  0.00     0.020 A 
ATOM     95  Cl  UNL A   1      36.834  19.775  25.002  1.00  0.00    -0.084 Cl
ENDBRANCH  88  89
ENDBRANCH  81  82
BRANCH  81  96
ATOM     96  C   UNL A   1      31.700  27.660  23.676  1.00  0.00     0.044 A 
ATOM     97  C   UNL A   1      32.640  28.392  22.967  1.00  0.00     0.094 A 
ATOM     98  C   UNL A   1      30.417  28.184  23.282  1.00  0.00     0.011 A 
ATOM     99  N   UNL A   1      32.001  29.347  22.231  1.00  0.00    -0.361 N 
ATOM    100  C   UNL A   1      30.643  29.252  22.410  1.00  0.00     0.046 A 
ATOM    101  C   UNL A   1      29.081  27.860  23.601  1.00  0.00     0.031 A 
ATOM    102  H   UNL A   1      32.448  30.010  21.655  1.00  0.00     0.166 HD
ATOM    103  C   UNL A   1      29.613  30.030  21.865  1.00  0.00     0.028 A 
ATOM    104  C   UNL A   1      28.042  28.618  23.049  1.00  0.00     0.041 A 
ATOM    105  C   UNL A   1      28.301  29.691  22.202  1.00  0.00     0.022 A 
ATOM    106  Cl  UNL A   1      26.410  28.217  23.428  1.00  0.00    -0.084 Cl
ENDBRANCH  81  96
ENDBRANCH  78  81
ENDBRANCH  76  77
ENDBRANCH  75  76
ENDBRANCH   1  75
TORSDOF 17
ENDMDL
MODEL 2
REMARK VINA RESULT:     -13.5      6.365     12.083
REMARK SMILES O=C(NCCCCNC(=O)[C@H](c1c[nH]c2ccc(Cl)cc12)[NH+]1CCN(c2cccc(Cl)c2)CC1)c1ccc(-c2c3nc(c(-c4c(F)cc(S(=O)(=O)[O-])cc4F)c4ccc([nH]4)c(-c4c(F)cc(S(=O)(=O)[O-])cc4F)c4nc(c(-c5c(F)cc(S(=O)(=O)[O-])cc5F)c5ccc2[nH]5)C=C4)C=C3)cc1
REMARK SMILES IDX 5 1 4 2 3 3 1 4 2 5 35 7 36 8 100 9 37 10 99 11 38 12 39 13
REMARK SMILES IDX 40 14 93 15 41 16 98 17 92 18 94 19 42 20 97 21 91 22 90 23
REMARK SMILES IDX 43 25 77 26 56 27 76 28 57 29 60 30 75 31 95 32 58 33 59 34
REMARK SMILES IDX 74 36 96 37 61 38 44 39 45 40 54 41 46 42 47 43 53 44 55 45
REMARK SMILES IDX 48 46 49 47 50 48 51 49 52 50 78 51 79 52 88 53 80 54 81 55
REMARK SMILES IDX 87 56 89 57 82 58 83 59 84 60 85 61 86 62 62 63 63 64 72 65
REMARK SMILES IDX 64 66 65 67 71 68 73 69 66 70 67 71 68 72 69 73 70 74 6 75
REMARK SMILES IDX 7 76 8 77 9 78 10 80 11 81 22 82 23 83 34 84 24 86 33 87
REMARK SMILES IDX 25 88 26 89 27 90 32 91 28 92 30 93 29 94 31 95 12 96 13 97
REMARK SMILES IDX 21 98 14 99 15 100 20 101 16 103 18 104 17 105 19 106
REMARK H PARENT 3 6 94 24 60 35 8 79 22 85 14 102
REMARK Flexibility Score: inf
ROOT
ATOM      1  C   UNL A   1      39.085  22.899  26.307  1.00  0.00     0.023 C 
ENDROOT
BRANCH   1   2
ATOM      2  C   UNL A   1      40.491  23.249  26.797  1.00  0.00     0.116 C 
BRANCH   2   3
ATOM      3  N   UNL A   1      41.259  24.036  25.847  1.00  0.00    -0.352 N 
ATOM      4  O   UNL A   1      42.296  25.840  25.000  1.00  0.00    -0.269 OA
ATOM      5  C   UNL A   1      41.764  25.312  25.967  1.00  0.00     0.251 C 
ATOM      6  H   UNL A   1      41.446  23.591  24.989  1.00  0.00     0.163 HD
BRANCH   5   7
ATOM      7  C   UNL A   1      41.614  26.056  27.239  1.00  0.00     0.039 A 
ATOM      8  C   UNL A   1      40.470  25.922  28.032  1.00  0.00     0.014 A 
ATOM      9  C   UNL A   1      42.641  26.919  27.634  1.00  0.00     0.014 A 
ATOM     10  C   UNL A   1      40.288  26.752  29.134  1.00  0.00     0.010 A 
ATOM     11  C   UNL A   1      42.480  27.716  28.770  1.00  0.00     0.010 A 
ATOM     12  C   UNL A   1      41.282  27.672  29.499  1.00  0.00    -0.014 A 
BRANCH  12  13
ATOM     13  C   UNL A   1      41.046  28.600  30.629  1.00  0.00     0.031 A 
ATOM     14  C   UNL A   1      41.904  28.522  31.861  1.00  0.00     0.074 A 
ATOM     15  C   UNL A   1      40.076  29.528  30.530  1.00  0.00     0.049 A 
ATOM     16  N   UNL A   1      41.857  29.246  32.949  1.00  0.00    -0.248 NA
ATOM     17  C   UNL A   1      42.957  27.494  31.870  1.00  0.00     0.031 C 
ATOM     18  C   UNL A   1      39.196  29.702  29.374  1.00  0.00     0.029 A 
ATOM     19  N   UNL A   1      39.672  30.498  31.409  1.00  0.00    -0.354 N 
ATOM     20  C   UNL A   1      42.864  28.760  33.775  1.00  0.00     0.074 A 
ATOM     21  C   UNL A   1      43.490  27.660  33.074  1.00  0.00     0.031 C 
ATOM     22  C   UNL A   1      38.360  30.724  29.611  1.00  0.00     0.029 A 
ATOM     23  C   UNL A   1      38.617  31.250  30.950  1.00  0.00     0.049 A 
ATOM     24  H   UNL A   1      40.095  30.643  32.287  1.00  0.00     0.167 HD
ATOM     25  C   UNL A   1      43.236  29.199  35.002  1.00  0.00     0.037 A 
ATOM     26  C   UNL A   1      37.925  32.238  31.547  1.00  0.00     0.037 A 
ATOM     27  C   UNL A   1      42.599  30.291  35.692  1.00  0.00     0.049 A 
ATOM     28  C   UNL A   1      38.325  32.677  32.928  1.00  0.00     0.074 A 
ATOM     29  C   UNL A   1      42.903  30.820  36.935  1.00  0.00     0.029 A 
ATOM     30  N   UNL A   1      41.520  31.014  35.204  1.00  0.00    -0.354 N 
ATOM     31  N   UNL A   1      39.296  32.226  33.686  1.00  0.00    -0.248 NA
ATOM     32  C   UNL A   1      37.541  33.760  33.535  1.00  0.00     0.031 C 
ATOM     33  C   UNL A   1      41.980  31.836  37.214  1.00  0.00     0.029 A 
ATOM     34  C   UNL A   1      41.132  31.971  36.126  1.00  0.00     0.049 A 
ATOM     35  H   UNL A   1      41.093  30.869  34.328  1.00  0.00     0.167 HD
ATOM     36  C   UNL A   1      39.255  32.984  34.851  1.00  0.00     0.074 A 
ATOM     37  C   UNL A   1      38.166  33.928  34.693  1.00  0.00     0.031 C 
ATOM     38  C   UNL A   1      40.048  32.907  35.948  1.00  0.00     0.037 A 
BRANCH  25  39
ATOM     39  C   UNL A   1      44.363  28.473  35.686  1.00  0.00     0.058 A 
ATOM     40  C   UNL A   1      44.130  27.378  36.534  1.00  0.00     0.135 A 
ATOM     41  C   UNL A   1      45.694  28.873  35.486  1.00  0.00     0.135 A 
ATOM     42  F   UNL A   1      42.876  26.962  36.773  1.00  0.00    -0.206 F 
ATOM     43  C   UNL A   1      45.174  26.730  37.189  1.00  0.00     0.059 A 
ATOM     44  C   UNL A   1      46.755  28.224  36.111  1.00  0.00     0.059 A 
ATOM     45  F   UNL A   1      45.975  29.912  34.684  1.00  0.00    -0.206 F 
ATOM     46  C   UNL A   1      46.483  27.166  36.976  1.00  0.00     0.060 A 
BRANCH  46  47
ATOM     47  S   UNL A   1      47.824  26.335  37.856  1.00  0.00     0.124 S 
ATOM     48  O   UNL A   1      47.261  25.003  38.051  1.00  0.00    -0.237 OA
ATOM     49  O   UNL A   1      48.927  26.423  36.906  1.00  0.00    -0.237 OA
ATOM     50  O   UNL A   1      47.979  27.133  39.069  1.00  0.00    -0.744 OA
ENDBRANCH  46  47
ENDBRANCH  25  39
BRANCH  26  51
ATOM     51  C   UNL A   1      36.787  32.869  30.832  1.00  0.00     0.058 A 
ATOM     52  C   UNL A   1      35.460  32.535  31.139  1.00  0.00     0.135 A 
ATOM     53  C   UNL A   1      37.003  33.857  29.857  1.00  0.00     0.135 A 
ATOM     54  F   UNL A   1      35.203  31.592  32.058  1.00  0.00    -0.206 F 
ATOM     55  C   UNL A   1      34.387  33.155  30.506  1.00  0.00     0.059 A 
ATOM     56  C   UNL A   1      35.947  34.508  29.229  1.00  0.00     0.059 A 
ATOM     57  F   UNL A   1      38.254  34.223  29.538  1.00  0.00    -0.206 F 
ATOM     58  C   UNL A   1      34.642  34.146  29.557  1.00  0.00     0.060 A 
BRANCH  58  59
ATOM     59  S   UNL A   1      33.242  34.996  28.794  1.00  0.00     0.124 S 
ATOM     60  O   UNL A   1      32.694  33.951  27.938  1.00  0.00    -0.237 OA
ATOM     61  O   UNL A   1      32.435  35.360  29.954  1.00  0.00    -0.237 OA
ATOM     62  O   UNL A   1      33.868  36.118  28.101  1.00  0.00    -0.744 OA
ENDBRANCH  58  59
ENDBRANCH  26  51
BRANCH  38  63
ATOM     63  C   UNL A   1      39.791  33.890  37.055  1.00  0.00     0.058 A 
ATOM     64  C   UNL A   1      39.003  33.559  38.168  1.00  0.00     0.135 A 
ATOM     65  C   UNL A   1      40.392  35.159  37.028  1.00  0.00     0.135 A 
ATOM     66  F   UNL A   1      38.400  32.362  38.238  1.00  0.00    -0.206 F 
ATOM     67  C   UNL A   1      38.808  34.459  39.211  1.00  0.00     0.059 A 
ATOM     68  C   UNL A   1      40.230  36.065  38.071  1.00  0.00     0.059 A 
ATOM     69  F   UNL A   1      41.161  35.521  35.989  1.00  0.00    -0.206 F 
ATOM     70  C   UNL A   1      39.428  35.708  39.155  1.00  0.00     0.060 A 
BRANCH  70  71
ATOM     71  S   UNL A   1      39.206  36.851  40.536  1.00  0.00     0.124 S 
ATOM     72  O   UNL A   1      40.581  37.040  40.985  1.00  0.00    -0.237 OA
ATOM     73  O   UNL A   1      38.586  38.004  39.891  1.00  0.00    -0.237 OA
ATOM     74  O   UNL A   1      38.341  36.112  41.451  1.00  0.00    -0.744 OA
ENDBRANCH  70  71
ENDBRANCH  38  63
ENDBRANCH  12  13
ENDBRANCH   5   7
ENDBRANCH   2   3
ENDBRANCH   1   2
BRANCH   1  75
ATOM     75  C   UNL A   1      38.079  24.050  26.233  1.00  0.00     0.023 C 
BRANCH  75  76
ATOM     76  C   UNL A   1      36.633  23.643  25.982  1.00  0.00     0.116 C 
BRANCH  76  77
ATOM     77  N   UNL A   1      36.373  23.164  24.642  1.00  0.00    -0.351 N 
ATOM     78  C   UNL A   1      35.165  23.065  23.994  1.00  0.00     0.283 C 
ATOM     79  H   UNL A   1      37.160  22.871  24.130  1.00  0.00     0.163 HD
ATOM     80  O   UNL A   1      35.213  22.939  22.766  1.00  0.00    -0.268 OA
BRANCH  78  81
ATOM     81  C   UNL A   1      33.831  23.121  24.797  1.00  0.00     0.307 C 
BRANCH  81  82
ATOM     82  N   UNL A   1      32.647  23.516  24.010  1.00  0.00    -0.318 N 
ATOM     83  C   UNL A   1      31.398  23.778  24.731  1.00  0.00     0.284 C 
ATOM     84  C   UNL A   1      32.835  24.426  22.878  1.00  0.00     0.284 C 
ATOM     85  H   UNL A   1      32.514  22.602  23.578  1.00  0.00     0.349 HD
ATOM     86  C   UNL A   1      31.011  25.255  24.992  1.00  0.00     0.178 C 
ATOM     87  C   UNL A   1      32.636  25.916  23.207  1.00  0.00     0.178 C 
ATOM     88  N   UNL A   1      31.336  26.127  23.861  1.00  0.00    -0.360 N 
BRANCH  88  89
ATOM     89  C   UNL A   1      30.834  27.421  23.814  1.00  0.00     0.038 A 
ATOM     90  C   UNL A   1      31.443  28.417  24.594  1.00  0.00     0.026 A 
ATOM     91  C   UNL A   1      29.737  27.788  23.024  1.00  0.00     0.046 A 
ATOM     92  C   UNL A   1      30.986  29.737  24.585  1.00  0.00     0.004 A 
ATOM     93  C   UNL A   1      29.277  29.108  23.020  1.00  0.00     0.043 A 
ATOM     94  C   UNL A   1      29.896  30.083  23.796  1.00  0.00     0.020 A 
ATOM     95  Cl  UNL A   1      27.932  29.544  22.040  1.00  0.00    -0.084 Cl
ENDBRANCH  88  89
ENDBRANCH  81  82
BRANCH  81  96
ATOM     96  C   UNL A   1      33.506  21.782  25.456  1.00  0.00     0.044 A 
ATOM     97  C   UNL A   1      33.562  21.467  26.805  1.00  0.00     0.094 A 
ATOM     98  C   UNL A   1      33.104  20.570  24.787  1.00  0.00     0.011 A 
ATOM     99  N   UNL A   1      33.280  20.141  26.967  1.00  0.00    -0.361 N 
ATOM    100  C   UNL A   1      33.005  19.564  25.752  1.00  0.00     0.046 A 
ATOM    101  C   UNL A   1      32.831  20.231  23.445  1.00  0.00     0.031 A 
ATOM    102  H   UNL A   1      33.274  19.667  27.830  1.00  0.00     0.166 HD
ATOM    103  C   UNL A   1      32.681  18.237  25.446  1.00  0.00     0.028 A 
ATOM    104  C   UNL A   1      32.488  18.911  23.129  1.00  0.00     0.041 A 
ATOM    105  C   UNL A   1      32.422  17.926  24.110  1.00  0.00     0.022 A 
ATOM    106  Cl  UNL A   1      32.144  18.497  21.492  1.00  0.00    -0.084 Cl
ENDBRANCH  81  96
ENDBRANCH  78  81
ENDBRANCH  76  77
ENDBRANCH  75  76
ENDBRANCH   1  75
TORSDOF 17
ENDMDL
MODEL 3
REMARK VINA RESULT:     -13.4      2.788      5.508
REMARK SMILES O=C(NCCCCNC(=O)[C@H](c1c[nH]c2ccc(Cl)cc12)[NH+]1CCN(c2cccc(Cl)c2)CC1)c1ccc(-c2c3nc(c(-c4c(F)cc(S(=O)(=O)[O-])cc4F)c4ccc([nH]4)c(-c4c(F)cc(S(=O)(=O)[O-])cc4F)c4nc(c(-c5c(F)cc(S(=O)(=O)[O-])cc5F)c5ccc2[nH]5)C=C4)C=C3)cc1
REMARK SMILES IDX 5 1 4 2 3 3 1 4 2 5 35 7 36 8 100 9 37 10 99 11 38 12 39 13
REMARK SMILES IDX 40 14 93 15 41 16 98 17 92 18 94 19 42 20 97 21 91 22 90 23
REMARK SMILES IDX 43 25 77 26 56 27 76 28 57 29 60 30 75 31 95 32 58 33 59 34
REMARK SMILES IDX 74 36 96 37 61 38 44 39 45 40 54 41 46 42 47 43 53 44 55 45
REMARK SMILES IDX 48 46 49 47 50 48 51 49 52 50 78 51 79 52 88 53 80 54 81 55
REMARK SMILES IDX 87 56 89 57 82 58 83 59 84 60 85 61 86 62 62 63 63 64 72 65
REMARK SMILES IDX 64 66 65 67 71 68 73 69 66 70 67 71 68 72 69 73 70 74 6 75
REMARK SMILES IDX 7 76 8 77 9 78 10 80 11 81 22 82 23 83 34 84 24 86 33 87
REMARK SMILES IDX 25 88 26 89 27 90 32 91 28 92 30 93 29 94 31 95 12 96 13 97
REMARK SMILES IDX 21 98 14 99 15 100 20 101 16 103 18 104 17 105 19 106
REMARK H PARENT 3 6 94 24 60 35 8 79 22 85 14 102
REMARK Flexibility Score: inf
ROOT
ATOM      1  C   UNL A   1      34.134  28.113  26.099  1.00  0.00     0.023 C 
ENDROOT
BRANCH   1   2
ATOM      2  C   UNL A   1      33.416  28.428  27.412  1.00  0.00     0.116 C 
BRANCH   2   3
ATOM      3  N   UNL A   1      33.399  29.844  27.742  1.00  0.00    -0.352 N 
ATOM      4  O   UNL A   1      34.157  31.802  28.539  1.00  0.00    -0.269 OA
ATOM      5  C   UNL A   1      34.409  30.648  28.222  1.00  0.00     0.251 C 
ATOM      6  H   UNL A   1      32.535  30.295  27.601  1.00  0.00     0.163 HD
BRANCH   5   7
ATOM      7  C   UNL A   1      35.774  30.100  28.401  1.00  0.00     0.039 A 
ATOM      8  C   UNL A   1      36.199  29.588  29.630  1.00  0.00     0.014 A 
ATOM      9  C   UNL A   1      36.650  30.119  27.311  1.00  0.00     0.014 A 
ATOM     10  C   UNL A   1      37.533  29.231  29.810  1.00  0.00     0.010 A 
ATOM     11  C   UNL A   1      37.976  29.713  27.479  1.00  0.00     0.010 A 
ATOM     12  C   UNL A   1      38.437  29.312  28.742  1.00  0.00    -0.014 A 
BRANCH  12  13
ATOM     13  C   UNL A   1      39.868  29.001  28.964  1.00  0.00     0.031 A 
ATOM     14  C   UNL A   1      40.784  30.041  29.548  1.00  0.00     0.074 A 
ATOM     15  C   UNL A   1      40.332  27.774  28.664  1.00  0.00     0.049 A 
ATOM     16  N   UNL A   1      42.060  29.959  29.820  1.00  0.00    -0.248 NA
ATOM     17  C   UNL A   1      40.184  31.345  29.869  1.00  0.00     0.031 C 
ATOM     18  C   UNL A   1      39.526  26.685  28.109  1.00  0.00     0.029 A 
ATOM     19  N   UNL A   1      41.586  27.235  28.788  1.00  0.00    -0.354 N 
ATOM     20  C   UNL A   1      42.420  31.198  30.338  1.00  0.00     0.074 A 
ATOM     21  C   UNL A   1      41.233  32.025  30.315  1.00  0.00     0.031 C 
ATOM     22  C   UNL A   1      40.305  25.604  27.947  1.00  0.00     0.029 A 
ATOM     23  C   UNL A   1      41.670  25.936  28.348  1.00  0.00     0.049 A 
ATOM     24  H   UNL A   1      42.353  27.731  29.155  1.00  0.00     0.167 HD
ATOM     25  C   UNL A   1      43.629  31.604  30.796  1.00  0.00     0.037 A 
ATOM     26  C   UNL A   1      42.732  25.112  28.261  1.00  0.00     0.037 A 
ATOM     27  C   UNL A   1      44.806  30.773  30.804  1.00  0.00     0.049 A 
ATOM     28  C   UNL A   1      44.074  25.600  28.731  1.00  0.00     0.074 A 
ATOM     29  C   UNL A   1      46.078  31.084  31.254  1.00  0.00     0.029 A 
ATOM     30  N   UNL A   1      44.857  29.470  30.332  1.00  0.00    -0.354 N 
ATOM     31  N   UNL A   1      44.393  26.765  29.242  1.00  0.00    -0.248 NA
ATOM     32  C   UNL A   1      45.198  24.663  28.618  1.00  0.00     0.031 C 
ATOM     33  C   UNL A   1      46.907  29.982  31.012  1.00  0.00     0.029 A 
ATOM     34  C   UNL A   1      46.142  28.968  30.457  1.00  0.00     0.049 A 
ATOM     35  H   UNL A   1      44.092  28.973  29.960  1.00  0.00     0.167 HD
ATOM     36  C   UNL A   1      45.751  26.695  29.532  1.00  0.00     0.074 A 
ATOM     37  C   UNL A   1      46.190  25.368  29.146  1.00  0.00     0.031 C 
ATOM     38  C   UNL A   1      46.558  27.641  30.072  1.00  0.00     0.037 A 
BRANCH  25  39
ATOM     39  C   UNL A   1      43.743  33.020  31.293  1.00  0.00     0.058 A 
ATOM     40  C   UNL A   1      44.069  34.081  30.433  1.00  0.00     0.135 A 
ATOM     41  C   UNL A   1      43.517  33.320  32.646  1.00  0.00     0.135 A 
ATOM     42  F   UNL A   1      44.310  33.850  29.133  1.00  0.00    -0.206 F 
ATOM     43  C   UNL A   1      44.203  35.385  30.905  1.00  0.00     0.059 A 
ATOM     44  C   UNL A   1      43.622  34.620  33.135  1.00  0.00     0.059 A 
ATOM     45  F   UNL A   1      43.200  32.345  33.512  1.00  0.00    -0.206 F 
ATOM     46  C   UNL A   1      43.985  35.642  32.260  1.00  0.00     0.060 A 
BRANCH  46  47
ATOM     47  S   UNL A   1      44.194  37.332  32.862  1.00  0.00     0.124 S 
ATOM     48  O   UNL A   1      45.567  37.296  33.355  1.00  0.00    -0.237 OA
ATOM     49  O   UNL A   1      43.974  38.125  31.658  1.00  0.00    -0.237 OA
ATOM     50  O   UNL A   1      43.163  37.456  33.889  1.00  0.00    -0.744 OA
ENDBRANCH  46  47
ENDBRANCH  25  39
BRANCH  26  51
ATOM     51  C   UNL A   1      42.553  23.746  27.705  1.00  0.00     0.058 A 
ATOM     52  C   UNL A   1      42.567  23.518  26.322  1.00  0.00     0.135 A 
ATOM     53  C   UNL A   1      42.413  22.633  28.550  1.00  0.00     0.135 A 
ATOM     54  F   UNL A   1      42.692  24.550  25.473  1.00  0.00    -0.206 F 
ATOM     55  C   UNL A   1      42.447  22.236  25.794  1.00  0.00     0.059 A 
ATOM     56  C   UNL A   1      42.316  21.340  28.047  1.00  0.00     0.059 A 
ATOM     57  F   UNL A   1      42.408  22.798  29.882  1.00  0.00    -0.206 F 
ATOM     58  C   UNL A   1      42.330  21.153  26.666  1.00  0.00     0.060 A 
BRANCH  58  59
ATOM     59  S   UNL A   1      42.248  19.486  25.973  1.00  0.00     0.124 S 
ATOM     60  O   UNL A   1      43.124  19.606  24.814  1.00  0.00    -0.237 OA
ATOM     61  O   UNL A   1      42.751  18.671  27.073  1.00  0.00    -0.237 OA
ATOM     62  O   UNL A   1      40.828  19.316  25.677  1.00  0.00    -0.744 OA
ENDBRANCH  58  59
ENDBRANCH  26  51
BRANCH  38  63
ATOM     63  C   UNL A   1      47.995  27.268  30.309  1.00  0.00     0.058 A 
ATOM     64  C   UNL A   1      49.013  27.657  29.425  1.00  0.00     0.135 A 
ATOM     65  C   UNL A   1      48.362  26.566  31.468  1.00  0.00     0.135 A 
ATOM     66  F   UNL A   1      48.713  28.323  28.299  1.00  0.00    -0.206 F 
ATOM     67  C   UNL A   1      50.346  27.348  29.675  1.00  0.00     0.059 A 
ATOM     68  C   UNL A   1      49.691  26.268  31.750  1.00  0.00     0.059 A 
ATOM     69  F   UNL A   1      47.426  26.178  32.349  1.00  0.00    -0.206 F 
ATOM     70  C   UNL A   1      50.676  26.656  30.842  1.00  0.00     0.060 A 
BRANCH  70  71
ATOM     71  S   UNL A   1      52.414  26.301  31.179  1.00  0.00     0.124 S 
ATOM     72  O   UNL A   1      52.817  27.489  31.925  1.00  0.00    -0.237 OA
ATOM     73  O   UNL A   1      52.337  25.064  31.950  1.00  0.00    -0.237 OA
ATOM     74  O   UNL A   1      52.997  26.167  29.847  1.00  0.00    -0.744 OA
ENDBRANCH  70  71
ENDBRANCH  38  63
ENDBRANCH  12  13
ENDBRANCH   5   7
ENDBRANCH   2   3
ENDBRANCH   1   2
BRANCH   1  75
ATOM     75  C   UNL A   1      33.799  26.773  25.440  1.00  0.00     0.023 C 
BRANCH  75  76
ATOM     76  C   UNL A   1      33.208  26.861  24.039  1.00  0.00     0.116 C 
BRANCH  76  77
ATOM     77  N   UNL A   1      33.762  25.915  23.097  1.00  0.00    -0.351 N 
ATOM     78  C   UNL A   1      33.572  24.555  23.045  1.00  0.00     0.283 C 
ATOM     79  H   UNL A   1      34.352  26.293  22.404  1.00  0.00     0.163 HD
ATOM     80  O   UNL A   1      33.874  24.001  21.983  1.00  0.00    -0.268 OA
BRANCH  78  81
ATOM     81  C   UNL A   1      32.997  23.791  24.275  1.00  0.00     0.307 C 
BRANCH  81  82
ATOM     82  N   UNL A   1      31.524  23.758  24.353  1.00  0.00    -0.318 N 
ATOM     83  C   UNL A   1      30.881  24.419  25.492  1.00  0.00     0.284 C 
ATOM     84  C   UNL A   1      30.756  23.915  23.115  1.00  0.00     0.284 C 
ATOM     85  H   UNL A   1      31.465  22.761  24.561  1.00  0.00     0.349 HD
ATOM     86  C   UNL A   1      30.270  25.824  25.262  1.00  0.00     0.178 C 
ATOM     87  C   UNL A   1      30.324  25.358  22.803  1.00  0.00     0.178 C 
ATOM     88  N   UNL A   1      29.621  25.943  23.954  1.00  0.00    -0.360 N 
BRANCH  88  89
ATOM     89  C   UNL A   1      28.805  27.034  23.680  1.00  0.00     0.038 A 
ATOM     90  C   UNL A   1      27.427  26.931  23.924  1.00  0.00     0.026 A 
ATOM     91  C   UNL A   1      29.290  28.241  23.163  1.00  0.00     0.046 A 
ATOM     92  C   UNL A   1      26.557  27.995  23.674  1.00  0.00     0.004 A 
ATOM     93  C   UNL A   1      28.419  29.304  22.906  1.00  0.00     0.043 A 
ATOM     94  C   UNL A   1      27.055  29.186  23.159  1.00  0.00     0.020 A 
ATOM     95  Cl  UNL A   1      29.031  30.783  22.275  1.00  0.00    -0.084 Cl
ENDBRANCH  88  89
ENDBRANCH  81  82
BRANCH  81  96
ATOM     96  C   UNL A   1      33.482  22.343  24.323  1.00  0.00     0.044 A 
ATOM     97  C   UNL A   1      32.739  21.193  24.098  1.00  0.00     0.094 A 
ATOM     98  C   UNL A   1      34.812  21.892  24.647  1.00  0.00     0.011 A 
ATOM     99  N   UNL A   1      33.525  20.102  24.326  1.00  0.00    -0.361 N 
ATOM    100  C   UNL A   1      34.794  20.495  24.672  1.00  0.00     0.046 A 
ATOM    101  C   UNL A   1      36.028  22.545  24.940  1.00  0.00     0.031 A 
ATOM    102  H   UNL A   1      33.226  19.166  24.253  1.00  0.00     0.166 HD
ATOM    103  C   UNL A   1      35.912  19.719  25.002  1.00  0.00     0.028 A 
ATOM    104  C   UNL A   1      37.158  21.780  25.253  1.00  0.00     0.041 A 
ATOM    105  C   UNL A   1      37.101  20.390  25.294  1.00  0.00     0.022 A 
ATOM    106  Cl  UNL A   1      38.647  22.575  25.600  1.00  0.00    -0.084 Cl
ENDBRANCH  81  96
ENDBRANCH  78  81
ENDBRANCH  76  77
ENDBRANCH  75  76
ENDBRANCH   1  75
TORSDOF 17
ENDMDL
