MODEL 1
REMARK VINA RESULT:     -11.4      0.000      0.000
REMARK SMILES C=CCc1c(C)nn(CC(=O)NCCCCNC(=O)c2ccc(-c3c4nc(c(-c5c(F)cc(S(=O)(=O)[O-])cc5F)c5ccc([nH]5)c(-c5c(F)cc(S(=O)(=O)[O-])cc5F)c5nc(c(-c6c(F)cc(S(=O)(=O)[O-])cc6F)c6ccc3[nH]6)C=C5)C=C4)cc2)c1-c1ccccc1
REMARK SMILES IDX 14 1 13 2 12 3 10 4 11 5 9 7 8 8 4 9 5 10 86 11 6 12 7 13
REMARK SMILES IDX 3 14 2 15 1 16 87 17 88 18 92 19 89 20 91 21 90 22 15 23
REMARK SMILES IDX 16 24 17 25 18 26 19 28 20 29 21 30 85 31 22 32 84 33 23 34
REMARK SMILES IDX 24 35 25 36 78 37 26 38 83 39 77 40 79 41 27 42 82 43 76 44
REMARK SMILES IDX 75 45 28 47 62 48 41 49 61 50 42 51 45 52 60 53 80 54 43 55
REMARK SMILES IDX 44 56 59 58 81 59 46 60 29 61 30 62 39 63 31 64 32 65 38 66
REMARK SMILES IDX 40 67 33 68 34 69 35 70 36 71 37 72 63 73 64 74 73 75 65 76
REMARK SMILES IDX 66 77 72 78 74 79 67 80 68 81 69 82 70 83 71 84 47 85 48 86
REMARK SMILES IDX 57 87 49 88 50 89 56 90 58 91 51 92 52 93 53 94 54 95 55 96
REMARK H PARENT 12 6 17 27 79 46 45 57
REMARK Flexibility Score: inf
ROOT
ATOM      1  C   UNL A   1      40.346  21.193  26.149  1.00  0.00     0.023 C 
ENDROOT
BRANCH   1   2
ATOM      2  C   UNL A   1      38.821  21.287  26.035  1.00  0.00     0.116 C 
BRANCH   2   3
ATOM      3  N   UNL A   1      38.398  22.192  24.990  1.00  0.00    -0.354 N 
ATOM      4  C   UNL A   1      37.235  22.905  24.880  1.00  0.00     0.241 C 
ATOM      5  O   UNL A   1      37.099  23.612  23.876  1.00  0.00    -0.273 OA
ATOM      6  H   UNL A   1      39.038  22.314  24.252  1.00  0.00     0.163 HD
BRANCH   4   7
ATOM      7  C   UNL A   1      36.220  22.949  26.004  1.00  0.00     0.244 C 
BRANCH   7   8
ATOM      8  N   UNL A   1      34.943  22.326  25.693  1.00  0.00    -0.255 N 
ATOM      9  C   UNL A   1      32.820  21.917  25.259  1.00  0.00     0.005 A 
ATOM     10  C   UNL A   1      33.544  20.735  25.589  1.00  0.00     0.064 A 
ATOM     11  C   UNL A   1      33.775  22.933  25.262  1.00  0.00     0.073 A 
ATOM     12  C   UNL A   1      33.056  19.342  25.747  1.00  0.00     0.069 C 
ATOM     13  N   UNL A   1      34.837  20.987  25.798  1.00  0.00    -0.177 NA
BRANCH   9  14
ATOM     14  C   UNL A   1      31.358  22.024  24.964  1.00  0.00     0.066 C 
BRANCH  14  15
ATOM     15  C   UNL A   1      30.679  23.057  25.827  1.00  0.00    -0.030 C 
ATOM     16  C   UNL A   1      29.899  22.767  26.877  1.00  0.00     0.004 C 
ENDBRANCH  14  15
ENDBRANCH   9  14
BRANCH  11  17
ATOM     17  C   UNL A   1      33.637  24.376  25.038  1.00  0.00     0.000 A 
ATOM     18  C   UNL A   1      33.631  24.910  23.744  1.00  0.00     0.010 A 
ATOM     19  C   UNL A   1      33.612  25.258  26.127  1.00  0.00     0.010 A 
ATOM     20  C   UNL A   1      33.663  26.294  23.549  1.00  0.00     0.001 A 
ATOM     21  C   UNL A   1      33.637  26.639  25.935  1.00  0.00     0.001 A 
ATOM     22  C   UNL A   1      33.677  27.157  24.644  1.00  0.00     0.000 A 
ENDBRANCH  11  17
ENDBRANCH   7   8
ENDBRANCH   4   7
ENDBRANCH   2   3
ENDBRANCH   1   2
BRANCH   1  23
ATOM     23  C   UNL A   1      40.920  19.770  26.112  1.00  0.00     0.023 C 
BRANCH  23  24
ATOM     24  C   UNL A   1      42.270  19.609  26.800  1.00  0.00     0.116 C 
BRANCH  24  25
ATOM     25  N   UNL A   1      43.366  19.365  25.862  1.00  0.00    -0.352 N 
ATOM     26  C   UNL A   1      44.006  20.286  25.047  1.00  0.00     0.251 C 
ATOM     27  H   UNL A   1      43.688  18.436  25.803  1.00  0.00     0.163 HD
ATOM     28  O   UNL A   1      44.595  19.932  24.040  1.00  0.00    -0.269 OA
BRANCH  26  29
ATOM     29  C   UNL A   1      43.965  21.707  25.442  1.00  0.00     0.039 A 
ATOM     30  C   UNL A   1      43.266  22.661  24.700  1.00  0.00     0.014 A 
ATOM     31  C   UNL A   1      44.611  22.056  26.624  1.00  0.00     0.014 A 
ATOM     32  C   UNL A   1      43.148  23.951  25.216  1.00  0.00     0.010 A 
ATOM     33  C   UNL A   1      44.353  23.269  27.207  1.00  0.00     0.010 A 
ATOM     34  C   UNL A   1      43.673  24.243  26.488  1.00  0.00    -0.014 A 
BRANCH  34  35
ATOM     35  C   UNL A   1      43.440  25.538  27.118  1.00  0.00     0.031 A 
ATOM     36  C   UNL A   1      44.452  26.581  26.797  1.00  0.00     0.074 A 
ATOM     37  C   UNL A   1      42.309  25.856  27.787  1.00  0.00     0.049 A 
ATOM     38  N   UNL A   1      45.380  27.034  27.571  1.00  0.00    -0.248 NA
ATOM     39  C   UNL A   1      44.545  27.074  25.414  1.00  0.00     0.031 C 
ATOM     40  C   UNL A   1      41.073  25.076  27.931  1.00  0.00     0.029 A 
ATOM     41  N   UNL A   1      41.998  27.017  28.420  1.00  0.00    -0.354 N 
ATOM     42  C   UNL A   1      46.023  28.042  26.858  1.00  0.00     0.074 A 
ATOM     43  C   UNL A   1      45.605  27.883  25.489  1.00  0.00     0.031 C 
ATOM     44  C   UNL A   1      40.084  25.871  28.396  1.00  0.00     0.029 A 
ATOM     45  C   UNL A   1      40.657  27.154  28.762  1.00  0.00     0.049 A 
ATOM     46  H   UNL A   1      42.669  27.708  28.622  1.00  0.00     0.167 HD
ATOM     47  C   UNL A   1      46.659  29.064  27.499  1.00  0.00     0.037 A 
ATOM     48  C   UNL A   1      40.060  28.246  29.302  1.00  0.00     0.037 A 
ATOM     49  C   UNL A   1      46.831  28.765  28.901  1.00  0.00     0.049 A 
ATOM     50  C   UNL A   1      41.135  29.056  29.932  1.00  0.00     0.074 A 
ATOM     51  C   UNL A   1      47.452  27.752  29.609  1.00  0.00     0.029 A 
ATOM     52  N   UNL A   1      45.966  29.360  29.790  1.00  0.00    -0.354 N 
ATOM     53  N   UNL A   1      41.819  28.666  30.974  1.00  0.00    -0.248 NA
ATOM     54  C   UNL A   1      41.769  30.085  29.123  1.00  0.00     0.031 C 
ATOM     55  C   UNL A   1      46.572  27.472  30.696  1.00  0.00     0.029 A 
ATOM     56  C   UNL A   1      45.514  28.381  30.639  1.00  0.00     0.049 A 
ATOM     57  H   UNL A   1      45.718  30.312  29.813  1.00  0.00     0.167 HD
ATOM     58  C   UNL A   1      43.124  29.055  30.707  1.00  0.00     0.074 A 
ATOM     59  C   UNL A   1      43.015  30.004  29.599  1.00  0.00     0.031 C 
ATOM     60  C   UNL A   1      44.187  28.365  31.216  1.00  0.00     0.037 A 
BRANCH  47  61
ATOM     61  C   UNL A   1      46.799  30.472  26.966  1.00  0.00     0.058 A 
ATOM     62  C   UNL A   1      48.061  31.104  27.015  1.00  0.00     0.135 A 
ATOM     63  C   UNL A   1      45.709  31.320  26.673  1.00  0.00     0.135 A 
ATOM     64  F   UNL A   1      49.170  30.397  27.285  1.00  0.00    -0.206 F 
ATOM     65  C   UNL A   1      48.214  32.483  26.868  1.00  0.00     0.059 A 
ATOM     66  C   UNL A   1      45.848  32.689  26.468  1.00  0.00     0.059 A 
ATOM     67  F   UNL A   1      44.444  30.884  26.669  1.00  0.00    -0.206 F 
ATOM     68  C   UNL A   1      47.097  33.269  26.610  1.00  0.00     0.060 A 
BRANCH  68  69
ATOM     69  S   UNL A   1      47.275  35.058  26.524  1.00  0.00     0.124 S 
ATOM     70  O   UNL A   1      47.982  35.340  27.769  1.00  0.00    -0.237 OA
ATOM     71  O   UNL A   1      48.048  35.227  25.298  1.00  0.00    -0.237 OA
ATOM     72  O   UNL A   1      45.896  35.530  26.459  1.00  0.00    -0.744 OA
ENDBRANCH  68  69
ENDBRANCH  47  61
BRANCH  48  73
ATOM     73  C   UNL A   1      38.705  28.791  29.029  1.00  0.00     0.058 A 
ATOM     74  C   UNL A   1      37.779  28.989  30.068  1.00  0.00     0.135 A 
ATOM     75  C   UNL A   1      38.403  29.411  27.800  1.00  0.00     0.135 A 
ATOM     76  F   UNL A   1      37.996  28.445  31.276  1.00  0.00    -0.206 F 
ATOM     77  C   UNL A   1      36.655  29.808  29.921  1.00  0.00     0.059 A 
ATOM     78  C   UNL A   1      37.284  30.226  27.626  1.00  0.00     0.059 A 
ATOM     79  F   UNL A   1      39.240  29.320  26.755  1.00  0.00    -0.206 F 
ATOM     80  C   UNL A   1      36.430  30.445  28.702  1.00  0.00     0.060 A 
BRANCH  80  81
ATOM     81  S   UNL A   1      35.095  31.659  28.567  1.00  0.00     0.124 S 
ATOM     82  O   UNL A   1      34.013  30.856  28.008  1.00  0.00    -0.237 OA
ATOM     83  O   UNL A   1      34.923  32.084  29.952  1.00  0.00    -0.237 OA
ATOM     84  O   UNL A   1      35.648  32.672  27.672  1.00  0.00    -0.744 OA
ENDBRANCH  80  81
ENDBRANCH  48  73
BRANCH  60  85
ATOM     85  C   UNL A   1      43.933  27.373  32.324  1.00  0.00     0.058 A 
ATOM     86  C   UNL A   1      43.867  25.976  32.164  1.00  0.00     0.135 A 
ATOM     87  C   UNL A   1      43.866  27.865  33.637  1.00  0.00     0.135 A 
ATOM     88  F   UNL A   1      44.038  25.409  30.962  1.00  0.00    -0.206 F 
ATOM     89  C   UNL A   1      43.675  25.118  33.250  1.00  0.00     0.059 A 
ATOM     90  C   UNL A   1      43.711  27.026  34.737  1.00  0.00     0.059 A 
ATOM     91  F   UNL A   1      43.988  29.182  33.870  1.00  0.00    -0.206 F 
ATOM     92  C   UNL A   1      43.590  25.654  34.534  1.00  0.00     0.060 A 
BRANCH  92  93
ATOM     93  S   UNL A   1      43.363  24.547  35.942  1.00  0.00     0.124 S 
ATOM     94  O   UNL A   1      44.097  25.238  36.996  1.00  0.00    -0.237 OA
ATOM     95  O   UNL A   1      41.911  24.519  36.094  1.00  0.00    -0.237 OA
ATOM     96  O   UNL A   1      43.956  23.291  35.489  1.00  0.00    -0.744 OA
ENDBRANCH  92  93
ENDBRANCH  60  85
ENDBRANCH  34  35
ENDBRANCH  26  29
ENDBRANCH  24  25
ENDBRANCH  23  24
ENDBRANCH   1  23
TORSDOF 18
ENDMDL
MODEL 2
REMARK VINA RESULT:     -11.4      3.762      7.076
REMARK SMILES C=CCc1c(C)nn(CC(=O)NCCCCNC(=O)c2ccc(-c3c4nc(c(-c5c(F)cc(S(=O)(=O)[O-])cc5F)c5ccc([nH]5)c(-c5c(F)cc(S(=O)(=O)[O-])cc5F)c5nc(c(-c6c(F)cc(S(=O)(=O)[O-])cc6F)c6ccc3[nH]6)C=C5)C=C4)cc2)c1-c1ccccc1
REMARK SMILES IDX 14 1 13 2 12 3 10 4 11 5 9 7 8 8 4 9 5 10 86 11 6 12 7 13
REMARK SMILES IDX 3 14 2 15 1 16 87 17 88 18 92 19 89 20 91 21 90 22 15 23
REMARK SMILES IDX 16 24 17 25 18 26 19 28 20 29 21 30 85 31 22 32 84 33 23 34
REMARK SMILES IDX 24 35 25 36 78 37 26 38 83 39 77 40 79 41 27 42 82 43 76 44
REMARK SMILES IDX 75 45 28 47 62 48 41 49 61 50 42 51 45 52 60 53 80 54 43 55
REMARK SMILES IDX 44 56 59 58 81 59 46 60 29 61 30 62 39 63 31 64 32 65 38 66
REMARK SMILES IDX 40 67 33 68 34 69 35 70 36 71 37 72 63 73 64 74 73 75 65 76
REMARK SMILES IDX 66 77 72 78 74 79 67 80 68 81 69 82 70 83 71 84 47 85 48 86
REMARK SMILES IDX 57 87 49 88 50 89 56 90 58 91 51 92 52 93 53 94 54 95 55 96
REMARK H PARENT 12 6 17 27 79 46 45 57
REMARK Flexibility Score: inf
ROOT
ATOM      1  C   UNL A   1      44.879  22.785  25.182  1.00  0.00     0.023 C 
ENDROOT
BRANCH   1   2
ATOM      2  C   UNL A   1      45.465  24.198  25.108  1.00  0.00     0.116 C 
BRANCH   2   3
ATOM      3  N   UNL A   1      44.509  25.171  24.629  1.00  0.00    -0.354 N 
ATOM      4  C   UNL A   1      43.801  26.109  25.332  1.00  0.00     0.241 C 
ATOM      5  O   UNL A   1      43.027  26.828  24.691  1.00  0.00    -0.273 OA
ATOM      6  H   UNL A   1      44.344  25.159  23.659  1.00  0.00     0.163 HD
BRANCH   4   7
ATOM      7  C   UNL A   1      44.056  26.359  26.804  1.00  0.00     0.244 C 
BRANCH   7   8
ATOM      8  N   UNL A   1      45.460  26.487  27.162  1.00  0.00    -0.255 N 
ATOM      9  C   UNL A   1      47.405  26.470  28.201  1.00  0.00     0.005 A 
ATOM     10  C   UNL A   1      47.425  27.274  27.026  1.00  0.00     0.064 A 
ATOM     11  C   UNL A   1      46.130  25.909  28.228  1.00  0.00     0.073 A 
ATOM     12  C   UNL A   1      48.515  28.122  26.480  1.00  0.00     0.069 C 
ATOM     13  N   UNL A   1      46.260  27.235  26.377  1.00  0.00    -0.177 NA
BRANCH   9  14
ATOM     14  C   UNL A   1      48.522  26.274  29.177  1.00  0.00     0.066 C 
BRANCH  14  15
ATOM     15  C   UNL A   1      48.495  27.297  30.283  1.00  0.00    -0.030 C 
ATOM     16  C   UNL A   1      49.131  27.157  31.455  1.00  0.00     0.004 C 
ENDBRANCH  14  15
ENDBRANCH   9  14
BRANCH  11  17
ATOM     17  C   UNL A   1      45.494  25.025  29.212  1.00  0.00     0.000 A 
ATOM     18  C   UNL A   1      45.055  23.744  28.858  1.00  0.00     0.010 A 
ATOM     19  C   UNL A   1      45.222  25.493  30.506  1.00  0.00     0.010 A 
ATOM     20  C   UNL A   1      44.306  22.979  29.758  1.00  0.00     0.001 A 
ATOM     21  C   UNL A   1      44.483  24.728  31.407  1.00  0.00     0.001 A 
ATOM     22  C   UNL A   1      44.012  23.475  31.027  1.00  0.00     0.000 A 
ENDBRANCH  11  17
ENDBRANCH   7   8
ENDBRANCH   4   7
ENDBRANCH   2   3
ENDBRANCH   1   2
BRANCH   1  23
ATOM     23  C   UNL A   1      43.353  22.699  25.039  1.00  0.00     0.023 C 
BRANCH  23  24
ATOM     24  C   UNL A   1      42.636  22.070  26.228  1.00  0.00     0.116 C 
BRANCH  24  25
ATOM     25  N   UNL A   1      41.197  21.917  26.014  1.00  0.00    -0.352 N 
ATOM     26  C   UNL A   1      40.172  22.678  26.556  1.00  0.00     0.251 C 
ATOM     27  H   UNL A   1      40.923  21.187  25.413  1.00  0.00     0.163 HD
ATOM     28  O   UNL A   1      39.041  22.234  26.650  1.00  0.00    -0.269 OA
BRANCH  26  29
ATOM     29  C   UNL A   1      40.489  24.048  27.004  1.00  0.00     0.039 A 
ATOM     30  C   UNL A   1      39.995  25.174  26.344  1.00  0.00     0.014 A 
ATOM     31  C   UNL A   1      41.262  24.177  28.154  1.00  0.00     0.014 A 
ATOM     32  C   UNL A   1      40.213  26.428  26.913  1.00  0.00     0.010 A 
ATOM     33  C   UNL A   1      41.328  25.385  28.796  1.00  0.00     0.010 A 
ATOM     34  C   UNL A   1      40.859  26.526  28.158  1.00  0.00    -0.014 A 
BRANCH  34  35
ATOM     35  C   UNL A   1      40.973  27.807  28.848  1.00  0.00     0.031 A 
ATOM     36  C   UNL A   1      42.052  28.698  28.341  1.00  0.00     0.074 A 
ATOM     37  C   UNL A   1      40.070  28.257  29.748  1.00  0.00     0.049 A 
ATOM     38  N   UNL A   1      43.180  28.962  28.910  1.00  0.00    -0.248 NA
ATOM     39  C   UNL A   1      41.935  29.243  26.979  1.00  0.00     0.031 C 
ATOM     40  C   UNL A   1      38.782  27.669  30.136  1.00  0.00     0.029 A 
ATOM     41  N   UNL A   1      40.087  29.417  30.456  1.00  0.00    -0.354 N 
ATOM     42  C   UNL A   1      43.815  29.895  28.096  1.00  0.00     0.074 A 
ATOM     43  C   UNL A   1      43.104  29.875  26.844  1.00  0.00     0.031 C 
ATOM     44  C   UNL A   1      38.051  28.581  30.815  1.00  0.00     0.029 A 
ATOM     45  C   UNL A   1      38.885  29.740  31.076  1.00  0.00     0.049 A 
ATOM     46  H   UNL A   1      40.888  29.986  30.524  1.00  0.00     0.167 HD
ATOM     47  C   UNL A   1      44.725  30.773  28.608  1.00  0.00     0.037 A 
ATOM     48  C   UNL A   1      38.597  30.880  31.752  1.00  0.00     0.037 A 
ATOM     49  C   UNL A   1      45.132  30.377  29.935  1.00  0.00     0.049 A 
ATOM     50  C   UNL A   1      39.894  31.481  32.156  1.00  0.00     0.074 A 
ATOM     51  C   UNL A   1      45.715  29.244  30.475  1.00  0.00     0.029 A 
ATOM     52  N   UNL A   1      44.577  31.049  30.998  1.00  0.00    -0.354 N 
ATOM     53  N   UNL A   1      40.706  30.936  33.021  1.00  0.00    -0.248 NA
ATOM     54  C   UNL A   1      40.505  32.442  31.252  1.00  0.00     0.031 C 
ATOM     55  C   UNL A   1      45.045  29.045  31.719  1.00  0.00     0.029 A 
ATOM     56  C   UNL A   1      44.158  30.107  31.905  1.00  0.00     0.049 A 
ATOM     57  H   UNL A   1      44.495  32.025  31.092  1.00  0.00     0.167 HD
ATOM     58  C   UNL A   1      41.973  31.135  32.492  1.00  0.00     0.074 A 
ATOM     59  C   UNL A   1      41.792  32.147  31.451  1.00  0.00     0.031 C 
ATOM     60  C   UNL A   1      42.993  30.264  32.749  1.00  0.00     0.037 A 
BRANCH  47  61
ATOM     61  C   UNL A   1      44.977  32.169  28.085  1.00  0.00     0.058 A 
ATOM     62  C   UNL A   1      46.267  32.507  27.620  1.00  0.00     0.135 A 
ATOM     63  C   UNL A   1      44.099  33.257  28.278  1.00  0.00     0.135 A 
ATOM     64  F   UNL A   1      47.187  31.554  27.400  1.00  0.00    -0.206 F 
ATOM     65  C   UNL A   1      46.676  33.830  27.443  1.00  0.00     0.059 A 
ATOM     66  C   UNL A   1      44.470  34.579  28.054  1.00  0.00     0.059 A 
ATOM     67  F   UNL A   1      42.871  33.104  28.788  1.00  0.00    -0.206 F 
ATOM     68  C   UNL A   1      45.773  34.860  27.679  1.00  0.00     0.060 A 
BRANCH  68  69
ATOM     69  S   UNL A   1      46.327  36.568  27.554  1.00  0.00     0.124 S 
ATOM     70  O   UNL A   1      47.453  36.441  26.635  1.00  0.00    -0.237 OA
ATOM     71  O   UNL A   1      45.141  37.233  27.024  1.00  0.00    -0.237 OA
ATOM     72  O   UNL A   1      46.669  36.911  28.930  1.00  0.00    -0.744 OA
ENDBRANCH  68  69
ENDBRANCH  47  61
BRANCH  48  73
ATOM     73  C   UNL A   1      37.320  31.640  31.783  1.00  0.00     0.058 A 
ATOM     74  C   UNL A   1      36.676  31.928  33.000  1.00  0.00     0.135 A 
ATOM     75  C   UNL A   1      36.871  32.357  30.656  1.00  0.00     0.135 A 
ATOM     76  F   UNL A   1      37.051  31.299  34.125  1.00  0.00    -0.206 F 
ATOM     77  C   UNL A   1      35.693  32.917  33.108  1.00  0.00     0.059 A 
ATOM     78  C   UNL A   1      35.887  33.342  30.738  1.00  0.00     0.059 A 
ATOM     79  F   UNL A   1      37.445  32.188  29.455  1.00  0.00    -0.206 F 
ATOM     80  C   UNL A   1      35.323  33.638  31.974  1.00  0.00     0.060 A 
BRANCH  80  81
ATOM     81  S   UNL A   1      34.202  35.049  32.146  1.00  0.00     0.124 S 
ATOM     82  O   UNL A   1      35.020  35.994  32.900  1.00  0.00    -0.237 OA
ATOM     83  O   UNL A   1      33.938  35.404  30.755  1.00  0.00    -0.237 OA
ATOM     84  O   UNL A   1      33.064  34.490  32.871  1.00  0.00    -0.744 OA
ENDBRANCH  80  81
ENDBRANCH  48  73
BRANCH  60  85
ATOM     85  C   UNL A   1      42.817  29.265  33.867  1.00  0.00     0.058 A 
ATOM     86  C   UNL A   1      43.039  29.528  35.232  1.00  0.00     0.135 A 
ATOM     87  C   UNL A   1      42.286  28.007  33.541  1.00  0.00     0.135 A 
ATOM     88  F   UNL A   1      43.435  30.739  35.648  1.00  0.00    -0.206 F 
ATOM     89  C   UNL A   1      42.807  28.563  36.216  1.00  0.00     0.059 A 
ATOM     90  C   UNL A   1      42.014  27.043  34.508  1.00  0.00     0.059 A 
ATOM     91  F   UNL A   1      41.988  27.712  32.265  1.00  0.00    -0.206 F 
ATOM     92  C   UNL A   1      42.301  27.319  35.841  1.00  0.00     0.060 A 
BRANCH  92  93
ATOM     93  S   UNL A   1      41.981  26.076  37.112  1.00  0.00     0.124 S 
ATOM     94  O   UNL A   1      40.585  26.333  37.446  1.00  0.00    -0.237 OA
ATOM     95  O   UNL A   1      42.244  24.824  36.406  1.00  0.00    -0.237 OA
ATOM     96  O   UNL A   1      42.944  26.402  38.160  1.00  0.00    -0.744 OA
ENDBRANCH  92  93
ENDBRANCH  60  85
ENDBRANCH  34  35
ENDBRANCH  26  29
ENDBRANCH  24  25
ENDBRANCH  23  24
ENDBRANCH   1  23
TORSDOF 18
ENDMDL
MODEL 3
REMARK VINA RESULT:     -11.3      2.404      3.383
REMARK SMILES C=CCc1c(C)nn(CC(=O)NCCCCNC(=O)c2ccc(-c3c4nc(c(-c5c(F)cc(S(=O)(=O)[O-])cc5F)c5ccc([nH]5)c(-c5c(F)cc(S(=O)(=O)[O-])cc5F)c5nc(c(-c6c(F)cc(S(=O)(=O)[O-])cc6F)c6ccc3[nH]6)C=C5)C=C4)cc2)c1-c1ccccc1
REMARK SMILES IDX 14 1 13 2 12 3 10 4 11 5 9 7 8 8 4 9 5 10 86 11 6 12 7 13
REMARK SMILES IDX 3 14 2 15 1 16 87 17 88 18 92 19 89 20 91 21 90 22 15 23
REMARK SMILES IDX 16 24 17 25 18 26 19 28 20 29 21 30 85 31 22 32 84 33 23 34
REMARK SMILES IDX 24 35 25 36 78 37 26 38 83 39 77 40 79 41 27 42 82 43 76 44
REMARK SMILES IDX 75 45 28 47 62 48 41 49 61 50 42 51 45 52 60 53 80 54 43 55
REMARK SMILES IDX 44 56 59 58 81 59 46 60 29 61 30 62 39 63 31 64 32 65 38 66
REMARK SMILES IDX 40 67 33 68 34 69 35 70 36 71 37 72 63 73 64 74 73 75 65 76
REMARK SMILES IDX 66 77 72 78 74 79 67 80 68 81 69 82 70 83 71 84 47 85 48 86
REMARK SMILES IDX 57 87 49 88 50 89 56 90 58 91 51 92 52 93 53 94 54 95 55 96
REMARK H PARENT 12 6 17 27 79 46 45 57
REMARK Flexibility Score: inf
ROOT
ATOM      1  C   UNL A   1      38.239  21.268  25.601  1.00  0.00     0.023 C 
ENDROOT
BRANCH   1   2
ATOM      2  C   UNL A   1      36.843  21.833  25.319  1.00  0.00     0.116 C 
BRANCH   2   3
ATOM      3  N   UNL A   1      35.841  21.313  26.222  1.00  0.00    -0.354 N 
ATOM      4  C   UNL A   1      34.789  21.959  26.813  1.00  0.00     0.241 C 
ATOM      5  O   UNL A   1      34.068  21.293  27.563  1.00  0.00    -0.273 OA
ATOM      6  H   UNL A   1      35.926  20.357  26.442  1.00  0.00     0.163 HD
BRANCH   4   7
ATOM      7  C   UNL A   1      34.430  23.387  26.455  1.00  0.00     0.244 C 
BRANCH   7   8
ATOM      8  N   UNL A   1      33.567  23.521  25.292  1.00  0.00    -0.255 N 
ATOM      9  C   UNL A   1      32.063  24.175  23.817  1.00  0.00     0.005 A 
ATOM     10  C   UNL A   1      32.518  22.847  23.576  1.00  0.00     0.064 A 
ATOM     11  C   UNL A   1      32.818  24.620  24.901  1.00  0.00     0.073 A 
ATOM     12  C   UNL A   1      32.072  21.867  22.553  1.00  0.00     0.069 C 
ATOM     13  N   UNL A   1      33.464  22.481  24.442  1.00  0.00    -0.177 NA
BRANCH   9  14
ATOM     14  C   UNL A   1      31.012  24.919  23.057  1.00  0.00     0.066 C 
BRANCH  14  15
ATOM     15  C   UNL A   1      31.600  25.987  22.172  1.00  0.00    -0.030 C 
ATOM     16  C   UNL A   1      32.714  25.833  21.443  1.00  0.00     0.004 C 
ENDBRANCH  14  15
ENDBRANCH   9  14
BRANCH  11  17
ATOM     17  C   UNL A   1      32.781  25.889  25.638  1.00  0.00     0.000 A 
ATOM     18  C   UNL A   1      31.685  26.230  26.437  1.00  0.00     0.010 A 
ATOM     19  C   UNL A   1      33.807  26.829  25.469  1.00  0.00     0.010 A 
ATOM     20  C   UNL A   1      31.589  27.507  27.000  1.00  0.00     0.001 A 
ATOM     21  C   UNL A   1      33.717  28.101  26.035  1.00  0.00     0.001 A 
ATOM     22  C   UNL A   1      32.600  28.444  26.790  1.00  0.00     0.000 A 
ENDBRANCH  11  17
ENDBRANCH   7   8
ENDBRANCH   4   7
ENDBRANCH   2   3
ENDBRANCH   1   2
BRANCH   1  23
ATOM     23  C   UNL A   1      39.180  22.200  26.376  1.00  0.00     0.023 C 
BRANCH  23  24
ATOM     24  C   UNL A   1      40.431  21.527  26.928  1.00  0.00     0.116 C 
BRANCH  24  25
ATOM     25  N   UNL A   1      41.619  21.765  26.107  1.00  0.00    -0.352 N 
ATOM     26  C   UNL A   1      42.209  22.982  25.800  1.00  0.00     0.251 C 
ATOM     27  H   UNL A   1      42.051  20.966  25.728  1.00  0.00     0.163 HD
ATOM     28  O   UNL A   1      42.912  23.108  24.812  1.00  0.00    -0.269 OA
BRANCH  26  29
ATOM     29  C   UNL A   1      41.971  24.117  26.711  1.00  0.00     0.039 A 
ATOM     30  C   UNL A   1      42.513  24.161  27.996  1.00  0.00     0.014 A 
ATOM     31  C   UNL A   1      41.222  25.181  26.217  1.00  0.00     0.014 A 
ATOM     32  C   UNL A   1      42.369  25.330  28.741  1.00  0.00     0.010 A 
ATOM     33  C   UNL A   1      41.228  26.382  26.878  1.00  0.00     0.010 A 
ATOM     34  C   UNL A   1      41.747  26.452  28.164  1.00  0.00    -0.014 A 
BRANCH  34  35
ATOM     35  C   UNL A   1      41.710  27.733  28.861  1.00  0.00     0.031 A 
ATOM     36  C   UNL A   1      42.749  28.709  28.434  1.00  0.00     0.074 A 
ATOM     37  C   UNL A   1      40.712  28.106  29.693  1.00  0.00     0.049 A 
ATOM     38  N   UNL A   1      43.809  29.056  29.084  1.00  0.00    -0.248 NA
ATOM     39  C   UNL A   1      42.689  29.251  27.068  1.00  0.00     0.031 C 
ATOM     40  C   UNL A   1      39.449  27.417  29.986  1.00  0.00     0.029 A 
ATOM     41  N   UNL A   1      40.587  29.260  30.401  1.00  0.00    -0.354 N 
ATOM     42  C   UNL A   1      44.427  30.041  28.319  1.00  0.00     0.074 A 
ATOM     43  C   UNL A   1      43.812  29.973  27.018  1.00  0.00     0.031 C 
ATOM     44  C   UNL A   1      38.601  28.265  30.611  1.00  0.00     0.029 A 
ATOM     45  C   UNL A   1      39.321  29.484  30.933  1.00  0.00     0.049 A 
ATOM     46  H   UNL A   1      41.334  29.889  30.528  1.00  0.00     0.167 HD
ATOM     47  C   UNL A   1      45.226  30.984  28.896  1.00  0.00     0.037 A 
ATOM     48  C   UNL A   1      38.896  30.594  31.586  1.00  0.00     0.037 A 
ATOM     49  C   UNL A   1      45.566  30.613  30.250  1.00  0.00     0.049 A 
ATOM     50  C   UNL A   1      40.110  31.292  32.084  1.00  0.00     0.074 A 
ATOM     51  C   UNL A   1      46.195  29.526  30.830  1.00  0.00     0.029 A 
ATOM     52  N   UNL A   1      44.884  31.233  31.270  1.00  0.00    -0.354 N 
ATOM     53  N   UNL A   1      40.898  30.806  33.006  1.00  0.00    -0.248 NA
ATOM     54  C   UNL A   1      40.708  32.303  31.227  1.00  0.00     0.031 C 
ATOM     55  C   UNL A   1      45.453  29.267  32.021  1.00  0.00     0.029 A 
ATOM     56  C   UNL A   1      44.476  30.256  32.143  1.00  0.00     0.049 A 
ATOM     57  H   UNL A   1      44.720  32.199  31.358  1.00  0.00     0.167 HD
ATOM     58  C   UNL A   1      42.180  31.106  32.569  1.00  0.00     0.074 A 
ATOM     59  C   UNL A   1      41.997  32.107  31.519  1.00  0.00     0.031 C 
ATOM     60  C   UNL A   1      43.244  30.316  32.900  1.00  0.00     0.037 A 
BRANCH  47  61
ATOM     61  C   UNL A   1      45.405  32.398  28.393  1.00  0.00     0.058 A 
ATOM     62  C   UNL A   1      46.711  32.890  28.172  1.00  0.00     0.135 A 
ATOM     63  C   UNL A   1      44.384  33.373  28.389  1.00  0.00     0.135 A 
ATOM     64  F   UNL A   1      47.763  32.055  28.155  1.00  0.00    -0.206 F 
ATOM     65  C   UNL A   1      46.986  34.252  28.040  1.00  0.00     0.059 A 
ATOM     66  C   UNL A   1      44.631  34.729  28.204  1.00  0.00     0.059 A 
ATOM     67  F   UNL A   1      43.109  33.073  28.661  1.00  0.00    -0.206 F 
ATOM     68  C   UNL A   1      45.939  35.165  28.075  1.00  0.00     0.060 A 
BRANCH  68  69
ATOM     69  S   UNL A   1      46.300  36.927  28.011  1.00  0.00     0.124 S 
ATOM     70  O   UNL A   1      46.517  37.230  29.421  1.00  0.00    -0.237 OA
ATOM     71  O   UNL A   1      47.484  36.963  27.159  1.00  0.00    -0.237 OA
ATOM     72  O   UNL A   1      45.093  37.496  27.420  1.00  0.00    -0.744 OA
ENDBRANCH  68  69
ENDBRANCH  47  61
BRANCH  48  73
ATOM     73  C   UNL A   1      37.565  31.252  31.525  1.00  0.00     0.058 A 
ATOM     74  C   UNL A   1      36.784  31.419  32.682  1.00  0.00     0.135 A 
ATOM     75  C   UNL A   1      37.172  31.998  30.395  1.00  0.00     0.135 A 
ATOM     76  F   UNL A   1      37.096  30.756  33.807  1.00  0.00    -0.206 F 
ATOM     77  C   UNL A   1      35.718  32.323  32.739  1.00  0.00     0.059 A 
ATOM     78  C   UNL A   1      36.108  32.899  30.425  1.00  0.00     0.059 A 
ATOM     79  F   UNL A   1      37.873  31.942  29.252  1.00  0.00    -0.206 F 
ATOM     80  C   UNL A   1      35.404  33.079  31.611  1.00  0.00     0.060 A 
BRANCH  80  81
ATOM     81  S   UNL A   1      34.161  34.388  31.737  1.00  0.00     0.124 S 
ATOM     82  O   UNL A   1      34.974  35.541  32.111  1.00  0.00    -0.237 OA
ATOM     83  O   UNL A   1      33.601  34.414  30.390  1.00  0.00    -0.237 OA
ATOM     84  O   UNL A   1      33.258  33.898  32.775  1.00  0.00    -0.744 OA
ENDBRANCH  80  81
ENDBRANCH  48  73
BRANCH  60  85
ATOM     85  C   UNL A   1      43.066  29.300  34.002  1.00  0.00     0.058 A 
ATOM     86  C   UNL A   1      43.271  29.545  35.372  1.00  0.00     0.135 A 
ATOM     87  C   UNL A   1      42.549  28.042  33.653  1.00  0.00     0.135 A 
ATOM     88  F   UNL A   1      43.651  30.753  35.810  1.00  0.00    -0.206 F 
ATOM     89  C   UNL A   1      43.039  28.564  36.340  1.00  0.00     0.059 A 
ATOM     90  C   UNL A   1      42.277  27.062  34.602  1.00  0.00     0.059 A 
ATOM     91  F   UNL A   1      42.268  27.763  32.369  1.00  0.00    -0.206 F 
ATOM     92  C   UNL A   1      42.548  27.320  35.943  1.00  0.00     0.060 A 
BRANCH  92  93
ATOM     93  S   UNL A   1      42.227  26.056  37.192  1.00  0.00     0.124 S 
ATOM     94  O   UNL A   1      43.147  26.438  38.257  1.00  0.00    -0.237 OA
ATOM     95  O   UNL A   1      40.808  26.247  37.481  1.00  0.00    -0.237 OA
ATOM     96  O   UNL A   1      42.550  24.808  36.506  1.00  0.00    -0.744 OA
ENDBRANCH  92  93
ENDBRANCH  60  85
ENDBRANCH  34  35
ENDBRANCH  26  29
ENDBRANCH  24  25
ENDBRANCH  23  24
ENDBRANCH   1  23
TORSDOF 18
ENDMDL
