MODEL 1
REMARK VINA RESULT:      -8.8      0.000      0.000
REMARK SMILES CC(C)(C[C@@H](O)C(F)(F)F)C(=O)NCCCCNC(=O)c1ccc(-c2c3nc(c(-c4c(F)cc(S(=O)(=O)[O-])cc4F)c4ccc([nH]4)c(-c4c(F)cc(S(=O)(=O)[O-])cc4F)c4nc(c(-c5c(F)cc(S(=O)(=O)[O-])cc5F)c5ccc2[nH]5)C=C4)C=C3)cc1
REMARK SMILES IDX 15 1 14 2 13 3 11 4 12 5 2 7 1 8 3 9 4 10 5 11 6 12 7 14
REMARK SMILES IDX 8 15 9 16 10 17 16 18 17 19 18 20 19 21 20 23 21 24 22 25
REMARK SMILES IDX 86 26 23 27 85 28 24 29 25 30 26 31 79 32 27 33 84 34 78 35
REMARK SMILES IDX 80 36 28 37 83 38 77 39 76 40 29 42 63 43 42 44 62 45 43 46
REMARK SMILES IDX 46 47 61 48 81 49 44 50 45 51 60 53 82 54 47 55 30 56 31 57
REMARK SMILES IDX 40 58 32 59 33 60 39 61 41 62 34 63 35 64 36 65 37 66 38 67
REMARK SMILES IDX 64 68 65 69 74 70 66 71 67 72 73 73 75 74 68 75 69 76 70 77
REMARK SMILES IDX 71 78 72 79 48 80 49 81 58 82 50 83 51 84 57 85 59 86 52 87
REMARK SMILES IDX 53 88 54 89 55 90 56 91
REMARK H PARENT 13 6 6 13 18 22 80 41 46 52
REMARK Flexibility Score: inf
ROOT
ATOM      1  C   UNL A   1      34.934  33.726  31.251  1.00  0.00     0.023 C 
ENDROOT
BRANCH   1   2
ATOM      2  C   UNL A   1      36.297  33.933  31.907  1.00  0.00     0.116 C 
BRANCH   2   3
ATOM      3  N   UNL A   1      36.263  33.684  33.337  1.00  0.00    -0.356 N 
ATOM      4  C   UNL A   1      37.085  32.986  34.162  1.00  0.00     0.225 C 
ATOM      5  O   UNL A   1      36.686  32.806  35.318  1.00  0.00    -0.275 OA
ATOM      6  H   UNL A   1      35.498  34.101  33.796  1.00  0.00     0.163 HD
BRANCH   4   7
ATOM      7  C   UNL A   1      38.422  32.374  33.698  1.00  0.00     0.046 C 
ATOM      8  C   UNL A   1      39.274  32.027  34.944  1.00  0.00     0.021 C 
ATOM      9  C   UNL A   1      39.240  33.429  32.923  1.00  0.00     0.021 C 
BRANCH   7  10
ATOM     10  C   UNL A   1      38.215  31.083  32.863  1.00  0.00     0.057 C 
BRANCH  10  11
ATOM     11  C   UNL A   1      38.432  29.735  33.594  1.00  0.00     0.220 C 
BRANCH  11  12
ATOM     12  O   UNL A   1      37.295  28.876  33.447  1.00  0.00    -0.384 OA
ATOM     13  H   UNL A   1      37.558  28.068  32.980  1.00  0.00     0.211 HD
ENDBRANCH  11  12
BRANCH  11  14
ATOM     14  C   UNL A   1      39.710  29.052  33.062  1.00  0.00     0.414 C 
ATOM     15  F   UNL A   1      39.437  28.346  31.938  1.00  0.00    -0.168 F 
ATOM     16  F   UNL A   1      40.660  29.958  32.741  1.00  0.00    -0.168 F 
ATOM     17  F   UNL A   1      40.238  28.190  33.959  1.00  0.00    -0.168 F 
ENDBRANCH  11  14
ENDBRANCH  10  11
ENDBRANCH   7  10
ENDBRANCH   4   7
ENDBRANCH   2   3
ENDBRANCH   1   2
BRANCH   1  18
ATOM     18  C   UNL A   1      34.776  32.405  30.500  1.00  0.00     0.023 C 
BRANCH  18  19
ATOM     19  C   UNL A   1      34.633  32.538  28.990  1.00  0.00     0.116 C 
BRANCH  19  20
ATOM     20  N   UNL A   1      33.959  31.402  28.380  1.00  0.00    -0.352 N 
ATOM     21  C   UNL A   1      34.493  30.218  27.936  1.00  0.00     0.251 C 
ATOM     22  H   UNL A   1      32.985  31.496  28.269  1.00  0.00     0.163 HD
ATOM     23  O   UNL A   1      33.786  29.424  27.321  1.00  0.00    -0.269 OA
BRANCH  21  24
ATOM     24  C   UNL A   1      35.921  29.918  28.176  1.00  0.00     0.039 A 
ATOM     25  C   UNL A   1      36.297  29.385  29.410  1.00  0.00     0.014 A 
ATOM     26  C   UNL A   1      36.884  30.164  27.194  1.00  0.00     0.014 A 
ATOM     27  C   UNL A   1      37.636  29.066  29.645  1.00  0.00     0.010 A 
ATOM     28  C   UNL A   1      38.199  29.758  27.395  1.00  0.00     0.010 A 
ATOM     29  C   UNL A   1      38.596  29.232  28.632  1.00  0.00    -0.014 A 
BRANCH  29  30
ATOM     30  C   UNL A   1      40.026  28.913  28.876  1.00  0.00     0.031 A 
ATOM     31  C   UNL A   1      40.931  29.946  29.497  1.00  0.00     0.074 A 
ATOM     32  C   UNL A   1      40.516  27.710  28.516  1.00  0.00     0.049 A 
ATOM     33  N   UNL A   1      42.205  29.864  29.784  1.00  0.00    -0.248 NA
ATOM     34  C   UNL A   1      40.333  31.254  29.813  1.00  0.00     0.031 C 
ATOM     35  C   UNL A   1      39.753  26.648  27.854  1.00  0.00     0.029 A 
ATOM     36  N   UNL A   1      41.772  27.175  28.657  1.00  0.00    -0.354 N 
ATOM     37  C   UNL A   1      42.558  31.106  30.300  1.00  0.00     0.074 A 
ATOM     38  C   UNL A   1      41.386  31.945  30.224  1.00  0.00     0.031 C 
ATOM     39  C   UNL A   1      40.548  25.580  27.679  1.00  0.00     0.029 A 
ATOM     40  C   UNL A   1      41.883  25.890  28.182  1.00  0.00     0.049 A 
ATOM     41  H   UNL A   1      42.523  27.667  29.061  1.00  0.00     0.167 HD
ATOM     42  C   UNL A   1      43.744  31.502  30.821  1.00  0.00     0.037 A 
ATOM     43  C   UNL A   1      42.940  25.055  28.160  1.00  0.00     0.037 A 
ATOM     44  C   UNL A   1      44.901  30.650  30.920  1.00  0.00     0.049 A 
ATOM     45  C   UNL A   1      44.243  25.513  28.760  1.00  0.00     0.074 A 
ATOM     46  C   UNL A   1      46.136  30.936  31.475  1.00  0.00     0.029 A 
ATOM     47  N   UNL A   1      44.965  29.345  30.453  1.00  0.00    -0.354 N 
ATOM     48  N   UNL A   1      44.541  26.670  29.303  1.00  0.00    -0.248 NA
ATOM     49  C   UNL A   1      45.346  24.544  28.766  1.00  0.00     0.031 C 
ATOM     50  C   UNL A   1      46.962  29.821  31.302  1.00  0.00     0.029 A 
ATOM     51  C   UNL A   1      46.223  28.817  30.696  1.00  0.00     0.049 A 
ATOM     52  H   UNL A   1      44.226  28.864  30.014  1.00  0.00     0.167 HD
ATOM     53  C   UNL A   1      45.855  26.553  29.750  1.00  0.00     0.074 A 
ATOM     54  C   UNL A   1      46.284  25.208  29.425  1.00  0.00     0.031 C 
ATOM     55  C   UNL A   1      46.631  27.471  30.377  1.00  0.00     0.037 A 
BRANCH  42  56
ATOM     56  C   UNL A   1      43.849  32.915  31.330  1.00  0.00     0.058 A 
ATOM     57  C   UNL A   1      43.531  33.248  32.658  1.00  0.00     0.135 A 
ATOM     58  C   UNL A   1      44.311  33.944  30.493  1.00  0.00     0.135 A 
ATOM     59  F   UNL A   1      43.066  32.310  33.499  1.00  0.00    -0.206 F 
ATOM     60  C   UNL A   1      43.640  34.553  33.128  1.00  0.00     0.059 A 
ATOM     61  C   UNL A   1      44.459  35.250  30.953  1.00  0.00     0.059 A 
ATOM     62  F   UNL A   1      44.627  33.685  29.215  1.00  0.00    -0.206 F 
ATOM     63  C   UNL A   1      44.109  35.546  32.268  1.00  0.00     0.060 A 
BRANCH  63  64
ATOM     64  S   UNL A   1      44.262  37.230  32.901  1.00  0.00     0.124 S 
ATOM     65  O   UNL A   1      45.432  37.111  33.765  1.00  0.00    -0.237 OA
ATOM     66  O   UNL A   1      44.453  38.005  31.679  1.00  0.00    -0.237 OA
ATOM     67  O   UNL A   1      42.995  37.453  33.589  1.00  0.00    -0.744 OA
ENDBRANCH  63  64
ENDBRANCH  42  56
BRANCH  43  68
ATOM     68  C   UNL A   1      42.803  23.690  27.580  1.00  0.00     0.058 A 
ATOM     69  C   UNL A   1      42.462  22.591  28.384  1.00  0.00     0.135 A 
ATOM     70  C   UNL A   1      43.017  23.456  26.213  1.00  0.00     0.135 A 
ATOM     71  F   UNL A   1      42.251  22.761  29.698  1.00  0.00    -0.206 F 
ATOM     72  C   UNL A   1      42.368  21.305  27.861  1.00  0.00     0.059 A 
ATOM     73  C   UNL A   1      42.898  22.185  25.661  1.00  0.00     0.059 A 
ATOM     74  F   UNL A   1      43.325  24.475  25.396  1.00  0.00    -0.206 F 
ATOM     75  C   UNL A   1      42.588  21.112  26.496  1.00  0.00     0.060 A 
BRANCH  75  76
ATOM     76  S   UNL A   1      42.435  19.445  25.821  1.00  0.00     0.124 S 
ATOM     77  O   UNL A   1      42.801  18.626  26.972  1.00  0.00    -0.237 OA
ATOM     78  O   UNL A   1      41.031  19.401  25.427  1.00  0.00    -0.237 OA
ATOM     79  O   UNL A   1      43.389  19.441  24.716  1.00  0.00    -0.744 OA
ENDBRANCH  75  76
ENDBRANCH  43  68
BRANCH  55  80
ATOM     80  C   UNL A   1      48.004  27.032  30.811  1.00  0.00     0.058 A 
ATOM     81  C   UNL A   1      49.136  27.204  30.000  1.00  0.00     0.135 A 
ATOM     82  C   UNL A   1      48.188  26.443  32.074  1.00  0.00     0.135 A 
ATOM     83  F   UNL A   1      49.019  27.761  28.784  1.00  0.00    -0.206 F 
ATOM     84  C   UNL A   1      50.393  26.760  30.402  1.00  0.00     0.059 A 
ATOM     85  C   UNL A   1      49.440  26.025  32.511  1.00  0.00     0.059 A 
ATOM     86  F   UNL A   1      47.144  26.271  32.900  1.00  0.00    -0.206 F 
ATOM     87  C   UNL A   1      50.533  26.167  31.658  1.00  0.00     0.060 A 
BRANCH  87  88
ATOM     88  S   UNL A   1      52.164  25.586  32.166  1.00  0.00     0.124 S 
ATOM     89  O   UNL A   1      52.996  26.048  31.060  1.00  0.00    -0.237 OA
ATOM     90  O   UNL A   1      52.361  26.275  33.437  1.00  0.00    -0.237 OA
ATOM     91  O   UNL A   1      51.996  24.139  32.263  1.00  0.00    -0.744 OA
ENDBRANCH  87  88
ENDBRANCH  55  80
ENDBRANCH  29  30
ENDBRANCH  21  24
ENDBRANCH  19  20
ENDBRANCH  18  19
ENDBRANCH   1  18
TORSDOF 18
ENDMDL
MODEL 2
REMARK VINA RESULT:      -8.7      5.070     11.169
REMARK SMILES CC(C)(C[C@@H](O)C(F)(F)F)C(=O)NCCCCNC(=O)c1ccc(-c2c3nc(c(-c4c(F)cc(S(=O)(=O)[O-])cc4F)c4ccc([nH]4)c(-c4c(F)cc(S(=O)(=O)[O-])cc4F)c4nc(c(-c5c(F)cc(S(=O)(=O)[O-])cc5F)c5ccc2[nH]5)C=C4)C=C3)cc1
REMARK SMILES IDX 15 1 14 2 13 3 11 4 12 5 2 7 1 8 3 9 4 10 5 11 6 12 7 14
REMARK SMILES IDX 8 15 9 16 10 17 16 18 17 19 18 20 19 21 20 23 21 24 22 25
REMARK SMILES IDX 86 26 23 27 85 28 24 29 25 30 26 31 79 32 27 33 84 34 78 35
REMARK SMILES IDX 80 36 28 37 83 38 77 39 76 40 29 42 63 43 42 44 62 45 43 46
REMARK SMILES IDX 46 47 61 48 81 49 44 50 45 51 60 53 82 54 47 55 30 56 31 57
REMARK SMILES IDX 40 58 32 59 33 60 39 61 41 62 34 63 35 64 36 65 37 66 38 67
REMARK SMILES IDX 64 68 65 69 74 70 66 71 67 72 73 73 75 74 68 75 69 76 70 77
REMARK SMILES IDX 71 78 72 79 48 80 49 81 58 82 50 83 51 84 57 85 59 86 52 87
REMARK SMILES IDX 53 88 54 89 55 90 56 91
REMARK H PARENT 13 6 6 13 18 22 80 41 46 52
REMARK Flexibility Score: inf
ROOT
ATOM      1  C   UNL A   1      37.464  21.192  24.602  1.00  0.00     0.023 C 
ENDROOT
BRANCH   1   2
ATOM      2  C   UNL A   1      36.079  21.344  25.226  1.00  0.00     0.116 C 
BRANCH   2   3
ATOM      3  N   UNL A   1      35.168  22.084  24.372  1.00  0.00    -0.356 N 
ATOM      4  C   UNL A   1      33.815  22.078  24.259  1.00  0.00     0.225 C 
ATOM      5  O   UNL A   1      33.337  22.697  23.302  1.00  0.00    -0.275 OA
ATOM      6  H   UNL A   1      35.617  22.709  23.758  1.00  0.00     0.163 HD
BRANCH   4   7
ATOM      7  C   UNL A   1      32.894  21.293  25.213  1.00  0.00     0.046 C 
ATOM      8  C   UNL A   1      31.511  21.990  25.262  1.00  0.00     0.021 C 
ATOM      9  C   UNL A   1      33.443  21.371  26.654  1.00  0.00     0.021 C 
BRANCH   7  10
ATOM     10  C   UNL A   1      32.693  19.824  24.756  1.00  0.00     0.057 C 
BRANCH  10  11
ATOM     11  C   UNL A   1      33.420  18.731  25.576  1.00  0.00     0.220 C 
BRANCH  11  12
ATOM     12  O   UNL A   1      32.529  18.097  26.501  1.00  0.00    -0.384 OA
ATOM     13  H   UNL A   1      32.834  17.193  26.677  1.00  0.00     0.211 HD
ENDBRANCH  11  12
BRANCH  11  14
ATOM     14  C   UNL A   1      34.051  17.694  24.622  1.00  0.00     0.414 C 
ATOM     15  F   UNL A   1      35.271  18.114  24.206  1.00  0.00    -0.168 F 
ATOM     16  F   UNL A   1      34.229  16.501  25.232  1.00  0.00    -0.168 F 
ATOM     17  F   UNL A   1      33.298  17.494  23.518  1.00  0.00    -0.168 F 
ENDBRANCH  11  14
ENDBRANCH  10  11
ENDBRANCH   7  10
ENDBRANCH   4   7
ENDBRANCH   2   3
ENDBRANCH   1   2
BRANCH   1  18
ATOM     18  C   UNL A   1      38.242  19.958  25.054  1.00  0.00     0.023 C 
BRANCH  18  19
ATOM     19  C   UNL A   1      39.289  20.217  26.128  1.00  0.00     0.116 C 
BRANCH  19  20
ATOM     20  N   UNL A   1      40.402  19.281  26.076  1.00  0.00    -0.352 N 
ATOM     21  C   UNL A   1      41.749  19.538  26.137  1.00  0.00     0.251 C 
ATOM     22  H   UNL A   1      40.154  18.332  25.985  1.00  0.00     0.163 HD
ATOM     23  O   UNL A   1      42.551  18.628  25.942  1.00  0.00    -0.269 OA
BRANCH  21  24
ATOM     24  C   UNL A   1      42.226  20.910  26.410  1.00  0.00     0.039 A 
ATOM     25  C   UNL A   1      42.494  21.279  27.729  1.00  0.00     0.014 A 
ATOM     26  C   UNL A   1      42.405  21.830  25.373  1.00  0.00     0.014 A 
ATOM     27  C   UNL A   1      42.974  22.561  28.004  1.00  0.00     0.010 A 
ATOM     28  C   UNL A   1      42.972  23.072  25.638  1.00  0.00     0.010 A 
ATOM     29  C   UNL A   1      43.235  23.462  26.959  1.00  0.00    -0.014 A 
BRANCH  29  30
ATOM     30  C   UNL A   1      43.730  24.835  27.240  1.00  0.00     0.031 A 
ATOM     31  C   UNL A   1      45.185  25.165  27.029  1.00  0.00     0.074 A 
ATOM     32  C   UNL A   1      42.882  25.771  27.709  1.00  0.00     0.049 A 
ATOM     33  N   UNL A   1      45.812  26.298  27.223  1.00  0.00    -0.248 NA
ATOM     34  C   UNL A   1      46.059  24.074  26.566  1.00  0.00     0.031 C 
ATOM     35  C   UNL A   1      41.464  25.556  28.008  1.00  0.00     0.029 A 
ATOM     36  N   UNL A   1      43.087  27.093  28.014  1.00  0.00    -0.354 N 
ATOM     37  C   UNL A   1      47.146  26.050  26.917  1.00  0.00     0.074 A 
ATOM     38  C   UNL A   1      47.252  24.647  26.593  1.00  0.00     0.031 C 
ATOM     39  C   UNL A   1      40.921  26.713  28.421  1.00  0.00     0.029 A 
ATOM     40  C   UNL A   1      41.956  27.743  28.449  1.00  0.00     0.049 A 
ATOM     41  H   UNL A   1      43.962  27.535  27.930  1.00  0.00     0.167 HD
ATOM     42  C   UNL A   1      48.183  26.921  26.878  1.00  0.00     0.037 A 
ATOM     43  C   UNL A   1      41.773  29.024  28.823  1.00  0.00     0.037 A 
ATOM     44  C   UNL A   1      48.063  28.324  27.175  1.00  0.00     0.049 A 
ATOM     45  C   UNL A   1      42.938  29.976  28.755  1.00  0.00     0.074 A 
ATOM     46  C   UNL A   1      49.040  29.303  27.117  1.00  0.00     0.029 A 
ATOM     47  N   UNL A   1      46.894  28.951  27.584  1.00  0.00    -0.354 N 
ATOM     48  N   UNL A   1      44.180  29.738  28.401  1.00  0.00    -0.248 NA
ATOM     49  C   UNL A   1      42.673  31.374  29.115  1.00  0.00     0.031 C 
ATOM     50  C   UNL A   1      48.474  30.511  27.538  1.00  0.00     0.029 A 
ATOM     51  C   UNL A   1      47.129  30.299  27.796  1.00  0.00     0.049 A 
ATOM     52  H   UNL A   1      46.026  28.502  27.706  1.00  0.00     0.167 HD
ATOM     53  C   UNL A   1      44.833  30.967  28.458  1.00  0.00     0.074 A 
ATOM     54  C   UNL A   1      43.844  31.943  28.868  1.00  0.00     0.031 C 
ATOM     55  C   UNL A   1      46.129  31.261  28.191  1.00  0.00     0.037 A 
BRANCH  42  56
ATOM     56  C   UNL A   1      49.536  26.382  26.494  1.00  0.00     0.058 A 
ATOM     57  C   UNL A   1      50.006  26.437  25.171  1.00  0.00     0.135 A 
ATOM     58  C   UNL A   1      50.391  25.838  27.467  1.00  0.00     0.135 A 
ATOM     59  F   UNL A   1      49.225  26.928  24.195  1.00  0.00    -0.206 F 
ATOM     60  C   UNL A   1      51.261  25.950  24.822  1.00  0.00     0.059 A 
ATOM     61  C   UNL A   1      51.664  25.375  27.145  1.00  0.00     0.059 A 
ATOM     62  F   UNL A   1      49.994  25.758  28.747  1.00  0.00    -0.206 F 
ATOM     63  C   UNL A   1      52.084  25.423  25.818  1.00  0.00     0.060 A 
BRANCH  63  64
ATOM     64  S   UNL A   1      53.717  24.811  25.351  1.00  0.00     0.124 S 
ATOM     65  O   UNL A   1      54.471  25.022  26.583  1.00  0.00    -0.237 OA
ATOM     66  O   UNL A   1      53.441  23.420  25.007  1.00  0.00    -0.237 OA
ATOM     67  O   UNL A   1      54.094  25.667  24.231  1.00  0.00    -0.744 OA
ENDBRANCH  63  64
ENDBRANCH  42  56
BRANCH  43  68
ATOM     68  C   UNL A   1      40.429  29.491  29.262  1.00  0.00     0.058 A 
ATOM     69  C   UNL A   1      39.414  29.759  28.331  1.00  0.00     0.135 A 
ATOM     70  C   UNL A   1      40.135  29.685  30.621  1.00  0.00     0.135 A 
ATOM     71  F   UNL A   1      39.645  29.591  27.020  1.00  0.00    -0.206 F 
ATOM     72  C   UNL A   1      38.166  30.231  28.727  1.00  0.00     0.059 A 
ATOM     73  C   UNL A   1      38.886  30.127  31.043  1.00  0.00     0.059 A 
ATOM     74  F   UNL A   1      41.063  29.426  31.554  1.00  0.00    -0.206 F 
ATOM     75  C   UNL A   1      37.911  30.413  30.087  1.00  0.00     0.060 A 
BRANCH  75  76
ATOM     76  S   UNL A   1      36.280  30.998  30.592  1.00  0.00     0.124 S 
ATOM     77  O   UNL A   1      36.572  32.369  30.998  1.00  0.00    -0.237 OA
ATOM     78  O   UNL A   1      35.506  30.846  29.364  1.00  0.00    -0.237 OA
ATOM     79  O   UNL A   1      35.915  30.085  31.671  1.00  0.00    -0.744 OA
ENDBRANCH  75  76
ENDBRANCH  43  68
BRANCH  55  80
ATOM     80  C   UNL A   1      46.539  32.707  28.270  1.00  0.00     0.058 A 
ATOM     81  C   UNL A   1      46.411  33.583  27.181  1.00  0.00     0.135 A 
ATOM     82  C   UNL A   1      47.054  33.228  29.470  1.00  0.00     0.135 A 
ATOM     83  F   UNL A   1      45.923  33.140  26.011  1.00  0.00    -0.206 F 
ATOM     84  C   UNL A   1      46.827  34.909  27.261  1.00  0.00     0.059 A 
ATOM     85  C   UNL A   1      47.443  34.558  29.583  1.00  0.00     0.059 A 
ATOM     86  F   UNL A   1      47.182  32.441  30.551  1.00  0.00    -0.206 F 
ATOM     87  C   UNL A   1      47.347  35.385  28.466  1.00  0.00     0.060 A 
BRANCH  87  88
ATOM     88  S   UNL A   1      47.893  37.102  28.556  1.00  0.00     0.124 S 
ATOM     89  O   UNL A   1      46.646  37.819  28.313  1.00  0.00    -0.237 OA
ATOM     90  O   UNL A   1      48.421  37.193  29.914  1.00  0.00    -0.237 OA
ATOM     91  O   UNL A   1      48.890  37.199  27.494  1.00  0.00    -0.744 OA
ENDBRANCH  87  88
ENDBRANCH  55  80
ENDBRANCH  29  30
ENDBRANCH  21  24
ENDBRANCH  19  20
ENDBRANCH  18  19
ENDBRANCH   1  18
TORSDOF 18
ENDMDL
MODEL 3
REMARK VINA RESULT:      -8.7      3.198      4.243
REMARK SMILES CC(C)(C[C@@H](O)C(F)(F)F)C(=O)NCCCCNC(=O)c1ccc(-c2c3nc(c(-c4c(F)cc(S(=O)(=O)[O-])cc4F)c4ccc([nH]4)c(-c4c(F)cc(S(=O)(=O)[O-])cc4F)c4nc(c(-c5c(F)cc(S(=O)(=O)[O-])cc5F)c5ccc2[nH]5)C=C4)C=C3)cc1
REMARK SMILES IDX 15 1 14 2 13 3 11 4 12 5 2 7 1 8 3 9 4 10 5 11 6 12 7 14
REMARK SMILES IDX 8 15 9 16 10 17 16 18 17 19 18 20 19 21 20 23 21 24 22 25
REMARK SMILES IDX 86 26 23 27 85 28 24 29 25 30 26 31 79 32 27 33 84 34 78 35
REMARK SMILES IDX 80 36 28 37 83 38 77 39 76 40 29 42 63 43 42 44 62 45 43 46
REMARK SMILES IDX 46 47 61 48 81 49 44 50 45 51 60 53 82 54 47 55 30 56 31 57
REMARK SMILES IDX 40 58 32 59 33 60 39 61 41 62 34 63 35 64 36 65 37 66 38 67
REMARK SMILES IDX 64 68 65 69 74 70 66 71 67 72 73 73 75 74 68 75 69 76 70 77
REMARK SMILES IDX 71 78 72 79 48 80 49 81 58 82 50 83 51 84 57 85 59 86 52 87
REMARK SMILES IDX 53 88 54 89 55 90 56 91
REMARK H PARENT 13 6 6 13 18 22 80 41 46 52
REMARK Flexibility Score: inf
ROOT
ATOM      1  C   UNL A   1      36.496  33.374  29.083  1.00  0.00     0.023 C 
ENDROOT
BRANCH   1   2
ATOM      2  C   UNL A   1      36.355  34.548  30.048  1.00  0.00     0.116 C 
BRANCH   2   3
ATOM      3  N   UNL A   1      37.310  34.481  31.140  1.00  0.00    -0.356 N 
ATOM      4  C   UNL A   1      37.153  34.375  32.484  1.00  0.00     0.225 C 
ATOM      5  O   UNL A   1      38.169  34.525  33.172  1.00  0.00    -0.275 OA
ATOM      6  H   UNL A   1      38.250  34.519  30.850  1.00  0.00     0.163 HD
BRANCH   4   7
ATOM      7  C   UNL A   1      35.785  34.151  33.157  1.00  0.00     0.046 C 
ATOM      8  C   UNL A   1      35.995  34.003  34.685  1.00  0.00     0.021 C 
ATOM      9  C   UNL A   1      35.187  32.806  32.694  1.00  0.00     0.021 C 
BRANCH   7  10
ATOM     10  C   UNL A   1      34.808  35.330  32.903  1.00  0.00     0.057 C 
BRANCH  10  11
ATOM     11  C   UNL A   1      33.543  35.021  32.066  1.00  0.00     0.220 C 
BRANCH  11  12
ATOM     12  O   UNL A   1      32.468  34.568  32.897  1.00  0.00    -0.384 OA
ATOM     13  H   UNL A   1      31.621  34.817  32.496  1.00  0.00     0.211 HD
ENDBRANCH  11  12
BRANCH  11  14
ATOM     14  C   UNL A   1      33.128  36.274  31.265  1.00  0.00     0.414 C 
ATOM     15  F   UNL A   1      31.786  36.456  31.331  1.00  0.00    -0.168 F 
ATOM     16  F   UNL A   1      33.705  37.392  31.758  1.00  0.00    -0.168 F 
ATOM     17  F   UNL A   1      33.455  36.174  29.958  1.00  0.00    -0.168 F 
ENDBRANCH  11  14
ENDBRANCH  10  11
ENDBRANCH   7  10
ENDBRANCH   4   7
ENDBRANCH   2   3
ENDBRANCH   1   2
BRANCH   1  18
ATOM     18  C   UNL A   1      35.400  33.278  28.023  1.00  0.00     0.023 C 
BRANCH  18  19
ATOM     19  C   UNL A   1      34.115  32.607  28.487  1.00  0.00     0.116 C 
BRANCH  19  20
ATOM     20  N   UNL A   1      33.695  31.518  27.618  1.00  0.00    -0.352 N 
ATOM     21  C   UNL A   1      34.371  30.372  27.281  1.00  0.00     0.251 C 
ATOM     22  H   UNL A   1      32.801  31.617  27.216  1.00  0.00     0.163 HD
ATOM     23  O   UNL A   1      33.912  29.624  26.423  1.00  0.00    -0.269 OA
BRANCH  21  24
ATOM     24  C   UNL A   1      35.661  30.059  27.934  1.00  0.00     0.039 A 
ATOM     25  C   UNL A   1      35.657  29.648  29.268  1.00  0.00     0.014 A 
ATOM     26  C   UNL A   1      36.867  30.175  27.238  1.00  0.00     0.014 A 
ATOM     27  C   UNL A   1      36.861  29.319  29.892  1.00  0.00     0.010 A 
ATOM     28  C   UNL A   1      38.053  29.756  27.831  1.00  0.00     0.010 A 
ATOM     29  C   UNL A   1      38.068  29.352  29.173  1.00  0.00    -0.014 A 
BRANCH  29  30
ATOM     30  C   UNL A   1      39.358  29.020  29.832  1.00  0.00     0.031 A 
ATOM     31  C   UNL A   1      39.794  29.783  31.055  1.00  0.00     0.074 A 
ATOM     32  C   UNL A   1      40.146  28.056  29.315  1.00  0.00     0.049 A 
ATOM     33  N   UNL A   1      40.884  29.650  31.768  1.00  0.00    -0.248 NA
ATOM     34  C   UNL A   1      38.904  30.857  31.526  1.00  0.00     0.031 C 
ATOM     35  C   UNL A   1      39.860  27.286  28.102  1.00  0.00     0.029 A 
ATOM     36  N   UNL A   1      41.349  27.556  29.747  1.00  0.00    -0.354 N 
ATOM     37  C   UNL A   1      40.812  30.625  32.757  1.00  0.00     0.074 A 
ATOM     38  C   UNL A   1      39.610  31.387  32.513  1.00  0.00     0.031 C 
ATOM     39  C   UNL A   1      40.842  26.390  27.907  1.00  0.00     0.029 A 
ATOM     40  C   UNL A   1      41.843  26.543  28.959  1.00  0.00     0.049 A 
ATOM     41  H   UNL A   1      41.815  27.891  30.547  1.00  0.00     0.167 HD
ATOM     42  C   UNL A   1      41.655  30.845  33.794  1.00  0.00     0.037 A 
ATOM     43  C   UNL A   1      42.972  25.817  29.074  1.00  0.00     0.037 A 
ATOM     44  C   UNL A   1      42.837  30.062  34.047  1.00  0.00     0.049 A 
ATOM     45  C   UNL A   1      43.884  26.070  30.245  1.00  0.00     0.074 A 
ATOM     46  C   UNL A   1      43.732  30.169  35.097  1.00  0.00     0.029 A 
ATOM     47  N   UNL A   1      43.288  29.026  33.241  1.00  0.00    -0.354 N 
ATOM     48  N   UNL A   1      43.767  26.954  31.208  1.00  0.00    -0.248 NA
ATOM     49  C   UNL A   1      45.069  25.211  30.359  1.00  0.00     0.031 C 
ATOM     50  C   UNL A   1      44.750  29.230  34.900  1.00  0.00     0.029 A 
ATOM     51  C   UNL A   1      44.455  28.495  33.763  1.00  0.00     0.049 A 
ATOM     52  H   UNL A   1      42.843  28.715  32.420  1.00  0.00     0.167 HD
ATOM     53  C   UNL A   1      44.843  26.730  32.063  1.00  0.00     0.074 A 
ATOM     54  C   UNL A   1      45.589  25.620  31.507  1.00  0.00     0.031 C 
ATOM     55  C   UNL A   1      45.180  27.379  33.205  1.00  0.00     0.037 A 
BRANCH  42  56
ATOM     56  C   UNL A   1      41.325  31.972  34.738  1.00  0.00     0.058 A 
ATOM     57  C   UNL A   1      41.885  33.252  34.586  1.00  0.00     0.135 A 
ATOM     58  C   UNL A   1      40.408  31.782  35.784  1.00  0.00     0.135 A 
ATOM     59  F   UNL A   1      42.783  33.488  33.615  1.00  0.00    -0.206 F 
ATOM     60  C   UNL A   1      41.569  34.293  35.452  1.00  0.00     0.059 A 
ATOM     61  C   UNL A   1      40.052  32.819  36.643  1.00  0.00     0.059 A 
ATOM     62  F   UNL A   1      39.844  30.579  35.978  1.00  0.00    -0.206 F 
ATOM     63  C   UNL A   1      40.648  34.067  36.476  1.00  0.00     0.060 A 
BRANCH  63  64
ATOM     64  S   UNL A   1      40.236  35.434  37.580  1.00  0.00     0.124 S 
ATOM     65  O   UNL A   1      41.546  35.772  38.128  1.00  0.00    -0.237 OA
ATOM     66  O   UNL A   1      39.662  36.413  36.661  1.00  0.00    -0.237 OA
ATOM     67  O   UNL A   1      39.296  34.839  38.524  1.00  0.00    -0.744 OA
ENDBRANCH  63  64
ENDBRANCH  42  56
BRANCH  43  68
ATOM     68  C   UNL A   1      43.287  24.760  28.074  1.00  0.00     0.058 A 
ATOM     69  C   UNL A   1      42.737  23.473  28.180  1.00  0.00     0.135 A 
ATOM     70  C   UNL A   1      44.149  25.014  26.996  1.00  0.00     0.135 A 
ATOM     71  F   UNL A   1      41.909  23.179  29.193  1.00  0.00    -0.206 F 
ATOM     72  C   UNL A   1      43.053  22.467  27.272  1.00  0.00     0.059 A 
ATOM     73  C   UNL A   1      44.457  24.033  26.059  1.00  0.00     0.059 A 
ATOM     74  F   UNL A   1      44.687  26.232  26.836  1.00  0.00    -0.206 F 
ATOM     75  C   UNL A   1      43.916  22.757  26.213  1.00  0.00     0.060 A 
BRANCH  75  76
ATOM     76  S   UNL A   1      44.297  21.453  25.025  1.00  0.00     0.124 S 
ATOM     77  O   UNL A   1      43.275  20.460  25.338  1.00  0.00    -0.237 OA
ATOM     78  O   UNL A   1      44.144  22.146  23.750  1.00  0.00    -0.237 OA
ATOM     79  O   UNL A   1      45.666  21.077  25.366  1.00  0.00    -0.744 OA
ENDBRANCH  75  76
ENDBRANCH  43  68
BRANCH  55  80
ATOM     80  C   UNL A   1      46.372  26.864  33.965  1.00  0.00     0.058 A 
ATOM     81  C   UNL A   1      47.669  27.353  33.745  1.00  0.00     0.135 A 
ATOM     82  C   UNL A   1      46.205  25.873  34.948  1.00  0.00     0.135 A 
ATOM     83  F   UNL A   1      47.886  28.301  32.820  1.00  0.00    -0.206 F 
ATOM     84  C   UNL A   1      48.765  26.840  34.432  1.00  0.00     0.059 A 
ATOM     85  C   UNL A   1      47.281  25.372  35.671  1.00  0.00     0.059 A 
ATOM     86  F   UNL A   1      44.984  25.382  35.214  1.00  0.00    -0.206 F 
ATOM     87  C   UNL A   1      48.561  25.845  35.390  1.00  0.00     0.060 A 
BRANCH  87  88
ATOM     88  S   UNL A   1      49.991  25.181  36.268  1.00  0.00     0.124 S 
ATOM     89  O   UNL A   1      50.834  24.740  35.162  1.00  0.00    -0.237 OA
ATOM     90  O   UNL A   1      50.473  26.343  37.008  1.00  0.00    -0.237 OA
ATOM     91  O   UNL A   1      49.422  24.115  37.088  1.00  0.00    -0.744 OA
ENDBRANCH  87  88
ENDBRANCH  55  80
ENDBRANCH  29  30
ENDBRANCH  21  24
ENDBRANCH  19  20
ENDBRANCH  18  19
ENDBRANCH   1  18
TORSDOF 18
ENDMDL
