MODEL 1
REMARK VINA RESULT:     -11.7      0.000      0.000
REMARK SMILES COC(=O)[C@H]1CCN(S(=O)(=O)N2CCC[C@H](C(=O)NCCCCNC(=O)c3ccc(-c4c5nc(c(-c6c(F)cc(S(=O)(=O)[O-])cc6F)c6ccc([nH]6)c(-c6c(F)cc(S(=O)(=O)[O-])cc6F)c6nc(c(-c7c(F)cc(S(=O)(=O)[O-])cc7F)c7ccc4[nH]7)C=C6)C=C5)cc3)C2)C1
REMARK SMILES IDX 21 1 20 2 19 3 17 4 18 5 16 7 12 8 13 9 93 10 14 11 15 12
REMARK SMILES IDX 9 13 10 14 11 15 8 16 5 17 6 18 94 19 7 20 3 21 4 22 2 23
REMARK SMILES IDX 1 24 22 25 23 26 24 27 25 28 26 30 27 31 28 32 92 33 29 34
REMARK SMILES IDX 91 35 30 36 31 37 32 38 85 39 33 40 90 41 84 42 86 43 34 44
REMARK SMILES IDX 89 45 83 46 82 47 35 49 69 50 48 51 68 52 49 53 52 54 67 55
REMARK SMILES IDX 87 56 50 57 51 58 66 60 88 61 53 62 36 63 37 64 46 65 38 66
REMARK SMILES IDX 39 67 45 68 47 69 40 70 41 71 42 72 43 73 44 74 70 75 71 76
REMARK SMILES IDX 80 77 72 78 73 79 79 80 81 81 74 82 75 83 76 84 77 85 78 86
REMARK SMILES IDX 54 87 55 88 64 89 56 90 57 91 63 92 65 93 58 94 59 95 60 96
REMARK SMILES IDX 61 97 62 98
REMARK H PARENT 19 6 24 29 86 48 52 59
REMARK Flexibility Score: inf
ROOT
ATOM      1  C   UNL A   1      34.754  30.479  27.667  1.00  0.00     0.023 C 
ENDROOT
BRANCH   1   2
ATOM      2  C   UNL A   1      33.463  30.214  26.901  1.00  0.00     0.116 C 
BRANCH   2   3
ATOM      3  N   UNL A   1      33.704  29.760  25.553  1.00  0.00    -0.356 N 
ATOM      4  C   UNL A   1      32.898  29.143  24.657  1.00  0.00     0.224 C 
ATOM      5  O   UNL A   1      33.378  28.942  23.533  1.00  0.00    -0.275 OA
ATOM      6  H   UNL A   1      34.617  29.928  25.226  1.00  0.00     0.163 HD
BRANCH   4   7
ATOM      7  C   UNL A   1      31.465  28.684  24.939  1.00  0.00     0.094 C 
ATOM      8  N   UNL A   1      31.239  26.208  24.972  1.00  0.00    -0.188 NA
ATOM      9  C   UNL A   1      30.172  26.187  23.960  1.00  0.00     0.103 C 
ATOM     10  C   UNL A   1      31.339  27.429  25.785  1.00  0.00     0.117 C 
ATOM     11  C   UNL A   1      30.256  27.409  23.047  1.00  0.00     0.018 C 
ATOM     12  C   UNL A   1      30.481  28.732  23.771  1.00  0.00     0.016 C 
BRANCH   8  13
ATOM     13  S   UNL A   1      31.760  24.749  25.610  1.00  0.00     0.282 S 
ATOM     14  O   UNL A   1      31.530  23.700  24.651  1.00  0.00    -0.195 OA
ATOM     15  O   UNL A   1      31.245  24.659  26.959  1.00  0.00    -0.195 OA
BRANCH  13  16
ATOM     16  N   UNL A   1      33.433  24.999  25.727  1.00  0.00    -0.188 NA
ATOM     17  C   UNL A   1      35.270  23.473  25.311  1.00  0.00     0.116 C 
ATOM     18  C   UNL A   1      34.824  24.109  24.010  1.00  0.00     0.033 C 
ATOM     19  C   UNL A   1      34.158  23.810  26.297  1.00  0.00     0.118 C 
ATOM     20  C   UNL A   1      34.146  25.375  24.483  1.00  0.00     0.104 C 
BRANCH  17  21
ATOM     21  C   UNL A   1      35.414  21.980  25.190  1.00  0.00     0.310 C 
ATOM     22  O   UNL A   1      34.626  21.246  24.614  1.00  0.00    -0.252 OA
BRANCH  21  23
ATOM     23  O   UNL A   1      36.533  21.564  25.846  1.00  0.00    -0.469 OA
ATOM     24  C   UNL A   1      37.712  22.282  25.477  1.00  0.00     0.282 C 
ENDBRANCH  21  23
ENDBRANCH  17  21
ENDBRANCH  13  16
ENDBRANCH   8  13
ENDBRANCH   4   7
ENDBRANCH   2   3
ENDBRANCH   1   2
BRANCH   1  25
ATOM     25  C   UNL A   1      35.028  31.951  27.927  1.00  0.00     0.023 C 
BRANCH  25  26
ATOM     26  C   UNL A   1      35.933  32.223  29.120  1.00  0.00     0.116 C 
BRANCH  26  27
ATOM     27  N   UNL A   1      35.667  31.368  30.272  1.00  0.00    -0.352 N 
ATOM     28  C   UNL A   1      36.518  30.454  30.852  1.00  0.00     0.251 C 
ATOM     29  H   UNL A   1      34.775  31.454  30.682  1.00  0.00     0.163 HD
ATOM     30  O   UNL A   1      36.136  29.702  31.743  1.00  0.00    -0.269 OA
BRANCH  28  31
ATOM     31  C   UNL A   1      37.898  30.373  30.335  1.00  0.00     0.039 A 
ATOM     32  C   UNL A   1      38.966  30.426  31.231  1.00  0.00     0.014 A 
ATOM     33  C   UNL A   1      38.110  30.100  28.981  1.00  0.00     0.014 A 
ATOM     34  C   UNL A   1      40.248  30.116  30.777  1.00  0.00     0.010 A 
ATOM     35  C   UNL A   1      39.366  29.683  28.561  1.00  0.00     0.010 A 
ATOM     36  C   UNL A   1      40.450  29.691  29.452  1.00  0.00    -0.014 A 
BRANCH  36  37
ATOM     37  C   UNL A   1      41.787  29.254  28.976  1.00  0.00     0.031 A 
ATOM     38  C   UNL A   1      42.912  30.251  28.892  1.00  0.00     0.074 A 
ATOM     39  C   UNL A   1      41.972  27.982  28.568  1.00  0.00     0.049 A 
ATOM     40  N   UNL A   1      44.136  30.079  28.461  1.00  0.00    -0.248 NA
ATOM     41  C   UNL A   1      42.615  31.630  29.313  1.00  0.00     0.031 C 
ATOM     42  C   UNL A   1      40.941  26.940  28.543  1.00  0.00     0.029 A 
ATOM     43  N   UNL A   1      43.091  27.347  28.090  1.00  0.00    -0.354 N 
ATOM     44  C   UNL A   1      44.744  31.325  28.551  1.00  0.00     0.074 A 
ATOM     45  C   UNL A   1      43.739  32.258  29.004  1.00  0.00     0.031 C 
ATOM     46  C   UNL A   1      41.485  25.791  28.111  1.00  0.00     0.029 A 
ATOM     47  C   UNL A   1      42.889  26.021  27.785  1.00  0.00     0.049 A 
ATOM     48  H   UNL A   1      43.959  27.798  27.976  1.00  0.00     0.167 HD
ATOM     49  C   UNL A   1      46.034  31.656  28.308  1.00  0.00     0.037 A 
ATOM     50  C   UNL A   1      43.738  25.096  27.295  1.00  0.00     0.037 A 
ATOM     51  C   UNL A   1      47.034  30.715  27.879  1.00  0.00     0.049 A 
ATOM     52  C   UNL A   1      45.166  25.489  27.025  1.00  0.00     0.074 A 
ATOM     53  C   UNL A   1      48.383  30.933  27.663  1.00  0.00     0.029 A 
ATOM     54  N   UNL A   1      46.794  29.378  27.595  1.00  0.00    -0.354 N 
ATOM     55  N   UNL A   1      45.745  26.655  27.191  1.00  0.00    -0.248 NA
ATOM     56  C   UNL A   1      46.058  24.442  26.510  1.00  0.00     0.031 C 
ATOM     57  C   UNL A   1      48.946  29.743  27.191  1.00  0.00     0.029 A 
ATOM     58  C   UNL A   1      47.964  28.765  27.177  1.00  0.00     0.049 A 
ATOM     59  H   UNL A   1      45.920  28.930  27.677  1.00  0.00     0.167 HD
ATOM     60  C   UNL A   1      47.076  26.474  26.828  1.00  0.00     0.074 A 
ATOM     61  C   UNL A   1      47.218  25.083  26.450  1.00  0.00     0.031 C 
ATOM     62  C   UNL A   1      48.089  27.376  26.810  1.00  0.00     0.037 A 
BRANCH  49  63
ATOM     63  C   UNL A   1      46.436  33.093  28.508  1.00  0.00     0.058 A 
ATOM     64  C   UNL A   1      46.901  33.565  29.747  1.00  0.00     0.135 A 
ATOM     65  C   UNL A   1      46.388  34.003  27.440  1.00  0.00     0.135 A 
ATOM     66  F   UNL A   1      46.950  32.745  30.810  1.00  0.00    -0.206 F 
ATOM     67  C   UNL A   1      47.273  34.892  29.927  1.00  0.00     0.059 A 
ATOM     68  C   UNL A   1      46.789  35.327  27.588  1.00  0.00     0.059 A 
ATOM     69  F   UNL A   1      45.950  33.607  26.234  1.00  0.00    -0.206 F 
ATOM     70  C   UNL A   1      47.217  35.766  28.840  1.00  0.00     0.060 A 
BRANCH  70  71
ATOM     71  S   UNL A   1      47.722  37.481  29.088  1.00  0.00     0.124 S 
ATOM     72  O   UNL A   1      48.243  37.438  30.452  1.00  0.00    -0.237 OA
ATOM     73  O   UNL A   1      48.715  37.668  28.036  1.00  0.00    -0.237 OA
ATOM     74  O   UNL A   1      46.481  38.230  28.916  1.00  0.00    -0.744 OA
ENDBRANCH  70  71
ENDBRANCH  49  63
BRANCH  50  75
ATOM     75  C   UNL A   1      43.267  23.704  27.047  1.00  0.00     0.058 A 
ATOM     76  C   UNL A   1      43.145  22.782  28.097  1.00  0.00     0.135 A 
ATOM     77  C   UNL A   1      42.923  23.269  25.756  1.00  0.00     0.135 A 
ATOM     78  F   UNL A   1      43.468  23.144  29.349  1.00  0.00    -0.206 F 
ATOM     79  C   UNL A   1      42.719  21.475  27.876  1.00  0.00     0.059 A 
ATOM     80  C   UNL A   1      42.466  21.977  25.515  1.00  0.00     0.059 A 
ATOM     81  F   UNL A   1      43.005  24.116  24.718  1.00  0.00    -0.206 F 
ATOM     82  C   UNL A   1      42.378  21.084  26.581  1.00  0.00     0.060 A 
BRANCH  82  83
ATOM     83  S   UNL A   1      41.784  19.399  26.314  1.00  0.00     0.124 S 
ATOM     84  O   UNL A   1      42.509  19.019  25.107  1.00  0.00    -0.237 OA
ATOM     85  O   UNL A   1      42.197  18.731  27.545  1.00  0.00    -0.237 OA
ATOM     86  O   UNL A   1      40.343  19.572  26.156  1.00  0.00    -0.744 OA
ENDBRANCH  82  83
ENDBRANCH  50  75
BRANCH  62  87
ATOM     87  C   UNL A   1      49.451  26.883  26.402  1.00  0.00     0.058 A 
ATOM     88  C   UNL A   1      50.327  26.283  27.319  1.00  0.00     0.135 A 
ATOM     89  C   UNL A   1      49.861  26.965  25.060  1.00  0.00     0.135 A 
ATOM     90  F   UNL A   1      49.988  26.183  28.614  1.00  0.00    -0.206 F 
ATOM     91  C   UNL A   1      51.574  25.805  26.926  1.00  0.00     0.059 A 
ATOM     92  C   UNL A   1      51.088  26.463  24.639  1.00  0.00     0.059 A 
ATOM     93  F   UNL A   1      49.057  27.519  24.139  1.00  0.00    -0.206 F 
ATOM     94  C   UNL A   1      51.944  25.897  25.583  1.00  0.00     0.060 A 
BRANCH  94  95
ATOM     95  S   UNL A   1      53.550  25.244  25.082  1.00  0.00     0.124 S 
ATOM     96  O   UNL A   1      53.373  23.815  25.321  1.00  0.00    -0.237 OA
ATOM     97  O   UNL A   1      53.625  25.647  23.681  1.00  0.00    -0.237 OA
ATOM     98  O   UNL A   1      54.486  25.918  25.975  1.00  0.00    -0.744 OA
ENDBRANCH  94  95
ENDBRANCH  62  87
ENDBRANCH  36  37
ENDBRANCH  28  31
ENDBRANCH  26  27
ENDBRANCH  25  26
ENDBRANCH   1  25
TORSDOF 18
ENDMDL
MODEL 2
REMARK VINA RESULT:     -11.6      6.181      8.998
REMARK SMILES COC(=O)[C@H]1CCN(S(=O)(=O)N2CCC[C@H](C(=O)NCCCCNC(=O)c3ccc(-c4c5nc(c(-c6c(F)cc(S(=O)(=O)[O-])cc6F)c6ccc([nH]6)c(-c6c(F)cc(S(=O)(=O)[O-])cc6F)c6nc(c(-c7c(F)cc(S(=O)(=O)[O-])cc7F)c7ccc4[nH]7)C=C6)C=C5)cc3)C2)C1
REMARK SMILES IDX 21 1 20 2 19 3 17 4 18 5 16 7 12 8 13 9 93 10 14 11 15 12
REMARK SMILES IDX 9 13 10 14 11 15 8 16 5 17 6 18 94 19 7 20 3 21 4 22 2 23
REMARK SMILES IDX 1 24 22 25 23 26 24 27 25 28 26 30 27 31 28 32 92 33 29 34
REMARK SMILES IDX 91 35 30 36 31 37 32 38 85 39 33 40 90 41 84 42 86 43 34 44
REMARK SMILES IDX 89 45 83 46 82 47 35 49 69 50 48 51 68 52 49 53 52 54 67 55
REMARK SMILES IDX 87 56 50 57 51 58 66 60 88 61 53 62 36 63 37 64 46 65 38 66
REMARK SMILES IDX 39 67 45 68 47 69 40 70 41 71 42 72 43 73 44 74 70 75 71 76
REMARK SMILES IDX 80 77 72 78 73 79 79 80 81 81 74 82 75 83 76 84 77 85 78 86
REMARK SMILES IDX 54 87 55 88 64 89 56 90 57 91 63 92 65 93 58 94 59 95 60 96
REMARK SMILES IDX 61 97 62 98
REMARK H PARENT 19 6 24 29 86 48 52 59
REMARK Flexibility Score: inf
ROOT
ATOM      1  C   UNL A   1      35.063  30.622  28.082  1.00  0.00     0.023 C 
ENDROOT
BRANCH   1   2
ATOM      2  C   UNL A   1      34.515  29.465  27.254  1.00  0.00     0.116 C 
BRANCH   2   3
ATOM      3  N   UNL A   1      33.196  29.059  27.676  1.00  0.00    -0.356 N 
ATOM      4  C   UNL A   1      32.414  28.021  27.300  1.00  0.00     0.224 C 
ATOM      5  O   UNL A   1      31.342  27.892  27.907  1.00  0.00    -0.275 OA
ATOM      6  H   UNL A   1      32.793  29.642  28.360  1.00  0.00     0.163 HD
BRANCH   4   7
ATOM      7  C   UNL A   1      32.759  27.021  26.194  1.00  0.00     0.094 C 
ATOM      8  N   UNL A   1      31.372  27.332  24.153  1.00  0.00    -0.188 NA
ATOM      9  C   UNL A   1      30.902  25.938  24.133  1.00  0.00     0.103 C 
ATOM     10  C   UNL A   1      32.682  27.567  24.778  1.00  0.00     0.117 C 
ATOM     11  C   UNL A   1      30.921  25.332  25.535  1.00  0.00     0.018 C 
ATOM     12  C   UNL A   1      32.189  25.611  26.333  1.00  0.00     0.016 C 
BRANCH   8  13
ATOM     13  S   UNL A   1      30.834  28.371  22.953  1.00  0.00     0.282 S 
ATOM     14  O   UNL A   1      30.385  27.601  21.822  1.00  0.00    -0.195 OA
ATOM     15  O   UNL A   1      31.827  29.413  22.807  1.00  0.00    -0.195 OA
BRANCH  13  16
ATOM     16  N   UNL A   1      29.475  29.073  23.686  1.00  0.00    -0.188 NA
ATOM     17  C   UNL A   1      28.232  31.064  23.082  1.00  0.00     0.116 C 
ATOM     18  C   UNL A   1      27.732  29.880  22.278  1.00  0.00     0.033 C 
ATOM     19  C   UNL A   1      29.536  30.576  23.701  1.00  0.00     0.118 C 
ATOM     20  C   UNL A   1      28.149  28.706  23.135  1.00  0.00     0.104 C 
BRANCH  17  21
ATOM     21  C   UNL A   1      28.493  32.265  22.215  1.00  0.00     0.310 C 
ATOM     22  O   UNL A   1      28.561  33.417  22.618  1.00  0.00    -0.252 OA
BRANCH  21  23
ATOM     23  O   UNL A   1      28.610  31.885  20.913  1.00  0.00    -0.469 OA
ATOM     24  C   UNL A   1      27.797  32.647  20.020  1.00  0.00     0.282 C 
ENDBRANCH  21  23
ENDBRANCH  17  21
ENDBRANCH  13  16
ENDBRANCH   8  13
ENDBRANCH   4   7
ENDBRANCH   2   3
ENDBRANCH   1   2
BRANCH   1  25
ATOM     25  C   UNL A   1      34.656  31.995  27.572  1.00  0.00     0.023 C 
BRANCH  25  26
ATOM     26  C   UNL A   1      33.260  32.434  27.991  1.00  0.00     0.116 C 
BRANCH  26  27
ATOM     27  N   UNL A   1      33.035  33.872  27.886  1.00  0.00    -0.352 N 
ATOM     28  C   UNL A   1      33.665  34.873  28.590  1.00  0.00     0.251 C 
ATOM     29  H   UNL A   1      32.353  34.159  27.235  1.00  0.00     0.163 HD
ATOM     30  O   UNL A   1      33.301  36.041  28.503  1.00  0.00    -0.269 OA
BRANCH  28  31
ATOM     31  C   UNL A   1      34.767  34.491  29.495  1.00  0.00     0.039 A 
ATOM     32  C   UNL A   1      34.469  33.864  30.704  1.00  0.00     0.014 A 
ATOM     33  C   UNL A   1      36.090  34.628  29.065  1.00  0.00     0.014 A 
ATOM     34  C   UNL A   1      35.504  33.295  31.446  1.00  0.00     0.010 A 
ATOM     35  C   UNL A   1      37.098  33.964  29.747  1.00  0.00     0.010 A 
ATOM     36  C   UNL A   1      36.819  33.294  30.948  1.00  0.00    -0.014 A 
BRANCH  36  37
ATOM     37  C   UNL A   1      37.918  32.601  31.669  1.00  0.00     0.031 A 
ATOM     38  C   UNL A   1      38.371  33.113  33.010  1.00  0.00     0.074 A 
ATOM     39  C   UNL A   1      38.542  31.553  31.093  1.00  0.00     0.049 A 
ATOM     40  N   UNL A   1      39.339  32.677  33.774  1.00  0.00    -0.248 NA
ATOM     41  C   UNL A   1      37.668  34.290  33.547  1.00  0.00     0.031 C 
ATOM     42  C   UNL A   1      38.234  31.004  29.769  1.00  0.00     0.029 A 
ATOM     43  N   UNL A   1      39.570  30.762  31.544  1.00  0.00    -0.354 N 
ATOM     44  C   UNL A   1      39.365  33.531  34.871  1.00  0.00     0.074 A 
ATOM     45  C   UNL A   1      38.369  34.552  34.639  1.00  0.00     0.031 C 
ATOM     46  C   UNL A   1      39.029  29.947  29.534  1.00  0.00     0.029 A 
ATOM     47  C   UNL A   1      39.932  29.768  30.666  1.00  0.00     0.049 A 
ATOM     48  H   UNL A   1      40.007  30.895  32.416  1.00  0.00     0.167 HD
ATOM     49  C   UNL A   1      40.128  33.454  35.986  1.00  0.00     0.037 A 
ATOM     50  C   UNL A   1      40.886  28.821  30.760  1.00  0.00     0.037 A 
ATOM     51  C   UNL A   1      41.102  32.419  36.218  1.00  0.00     0.049 A 
ATOM     52  C   UNL A   1      41.728  28.758  32.008  1.00  0.00     0.074 A 
ATOM     53  C   UNL A   1      41.885  32.213  37.339  1.00  0.00     0.029 A 
ATOM     54  N   UNL A   1      41.430  31.422  35.311  1.00  0.00    -0.354 N 
ATOM     55  N   UNL A   1      41.685  29.527  33.070  1.00  0.00    -0.248 NA
ATOM     56  C   UNL A   1      42.742  27.697  32.073  1.00  0.00     0.031 C 
ATOM     57  C   UNL A   1      42.728  31.126  37.087  1.00  0.00     0.029 A 
ATOM     58  C   UNL A   1      42.425  30.614  35.836  1.00  0.00     0.049 A 
ATOM     59  H   UNL A   1      41.016  31.305  34.425  1.00  0.00     0.167 HD
ATOM     60  C   UNL A   1      42.645  29.024  33.943  1.00  0.00     0.074 A 
ATOM     61  C   UNL A   1      43.241  27.877  33.288  1.00  0.00     0.031 C 
ATOM     62  C   UNL A   1      43.002  29.470  35.172  1.00  0.00     0.037 A 
BRANCH  49  63
ATOM     63  C   UNL A   1      39.935  34.510  37.040  1.00  0.00     0.058 A 
ATOM     64  C   UNL A   1      40.659  35.715  37.021  1.00  0.00     0.135 A 
ATOM     65  C   UNL A   1      38.993  34.332  38.066  1.00  0.00     0.135 A 
ATOM     66  F   UNL A   1      41.586  35.933  36.075  1.00  0.00    -0.206 F 
ATOM     67  C   UNL A   1      40.476  36.689  37.996  1.00  0.00     0.059 A 
ATOM     68  C   UNL A   1      38.769  35.308  39.032  1.00  0.00     0.059 A 
ATOM     69  F   UNL A   1      38.276  33.199  38.135  1.00  0.00    -0.206 F 
ATOM     70  C   UNL A   1      39.526  36.478  38.996  1.00  0.00     0.060 A 
BRANCH  70  71
ATOM     71  S   UNL A   1      39.291  37.762  40.243  1.00  0.00     0.124 S 
ATOM     72  O   UNL A   1      40.589  38.431  40.222  1.00  0.00    -0.237 OA
ATOM     73  O   UNL A   1      38.176  38.526  39.695  1.00  0.00    -0.237 OA
ATOM     74  O   UNL A   1      38.995  37.008  41.457  1.00  0.00    -0.744 OA
ENDBRANCH  70  71
ENDBRANCH  49  63
BRANCH  50  75
ATOM     75  C   UNL A   1      41.084  27.844  29.653  1.00  0.00     0.058 A 
ATOM     76  C   UNL A   1      40.163  26.810  29.426  1.00  0.00     0.135 A 
ATOM     77  C   UNL A   1      42.193  27.927  28.796  1.00  0.00     0.135 A 
ATOM     78  F   UNL A   1      39.089  26.681  30.221  1.00  0.00    -0.206 F 
ATOM     79  C   UNL A   1      40.343  25.883  28.404  1.00  0.00     0.059 A 
ATOM     80  C   UNL A   1      42.379  27.030  27.748  1.00  0.00     0.059 A 
ATOM     81  F   UNL A   1      43.096  28.906  28.958  1.00  0.00    -0.206 F 
ATOM     82  C   UNL A   1      41.454  26.004  27.567  1.00  0.00     0.060 A 
BRANCH  82  83
ATOM     83  S   UNL A   1      41.653  24.822  26.217  1.00  0.00     0.124 S 
ATOM     84  O   UNL A   1      40.641  23.824  26.547  1.00  0.00    -0.237 OA
ATOM     85  O   UNL A   1      41.376  25.648  25.045  1.00  0.00    -0.237 OA
ATOM     86  O   UNL A   1      43.038  24.384  26.354  1.00  0.00    -0.744 OA
ENDBRANCH  82  83
ENDBRANCH  50  75
BRANCH  62  87
ATOM     87  C   UNL A   1      44.061  28.697  35.912  1.00  0.00     0.058 A 
ATOM     88  C   UNL A   1      45.421  29.026  35.818  1.00  0.00     0.135 A 
ATOM     89  C   UNL A   1      43.698  27.646  36.772  1.00  0.00     0.135 A 
ATOM     90  F   UNL A   1      45.823  30.018  35.008  1.00  0.00    -0.206 F 
ATOM     91  C   UNL A   1      46.389  28.322  36.528  1.00  0.00     0.059 A 
ATOM     92  C   UNL A   1      44.646  26.951  37.517  1.00  0.00     0.059 A 
ATOM     93  F   UNL A   1      42.409  27.297  36.908  1.00  0.00    -0.206 F 
ATOM     94  C   UNL A   1      45.991  27.289  37.377  1.00  0.00     0.060 A 
BRANCH  94  95
ATOM     95  S   UNL A   1      47.254  26.406  38.317  1.00  0.00     0.124 S 
ATOM     96  O   UNL A   1      47.565  27.370  39.368  1.00  0.00    -0.237 OA
ATOM     97  O   UNL A   1      46.540  25.208  38.747  1.00  0.00    -0.237 OA
ATOM     98  O   UNL A   1      48.313  26.181  37.338  1.00  0.00    -0.744 OA
ENDBRANCH  94  95
ENDBRANCH  62  87
ENDBRANCH  36  37
ENDBRANCH  28  31
ENDBRANCH  26  27
ENDBRANCH  25  26
ENDBRANCH   1  25
TORSDOF 18
ENDMDL
MODEL 3
REMARK VINA RESULT:     -11.4      2.749      8.905
REMARK SMILES COC(=O)[C@H]1CCN(S(=O)(=O)N2CCC[C@H](C(=O)NCCCCNC(=O)c3ccc(-c4c5nc(c(-c6c(F)cc(S(=O)(=O)[O-])cc6F)c6ccc([nH]6)c(-c6c(F)cc(S(=O)(=O)[O-])cc6F)c6nc(c(-c7c(F)cc(S(=O)(=O)[O-])cc7F)c7ccc4[nH]7)C=C6)C=C5)cc3)C2)C1
REMARK SMILES IDX 21 1 20 2 19 3 17 4 18 5 16 7 12 8 13 9 93 10 14 11 15 12
REMARK SMILES IDX 9 13 10 14 11 15 8 16 5 17 6 18 94 19 7 20 3 21 4 22 2 23
REMARK SMILES IDX 1 24 22 25 23 26 24 27 25 28 26 30 27 31 28 32 92 33 29 34
REMARK SMILES IDX 91 35 30 36 31 37 32 38 85 39 33 40 90 41 84 42 86 43 34 44
REMARK SMILES IDX 89 45 83 46 82 47 35 49 69 50 48 51 68 52 49 53 52 54 67 55
REMARK SMILES IDX 87 56 50 57 51 58 66 60 88 61 53 62 36 63 37 64 46 65 38 66
REMARK SMILES IDX 39 67 45 68 47 69 40 70 41 71 42 72 43 73 44 74 70 75 71 76
REMARK SMILES IDX 80 77 72 78 73 79 79 80 81 81 74 82 75 83 76 84 77 85 78 86
REMARK SMILES IDX 54 87 55 88 64 89 56 90 57 91 63 92 65 93 58 94 59 95 60 96
REMARK SMILES IDX 61 97 62 98
REMARK H PARENT 19 6 24 29 86 48 52 59
REMARK Flexibility Score: inf
ROOT
ATOM      1  C   UNL A   1      32.132  28.862  25.610  1.00  0.00     0.023 C 
ENDROOT
BRANCH   1   2
ATOM      2  C   UNL A   1      31.356  27.713  24.976  1.00  0.00     0.116 C 
BRANCH   2   3
ATOM      3  N   UNL A   1      31.176  26.603  25.881  1.00  0.00    -0.356 N 
ATOM      4  C   UNL A   1      31.749  25.377  25.922  1.00  0.00     0.224 C 
ATOM      5  O   UNL A   1      31.437  24.657  26.881  1.00  0.00    -0.275 OA
ATOM      6  H   UNL A   1      30.518  26.766  26.595  1.00  0.00     0.163 HD
BRANCH   4   7
ATOM      7  C   UNL A   1      32.731  24.834  24.881  1.00  0.00     0.094 C 
ATOM      8  N   UNL A   1      33.349  22.461  25.292  1.00  0.00    -0.188 NA
ATOM      9  C   UNL A   1      34.796  22.731  25.310  1.00  0.00     0.103 C 
ATOM     10  C   UNL A   1      32.526  23.380  24.492  1.00  0.00     0.117 C 
ATOM     11  C   UNL A   1      35.079  24.174  25.726  1.00  0.00     0.018 C 
ATOM     12  C   UNL A   1      34.200  25.218  25.049  1.00  0.00     0.016 C 
BRANCH   8  13
ATOM     13  S   UNL A   1      32.832  20.885  25.527  1.00  0.00     0.282 S 
ATOM     14  O   UNL A   1      31.402  20.823  25.374  1.00  0.00    -0.195 OA
ATOM     15  O   UNL A   1      33.482  20.391  26.723  1.00  0.00    -0.195 OA
BRANCH  13  16
ATOM     16  N   UNL A   1      33.538  20.087  24.207  1.00  0.00    -0.188 NA
ATOM     17  C   UNL A   1      33.937  17.724  23.845  1.00  0.00     0.116 C 
ATOM     18  C   UNL A   1      32.521  18.076  23.436  1.00  0.00     0.033 C 
ATOM     19  C   UNL A   1      34.418  18.941  24.626  1.00  0.00     0.118 C 
ATOM     20  C   UNL A   1      32.620  19.562  23.170  1.00  0.00     0.104 C 
BRANCH  17  21
ATOM     21  C   UNL A   1      33.984  16.501  24.720  1.00  0.00     0.310 C 
ATOM     22  O   UNL A   1      35.002  16.016  25.189  1.00  0.00    -0.252 OA
BRANCH  21  23
ATOM     23  O   UNL A   1      32.730  15.996  24.885  1.00  0.00    -0.469 OA
ATOM     24  C   UNL A   1      32.694  14.795  25.657  1.00  0.00     0.282 C 
ENDBRANCH  21  23
ENDBRANCH  17  21
ENDBRANCH  13  16
ENDBRANCH   8  13
ENDBRANCH   4   7
ENDBRANCH   2   3
ENDBRANCH   1   2
BRANCH   1  25
ATOM     25  C   UNL A   1      33.613  28.579  25.799  1.00  0.00     0.023 C 
BRANCH  25  26
ATOM     26  C   UNL A   1      34.074  28.579  27.249  1.00  0.00     0.116 C 
BRANCH  26  27
ATOM     27  N   UNL A   1      33.982  29.882  27.900  1.00  0.00    -0.352 N 
ATOM     28  C   UNL A   1      34.975  30.550  28.583  1.00  0.00     0.251 C 
ATOM     29  H   UNL A   1      33.110  30.336  27.844  1.00  0.00     0.163 HD
ATOM     30  O   UNL A   1      34.741  31.586  29.195  1.00  0.00    -0.269 OA
BRANCH  28  31
ATOM     31  C   UNL A   1      36.324  29.952  28.596  1.00  0.00     0.039 A 
ATOM     32  C   UNL A   1      37.130  30.063  27.463  1.00  0.00     0.014 A 
ATOM     33  C   UNL A   1      36.827  29.415  29.784  1.00  0.00     0.014 A 
ATOM     34  C   UNL A   1      38.476  29.710  27.552  1.00  0.00     0.010 A 
ATOM     35  C   UNL A   1      38.189  29.175  29.898  1.00  0.00     0.010 A 
ATOM     36  C   UNL A   1      39.029  29.314  28.783  1.00  0.00    -0.014 A 
BRANCH  36  37
ATOM     37  C   UNL A   1      40.481  29.037  28.924  1.00  0.00     0.031 A 
ATOM     38  C   UNL A   1      41.021  27.679  28.567  1.00  0.00     0.074 A 
ATOM     39  C   UNL A   1      41.299  29.985  29.427  1.00  0.00     0.049 A 
ATOM     40  N   UNL A   1      42.245  27.227  28.663  1.00  0.00    -0.248 NA
ATOM     41  C   UNL A   1      40.054  26.686  28.069  1.00  0.00     0.031 C 
ATOM     42  C   UNL A   1      40.882  31.319  29.868  1.00  0.00     0.029 A 
ATOM     43  N   UNL A   1      42.652  29.973  29.656  1.00  0.00    -0.354 N 
ATOM     44  C   UNL A   1      42.189  25.901  28.249  1.00  0.00     0.074 A 
ATOM     45  C   UNL A   1      40.804  25.599  27.973  1.00  0.00     0.031 C 
ATOM     46  C   UNL A   1      41.961  32.005  30.279  1.00  0.00     0.029 A 
ATOM     47  C   UNL A   1      43.139  31.151  30.173  1.00  0.00     0.049 A 
ATOM     48  H   UNL A   1      43.223  29.192  29.468  1.00  0.00     0.167 HD
ATOM     49  C   UNL A   1      43.206  25.023  28.083  1.00  0.00     0.037 A 
ATOM     50  C   UNL A   1      44.391  31.501  30.527  1.00  0.00     0.037 A 
ATOM     51  C   UNL A   1      44.586  25.340  28.338  1.00  0.00     0.049 A 
ATOM     52  C   UNL A   1      45.505  30.505  30.340  1.00  0.00     0.074 A 
ATOM     53  C   UNL A   1      45.700  24.544  28.145  1.00  0.00     0.029 A 
ATOM     54  N   UNL A   1      45.040  26.548  28.848  1.00  0.00    -0.354 N 
ATOM     55  N   UNL A   1      45.446  29.280  29.872  1.00  0.00    -0.248 NA
ATOM     56  C   UNL A   1      46.856  30.939  30.720  1.00  0.00     0.031 C 
ATOM     57  C   UNL A   1      46.822  25.249  28.593  1.00  0.00     0.029 A 
ATOM     58  C   UNL A   1      46.416  26.509  29.003  1.00  0.00     0.049 A 
ATOM     59  H   UNL A   1      44.469  27.320  29.067  1.00  0.00     0.167 HD
ATOM     60  C   UNL A   1      46.754  28.808  29.875  1.00  0.00     0.074 A 
ATOM     61  C   UNL A   1      47.584  29.885  30.376  1.00  0.00     0.031 C 
ATOM     62  C   UNL A   1      47.228  27.594  29.498  1.00  0.00     0.037 A 
BRANCH  49  63
ATOM     63  C   UNL A   1      42.863  23.640  27.597  1.00  0.00     0.058 A 
ATOM     64  C   UNL A   1      42.842  23.322  26.228  1.00  0.00     0.135 A 
ATOM     65  C   UNL A   1      42.583  22.612  28.509  1.00  0.00     0.135 A 
ATOM     66  F   UNL A   1      43.083  24.270  25.308  1.00  0.00    -0.206 F 
ATOM     67  C   UNL A   1      42.527  22.043  25.783  1.00  0.00     0.059 A 
ATOM     68  C   UNL A   1      42.299  21.316  28.088  1.00  0.00     0.059 A 
ATOM     69  F   UNL A   1      42.586  22.860  29.829  1.00  0.00    -0.206 F 
ATOM     70  C   UNL A   1      42.260  21.045  26.721  1.00  0.00     0.060 A 
BRANCH  70  71
ATOM     71  S   UNL A   1      41.870  19.387  26.125  1.00  0.00     0.124 S 
ATOM     72  O   UNL A   1      42.259  18.566  27.269  1.00  0.00    -0.237 OA
ATOM     73  O   UNL A   1      40.436  19.478  25.870  1.00  0.00    -0.237 OA
ATOM     74  O   UNL A   1      42.707  19.245  24.939  1.00  0.00    -0.744 OA
ENDBRANCH  70  71
ENDBRANCH  49  63
BRANCH  50  75
ATOM     75  C   UNL A   1      44.663  32.860  31.072  1.00  0.00     0.058 A 
ATOM     76  C   UNL A   1      44.990  33.930  30.225  1.00  0.00     0.135 A 
ATOM     77  C   UNL A   1      44.595  33.120  32.451  1.00  0.00     0.135 A 
ATOM     78  F   UNL A   1      45.076  33.733  28.900  1.00  0.00    -0.206 F 
ATOM     79  C   UNL A   1      45.260  35.201  30.723  1.00  0.00     0.059 A 
ATOM     80  C   UNL A   1      44.830  34.390  32.970  1.00  0.00     0.059 A 
ATOM     81  F   UNL A   1      44.269  32.138  33.305  1.00  0.00    -0.206 F 
ATOM     82  C   UNL A   1      45.173  35.421  32.099  1.00  0.00     0.060 A 
BRANCH  82  83
ATOM     83  S   UNL A   1      45.481  37.086  32.729  1.00  0.00     0.124 S 
ATOM     84  O   UNL A   1      46.733  37.426  32.063  1.00  0.00    -0.237 OA
ATOM     85  O   UNL A   1      44.297  37.809  32.272  1.00  0.00    -0.237 OA
ATOM     86  O   UNL A   1      45.567  36.888  34.173  1.00  0.00    -0.744 OA
ENDBRANCH  82  83
ENDBRANCH  50  75
BRANCH  62  87
ATOM     87  C   UNL A   1      48.714  27.373  29.575  1.00  0.00     0.058 A 
ATOM     88  C   UNL A   1      49.580  27.794  28.555  1.00  0.00     0.135 A 
ATOM     89  C   UNL A   1      49.283  26.779  30.715  1.00  0.00     0.135 A 
ATOM     90  F   UNL A   1      49.090  28.362  27.442  1.00  0.00    -0.206 F 
ATOM     91  C   UNL A   1      50.957  27.609  28.649  1.00  0.00     0.059 A 
ATOM     92  C   UNL A   1      50.659  26.616  30.844  1.00  0.00     0.059 A 
ATOM     93  F   UNL A   1      48.502  26.369  31.726  1.00  0.00    -0.206 F 
ATOM     94  C   UNL A   1      51.486  27.023  29.799  1.00  0.00     0.060 A 
BRANCH  94  95
ATOM     95  S   UNL A   1      53.276  26.819  29.921  1.00  0.00     0.124 S 
ATOM     96  O   UNL A   1      53.387  25.846  31.002  1.00  0.00    -0.237 OA
ATOM     97  O   UNL A   1      53.624  26.330  28.590  1.00  0.00    -0.237 OA
ATOM     98  O   UNL A   1      53.751  28.163  30.234  1.00  0.00    -0.744 OA
ENDBRANCH  94  95
ENDBRANCH  62  87
ENDBRANCH  36  37
ENDBRANCH  28  31
ENDBRANCH  26  27
ENDBRANCH  25  26
ENDBRANCH   1  25
TORSDOF 18
ENDMDL
