MODEL 1
REMARK VINA RESULT:     -13.4      0.000      0.000
REMARK SMILES Cc1cc(C(=O)NCCCCNC(=O)c2ccc(-c3c4nc(c(-c5c(F)cc(S(=O)(=O)[O-])cc5F)c5ccc([nH]5)c(-c5c(F)cc(S(=O)(=O)[O-])cc5F)c5nc(c(-c6c(F)cc(S(=O)(=O)[O-])cc6F)c6ccc3[nH]6)C=C5)C=C4)cc2)ccc1NC(=O)c1ccc(=O)n(CCOc2ccccc2)n1
REMARK SMILES IDX 8 1 7 2 5 3 6 4 4 6 1 7 2 8 3 9 83 10 82 11 81 12 84 13
REMARK SMILES IDX 85 14 86 16 87 17 88 18 102 19 89 20 92 21 90 22 91 23 93 24
REMARK SMILES IDX 94 25 95 26 96 27 97 28 101 29 98 30 100 31 99 32 9 33 10 34
REMARK SMILES IDX 11 35 12 36 13 37 14 39 15 40 16 41 80 42 17 43 79 44 18 45
REMARK SMILES IDX 19 46 20 47 73 48 21 49 78 50 72 51 74 52 22 53 77 54 71 55
REMARK SMILES IDX 70 56 23 58 57 59 36 60 56 61 37 62 40 63 55 64 75 65 38 66
REMARK SMILES IDX 39 67 54 69 76 70 41 71 24 72 25 73 34 74 26 75 27 76 33 77
REMARK SMILES IDX 35 78 28 79 29 80 30 81 31 82 32 83 58 84 59 85 68 86 60 87
REMARK SMILES IDX 61 88 67 89 69 90 62 91 63 92 64 93 65 94 66 95 42 96 43 97
REMARK SMILES IDX 52 98 44 99 45 100 51 101 53 102 46 103 47 104 48 105 49 106
REMARK SMILES IDX 50 107
REMARK H PARENT 7 5 84 15 12 38 74 57 40 68
REMARK Flexibility Score: inf
ROOT
ATOM      1  C   UNL A   1      30.976  29.600  24.172  1.00  0.00     0.116 C 
ENDROOT
BRANCH   1   2
ATOM      2  N   UNL A   1      32.058  29.312  23.228  1.00  0.00    -0.352 N 
ATOM      3  C   UNL A   1      32.803  28.175  22.998  1.00  0.00     0.251 C 
ATOM      4  O   UNL A   1      33.497  28.108  21.983  1.00  0.00    -0.269 OA
ATOM      5  H   UNL A   1      32.297  30.071  22.649  1.00  0.00     0.163 HD
BRANCH   3   6
ATOM      6  C   UNL A   1      32.801  27.019  23.930  1.00  0.00     0.040 A 
ATOM      7  C   UNL A   1      30.944  23.720  24.316  1.00  0.00     0.046 C 
ATOM      8  C   UNL A   1      31.826  24.884  24.678  1.00  0.00    -0.027 A 
ATOM      9  C   UNL A   1      31.880  25.972  23.768  1.00  0.00     0.019 A 
ATOM     10  C   UNL A   1      32.662  24.906  25.804  1.00  0.00     0.044 A 
ATOM     11  C   UNL A   1      33.720  25.809  25.789  1.00  0.00     0.027 A 
ATOM     12  C   UNL A   1      33.788  26.861  24.881  1.00  0.00     0.016 A 
BRANCH  10  13
ATOM     13  N   UNL A   1      32.439  24.049  26.907  1.00  0.00    -0.320 N 
ATOM     14  C   UNL A   1      33.091  22.870  27.252  1.00  0.00     0.276 C 
ATOM     15  H   UNL A   1      31.720  24.327  27.519  1.00  0.00     0.170 HD
ATOM     16  O   UNL A   1      32.763  22.206  28.229  1.00  0.00    -0.267 OA
BRANCH  14  17
ATOM     17  C   UNL A   1      34.251  22.386  26.401  1.00  0.00     0.149 A 
ATOM     18  C   UNL A   1      33.887  21.440  25.325  1.00  0.00     0.042 A 
ATOM     19  N   UNL A   1      35.447  22.853  26.606  1.00  0.00    -0.164 NA
ATOM     20  C   UNL A   1      34.698  21.463  24.267  1.00  0.00     0.076 A 
ATOM     21  N   UNL A   1      36.354  22.632  25.571  1.00  0.00    -0.226 N 
ATOM     22  C   UNL A   1      35.911  22.313  24.294  1.00  0.00     0.266 A 
ATOM     23  O   UNL A   1      36.444  22.628  23.237  1.00  0.00    -0.268 OA
BRANCH  21  24
ATOM     24  C   UNL A   1      37.760  22.975  25.805  1.00  0.00     0.190 C 
BRANCH  24  25
ATOM     25  C   UNL A   1      38.638  21.714  25.919  1.00  0.00     0.253 C 
BRANCH  25  26
ATOM     26  O   UNL A   1      39.790  21.944  26.750  1.00  0.00    -0.492 OA
BRANCH  26  27
ATOM     27  C   UNL A   1      40.867  21.184  26.405  1.00  0.00     0.119 A 
ATOM     28  C   UNL A   1      40.797  19.796  26.381  1.00  0.00     0.046 A 
ATOM     29  C   UNL A   1      42.084  21.819  26.198  1.00  0.00     0.046 A 
ATOM     30  C   UNL A   1      41.933  19.056  26.034  1.00  0.00     0.004 A 
ATOM     31  C   UNL A   1      43.200  21.095  25.789  1.00  0.00     0.004 A 
ATOM     32  C   UNL A   1      43.122  19.708  25.699  1.00  0.00     0.000 A 
ENDBRANCH  26  27
ENDBRANCH  25  26
ENDBRANCH  24  25
ENDBRANCH  21  24
ENDBRANCH  14  17
ENDBRANCH  10  13
ENDBRANCH   3   6
ENDBRANCH   1   2
BRANCH   1  33
ATOM     33  C   UNL A   1      31.441  30.276  25.473  1.00  0.00     0.023 C 
BRANCH  33  34
ATOM     34  C   UNL A   1      31.705  29.343  26.653  1.00  0.00     0.023 C 
BRANCH  34  35
ATOM     35  C   UNL A   1      33.111  29.481  27.226  1.00  0.00     0.116 C 
BRANCH  35  36
ATOM     36  N   UNL A   1      33.652  30.832  27.146  1.00  0.00    -0.352 N 
ATOM     37  C   UNL A   1      34.857  31.313  27.646  1.00  0.00     0.251 C 
ATOM     38  H   UNL A   1      33.091  31.492  26.678  1.00  0.00     0.163 HD
ATOM     39  O   UNL A   1      35.094  32.501  27.723  1.00  0.00    -0.269 OA
BRANCH  37  40
ATOM     40  C   UNL A   1      35.897  30.310  27.978  1.00  0.00     0.039 A 
ATOM     41  C   UNL A   1      35.891  29.781  29.275  1.00  0.00     0.014 A 
ATOM     42  C   UNL A   1      36.995  30.145  27.144  1.00  0.00     0.014 A 
ATOM     43  C   UNL A   1      37.072  29.282  29.815  1.00  0.00     0.010 A 
ATOM     44  C   UNL A   1      38.190  29.758  27.713  1.00  0.00     0.010 A 
ATOM     45  C   UNL A   1      38.240  29.381  29.064  1.00  0.00    -0.014 A 
BRANCH  45  46
ATOM     46  C   UNL A   1      39.584  29.216  29.606  1.00  0.00     0.031 A 
ATOM     47  C   UNL A   1      40.365  28.001  29.285  1.00  0.00     0.074 A 
ATOM     48  C   UNL A   1      40.172  30.262  30.226  1.00  0.00     0.049 A 
ATOM     49  N   UNL A   1      41.491  27.676  29.823  1.00  0.00    -0.248 NA
ATOM     50  C   UNL A   1      39.882  27.003  28.338  1.00  0.00     0.031 C 
ATOM     51  C   UNL A   1      41.602  30.487  30.412  1.00  0.00     0.029 A 
ATOM     52  N   UNL A   1      39.571  31.258  30.988  1.00  0.00    -0.354 N 
ATOM     53  C   UNL A   1      42.018  26.621  29.105  1.00  0.00     0.074 A 
ATOM     54  C   UNL A   1      40.935  26.188  28.258  1.00  0.00     0.031 C 
ATOM     55  C   UNL A   1      41.780  31.396  31.383  1.00  0.00     0.029 A 
ATOM     56  C   UNL A   1      40.480  31.646  31.984  1.00  0.00     0.049 A 
ATOM     57  H   UNL A   1      38.668  31.626  30.853  1.00  0.00     0.167 HD
ATOM     58  C   UNL A   1      43.352  26.344  29.224  1.00  0.00     0.037 A 
ATOM     59  C   UNL A   1      40.204  31.425  33.306  1.00  0.00     0.037 A 
ATOM     60  C   UNL A   1      43.936  27.117  30.326  1.00  0.00     0.049 A 
ATOM     61  C   UNL A   1      41.155  30.474  33.991  1.00  0.00     0.074 A 
ATOM     62  C   UNL A   1      44.680  28.286  30.369  1.00  0.00     0.029 A 
ATOM     63  N   UNL A   1      43.517  26.873  31.633  1.00  0.00    -0.354 N 
ATOM     64  N   UNL A   1      41.945  29.650  33.358  1.00  0.00    -0.248 NA
ATOM     65  C   UNL A   1      41.293  30.374  35.441  1.00  0.00     0.031 C 
ATOM     66  C   UNL A   1      44.627  28.793  31.693  1.00  0.00     0.029 A 
ATOM     67  C   UNL A   1      43.879  27.918  32.463  1.00  0.00     0.049 A 
ATOM     68  H   UNL A   1      43.032  26.069  31.925  1.00  0.00     0.167 HD
ATOM     69  C   UNL A   1      42.649  28.902  34.261  1.00  0.00     0.074 A 
ATOM     70  C   UNL A   1      42.229  29.413  35.553  1.00  0.00     0.031 C 
ATOM     71  C   UNL A   1      43.511  27.916  33.874  1.00  0.00     0.037 A 
BRANCH  58  72
ATOM     72  C   UNL A   1      44.189  25.621  28.169  1.00  0.00     0.058 A 
ATOM     73  C   UNL A   1      44.383  26.196  26.890  1.00  0.00     0.135 A 
ATOM     74  C   UNL A   1      44.743  24.331  28.298  1.00  0.00     0.135 A 
ATOM     75  F   UNL A   1      44.014  27.457  26.625  1.00  0.00    -0.206 F 
ATOM     76  C   UNL A   1      44.960  25.508  25.814  1.00  0.00     0.059 A 
ATOM     77  C   UNL A   1      45.287  23.607  27.231  1.00  0.00     0.059 A 
ATOM     78  F   UNL A   1      44.847  23.716  29.478  1.00  0.00    -0.206 F 
ATOM     79  C   UNL A   1      45.377  24.197  25.984  1.00  0.00     0.060 A 
BRANCH  79  80
ATOM     80  S   UNL A   1      46.050  23.289  24.580  1.00  0.00     0.124 S 
ATOM     81  O   UNL A   1      47.096  24.189  24.107  1.00  0.00    -0.237 OA
ATOM     82  O   UNL A   1      46.506  22.053  25.206  1.00  0.00    -0.237 OA
ATOM     83  O   UNL A   1      44.904  23.146  23.684  1.00  0.00    -0.744 OA
ENDBRANCH  79  80
ENDBRANCH  58  72
BRANCH  59  84
ATOM     84  C   UNL A   1      38.768  31.616  33.647  1.00  0.00     0.058 A 
ATOM     85  C   UNL A   1      38.364  32.926  33.950  1.00  0.00     0.135 A 
ATOM     86  C   UNL A   1      37.786  30.717  33.206  1.00  0.00     0.135 A 
ATOM     87  F   UNL A   1      39.269  33.796  34.422  1.00  0.00    -0.206 F 
ATOM     88  C   UNL A   1      37.094  33.392  33.625  1.00  0.00     0.059 A 
ATOM     89  C   UNL A   1      36.500  31.157  32.891  1.00  0.00     0.059 A 
ATOM     90  F   UNL A   1      38.111  29.449  32.916  1.00  0.00    -0.206 F 
ATOM     91  C   UNL A   1      36.198  32.514  33.020  1.00  0.00     0.060 A 
BRANCH  91  92
ATOM     92  S   UNL A   1      34.738  33.215  32.212  1.00  0.00     0.124 S 
ATOM     93  O   UNL A   1      33.732  33.144  33.266  1.00  0.00    -0.237 OA
ATOM     94  O   UNL A   1      35.213  34.554  31.870  1.00  0.00    -0.237 OA
ATOM     95  O   UNL A   1      34.522  32.318  31.081  1.00  0.00    -0.744 OA
ENDBRANCH  91  92
ENDBRANCH  59  84
BRANCH  71  96
ATOM     96  C   UNL A   1      44.151  26.909  34.797  1.00  0.00     0.058 A 
ATOM     97  C   UNL A   1      45.357  27.132  35.483  1.00  0.00     0.135 A 
ATOM     98  C   UNL A   1      43.468  25.715  35.133  1.00  0.00     0.135 A 
ATOM     99  F   UNL A   1      46.041  28.276  35.336  1.00  0.00    -0.206 F 
ATOM    100  C   UNL A   1      45.887  26.207  36.385  1.00  0.00     0.059 A 
ATOM    101  C   UNL A   1      43.950  24.806  36.071  1.00  0.00     0.059 A 
ATOM    102  F   UNL A   1      42.294  25.399  34.564  1.00  0.00    -0.206 F 
ATOM    103  C   UNL A   1      45.177  25.047  36.673  1.00  0.00     0.060 A 
BRANCH 103 104
ATOM    104  S   UNL A   1      45.820  23.878  37.885  1.00  0.00     0.124 S 
ATOM    105  O   UNL A   1      47.229  24.255  37.932  1.00  0.00    -0.237 OA
ATOM    106  O   UNL A   1      45.045  24.191  39.083  1.00  0.00    -0.237 OA
ATOM    107  O   UNL A   1      45.530  22.582  37.282  1.00  0.00    -0.744 OA
ENDBRANCH 103 104
ENDBRANCH  71  96
ENDBRANCH  45  46
ENDBRANCH  37  40
ENDBRANCH  35  36
ENDBRANCH  34  35
ENDBRANCH  33  34
ENDBRANCH   1  33
TORSDOF 20
ENDMDL
MODEL 2
REMARK VINA RESULT:     -13.2      3.989     10.827
REMARK SMILES Cc1cc(C(=O)NCCCCNC(=O)c2ccc(-c3c4nc(c(-c5c(F)cc(S(=O)(=O)[O-])cc5F)c5ccc([nH]5)c(-c5c(F)cc(S(=O)(=O)[O-])cc5F)c5nc(c(-c6c(F)cc(S(=O)(=O)[O-])cc6F)c6ccc3[nH]6)C=C5)C=C4)cc2)ccc1NC(=O)c1ccc(=O)n(CCOc2ccccc2)n1
REMARK SMILES IDX 8 1 7 2 5 3 6 4 4 6 1 7 2 8 3 9 83 10 82 11 81 12 84 13
REMARK SMILES IDX 85 14 86 16 87 17 88 18 102 19 89 20 92 21 90 22 91 23 93 24
REMARK SMILES IDX 94 25 95 26 96 27 97 28 101 29 98 30 100 31 99 32 9 33 10 34
REMARK SMILES IDX 11 35 12 36 13 37 14 39 15 40 16 41 80 42 17 43 79 44 18 45
REMARK SMILES IDX 19 46 20 47 73 48 21 49 78 50 72 51 74 52 22 53 77 54 71 55
REMARK SMILES IDX 70 56 23 58 57 59 36 60 56 61 37 62 40 63 55 64 75 65 38 66
REMARK SMILES IDX 39 67 54 69 76 70 41 71 24 72 25 73 34 74 26 75 27 76 33 77
REMARK SMILES IDX 35 78 28 79 29 80 30 81 31 82 32 83 58 84 59 85 68 86 60 87
REMARK SMILES IDX 61 88 67 89 69 90 62 91 63 92 64 93 65 94 66 95 42 96 43 97
REMARK SMILES IDX 52 98 44 99 45 100 51 101 53 102 46 103 47 104 48 105 49 106
REMARK SMILES IDX 50 107
REMARK H PARENT 7 5 84 15 12 38 74 57 40 68
REMARK Flexibility Score: inf
ROOT
ATOM      1  C   UNL A   1      35.560  20.880  25.819  1.00  0.00     0.116 C 
ENDROOT
BRANCH   1   2
ATOM      2  N   UNL A   1      34.709  19.833  25.249  1.00  0.00    -0.352 N 
ATOM      3  C   UNL A   1      33.537  19.888  24.525  1.00  0.00     0.251 C 
ATOM      4  O   UNL A   1      33.138  18.874  23.952  1.00  0.00    -0.269 OA
ATOM      5  H   UNL A   1      35.035  18.919  25.413  1.00  0.00     0.163 HD
BRANCH   3   6
ATOM      6  C   UNL A   1      32.733  21.131  24.406  1.00  0.00     0.040 A 
ATOM      7  C   UNL A   1      30.976  23.578  26.731  1.00  0.00     0.046 C 
ATOM      8  C   UNL A   1      31.364  22.894  25.449  1.00  0.00    -0.027 A 
ATOM      9  C   UNL A   1      32.178  21.735  25.545  1.00  0.00     0.019 A 
ATOM     10  C   UNL A   1      31.048  23.390  24.176  1.00  0.00     0.044 A 
ATOM     11  C   UNL A   1      31.813  22.931  23.110  1.00  0.00     0.027 A 
ATOM     12  C   UNL A   1      32.633  21.812  23.210  1.00  0.00     0.016 A 
BRANCH  10  13
ATOM     13  N   UNL A   1      29.996  24.316  23.984  1.00  0.00    -0.320 N 
ATOM     14  C   UNL A   1      30.059  25.689  23.770  1.00  0.00     0.276 C 
ATOM     15  H   UNL A   1      29.089  23.935  24.003  1.00  0.00     0.170 HD
ATOM     16  O   UNL A   1      29.051  26.378  23.654  1.00  0.00    -0.267 OA
BRANCH  14  17
ATOM     17  C   UNL A   1      31.415  26.364  23.669  1.00  0.00     0.149 A 
ATOM     18  C   UNL A   1      31.824  26.748  22.301  1.00  0.00     0.042 A 
ATOM     19  N   UNL A   1      32.096  26.621  24.747  1.00  0.00    -0.164 NA
ATOM     20  C   UNL A   1      32.648  27.794  22.240  1.00  0.00     0.076 A 
ATOM     21  N   UNL A   1      33.130  27.542  24.588  1.00  0.00    -0.226 N 
ATOM     22  C   UNL A   1      33.159  28.396  23.494  1.00  0.00     0.266 A 
ATOM     23  O   UNL A   1      33.594  29.540  23.472  1.00  0.00    -0.268 OA
BRANCH  21  24
ATOM     24  C   UNL A   1      34.045  27.747  25.714  1.00  0.00     0.190 C 
BRANCH  24  25
ATOM     25  C   UNL A   1      33.284  28.128  26.998  1.00  0.00     0.253 C 
BRANCH  25  26
ATOM     26  O   UNL A   1      33.816  29.325  27.595  1.00  0.00    -0.492 OA
BRANCH  26  27
ATOM     27  C   UNL A   1      33.086  30.441  27.312  1.00  0.00     0.119 A 
ATOM     28  C   UNL A   1      31.924  30.374  26.552  1.00  0.00     0.046 A 
ATOM     29  C   UNL A   1      33.594  31.676  27.691  1.00  0.00     0.046 A 
ATOM     30  C   UNL A   1      31.215  31.548  26.275  1.00  0.00     0.004 A 
ATOM     31  C   UNL A   1      32.862  32.839  27.476  1.00  0.00     0.004 A 
ATOM     32  C   UNL A   1      31.663  32.774  26.772  1.00  0.00     0.000 A 
ENDBRANCH  26  27
ENDBRANCH  25  26
ENDBRANCH  24  25
ENDBRANCH  21  24
ENDBRANCH  14  17
ENDBRANCH  10  13
ENDBRANCH   3   6
ENDBRANCH   1   2
BRANCH   1  33
ATOM     33  C   UNL A   1      36.300  21.728  24.770  1.00  0.00     0.023 C 
BRANCH  33  34
ATOM     34  C   UNL A   1      37.799  21.917  25.002  1.00  0.00     0.023 C 
BRANCH  34  35
ATOM     35  C   UNL A   1      38.118  23.036  25.987  1.00  0.00     0.116 C 
BRANCH  35  36
ATOM     36  N   UNL A   1      39.251  22.752  26.858  1.00  0.00    -0.352 N 
ATOM     37  C   UNL A   1      40.069  23.650  27.534  1.00  0.00     0.251 C 
ATOM     38  H   UNL A   1      39.467  21.800  26.984  1.00  0.00     0.163 HD
ATOM     39  O   UNL A   1      41.118  23.309  28.040  1.00  0.00    -0.269 OA
BRANCH  37  40
ATOM     40  C   UNL A   1      39.553  25.028  27.715  1.00  0.00     0.039 A 
ATOM     41  C   UNL A   1      39.973  25.998  26.796  1.00  0.00     0.014 A 
ATOM     42  C   UNL A   1      38.941  25.390  28.907  1.00  0.00     0.014 A 
ATOM     43  C   UNL A   1      39.983  27.337  27.174  1.00  0.00     0.010 A 
ATOM     44  C   UNL A   1      39.056  26.699  29.325  1.00  0.00     0.010 A 
ATOM     45  C   UNL A   1      39.629  27.662  28.480  1.00  0.00    -0.014 A 
BRANCH  45  46
ATOM     46  C   UNL A   1      39.905  28.948  29.113  1.00  0.00     0.031 A 
ATOM     47  C   UNL A   1      38.913  30.042  29.021  1.00  0.00     0.074 A 
ATOM     48  C   UNL A   1      40.966  29.055  29.941  1.00  0.00     0.049 A 
ATOM     49  N   UNL A   1      39.109  31.258  29.404  1.00  0.00    -0.248 NA
ATOM     50  C   UNL A   1      37.602  29.845  28.415  1.00  0.00     0.031 C 
ATOM     51  C   UNL A   1      41.160  30.035  31.005  1.00  0.00     0.029 A 
ATOM     52  N   UNL A   1      42.189  28.398  29.861  1.00  0.00    -0.354 N 
ATOM     53  C   UNL A   1      37.894  31.914  29.380  1.00  0.00     0.074 A 
ATOM     54  C   UNL A   1      37.017  31.016  28.671  1.00  0.00     0.031 C 
ATOM     55  C   UNL A   1      42.460  30.073  31.334  1.00  0.00     0.029 A 
ATOM     56  C   UNL A   1      43.175  29.259  30.366  1.00  0.00     0.049 A 
ATOM     57  H   UNL A   1      42.337  27.489  29.510  1.00  0.00     0.167 HD
ATOM     58  C   UNL A   1      37.758  33.074  30.091  1.00  0.00     0.037 A 
ATOM     59  C   UNL A   1      44.162  29.744  29.553  1.00  0.00     0.037 A 
ATOM     60  C   UNL A   1      39.066  33.534  30.571  1.00  0.00     0.049 A 
ATOM     61  C   UNL A   1      44.141  31.243  29.373  1.00  0.00     0.074 A 
ATOM     62  C   UNL A   1      39.709  33.440  31.795  1.00  0.00     0.029 A 
ATOM     63  N   UNL A   1      40.036  33.924  29.650  1.00  0.00    -0.354 N 
ATOM     64  N   UNL A   1      43.109  31.995  29.643  1.00  0.00    -0.248 NA
ATOM     65  C   UNL A   1      45.276  32.014  28.875  1.00  0.00     0.031 C 
ATOM     66  C   UNL A   1      41.091  33.684  31.587  1.00  0.00     0.029 A 
ATOM     67  C   UNL A   1      41.285  33.959  30.243  1.00  0.00     0.049 A 
ATOM     68  H   UNL A   1      39.858  34.144  28.708  1.00  0.00     0.167 HD
ATOM     69  C   UNL A   1      43.397  33.298  29.338  1.00  0.00     0.074 A 
ATOM     70  C   UNL A   1      44.776  33.263  28.888  1.00  0.00     0.031 C 
ATOM     71  C   UNL A   1      42.473  34.296  29.469  1.00  0.00     0.037 A 
BRANCH  58  72
ATOM     72  C   UNL A   1      36.431  33.625  30.612  1.00  0.00     0.058 A 
ATOM     73  C   UNL A   1      35.507  34.228  29.725  1.00  0.00     0.135 A 
ATOM     74  C   UNL A   1      36.039  33.691  31.965  1.00  0.00     0.135 A 
ATOM     75  F   UNL A   1      35.668  34.165  28.396  1.00  0.00    -0.206 F 
ATOM     76  C   UNL A   1      34.373  34.932  30.152  1.00  0.00     0.059 A 
ATOM     77  C   UNL A   1      34.936  34.421  32.421  1.00  0.00     0.059 A 
ATOM     78  F   UNL A   1      36.666  33.003  32.921  1.00  0.00    -0.206 F 
ATOM     79  C   UNL A   1      34.115  35.056  31.508  1.00  0.00     0.060 A 
BRANCH  79  80
ATOM     80  S   UNL A   1      32.698  36.024  32.059  1.00  0.00     0.124 S 
ATOM     81  O   UNL A   1      31.767  34.987  32.489  1.00  0.00    -0.237 OA
ATOM     82  O   UNL A   1      33.279  36.840  33.119  1.00  0.00    -0.237 OA
ATOM     83  O   UNL A   1      32.298  36.757  30.859  1.00  0.00    -0.744 OA
ENDBRANCH  79  80
ENDBRANCH  58  72
BRANCH  59  84
ATOM     84  C   UNL A   1      44.637  28.754  28.548  1.00  0.00     0.058 A 
ATOM     85  C   UNL A   1      44.232  28.965  27.220  1.00  0.00     0.135 A 
ATOM     86  C   UNL A   1      45.796  27.995  28.762  1.00  0.00     0.135 A 
ATOM     87  F   UNL A   1      43.100  29.645  26.983  1.00  0.00    -0.206 F 
ATOM     88  C   UNL A   1      45.048  28.629  26.145  1.00  0.00     0.059 A 
ATOM     89  C   UNL A   1      46.622  27.629  27.698  1.00  0.00     0.059 A 
ATOM     90  F   UNL A   1      46.223  27.749  30.009  1.00  0.00    -0.206 F 
ATOM     91  C   UNL A   1      46.279  28.033  26.406  1.00  0.00     0.060 A 
BRANCH  91  92
ATOM     92  S   UNL A   1      47.506  27.999  25.075  1.00  0.00     0.124 S 
ATOM     93  O   UNL A   1      46.761  28.551  23.949  1.00  0.00    -0.237 OA
ATOM     94  O   UNL A   1      48.554  28.854  25.628  1.00  0.00    -0.237 OA
ATOM     95  O   UNL A   1      47.842  26.583  24.969  1.00  0.00    -0.744 OA
ENDBRANCH  91  92
ENDBRANCH  59  84
BRANCH  71  96
ATOM     96  C   UNL A   1      42.636  35.703  28.950  1.00  0.00     0.058 A 
ATOM     97  C   UNL A   1      42.044  36.173  27.765  1.00  0.00     0.135 A 
ATOM     98  C   UNL A   1      43.297  36.680  29.733  1.00  0.00     0.135 A 
ATOM     99  F   UNL A   1      41.296  35.372  26.994  1.00  0.00    -0.206 F 
ATOM    100  C   UNL A   1      42.156  37.501  27.349  1.00  0.00     0.059 A 
ATOM    101  C   UNL A   1      43.374  38.020  29.364  1.00  0.00     0.059 A 
ATOM    102  F   UNL A   1      43.884  36.361  30.897  1.00  0.00    -0.206 F 
ATOM    103  C   UNL A   1      42.823  38.418  28.154  1.00  0.00     0.060 A 
BRANCH 103 104
ATOM    104  S   UNL A   1      42.918  40.148  27.657  1.00  0.00     0.124 S 
ATOM    105  O   UNL A   1      43.600  40.044  26.372  1.00  0.00    -0.237 OA
ATOM    106  O   UNL A   1      41.514  40.547  27.595  1.00  0.00    -0.237 OA
ATOM    107  O   UNL A   1      43.687  40.760  28.735  1.00  0.00    -0.744 OA
ENDBRANCH 103 104
ENDBRANCH  71  96
ENDBRANCH  45  46
ENDBRANCH  37  40
ENDBRANCH  35  36
ENDBRANCH  34  35
ENDBRANCH  33  34
ENDBRANCH   1  33
TORSDOF 20
ENDMDL
MODEL 3
REMARK VINA RESULT:     -13.0      3.824     10.611
REMARK SMILES Cc1cc(C(=O)NCCCCNC(=O)c2ccc(-c3c4nc(c(-c5c(F)cc(S(=O)(=O)[O-])cc5F)c5ccc([nH]5)c(-c5c(F)cc(S(=O)(=O)[O-])cc5F)c5nc(c(-c6c(F)cc(S(=O)(=O)[O-])cc6F)c6ccc3[nH]6)C=C5)C=C4)cc2)ccc1NC(=O)c1ccc(=O)n(CCOc2ccccc2)n1
REMARK SMILES IDX 8 1 7 2 5 3 6 4 4 6 1 7 2 8 3 9 83 10 82 11 81 12 84 13
REMARK SMILES IDX 85 14 86 16 87 17 88 18 102 19 89 20 92 21 90 22 91 23 93 24
REMARK SMILES IDX 94 25 95 26 96 27 97 28 101 29 98 30 100 31 99 32 9 33 10 34
REMARK SMILES IDX 11 35 12 36 13 37 14 39 15 40 16 41 80 42 17 43 79 44 18 45
REMARK SMILES IDX 19 46 20 47 73 48 21 49 78 50 72 51 74 52 22 53 77 54 71 55
REMARK SMILES IDX 70 56 23 58 57 59 36 60 56 61 37 62 40 63 55 64 75 65 38 66
REMARK SMILES IDX 39 67 54 69 76 70 41 71 24 72 25 73 34 74 26 75 27 76 33 77
REMARK SMILES IDX 35 78 28 79 29 80 30 81 31 82 32 83 58 84 59 85 68 86 60 87
REMARK SMILES IDX 61 88 67 89 69 90 62 91 63 92 64 93 65 94 66 95 42 96 43 97
REMARK SMILES IDX 52 98 44 99 45 100 51 101 53 102 46 103 47 104 48 105 49 106
REMARK SMILES IDX 50 107
REMARK H PARENT 7 5 84 15 12 38 74 57 40 68
REMARK Flexibility Score: inf
ROOT
ATOM      1  C   UNL A   1      35.140  20.830  25.734  1.00  0.00     0.116 C 
ENDROOT
BRANCH   1   2
ATOM      2  N   UNL A   1      34.053  19.872  25.525  1.00  0.00    -0.352 N 
ATOM      3  C   UNL A   1      32.803  20.002  24.959  1.00  0.00     0.251 C 
ATOM      4  O   UNL A   1      32.160  18.989  24.683  1.00  0.00    -0.269 OA
ATOM      5  H   UNL A   1      34.252  18.963  25.849  1.00  0.00     0.163 HD
BRANCH   3   6
ATOM      6  C   UNL A   1      32.197  21.326  24.663  1.00  0.00     0.040 A 
ATOM      7  C   UNL A   1      30.880  24.315  26.616  1.00  0.00     0.046 C 
ATOM      8  C   UNL A   1      31.134  23.407  25.444  1.00  0.00    -0.027 A 
ATOM      9  C   UNL A   1      31.763  22.161  25.705  1.00  0.00     0.019 A 
ATOM     10  C   UNL A   1      30.875  23.764  24.113  1.00  0.00     0.044 A 
ATOM     11  C   UNL A   1      31.542  23.048  23.124  1.00  0.00     0.027 A 
ATOM     12  C   UNL A   1      32.182  21.840  23.383  1.00  0.00     0.016 A 
BRANCH  10  13
ATOM     13  N   UNL A   1      29.975  24.806  23.788  1.00  0.00    -0.320 N 
ATOM     14  C   UNL A   1      30.230  26.157  23.580  1.00  0.00     0.276 C 
ATOM     15  H   UNL A   1      29.033  24.536  23.695  1.00  0.00     0.170 HD
ATOM     16  O   UNL A   1      29.335  26.959  23.338  1.00  0.00    -0.267 OA
BRANCH  14  17
ATOM     17  C   UNL A   1      31.659  26.663  23.647  1.00  0.00     0.149 A 
ATOM     18  C   UNL A   1      32.479  26.386  22.449  1.00  0.00     0.042 A 
ATOM     19  N   UNL A   1      32.061  27.344  24.681  1.00  0.00    -0.164 NA
ATOM     20  C   UNL A   1      33.459  27.263  22.230  1.00  0.00     0.076 A 
ATOM     21  N   UNL A   1      33.244  28.057  24.496  1.00  0.00    -0.226 N 
ATOM     22  C   UNL A   1      33.713  28.337  23.219  1.00  0.00     0.266 A 
ATOM     23  O   UNL A   1      34.330  29.336  22.872  1.00  0.00    -0.268 OA
BRANCH  21  24
ATOM     24  C   UNL A   1      33.845  28.703  25.666  1.00  0.00     0.190 C 
BRANCH  24  25
ATOM     25  C   UNL A   1      33.074  29.974  26.069  1.00  0.00     0.253 C 
BRANCH  25  26
ATOM     26  O   UNL A   1      33.217  30.258  27.473  1.00  0.00    -0.492 OA
BRANCH  26  27
ATOM     27  C   UNL A   1      33.841  31.444  27.724  1.00  0.00     0.119 A 
ATOM     28  C   UNL A   1      33.134  32.639  27.778  1.00  0.00     0.046 A 
ATOM     29  C   UNL A   1      35.228  31.457  27.798  1.00  0.00     0.046 A 
ATOM     30  C   UNL A   1      33.819  33.833  28.024  1.00  0.00     0.004 A 
ATOM     31  C   UNL A   1      35.909  32.630  28.108  1.00  0.00     0.004 A 
ATOM     32  C   UNL A   1      35.201  33.822  28.229  1.00  0.00     0.000 A 
ENDBRANCH  26  27
ENDBRANCH  25  26
ENDBRANCH  24  25
ENDBRANCH  21  24
ENDBRANCH  14  17
ENDBRANCH  10  13
ENDBRANCH   3   6
ENDBRANCH   1   2
BRANCH   1  33
ATOM     33  C   UNL A   1      36.433  20.490  24.973  1.00  0.00     0.023 C 
BRANCH  33  34
ATOM     34  C   UNL A   1      37.248  21.682  24.474  1.00  0.00     0.023 C 
BRANCH  34  35
ATOM     35  C   UNL A   1      37.739  22.587  25.598  1.00  0.00     0.116 C 
BRANCH  35  36
ATOM     36  N   UNL A   1      38.901  22.071  26.309  1.00  0.00    -0.352 N 
ATOM     37  C   UNL A   1      39.971  22.777  26.846  1.00  0.00     0.251 C 
ATOM     38  H   UNL A   1      38.933  21.094  26.425  1.00  0.00     0.163 HD
ATOM     39  O   UNL A   1      40.989  22.224  27.208  1.00  0.00    -0.269 OA
BRANCH  37  40
ATOM     40  C   UNL A   1      39.779  24.230  27.066  1.00  0.00     0.039 A 
ATOM     41  C   UNL A   1      40.368  25.104  26.145  1.00  0.00     0.014 A 
ATOM     42  C   UNL A   1      39.304  24.691  28.287  1.00  0.00     0.014 A 
ATOM     43  C   UNL A   1      40.686  26.400  26.540  1.00  0.00     0.010 A 
ATOM     44  C   UNL A   1      39.720  25.933  28.717  1.00  0.00     0.010 A 
ATOM     45  C   UNL A   1      40.460  26.766  27.864  1.00  0.00    -0.014 A 
BRANCH  45  46
ATOM     46  C   UNL A   1      41.035  27.945  28.502  1.00  0.00     0.031 A 
ATOM     47  C   UNL A   1      40.179  29.116  28.793  1.00  0.00     0.074 A 
ATOM     48  C   UNL A   1      42.288  27.874  29.000  1.00  0.00     0.049 A 
ATOM     49  N   UNL A   1      40.601  30.261  29.211  1.00  0.00    -0.248 NA
ATOM     50  C   UNL A   1      38.738  29.092  28.571  1.00  0.00     0.031 C 
ATOM     51  C   UNL A   1      42.871  28.707  30.046  1.00  0.00     0.029 A 
ATOM     52  N   UNL A   1      43.364  27.137  28.517  1.00  0.00    -0.354 N 
ATOM     53  C   UNL A   1      39.504  31.008  29.591  1.00  0.00     0.074 A 
ATOM     54  C   UNL A   1      38.375  30.268  29.085  1.00  0.00     0.031 C 
ATOM     55  C   UNL A   1      44.207  28.607  29.994  1.00  0.00     0.029 A 
ATOM     56  C   UNL A   1      44.537  27.855  28.795  1.00  0.00     0.049 A 
ATOM     57  H   UNL A   1      43.312  26.266  28.061  1.00  0.00     0.167 HD
ATOM     58  C   UNL A   1      39.693  32.085  30.411  1.00  0.00     0.037 A 
ATOM     59  C   UNL A   1      45.308  28.353  27.780  1.00  0.00     0.037 A 
ATOM     60  C   UNL A   1      41.124  32.385  30.537  1.00  0.00     0.049 A 
ATOM     61  C   UNL A   1      45.398  29.860  27.746  1.00  0.00     0.074 A 
ATOM     62  C   UNL A   1      42.065  32.102  31.514  1.00  0.00     0.029 A 
ATOM     63  N   UNL A   1      41.839  32.801  29.416  1.00  0.00    -0.354 N 
ATOM     64  N   UNL A   1      44.567  30.654  28.364  1.00  0.00    -0.248 NA
ATOM     65  C   UNL A   1      46.428  30.592  27.015  1.00  0.00     0.031 C 
ATOM     66  C   UNL A   1      43.354  32.260  30.943  1.00  0.00     0.029 A 
ATOM     67  C   UNL A   1      43.199  32.671  29.629  1.00  0.00     0.049 A 
ATOM     68  H   UNL A   1      41.433  33.141  28.587  1.00  0.00     0.167 HD
ATOM     69  C   UNL A   1      44.897  31.956  28.106  1.00  0.00     0.074 A 
ATOM     70  C   UNL A   1      46.087  31.866  27.281  1.00  0.00     0.031 C 
ATOM     71  C   UNL A   1      44.157  33.002  28.581  1.00  0.00     0.037 A 
BRANCH  58  72
ATOM     72  C   UNL A   1      38.627  32.675  31.335  1.00  0.00     0.058 A 
ATOM     73  C   UNL A   1      38.029  31.878  32.341  1.00  0.00     0.135 A 
ATOM     74  C   UNL A   1      38.071  33.967  31.234  1.00  0.00     0.135 A 
ATOM     75  F   UNL A   1      38.502  30.661  32.643  1.00  0.00    -0.206 F 
ATOM     76  C   UNL A   1      36.912  32.282  33.083  1.00  0.00     0.059 A 
ATOM     77  C   UNL A   1      36.933  34.381  31.934  1.00  0.00     0.059 A 
ATOM     78  F   UNL A   1      38.633  34.927  30.498  1.00  0.00    -0.206 F 
ATOM     79  C   UNL A   1      36.345  33.525  32.847  1.00  0.00     0.060 A 
BRANCH  79  80
ATOM     80  S   UNL A   1      34.865  34.013  33.751  1.00  0.00     0.124 S 
ATOM     81  O   UNL A   1      34.726  35.416  33.376  1.00  0.00    -0.237 OA
ATOM     82  O   UNL A   1      33.861  33.105  33.208  1.00  0.00    -0.237 OA
ATOM     83  O   UNL A   1      35.225  33.779  35.148  1.00  0.00    -0.744 OA
ENDBRANCH  79  80
ENDBRANCH  58  72
BRANCH  59  84
ATOM     84  C   UNL A   1      45.380  27.451  26.598  1.00  0.00     0.058 A 
ATOM     85  C   UNL A   1      46.340  26.426  26.649  1.00  0.00     0.135 A 
ATOM     86  C   UNL A   1      44.281  27.271  25.748  1.00  0.00     0.135 A 
ATOM     87  F   UNL A   1      47.429  26.589  27.415  1.00  0.00    -0.206 F 
ATOM     88  C   UNL A   1      46.117  25.188  26.057  1.00  0.00     0.059 A 
ATOM     89  C   UNL A   1      44.046  26.043  25.127  1.00  0.00     0.059 A 
ATOM     90  F   UNL A   1      43.340  28.222  25.647  1.00  0.00    -0.206 F 
ATOM     91  C   UNL A   1      44.926  24.985  25.366  1.00  0.00     0.060 A 
BRANCH  91  92
ATOM     92  S   UNL A   1      44.445  23.283  24.982  1.00  0.00     0.124 S 
ATOM     93  O   UNL A   1      42.991  23.375  24.917  1.00  0.00    -0.237 OA
ATOM     94  O   UNL A   1      45.130  23.071  23.709  1.00  0.00    -0.237 OA
ATOM     95  O   UNL A   1      44.973  22.526  26.112  1.00  0.00    -0.744 OA
ENDBRANCH  91  92
ENDBRANCH  59  84
BRANCH  71  96
ATOM     96  C   UNL A   1      44.320  34.442  28.164  1.00  0.00     0.058 A 
ATOM     97  C   UNL A   1      43.732  34.994  27.012  1.00  0.00     0.135 A 
ATOM     98  C   UNL A   1      44.976  35.362  29.017  1.00  0.00     0.135 A 
ATOM     99  F   UNL A   1      42.989  34.247  26.183  1.00  0.00    -0.206 F 
ATOM    100  C   UNL A   1      43.844  36.348  26.691  1.00  0.00     0.059 A 
ATOM    101  C   UNL A   1      45.052  36.725  28.744  1.00  0.00     0.059 A 
ATOM    102  F   UNL A   1      45.557  34.963  30.158  1.00  0.00    -0.206 F 
ATOM    103  C   UNL A   1      44.506  37.207  27.562  1.00  0.00     0.060 A 
BRANCH 103 104
ATOM    104  S   UNL A   1      44.600  38.967  27.189  1.00  0.00     0.124 S 
ATOM    105  O   UNL A   1      43.309  39.197  26.549  1.00  0.00    -0.237 OA
ATOM    106  O   UNL A   1      44.766  39.572  28.508  1.00  0.00    -0.237 OA
ATOM    107  O   UNL A   1      45.766  39.058  26.316  1.00  0.00    -0.744 OA
ENDBRANCH 103 104
ENDBRANCH  71  96
ENDBRANCH  45  46
ENDBRANCH  37  40
ENDBRANCH  35  36
ENDBRANCH  34  35
ENDBRANCH  33  34
ENDBRANCH   1  33
TORSDOF 20
ENDMDL
